MODEL 1
REMARK VINA RESULT:    -5.961      0.000      0.000
REMARK INTER + INTRA:          -6.136
REMARK INTER:                  -6.136
REMARK INTRA:                   0.000
REMARK UNBOUND:                 0.000
REMARK SMILES Nc1ncnc2nc[nH]c12
REMARK SMILES IDX 8 1 7 2 6 3 5 4 4 5 3 6 2 7 10 8 9 9 1 11
REMARK H PARENT 9 10 1 12 1 13
REMARK Flexibility Score: inf
ROOT
ATOM      1  C   UNL     1     -10.896  14.947 -12.647  1.00  0.00     0.199 A 
ATOM      2  N   UNL     1     -11.368  13.766 -12.163  1.00  0.00    -0.217 NA
ATOM      3  C   UNL     1     -12.094  13.304 -13.195  1.00  0.00     0.182 A 
ATOM      4  N   UNL     1     -12.788  12.142 -13.239  1.00  0.00    -0.215 NA
ATOM      5  C   UNL     1     -13.470  11.841 -14.385  1.00  0.00     0.226 A 
ATOM      6  N   UNL     1     -13.446  12.698 -15.456  1.00  0.00    -0.217 NA
ATOM      7  C   UNL     1     -12.747  13.872 -15.414  1.00  0.00     0.152 A 
ATOM      8  C   UNL     1     -12.057  14.163 -14.240  1.00  0.00     0.127 A 
ATOM      9  N   UNL     1     -11.299  15.219 -13.914  1.00  0.00    -0.340 N 
ATOM     10  H   UNL     1     -11.066  16.058 -14.490  1.00  0.00     0.168 HD
ENDROOT
BRANCH   7  11
ATOM     11  N   UNL     1     -12.735  14.748 -16.540  1.00  0.00    -0.382 N 
ATOM     12  H   UNL     1     -11.905  15.342 -16.760  1.00  0.00     0.158 HD
ATOM     13  H   UNL     1     -13.570  14.806 -17.165  1.00  0.00     0.158 HD
ENDBRANCH   7  11
TORSDOF 1
ENDMDL
MODEL 2
REMARK VINA RESULT:    -5.659      1.125      3.046
REMARK INTER + INTRA:          -5.825
REMARK INTER:                  -5.825
REMARK INTRA:                   0.000
REMARK UNBOUND:                 0.000
REMARK SMILES Nc1ncnc2nc[nH]c12
REMARK SMILES IDX 8 1 7 2 6 3 5 4 4 5 3 6 2 7 10 8 9 9 1 11
REMARK H PARENT 9 10 1 12 1 13
REMARK Flexibility Score: inf
ROOT
ATOM      1  C   UNL     1     -13.238  12.815 -15.208  1.00  0.00     0.199 A 
ATOM      2  N   UNL     1     -13.097  12.125 -14.043  1.00  0.00    -0.217 NA
ATOM      3  C   UNL     1     -12.356  12.965 -13.301  1.00  0.00     0.182 A 
ATOM      4  N   UNL     1     -11.926  12.759 -12.034  1.00  0.00    -0.215 NA
ATOM      5  C   UNL     1     -11.178  13.737 -11.439  1.00  0.00     0.226 A 
ATOM      6  N   UNL     1     -10.877  14.892 -12.116  1.00  0.00    -0.217 NA
ATOM      7  C   UNL     1     -11.310  15.102 -13.395  1.00  0.00     0.152 A 
ATOM      8  C   UNL     1     -12.070  14.097 -13.986  1.00  0.00     0.127 A 
ATOM      9  N   UNL     1     -12.622  14.024 -15.204  1.00  0.00    -0.340 N 
ATOM     10  H   UNL     1     -12.592  14.725 -15.977  1.00  0.00     0.168 HD
ENDROOT
BRANCH   7  11
ATOM     11  N   UNL     1     -10.984  16.312 -14.080  1.00  0.00    -0.382 N 
ATOM     12  H   UNL     1     -10.755  17.187 -13.559  1.00  0.00     0.158 HD
ATOM     13  H   UNL     1     -10.974  16.335 -15.123  1.00  0.00     0.158 HD
ENDBRANCH   7  11
TORSDOF 1
ENDMDL
MODEL 3
REMARK VINA RESULT:    -5.099     14.634     15.032
REMARK INTER + INTRA:          -5.248
REMARK INTER:                  -5.248
REMARK INTRA:                   0.000
REMARK UNBOUND:                 0.000
REMARK SMILES Nc1ncnc2nc[nH]c12
REMARK SMILES IDX 8 1 7 2 6 3 5 4 4 5 3 6 2 7 10 8 9 9 1 11
REMARK H PARENT 9 10 1 12 1 13
REMARK Flexibility Score: inf
ROOT
ATOM      1  C   UNL     1       0.448   2.687 -16.383  1.00  0.00     0.199 A 
ATOM      2  N   UNL     1      -0.125   2.013 -15.349  1.00  0.00    -0.217 NA
ATOM      3  C   UNL     1      -1.391   2.462 -15.381  1.00  0.00     0.182 A 
ATOM      4  N   UNL     1      -2.398   2.103 -14.550  1.00  0.00    -0.215 NA
ATOM      5  C   UNL     1      -3.627   2.672 -14.741  1.00  0.00     0.226 A 
ATOM      6  N   UNL     1      -3.824   3.581 -15.749  1.00  0.00    -0.217 NA
ATOM      7  C   UNL     1      -2.809   3.945 -16.589  1.00  0.00     0.152 A 
ATOM      8  C   UNL     1      -1.565   3.356 -16.381  1.00  0.00     0.127 A 
ATOM      9  N   UNL     1      -0.407   3.516 -17.035  1.00  0.00    -0.340 N 
ATOM     10  H   UNL     1      -0.197   4.130 -17.852  1.00  0.00     0.168 HD
ENDROOT
BRANCH   7  11
ATOM     11  N   UNL     1      -3.039   4.893 -17.631  1.00  0.00    -0.382 N 
ATOM     12  H   UNL     1      -2.656   4.748 -18.592  1.00  0.00     0.158 HD
ATOM     13  H   UNL     1      -3.598   5.753 -17.441  1.00  0.00     0.158 HD
ENDBRANCH   7  11
TORSDOF 1
ENDMDL
MODEL 4
REMARK VINA RESULT:    -5.090      1.364      3.158
REMARK INTER + INTRA:          -5.238
REMARK INTER:                  -5.238
REMARK INTRA:                   0.000
REMARK UNBOUND:                 0.000
REMARK SMILES Nc1ncnc2nc[nH]c12
REMARK SMILES IDX 8 1 7 2 6 3 5 4 4 5 3 6 2 7 10 8 9 9 1 11
REMARK H PARENT 9 10 1 12 1 13
REMARK Flexibility Score: inf
ROOT
ATOM      1  C   UNL     1     -14.105  11.400 -12.917  1.00  0.00     0.199 A 
ATOM      2  N   UNL     1     -13.394  11.480 -11.760  1.00  0.00    -0.217 NA
ATOM      3  C   UNL     1     -12.542  12.486 -12.018  1.00  0.00     0.182 A 
ATOM      4  N   UNL     1     -11.597  12.980 -11.182  1.00  0.00    -0.215 NA
ATOM      5  C   UNL     1     -10.820  14.015 -11.625  1.00  0.00     0.226 A 
ATOM      6  N   UNL     1     -10.999  14.530 -12.884  1.00  0.00    -0.217 NA
ATOM      7  C   UNL     1     -11.951  14.033 -13.729  1.00  0.00     0.152 A 
ATOM      8  C   UNL     1     -12.734  12.981 -13.262  1.00  0.00     0.127 A 
ATOM      9  N   UNL     1     -13.726  12.304 -13.856  1.00  0.00    -0.340 N 
ATOM     10  H   UNL     1     -14.123  12.432 -14.812  1.00  0.00     0.168 HD
ENDROOT
BRANCH   7  11
ATOM     11  N   UNL     1     -12.119  14.586 -15.034  1.00  0.00    -0.382 N 
ATOM     12  H   UNL     1     -12.876  15.276 -15.240  1.00  0.00     0.158 HD
ATOM     13  H   UNL     1     -11.479  14.302 -15.809  1.00  0.00     0.158 HD
ENDBRANCH   7  11
TORSDOF 1
ENDMDL
MODEL 5
REMARK VINA RESULT:    -5.045     16.151     17.217
REMARK INTER + INTRA:          -5.192
REMARK INTER:                  -5.192
REMARK INTRA:                   0.000
REMARK UNBOUND:                 0.000
REMARK SMILES Nc1ncnc2nc[nH]c12
REMARK SMILES IDX 8 1 7 2 6 3 5 4 4 5 3 6 2 7 10 8 9 9 1 11
REMARK H PARENT 9 10 1 12 1 13
REMARK Flexibility Score: inf
ROOT
ATOM      1  C   UNL     1       2.041   2.889  -9.003  1.00  0.00     0.199 A 
ATOM      2  N   UNL     1       1.117   3.158  -9.966  1.00  0.00    -0.217 NA
ATOM      3  C   UNL     1       0.002   3.359  -9.243  1.00  0.00     0.182 A 
ATOM      4  N   UNL     1      -1.227   3.663  -9.722  1.00  0.00    -0.215 NA
ATOM      5  C   UNL     1      -2.246   3.832  -8.825  1.00  0.00     0.226 A 
ATOM      6  N   UNL     1      -2.019   3.693  -7.479  1.00  0.00    -0.217 NA
ATOM      7  C   UNL     1      -0.779   3.384  -6.994  1.00  0.00     0.152 A 
ATOM      8  C   UNL     1       0.247   3.217  -7.920  1.00  0.00     0.127 A 
ATOM      9  N   UNL     1       1.541   2.918  -7.742  1.00  0.00    -0.340 N 
ATOM     10  H   UNL     1       2.054   2.745  -6.850  1.00  0.00     0.168 HD
ENDROOT
BRANCH   7  11
ATOM     11  N   UNL     1      -0.566   3.245  -5.589  1.00  0.00    -0.382 N 
ATOM     12  H   UNL     1       0.320   3.565  -5.139  1.00  0.00     0.158 HD
ATOM     13  H   UNL     1      -1.304   2.815  -4.989  1.00  0.00     0.158 HD
ENDBRANCH   7  11
TORSDOF 1
ENDMDL
MODEL 6
REMARK VINA RESULT:    -5.043      1.897      4.302
REMARK INTER + INTRA:          -5.190
REMARK INTER:                  -5.190
REMARK INTRA:                   0.000
REMARK UNBOUND:                 0.000
REMARK SMILES Nc1ncnc2nc[nH]c12
REMARK SMILES IDX 8 1 7 2 6 3 5 4 4 5 3 6 2 7 10 8 9 9 1 11
REMARK H PARENT 9 10 1 12 1 13
REMARK Flexibility Score: inf
ROOT
ATOM      1  C   UNL     1     -13.603  11.351 -12.048  1.00  0.00     0.199 A 
ATOM      2  N   UNL     1     -13.440  12.106 -13.169  1.00  0.00    -0.217 NA
ATOM      3  C   UNL     1     -12.462  12.951 -12.805  1.00  0.00     0.182 A 
ATOM      4  N   UNL     1     -11.912  13.928 -13.565  1.00  0.00    -0.215 NA
ATOM      5  C   UNL     1     -10.919  14.692 -13.017  1.00  0.00     0.226 A 
ATOM      6  N   UNL     1     -10.497  14.467 -11.731  1.00  0.00    -0.217 NA
ATOM      7  C   UNL     1     -11.050  13.482 -10.961  1.00  0.00     0.152 A 
ATOM      8  C   UNL     1     -12.060  12.714 -11.535  1.00  0.00     0.127 A 
ATOM      9  N   UNL     1     -12.773  11.698 -11.031  1.00  0.00    -0.340 N 
ATOM     10  H   UNL     1     -12.715  11.265 -10.083  1.00  0.00     0.168 HD
ENDROOT
BRANCH   7  11
ATOM     11  N   UNL     1     -10.595  13.266  -9.626  1.00  0.00    -0.382 N 
ATOM     12  H   UNL     1      -9.883  13.891  -9.185  1.00  0.00     0.158 HD
ATOM     13  H   UNL     1     -10.974  12.469  -9.067  1.00  0.00     0.158 HD
ENDBRANCH   7  11
TORSDOF 1
ENDMDL
MODEL 7
REMARK VINA RESULT:    -4.992     14.338     14.936
REMARK INTER + INTRA:          -5.138
REMARK INTER:                  -5.138
REMARK INTRA:                   0.000
REMARK UNBOUND:                 0.000
REMARK SMILES Nc1ncnc2nc[nH]c12
REMARK SMILES IDX 8 1 7 2 6 3 5 4 4 5 3 6 2 7 10 8 9 9 1 11
REMARK H PARENT 9 10 1 12 1 13
REMARK Flexibility Score: inf
ROOT
ATOM      1  C   UNL     1      -3.970   4.250 -17.130  1.00  0.00     0.199 A 
ATOM      2  N   UNL     1      -4.411   3.260 -16.307  1.00  0.00    -0.217 NA
ATOM      3  C   UNL     1      -3.266   2.798 -15.778  1.00  0.00     0.182 A 
ATOM      4  N   UNL     1      -3.137   1.792 -14.880  1.00  0.00    -0.215 NA
ATOM      5  C   UNL     1      -1.880   1.463 -14.454  1.00  0.00     0.226 A 
ATOM      6  N   UNL     1      -0.785   2.139 -14.929  1.00  0.00    -0.217 NA
ATOM      7  C   UNL     1      -0.911   3.154 -15.835  1.00  0.00     0.152 A 
ATOM      8  C   UNL     1      -2.198   3.477 -16.258  1.00  0.00     0.127 A 
ATOM      9  N   UNL     1      -2.622   4.408 -17.122  1.00  0.00    -0.340 N 
ATOM     10  H   UNL     1      -2.060   5.098 -17.667  1.00  0.00     0.168 HD
ENDROOT
BRANCH   7  11
ATOM     11  N   UNL     1       0.243   3.843 -16.315  1.00  0.00    -0.382 N 
ATOM     12  H   UNL     1       0.259   4.884 -16.399  1.00  0.00     0.158 HD
ATOM     13  H   UNL     1       1.094   3.306 -16.592  1.00  0.00     0.158 HD
ENDBRANCH   7  11
TORSDOF 1
ENDMDL
MODEL 8
REMARK VINA RESULT:    -4.912      1.511      2.976
REMARK INTER + INTRA:          -5.056
REMARK INTER:                  -5.056
REMARK INTRA:                   0.000
REMARK UNBOUND:                 0.000
REMARK SMILES Nc1ncnc2nc[nH]c12
REMARK SMILES IDX 8 1 7 2 6 3 5 4 4 5 3 6 2 7 10 8 9 9 1 11
REMARK H PARENT 9 10 1 12 1 13
REMARK Flexibility Score: inf
ROOT
ATOM      1  C   UNL     1     -10.764  13.633 -10.845  1.00  0.00     0.199 A 
ATOM      2  N   UNL     1     -10.746  14.347 -12.003  1.00  0.00    -0.217 NA
ATOM      3  C   UNL     1     -11.666  13.709 -12.746  1.00  0.00     0.182 A 
ATOM      4  N   UNL     1     -12.043  14.020 -14.009  1.00  0.00    -0.215 NA
ATOM      5  C   UNL     1     -13.003  13.249 -14.605  1.00  0.00     0.226 A 
ATOM      6  N   UNL     1     -13.562  12.191 -13.934  1.00  0.00    -0.217 NA
ATOM      7  C   UNL     1     -13.182  11.874 -12.660  1.00  0.00     0.152 A 
ATOM      8  C   UNL     1     -12.205  12.669 -12.068  1.00  0.00     0.127 A 
ATOM      9  N   UNL     1     -11.646  12.601 -10.852  1.00  0.00    -0.340 N 
ATOM     10  H   UNL     1     -11.834  11.920 -10.084  1.00  0.00     0.168 HD
ENDROOT
BRANCH   7  11
ATOM     11  N   UNL     1     -13.778  10.768 -11.981  1.00  0.00    -0.382 N 
ATOM     12  H   UNL     1     -13.583  10.579 -10.973  1.00  0.00     0.158 HD
ATOM     13  H   UNL     1     -14.424  10.128 -12.494  1.00  0.00     0.158 HD
ENDBRANCH   7  11
TORSDOF 1
ENDMDL
MODEL 9
REMARK VINA RESULT:    -4.877     15.370     16.412
REMARK INTER + INTRA:          -5.020
REMARK INTER:                  -5.020
REMARK INTRA:                   0.000
REMARK UNBOUND:                 0.000
REMARK SMILES Nc1ncnc2nc[nH]c12
REMARK SMILES IDX 8 1 7 2 6 3 5 4 4 5 3 6 2 7 10 8 9 9 1 11
REMARK H PARENT 9 10 1 12 1 13
REMARK Flexibility Score: inf
ROOT
ATOM      1  C   UNL     1      -3.331   4.439  -9.174  1.00  0.00     0.199 A 
ATOM      2  N   UNL     1      -3.417   3.191  -9.711  1.00  0.00    -0.217 NA
ATOM      3  C   UNL     1      -2.317   2.594  -9.223  1.00  0.00     0.182 A 
ATOM      4  N   UNL     1      -1.918   1.320  -9.453  1.00  0.00    -0.215 NA
ATOM      5  C   UNL     1      -0.763   0.888  -8.864  1.00  0.00     0.226 A 
ATOM      6  N   UNL     1      -0.033   1.730  -8.063  1.00  0.00    -0.217 NA
ATOM      7  C   UNL     1      -0.432   3.016  -7.829  1.00  0.00     0.152 A 
ATOM      8  C   UNL     1      -1.612   3.439  -8.436  1.00  0.00     0.127 A 
ATOM      9  N   UNL     1      -2.239   4.622  -8.390  1.00  0.00    -0.340 N 
ATOM     10  H   UNL     1      -1.963   5.488  -7.876  1.00  0.00     0.168 HD
ENDROOT
BRANCH   7  11
ATOM     11  N   UNL     1       0.343   3.873  -6.992  1.00  0.00    -0.382 N 
ATOM     12  H   UNL     1       1.267   4.248  -7.302  1.00  0.00     0.158 HD
ATOM     13  H   UNL     1      -0.011   4.138  -6.046  1.00  0.00     0.158 HD
ENDBRANCH   7  11
TORSDOF 1
ENDMDL
