MODEL 1
REMARK VINA RESULT:    -4.135      0.000      0.000
REMARK INTER + INTRA:          -8.043
REMARK INTER:                  -7.156
REMARK INTRA:                  -0.886
REMARK UNBOUND:                -0.886
REMARK SMILES CCCCCCCCCCCCCCO
REMARK SMILES IDX 8 1 7 2 6 3 5 4 4 5 3 6 2 7 1 8 9 9 10 10 11 11 12 12 13 13
REMARK SMILES IDX 14 14 15 15
REMARK H PARENT 15 16
REMARK Flexibility Score: inf
ROOT
ATOM      1  C   UNL     1      -2.956   4.154 -23.394  1.00  0.00     0.000 C 
ENDROOT
BRANCH   1   2
ATOM      2  C   UNL     1      -3.971   4.511 -24.496  1.00  0.00    -0.000 C 
BRANCH   2   3
ATOM      3  C   UNL     1      -5.427   4.233 -24.085  1.00  0.00    -0.000 C 
BRANCH   3   4
ATOM      4  C   UNL     1      -5.598   4.106 -22.562  1.00  0.00    -0.000 C 
BRANCH   4   5
ATOM      5  C   UNL     1      -6.220   2.762 -22.142  1.00  0.00    -0.000 C 
BRANCH   5   6
ATOM      6  C   UNL     1      -5.266   1.929 -21.262  1.00  0.00    -0.000 C 
BRANCH   6   7
ATOM      7  C   UNL     1      -4.635   2.730 -20.110  1.00  0.00    -0.003 C 
ATOM      8  C   UNL     1      -5.101   2.266 -18.732  1.00  0.00     0.004 C 
ENDBRANCH   6   7
ENDBRANCH   5   6
ENDBRANCH   4   5
ENDBRANCH   3   4
ENDBRANCH   2   3
ENDBRANCH   1   2
BRANCH   1   9
ATOM      9  C   UNL     1      -1.785   3.259 -23.838  1.00  0.00     0.000 C 
BRANCH   9  10
ATOM     10  C   UNL     1      -1.495   2.114 -22.852  1.00  0.00     0.000 C 
BRANCH  10  11
ATOM     11  C   UNL     1      -0.558   1.040 -23.437  1.00  0.00     0.000 C 
BRANCH  11  12
ATOM     12  C   UNL     1       0.071   0.085 -22.406  1.00  0.00     0.002 C 
BRANCH  12  13
ATOM     13  C   UNL     1       1.572  -0.146 -22.638  1.00  0.00     0.028 C 
BRANCH  13  14
ATOM     14  C   UNL     1       2.027  -1.502 -22.098  1.00  0.00     0.156 C 
BRANCH  14  15
ATOM     15  O   UNL     1       1.050  -2.036 -21.248  1.00  0.00    -0.396 OA
ATOM     16  H   UNL     1       0.262  -1.438 -21.325  1.00  0.00     0.210 HD
ENDBRANCH  14  15
ENDBRANCH  13  14
ENDBRANCH  12  13
ENDBRANCH  11  12
ENDBRANCH  10  11
ENDBRANCH   9  10
ENDBRANCH   1   9
TORSDOF 13
ENDMDL
MODEL 2
REMARK VINA RESULT:    -4.026      1.963      6.203
REMARK INTER + INTRA:          -7.855
REMARK INTER:                  -7.298
REMARK INTRA:                  -0.556
REMARK UNBOUND:                -0.886
REMARK SMILES CCCCCCCCCCCCCCO
REMARK SMILES IDX 8 1 7 2 6 3 5 4 4 5 3 6 2 7 1 8 9 9 10 10 11 11 12 12 13 13
REMARK SMILES IDX 14 14 15 15
REMARK H PARENT 15 16
REMARK Flexibility Score: inf
ROOT
ATOM      1  C   UNL     1      -1.343   3.904 -23.843  1.00  0.00     0.000 C 
ENDROOT
BRANCH   1   2
ATOM      2  C   UNL     1      -0.737   3.185 -25.063  1.00  0.00    -0.000 C 
BRANCH   2   3
ATOM      3  C   UNL     1      -0.252   1.761 -24.741  1.00  0.00    -0.000 C 
BRANCH   3   4
ATOM      4  C   UNL     1      -1.013   1.130 -23.562  1.00  0.00    -0.000 C 
BRANCH   4   5
ATOM      5  C   UNL     1      -0.079   0.438 -22.553  1.00  0.00    -0.000 C 
BRANCH   5   6
ATOM      6  C   UNL     1       1.326   0.186 -23.138  1.00  0.00    -0.000 C 
BRANCH   6   7
ATOM      7  C   UNL     1       2.290  -0.498 -22.153  1.00  0.00    -0.003 C 
ATOM      8  C   UNL     1       2.163  -2.019 -22.152  1.00  0.00     0.004 C 
ENDBRANCH   6   7
ENDBRANCH   5   6
ENDBRANCH   4   5
ENDBRANCH   3   4
ENDBRANCH   2   3
ENDBRANCH   1   2
BRANCH   1   9
ATOM      9  C   UNL     1      -2.861   4.154 -23.910  1.00  0.00     0.000 C 
BRANCH   9  10
ATOM     10  C   UNL     1      -3.653   3.322 -22.886  1.00  0.00     0.000 C 
BRANCH  10  11
ATOM     11  C   UNL     1      -5.088   3.838 -22.674  1.00  0.00     0.000 C 
BRANCH  11  12
ATOM     12  C   UNL     1      -6.072   2.817 -22.073  1.00  0.00     0.002 C 
BRANCH  12  13
ATOM     13  C   UNL     1      -5.420   1.893 -21.033  1.00  0.00     0.028 C 
BRANCH  13  14
ATOM     14  C   UNL     1      -5.080   2.641 -19.744  1.00  0.00     0.156 C 
BRANCH  14  15
ATOM     15  O   UNL     1      -3.691   2.709 -19.576  1.00  0.00    -0.396 OA
ATOM     16  H   UNL     1      -3.517   2.481 -18.626  1.00  0.00     0.210 HD
ENDBRANCH  14  15
ENDBRANCH  13  14
ENDBRANCH  12  13
ENDBRANCH  11  12
ENDBRANCH  10  11
ENDBRANCH   9  10
ENDBRANCH   1   9
TORSDOF 13
ENDMDL
MODEL 3
REMARK VINA RESULT:    -3.988      1.583      3.089
REMARK INTER + INTRA:          -7.789
REMARK INTER:                  -6.877
REMARK INTRA:                  -0.912
REMARK UNBOUND:                -0.886
REMARK SMILES CCCCCCCCCCCCCCO
REMARK SMILES IDX 8 1 7 2 6 3 5 4 4 5 3 6 2 7 1 8 9 9 10 10 11 11 12 12 13 13
REMARK SMILES IDX 14 14 15 15
REMARK H PARENT 15 16
REMARK Flexibility Score: inf
ROOT
ATOM      1  C   UNL     1      -3.698   2.773 -21.754  1.00  0.00     0.000 C 
ENDROOT
BRANCH   1   2
ATOM      2  C   UNL     1      -5.092   3.150 -21.220  1.00  0.00    -0.000 C 
BRANCH   2   3
ATOM      3  C   UNL     1      -6.157   2.081 -21.513  1.00  0.00    -0.000 C 
BRANCH   3   4
ATOM      4  C   UNL     1      -6.974   2.390 -22.779  1.00  0.00    -0.000 C 
BRANCH   4   5
ATOM      5  C   UNL     1      -6.857   3.860 -23.220  1.00  0.00    -0.000 C 
BRANCH   5   6
ATOM      6  C   UNL     1      -8.064   4.703 -22.759  1.00  0.00    -0.000 C 
BRANCH   6   7
ATOM      7  C   UNL     1      -7.680   5.873 -21.835  1.00  0.00    -0.003 C 
ATOM      8  C   UNL     1      -6.727   6.868 -22.494  1.00  0.00     0.004 C 
ENDBRANCH   6   7
ENDBRANCH   5   6
ENDBRANCH   4   5
ENDBRANCH   3   4
ENDBRANCH   2   3
ENDBRANCH   1   2
BRANCH   1   9
ATOM      9  C   UNL     1      -3.176   3.642 -22.914  1.00  0.00     0.000 C 
BRANCH   9  10
ATOM     10  C   UNL     1      -1.666   3.477 -23.157  1.00  0.00     0.000 C 
BRANCH  10  11
ATOM     11  C   UNL     1      -1.346   2.700 -24.447  1.00  0.00     0.000 C 
BRANCH  11  12
ATOM     12  C   UNL     1      -0.429   1.476 -24.266  1.00  0.00     0.002 C 
BRANCH  12  13
ATOM     13  C   UNL     1      -0.628   0.770 -22.916  1.00  0.00     0.028 C 
BRANCH  13  14
ATOM     14  C   UNL     1       0.632   0.024 -22.475  1.00  0.00     0.156 C 
BRANCH  14  15
ATOM     15  O   UNL     1       0.294  -1.030 -21.617  1.00  0.00    -0.396 OA
ATOM     16  H   UNL     1      -0.172  -1.703 -22.178  1.00  0.00     0.210 HD
ENDBRANCH  14  15
ENDBRANCH  13  14
ENDBRANCH  12  13
ENDBRANCH  11  12
ENDBRANCH  10  11
ENDBRANCH   9  10
ENDBRANCH   1   9
TORSDOF 13
ENDMDL
MODEL 4
REMARK VINA RESULT:    -3.987      3.410      4.856
REMARK INTER + INTRA:          -7.787
REMARK INTER:                  -6.640
REMARK INTRA:                  -1.147
REMARK UNBOUND:                -0.886
REMARK SMILES CCCCCCCCCCCCCCO
REMARK SMILES IDX 8 1 7 2 6 3 5 4 4 5 3 6 2 7 1 8 9 9 10 10 11 11 12 12 13 13
REMARK SMILES IDX 14 14 15 15
REMARK H PARENT 15 16
REMARK Flexibility Score: inf
ROOT
ATOM      1  C   UNL     1      -4.003   3.006 -20.946  1.00  0.00     0.000 C 
ENDROOT
BRANCH   1   2
ATOM      2  C   UNL     1      -5.520   2.783 -20.797  1.00  0.00    -0.000 C 
BRANCH   2   3
ATOM      3  C   UNL     1      -6.090   1.815 -21.846  1.00  0.00    -0.000 C 
BRANCH   3   4
ATOM      4  C   UNL     1      -7.311   2.392 -22.583  1.00  0.00    -0.000 C 
BRANCH   4   5
ATOM      5  C   UNL     1      -6.938   3.072 -23.913  1.00  0.00    -0.000 C 
BRANCH   5   6
ATOM      6  C   UNL     1      -7.299   4.572 -23.920  1.00  0.00    -0.000 C 
BRANCH   6   7
ATOM      7  C   UNL     1      -7.755   5.101 -22.550  1.00  0.00    -0.003 C 
ATOM      8  C   UNL     1      -6.916   6.276 -22.053  1.00  0.00     0.004 C 
ENDBRANCH   6   7
ENDBRANCH   5   6
ENDBRANCH   4   5
ENDBRANCH   3   4
ENDBRANCH   2   3
ENDBRANCH   1   2
BRANCH   1   9
ATOM      9  C   UNL     1      -3.509   3.256 -22.383  1.00  0.00     0.000 C 
BRANCH   9  10
ATOM     10  C   UNL     1      -2.094   2.709 -22.637  1.00  0.00     0.000 C 
BRANCH  10  11
ATOM     11  C   UNL     1      -1.449   3.280 -23.913  1.00  0.00     0.000 C 
BRANCH  11  12
ATOM     12  C   UNL     1      -1.838   4.730 -24.255  1.00  0.00     0.002 C 
BRANCH  12  13
ATOM     13  C   UNL     1      -0.682   5.534 -24.869  1.00  0.00     0.028 C 
BRANCH  13  14
ATOM     14  C   UNL     1      -0.264   6.701 -23.974  1.00  0.00     0.156 C 
BRANCH  14  15
ATOM     15  O   UNL     1      -0.607   6.436 -22.643  1.00  0.00    -0.396 OA
ATOM     16  H   UNL     1      -0.671   5.448 -22.567  1.00  0.00     0.210 HD
ENDBRANCH  14  15
ENDBRANCH  13  14
ENDBRANCH  12  13
ENDBRANCH  11  12
ENDBRANCH  10  11
ENDBRANCH   9  10
ENDBRANCH   1   9
TORSDOF 13
ENDMDL
MODEL 5
REMARK VINA RESULT:    -3.967      1.938      6.284
REMARK INTER + INTRA:          -7.752
REMARK INTER:                  -6.877
REMARK INTRA:                  -0.875
REMARK UNBOUND:                -0.886
REMARK SMILES CCCCCCCCCCCCCCO
REMARK SMILES IDX 8 1 7 2 6 3 5 4 4 5 3 6 2 7 1 8 9 9 10 10 11 11 12 12 13 13
REMARK SMILES IDX 14 14 15 15
REMARK H PARENT 15 16
REMARK Flexibility Score: inf
ROOT
ATOM      1  C   UNL     1      -2.513   4.356 -23.925  1.00  0.00     0.000 C 
ENDROOT
BRANCH   1   2
ATOM      2  C   UNL     1      -1.540   3.161 -23.918  1.00  0.00    -0.000 C 
BRANCH   2   3
ATOM      3  C   UNL     1      -1.704   2.261 -22.682  1.00  0.00    -0.000 C 
BRANCH   3   4
ATOM      4  C   UNL     1      -1.165   0.839 -22.910  1.00  0.00    -0.000 C 
BRANCH   4   5
ATOM      5  C   UNL     1       0.367   0.798 -23.058  1.00  0.00    -0.000 C 
BRANCH   5   6
ATOM      6  C   UNL     1       0.998  -0.355 -22.251  1.00  0.00    -0.000 C 
BRANCH   6   7
ATOM      7  C   UNL     1       2.345  -0.837 -22.818  1.00  0.00    -0.003 C 
ATOM      8  C   UNL     1       3.006   0.186 -23.739  1.00  0.00     0.004 C 
ENDBRANCH   6   7
ENDBRANCH   5   6
ENDBRANCH   4   5
ENDBRANCH   3   4
ENDBRANCH   2   3
ENDBRANCH   1   2
BRANCH   1   9
ATOM      9  C   UNL     1      -3.601   4.315 -25.014  1.00  0.00     0.000 C 
BRANCH   9  10
ATOM     10  C   UNL     1      -5.028   4.355 -24.439  1.00  0.00     0.000 C 
BRANCH  10  11
ATOM     11  C   UNL     1      -5.071   4.111 -22.920  1.00  0.00     0.000 C 
BRANCH  11  12
ATOM     12  C   UNL     1      -5.969   2.945 -22.466  1.00  0.00     0.002 C 
BRANCH  12  13
ATOM     13  C   UNL     1      -5.363   2.136 -21.308  1.00  0.00     0.028 C 
BRANCH  13  14
ATOM     14  C   UNL     1      -4.957   3.035 -20.140  1.00  0.00     0.156 C 
BRANCH  14  15
ATOM     15  O   UNL     1      -3.618   2.807 -19.798  1.00  0.00    -0.396 OA
ATOM     16  H   UNL     1      -3.235   3.697 -19.582  1.00  0.00     0.210 HD
ENDBRANCH  14  15
ENDBRANCH  13  14
ENDBRANCH  12  13
ENDBRANCH  11  12
ENDBRANCH  10  11
ENDBRANCH   9  10
ENDBRANCH   1   9
TORSDOF 13
ENDMDL
MODEL 6
REMARK VINA RESULT:    -3.942      1.253      2.307
REMARK INTER + INTRA:          -7.709
REMARK INTER:                  -6.969
REMARK INTRA:                  -0.740
REMARK UNBOUND:                -0.886
REMARK SMILES CCCCCCCCCCCCCCO
REMARK SMILES IDX 8 1 7 2 6 3 5 4 4 5 3 6 2 7 1 8 9 9 10 10 11 11 12 12 13 13
REMARK SMILES IDX 14 14 15 15
REMARK H PARENT 15 16
REMARK Flexibility Score: inf
ROOT
ATOM      1  C   UNL     1      -1.680   3.824 -23.253  1.00  0.00     0.000 C 
ENDROOT
BRANCH   1   2
ATOM      2  C   UNL     1      -3.169   3.538 -22.978  1.00  0.00    -0.000 C 
BRANCH   2   3
ATOM      3  C   UNL     1      -3.392   2.658 -21.736  1.00  0.00    -0.000 C 
BRANCH   3   4
ATOM      4  C   UNL     1      -4.712   2.978 -21.014  1.00  0.00    -0.000 C 
BRANCH   4   5
ATOM      5  C   UNL     1      -5.934   2.333 -21.693  1.00  0.00    -0.000 C 
BRANCH   5   6
ATOM      6  C   UNL     1      -6.675   3.322 -22.616  1.00  0.00    -0.000 C 
BRANCH   6   7
ATOM      7  C   UNL     1      -6.710   4.762 -22.074  1.00  0.00    -0.003 C 
ATOM      8  C   UNL     1      -6.263   5.799 -23.101  1.00  0.00     0.004 C 
ENDBRANCH   6   7
ENDBRANCH   5   6
ENDBRANCH   4   5
ENDBRANCH   3   4
ENDBRANCH   2   3
ENDBRANCH   1   2
BRANCH   1   9
ATOM      9  C   UNL     1      -1.034   2.962 -24.353  1.00  0.00     0.000 C 
BRANCH   9  10
ATOM     10  C   UNL     1      -1.099   1.455 -24.053  1.00  0.00     0.000 C 
BRANCH  10  11
ATOM     11  C   UNL     1      -0.197   1.036 -22.878  1.00  0.00     0.000 C 
BRANCH  11  12
ATOM     12  C   UNL     1       1.127   0.355 -23.275  1.00  0.00     0.002 C 
BRANCH  12  13
ATOM     13  C   UNL     1       1.912  -0.181 -22.068  1.00  0.00     0.028 C 
BRANCH  13  14
ATOM     14  C   UNL     1       1.740  -1.691 -21.905  1.00  0.00     0.156 C 
BRANCH  14  15
ATOM     15  O   UNL     1       0.624  -1.966 -21.104  1.00  0.00    -0.396 OA
ATOM     16  H   UNL     1       0.981  -2.261 -20.226  1.00  0.00     0.210 HD
ENDBRANCH  14  15
ENDBRANCH  13  14
ENDBRANCH  12  13
ENDBRANCH  11  12
ENDBRANCH  10  11
ENDBRANCH   9  10
ENDBRANCH   1   9
TORSDOF 13
ENDMDL
MODEL 7
REMARK VINA RESULT:    -3.938      2.428      7.475
REMARK INTER + INTRA:          -7.702
REMARK INTER:                  -7.079
REMARK INTRA:                  -0.623
REMARK UNBOUND:                -0.886
REMARK SMILES CCCCCCCCCCCCCCO
REMARK SMILES IDX 8 1 7 2 6 3 5 4 4 5 3 6 2 7 1 8 9 9 10 10 11 11 12 12 13 13
REMARK SMILES IDX 14 14 15 15
REMARK H PARENT 15 16
REMARK Flexibility Score: inf
ROOT
ATOM      1  C   UNL     1       0.285   1.005 -24.007  1.00  0.00     0.000 C 
ENDROOT
BRANCH   1   2
ATOM      2  C   UNL     1       1.756   0.804 -24.417  1.00  0.00    -0.000 C 
BRANCH   2   3
ATOM      3  C   UNL     1       2.541  -0.073 -23.428  1.00  0.00    -0.000 C 
BRANCH   3   4
ATOM      4  C   UNL     1       1.771  -0.326 -22.121  1.00  0.00    -0.000 C 
BRANCH   4   5
ATOM      5  C   UNL     1       1.745  -1.813 -21.723  1.00  0.00    -0.000 C 
BRANCH   5   6
ATOM      6  C   UNL     1       2.768  -2.647 -22.522  1.00  0.00    -0.000 C 
BRANCH   6   7
ATOM      7  C   UNL     1       3.603  -3.598 -21.647  1.00  0.00    -0.003 C 
ATOM      8  C   UNL     1       4.033  -4.865 -22.384  1.00  0.00     0.004 C 
ENDBRANCH   6   7
ENDBRANCH   5   6
ENDBRANCH   4   5
ENDBRANCH   3   4
ENDBRANCH   2   3
ENDBRANCH   1   2
BRANCH   1   9
ATOM      9  C   UNL     1      -0.538   1.927 -24.925  1.00  0.00     0.000 C 
BRANCH   9  10
ATOM     10  C   UNL     1      -1.169   3.114 -24.176  1.00  0.00     0.000 C 
BRANCH  10  11
ATOM     11  C   UNL     1      -1.736   2.722 -22.799  1.00  0.00     0.000 C 
BRANCH  11  12
ATOM     12  C   UNL     1      -3.137   3.279 -22.482  1.00  0.00     0.002 C 
BRANCH  12  13
ATOM     13  C   UNL     1      -3.991   2.315 -21.645  1.00  0.00     0.028 C 
BRANCH  13  14
ATOM     14  C   UNL     1      -4.508   2.979 -20.368  1.00  0.00     0.156 C 
BRANCH  14  15
ATOM     15  O   UNL     1      -3.961   2.350 -19.241  1.00  0.00    -0.396 OA
ATOM     16  H   UNL     1      -3.765   3.074 -18.591  1.00  0.00     0.210 HD
ENDBRANCH  14  15
ENDBRANCH  13  14
ENDBRANCH  12  13
ENDBRANCH  11  12
ENDBRANCH  10  11
ENDBRANCH   9  10
ENDBRANCH   1   9
TORSDOF 13
ENDMDL
MODEL 8
REMARK VINA RESULT:    -3.884      3.011      5.706
REMARK INTER + INTRA:          -7.609
REMARK INTER:                  -6.395
REMARK INTRA:                  -1.214
REMARK UNBOUND:                -0.886
REMARK SMILES CCCCCCCCCCCCCCO
REMARK SMILES IDX 8 1 7 2 6 3 5 4 4 5 3 6 2 7 1 8 9 9 10 10 11 11 12 12 13 13
REMARK SMILES IDX 14 14 15 15
REMARK H PARENT 15 16
REMARK Flexibility Score: inf
ROOT
ATOM      1  C   UNL     1      -6.201   5.905 -23.005  1.00  0.00     0.000 C 
ENDROOT
BRANCH   1   2
ATOM      2  C   UNL     1      -6.791   4.767 -22.150  1.00  0.00    -0.000 C 
BRANCH   2   3
ATOM      3  C   UNL     1      -6.015   3.447 -22.291  1.00  0.00    -0.000 C 
BRANCH   3   4
ATOM      4  C   UNL     1      -5.117   3.156 -21.077  1.00  0.00    -0.000 C 
BRANCH   4   5
ATOM      5  C   UNL     1      -3.714   2.663 -21.477  1.00  0.00    -0.000 C 
BRANCH   5   6
ATOM      6  C   UNL     1      -3.153   3.431 -22.691  1.00  0.00    -0.000 C 
BRANCH   6   7
ATOM      7  C   UNL     1      -1.679   3.110 -22.994  1.00  0.00    -0.003 C 
ATOM      8  C   UNL     1      -1.392   1.611 -23.048  1.00  0.00     0.004 C 
ENDBRANCH   6   7
ENDBRANCH   5   6
ENDBRANCH   4   5
ENDBRANCH   3   4
ENDBRANCH   2   3
ENDBRANCH   1   2
BRANCH   1   9
ATOM      9  C   UNL     1      -5.941   5.556 -24.482  1.00  0.00     0.000 C 
BRANCH   9  10
ATOM     10  C   UNL     1      -4.494   5.838 -24.921  1.00  0.00     0.000 C 
BRANCH  10  11
ATOM     11  C   UNL     1      -4.131   7.334 -24.872  1.00  0.00     0.000 C 
BRANCH  11  12
ATOM     12  C   UNL     1      -2.624   7.646 -24.905  1.00  0.00     0.002 C 
BRANCH  12  13
ATOM     13  C   UNL     1      -1.746   6.392 -24.769  1.00  0.00     0.028 C 
BRANCH  13  14
ATOM     14  C   UNL     1      -0.440   6.691 -24.034  1.00  0.00     0.156 C 
BRANCH  14  15
ATOM     15  O   UNL     1      -0.606   6.502 -22.656  1.00  0.00    -0.396 OA
ATOM     16  H   UNL     1      -1.428   5.955 -22.551  1.00  0.00     0.210 HD
ENDBRANCH  14  15
ENDBRANCH  13  14
ENDBRANCH  12  13
ENDBRANCH  11  12
ENDBRANCH  10  11
ENDBRANCH   9  10
ENDBRANCH   1   9
TORSDOF 13
ENDMDL
MODEL 9
REMARK VINA RESULT:    -3.791      4.092      5.018
REMARK INTER + INTRA:          -7.448
REMARK INTER:                  -6.034
REMARK INTRA:                  -1.414
REMARK UNBOUND:                -0.886
REMARK SMILES CCCCCCCCCCCCCCO
REMARK SMILES IDX 8 1 7 2 6 3 5 4 4 5 3 6 2 7 1 8 9 9 10 10 11 11 12 12 13 13
REMARK SMILES IDX 14 14 15 15
REMARK H PARENT 15 16
REMARK Flexibility Score: inf
ROOT
ATOM      1  C   UNL     1      -3.758   4.424 -24.889  1.00  0.00     0.000 C 
ENDROOT
BRANCH   1   2
ATOM      2  C   UNL     1      -5.275   4.644 -24.740  1.00  0.00    -0.000 C 
BRANCH   2   3
ATOM      3  C   UNL     1      -5.668   5.210 -23.366  1.00  0.00    -0.000 C 
BRANCH   3   4
ATOM      4  C   UNL     1      -6.759   4.376 -22.673  1.00  0.00    -0.000 C 
BRANCH   4   5
ATOM      5  C   UNL     1      -6.681   2.880 -23.026  1.00  0.00    -0.000 C 
BRANCH   5   6
ATOM      6  C   UNL     1      -6.496   1.996 -21.775  1.00  0.00    -0.000 C 
BRANCH   6   7
ATOM      7  C   UNL     1      -5.053   1.982 -21.241  1.00  0.00    -0.003 C 
ATOM      8  C   UNL     1      -4.876   2.818 -19.975  1.00  0.00     0.004 C 
ENDBRANCH   6   7
ENDBRANCH   5   6
ENDBRANCH   4   5
ENDBRANCH   3   4
ENDBRANCH   2   3
ENDBRANCH   1   2
BRANCH   1   9
ATOM      9  C   UNL     1      -3.020   4.015 -23.600  1.00  0.00     0.000 C 
BRANCH   9  10
ATOM     10  C   UNL     1      -1.538   4.429 -23.599  1.00  0.00     0.000 C 
BRANCH  10  11
ATOM     11  C   UNL     1      -1.022   4.822 -24.995  1.00  0.00     0.000 C 
BRANCH  11  12
ATOM     12  C   UNL     1      -0.163   6.099 -25.043  1.00  0.00     0.002 C 
BRANCH  12  13
ATOM     13  C   UNL     1      -0.655   7.192 -24.081  1.00  0.00     0.028 C 
BRANCH  13  14
ATOM     14  C   UNL     1      -1.730   8.070 -24.723  1.00  0.00     0.156 C 
BRANCH  14  15
ATOM     15  O   UNL     1      -2.977   7.811 -24.139  1.00  0.00    -0.396 OA
ATOM     16  H   UNL     1      -3.530   8.619 -24.303  1.00  0.00     0.210 HD
ENDBRANCH  14  15
ENDBRANCH  13  14
ENDBRANCH  12  13
ENDBRANCH  11  12
ENDBRANCH  10  11
ENDBRANCH   9  10
ENDBRANCH   1   9
TORSDOF 13
ENDMDL
