MODEL 1
REMARK VINA RESULT:    -2.944      0.000      0.000
REMARK INTER + INTRA:          -3.490
REMARK INTER:                  -3.461
REMARK INTRA:                  -0.029
REMARK UNBOUND:                -0.029
REMARK SMILES CCCCC(=O)[O-]
REMARK SMILES IDX 4 1 5 2 6 3 7 4 3 5 2 6 1 7
REMARK H PARENT
REMARK Flexibility Score: inf
ROOT
ATOM      1  C   UNL     1     -22.113  31.200   8.891  1.00  0.00     0.053 C 
ENDROOT
BRANCH   1   2
ATOM      2  C   UNL     1     -21.004  31.611   7.972  1.00  0.00     0.041 C 
ATOM      3  O   UNL     1     -21.255  31.919   6.777  1.00  0.00    -0.550 OA
ATOM      4  O   UNL     1     -19.699  31.689   8.440  1.00  0.00    -0.550 OA
ENDBRANCH   1   2
BRANCH   1   5
ATOM      5  C   UNL     1     -23.504  31.515   8.315  1.00  0.00     0.006 C 
BRANCH   5   6
ATOM      6  C   UNL     1     -24.122  30.357   7.510  1.00  0.00    -0.003 C 
ATOM      7  C   UNL     1     -23.796  28.981   8.088  1.00  0.00     0.004 C 
ENDBRANCH   5   6
ENDBRANCH   1   5
TORSDOF 3
ENDMDL
MODEL 2
REMARK VINA RESULT:    -2.835      5.573      6.653
REMARK INTER + INTRA:          -3.362
REMARK INTER:                  -3.333
REMARK INTRA:                  -0.029
REMARK UNBOUND:                -0.029
REMARK SMILES CCCCC(=O)[O-]
REMARK SMILES IDX 4 1 5 2 6 3 7 4 3 5 2 6 1 7
REMARK H PARENT
REMARK Flexibility Score: inf
ROOT
ATOM      1  C   UNL     1     -22.873  25.831  10.296  1.00  0.00     0.053 C 
ENDROOT
BRANCH   1   2
ATOM      2  C   UNL     1     -22.510  24.468  10.800  1.00  0.00     0.041 C 
ATOM      3  O   UNL     1     -21.560  24.327  11.613  1.00  0.00    -0.550 OA
ATOM      4  O   UNL     1     -23.240  23.357  10.399  1.00  0.00    -0.550 OA
ENDBRANCH   1   2
BRANCH   1   5
ATOM      5  C   UNL     1     -23.891  25.782   9.142  1.00  0.00     0.006 C 
BRANCH   5   6
ATOM      6  C   UNL     1     -23.444  26.549   7.884  1.00  0.00    -0.003 C 
ATOM      7  C   UNL     1     -24.123  27.909   7.736  1.00  0.00     0.004 C 
ENDBRANCH   5   6
ENDBRANCH   1   5
TORSDOF 3
ENDMDL
MODEL 3
REMARK VINA RESULT:    -2.806     18.825     19.903
REMARK INTER + INTRA:          -3.328
REMARK INTER:                  -3.229
REMARK INTRA:                  -0.099
REMARK UNBOUND:                -0.029
REMARK SMILES CCCCC(=O)[O-]
REMARK SMILES IDX 4 1 5 2 6 3 7 4 3 5 2 6 1 7
REMARK H PARENT
REMARK Flexibility Score: inf
ROOT
ATOM      1  C   UNL     1      -6.876  42.035   6.322  1.00  0.00     0.053 C 
ENDROOT
BRANCH   1   2
ATOM      2  C   UNL     1      -7.354  42.668   7.594  1.00  0.00     0.041 C 
ATOM      3  O   UNL     1      -8.525  43.125   7.672  1.00  0.00    -0.550 OA
ATOM      4  O   UNL     1      -6.521  42.724   8.703  1.00  0.00    -0.550 OA
ENDBRANCH   1   2
BRANCH   1   5
ATOM      5  C   UNL     1      -5.734  42.827   5.662  1.00  0.00     0.006 C 
BRANCH   5   6
ATOM      6  C   UNL     1      -4.477  41.986   5.376  1.00  0.00    -0.003 C 
ATOM      7  C   UNL     1      -3.935  41.273   6.613  1.00  0.00     0.004 C 
ENDBRANCH   5   6
ENDBRANCH   1   5
TORSDOF 3
ENDMDL
MODEL 4
REMARK VINA RESULT:    -2.688      7.383      8.380
REMARK INTER + INTRA:          -3.189
REMARK INTER:                  -3.142
REMARK INTRA:                  -0.047
REMARK UNBOUND:                -0.029
REMARK SMILES CCCCC(=O)[O-]
REMARK SMILES IDX 4 1 5 2 6 3 7 4 3 5 2 6 1 7
REMARK H PARENT
REMARK Flexibility Score: inf
ROOT
ATOM      1  C   UNL     1     -21.882  23.586  11.554  1.00  0.00     0.053 C 
ENDROOT
BRANCH   1   2
ATOM      2  C   UNL     1     -22.125  24.869  10.819  1.00  0.00     0.041 C 
ATOM      3  O   UNL     1     -22.767  25.801  11.371  1.00  0.00    -0.550 OA
ATOM      4  O   UNL     1     -21.616  25.050   9.540  1.00  0.00    -0.550 OA
ENDBRANCH   1   2
BRANCH   1   5
ATOM      5  C   UNL     1     -21.492  23.814  13.025  1.00  0.00     0.006 C 
BRANCH   5   6
ATOM      6  C   UNL     1     -19.974  23.923  13.258  1.00  0.00    -0.003 C 
ATOM      7  C   UNL     1     -19.605  24.167  14.720  1.00  0.00     0.004 C 
ENDBRANCH   5   6
ENDBRANCH   1   5
TORSDOF 3
ENDMDL
MODEL 5
REMARK VINA RESULT:    -2.608      6.188      7.215
REMARK INTER + INTRA:          -3.095
REMARK INTER:                  -2.968
REMARK INTRA:                  -0.127
REMARK UNBOUND:                -0.029
REMARK SMILES CCCCC(=O)[O-]
REMARK SMILES IDX 4 1 5 2 6 3 7 4 3 5 2 6 1 7
REMARK H PARENT
REMARK Flexibility Score: inf
ROOT
ATOM      1  C   UNL     1     -22.629  25.870  10.333  1.00  0.00     0.053 C 
ENDROOT
BRANCH   1   2
ATOM      2  C   UNL     1     -22.459  25.062   9.083  1.00  0.00     0.041 C 
ATOM      3  O   UNL     1     -21.312  24.890   8.593  1.00  0.00    -0.550 OA
ATOM      4  O   UNL     1     -23.560  24.471   8.478  1.00  0.00    -0.550 OA
ENDBRANCH   1   2
BRANCH   1   5
ATOM      5  C   UNL     1     -23.265  25.061  11.477  1.00  0.00     0.006 C 
BRANCH   5   6
ATOM      6  C   UNL     1     -22.533  23.743  11.789  1.00  0.00    -0.003 C 
ATOM      7  C   UNL     1     -21.185  23.951  12.476  1.00  0.00     0.004 C 
ENDBRANCH   5   6
ENDBRANCH   1   5
TORSDOF 3
ENDMDL
MODEL 6
REMARK VINA RESULT:    -2.539     13.929     14.795
REMARK INTER + INTRA:          -3.013
REMARK INTER:                  -2.981
REMARK INTRA:                  -0.033
REMARK UNBOUND:                -0.029
REMARK SMILES CCCCC(=O)[O-]
REMARK SMILES IDX 4 1 5 2 6 3 7 4 3 5 2 6 1 7
REMARK H PARENT
REMARK Flexibility Score: inf
ROOT
ATOM      1  C   UNL     1     -17.968  28.823  21.894  1.00  0.00     0.053 C 
ENDROOT
BRANCH   1   2
ATOM      2  C   UNL     1     -17.554  29.185  23.288  1.00  0.00     0.041 C 
ATOM      3  O   UNL     1     -17.771  30.344  23.731  1.00  0.00    -0.550 OA
ATOM      4  O   UNL     1     -16.959  28.237  24.109  1.00  0.00    -0.550 OA
ENDBRANCH   1   2
BRANCH   1   5
ATOM      5  C   UNL     1     -19.478  29.013  21.660  1.00  0.00     0.006 C 
BRANCH   5   6
ATOM      6  C   UNL     1     -19.818  29.735  20.344  1.00  0.00    -0.003 C 
ATOM      7  C   UNL     1     -20.383  28.803  19.274  1.00  0.00     0.004 C 
ENDBRANCH   5   6
ENDBRANCH   1   5
TORSDOF 3
ENDMDL
MODEL 7
REMARK VINA RESULT:    -2.518     12.189     13.119
REMARK INTER + INTRA:          -2.989
REMARK INTER:                  -2.923
REMARK INTRA:                  -0.066
REMARK UNBOUND:                -0.029
REMARK SMILES CCCCC(=O)[O-]
REMARK SMILES IDX 4 1 5 2 6 3 7 4 3 5 2 6 1 7
REMARK H PARENT
REMARK Flexibility Score: inf
ROOT
ATOM      1  C   UNL     1     -20.382  28.868  19.227  1.00  0.00     0.053 C 
ENDROOT
BRANCH   1   2
ATOM      2  C   UNL     1     -21.823  28.654  19.578  1.00  0.00     0.041 C 
ATOM      3  O   UNL     1     -22.513  29.608  20.025  1.00  0.00    -0.550 OA
ATOM      4  O   UNL     1     -22.415  27.414  19.379  1.00  0.00    -0.550 OA
ENDBRANCH   1   2
BRANCH   1   5
ATOM      5  C   UNL     1     -19.612  29.616  20.330  1.00  0.00     0.006 C 
BRANCH   5   6
ATOM      6  C   UNL     1     -19.378  28.782  21.602  1.00  0.00    -0.003 C 
ATOM      7  C   UNL     1     -17.940  28.853  22.112  1.00  0.00     0.004 C 
ENDBRANCH   5   6
ENDBRANCH   1   5
TORSDOF 3
ENDMDL
