MODEL 1
REMARK VINA RESULT:    -3.370      0.000      0.000
REMARK INTER + INTRA:          -3.664
REMARK INTER:                  -3.567
REMARK INTRA:                  -0.096
REMARK UNBOUND:                -0.096
REMARK SMILES C=C(C)[C@H]1CC=C(C)C(=O)C1
REMARK SMILES IDX 8 1 7 2 6 3 5 4 4 5 11 6 9 7 10 8 2 9 1 10 3 11
REMARK H PARENT
REMARK Flexibility Score: inf
ROOT
ATOM      1  C   UNL     1      11.123  24.956   8.325  1.00  0.00     0.048 C 
ATOM      2  C   UNL     1      10.657  23.531   8.208  1.00  0.00    -0.012 C 
ATOM      3  C   UNL     1      10.840  22.859   7.059  1.00  0.00    -0.019 C 
ATOM      4  C   UNL     1      10.377  21.438   6.882  1.00  0.00     0.036 C 
ATOM      5  C   UNL     1      10.460  20.658   8.208  1.00  0.00     0.025 C 
ATOM      6  C   UNL     1       9.675  21.395   9.311  1.00  0.00     0.089 C 
ATOM      7  C   UNL     1      10.110  22.832   9.398  1.00  0.00     0.158 C 
ATOM      8  O   UNL     1       9.971  23.450  10.488  1.00  0.00    -0.295 OA
ENDROOT
BRANCH   5   9
ATOM      9  C   UNL     1       9.984  19.221   8.047  1.00  0.00    -0.077 C 
ATOM     10  C   UNL     1       8.886  18.772   8.679  1.00  0.00     0.008 C 
ATOM     11  C   UNL     1      10.747  18.268   7.162  1.00  0.00     0.039 C 
ENDBRANCH   5   9
TORSDOF 1
ENDMDL
MODEL 2
REMARK VINA RESULT:    -3.161     14.042     15.468
REMARK INTER + INTRA:          -3.442
REMARK INTER:                  -3.346
REMARK INTRA:                  -0.096
REMARK UNBOUND:                -0.096
REMARK SMILES C=C(C)[C@H]1CC=C(C)C(=O)C1
REMARK SMILES IDX 8 1 7 2 6 3 5 4 4 5 11 6 9 7 10 8 2 9 1 10 3 11
REMARK H PARENT
REMARK Flexibility Score: inf
ROOT
ATOM      1  C   UNL     1      10.297  21.655  19.923  1.00  0.00     0.048 C 
ATOM      2  C   UNL     1      10.227  21.840  21.413  1.00  0.00    -0.012 C 
ATOM      3  C   UNL     1      11.123  21.229  22.206  1.00  0.00    -0.019 C 
ATOM      4  C   UNL     1      11.088  21.365  23.705  1.00  0.00     0.036 C 
ATOM      5  C   UNL     1      10.565  22.753  24.123  1.00  0.00     0.025 C 
ATOM      6  C   UNL     1       9.191  23.022  23.481  1.00  0.00     0.089 C 
ATOM      7  C   UNL     1       9.250  22.794  21.994  1.00  0.00     0.158 C 
ATOM      8  O   UNL     1       8.431  23.397  21.249  1.00  0.00    -0.295 OA
ENDROOT
BRANCH   5   9
ATOM      9  C   UNL     1      10.515  22.901  25.638  1.00  0.00    -0.077 C 
ATOM     10  C   UNL     1      11.120  22.017  26.448  1.00  0.00     0.008 C 
ATOM     11  C   UNL     1       9.776  24.060  26.259  1.00  0.00     0.039 C 
ENDBRANCH   5   9
TORSDOF 1
ENDMDL
MODEL 3
REMARK VINA RESULT:    -3.069     12.423     13.513
REMARK INTER + INTRA:          -3.345
REMARK INTER:                  -3.256
REMARK INTRA:                  -0.089
REMARK UNBOUND:                -0.096
REMARK SMILES C=C(C)[C@H]1CC=C(C)C(=O)C1
REMARK SMILES IDX 8 1 7 2 6 3 5 4 4 5 11 6 9 7 10 8 2 9 1 10 3 11
REMARK H PARENT
REMARK Flexibility Score: inf
ROOT
ATOM      1  C   UNL     1      10.242  26.034  19.900  1.00  0.00     0.048 C 
ATOM      2  C   UNL     1       8.768  25.872  20.151  1.00  0.00    -0.012 C 
ATOM      3  C   UNL     1       7.891  26.125  19.165  1.00  0.00    -0.019 C 
ATOM      4  C   UNL     1       6.404  25.997  19.366  1.00  0.00     0.036 C 
ATOM      5  C   UNL     1       6.075  24.876  20.371  1.00  0.00     0.025 C 
ATOM      6  C   UNL     1       6.826  25.110  21.696  1.00  0.00     0.089 C 
ATOM      7  C   UNL     1       8.294  25.315  21.442  1.00  0.00     0.158 C 
ATOM      8  O   UNL     1       9.119  25.042  22.356  1.00  0.00    -0.295 OA
ENDROOT
BRANCH   5   9
ATOM      9  C   UNL     1       4.575  24.742  20.592  1.00  0.00    -0.077 C 
ATOM     10  C   UNL     1       3.859  23.787  19.974  1.00  0.00     0.008 C 
ATOM     11  C   UNL     1       3.861  25.690  21.522  1.00  0.00     0.039 C 
ENDBRANCH   5   9
TORSDOF 1
ENDMDL
MODEL 4
REMARK VINA RESULT:    -2.990     14.584     15.918
REMARK INTER + INTRA:          -3.261
REMARK INTER:                  -3.164
REMARK INTRA:                  -0.096
REMARK UNBOUND:                -0.096
REMARK SMILES C=C(C)[C@H]1CC=C(C)C(=O)C1
REMARK SMILES IDX 8 1 7 2 6 3 5 4 4 5 11 6 9 7 10 8 2 9 1 10 3 11
REMARK H PARENT
REMARK Flexibility Score: inf
ROOT
ATOM      1  C   UNL     1      11.124  22.012  27.086  1.00  0.00     0.048 C 
ATOM      2  C   UNL     1      10.750  22.304  25.658  1.00  0.00    -0.012 C 
ATOM      3  C   UNL     1      11.084  21.437  24.688  1.00  0.00    -0.019 C 
ATOM      4  C   UNL     1      10.752  21.688  23.242  1.00  0.00     0.036 C 
ATOM      5  C   UNL     1       9.430  22.469  23.105  1.00  0.00     0.025 C 
ATOM      6  C   UNL     1       9.492  23.772  23.925  1.00  0.00     0.089 C 
ATOM      7  C   UNL     1       9.908  23.485  25.342  1.00  0.00     0.158 C 
ATOM      8  O   UNL     1       9.563  24.281  26.256  1.00  0.00    -0.295 OA
ENDROOT
BRANCH   5   9
ATOM      9  C   UNL     1       9.086  22.740  21.647  1.00  0.00    -0.077 C 
ATOM     10  C   UNL     1       9.648  22.033  20.652  1.00  0.00     0.008 C 
ATOM     11  C   UNL     1       8.096  23.820  21.293  1.00  0.00     0.039 C 
ENDBRANCH   5   9
TORSDOF 1
ENDMDL
MODEL 5
REMARK VINA RESULT:    -2.908     13.237     14.793
REMARK INTER + INTRA:          -3.174
REMARK INTER:                  -3.080
REMARK INTRA:                  -0.094
REMARK UNBOUND:                -0.096
REMARK SMILES C=C(C)[C@H]1CC=C(C)C(=O)C1
REMARK SMILES IDX 8 1 7 2 6 3 5 4 4 5 11 6 9 7 10 8 2 9 1 10 3 11
REMARK H PARENT
REMARK Flexibility Score: inf
ROOT
ATOM      1  C   UNL     1      10.376  21.625  24.406  1.00  0.00     0.048 C 
ATOM      2  C   UNL     1       9.723  22.598  23.462  1.00  0.00    -0.012 C 
ATOM      3  C   UNL     1       9.808  22.402  22.136  1.00  0.00    -0.019 C 
ATOM      4  C   UNL     1       9.190  23.354  21.147  1.00  0.00     0.036 C 
ATOM      5  C   UNL     1       7.904  23.985  21.715  1.00  0.00     0.025 C 
ATOM      6  C   UNL     1       8.192  24.658  23.070  1.00  0.00     0.089 C 
ATOM      7  C   UNL     1       8.885  23.698  23.999  1.00  0.00     0.158 C 
ATOM      8  O   UNL     1       8.774  23.862  25.244  1.00  0.00    -0.295 OA
ENDROOT
BRANCH   5   9
ATOM      9  C   UNL     1       7.272  24.958  20.729  1.00  0.00    -0.077 C 
ATOM     10  C   UNL     1       8.022  25.814  20.012  1.00  0.00     0.008 C 
ATOM     11  C   UNL     1       5.777  24.976  20.538  1.00  0.00     0.039 C 
ENDBRANCH   5   9
TORSDOF 1
ENDMDL
MODEL 6
REMARK VINA RESULT:    -2.881     13.873     15.179
REMARK INTER + INTRA:          -3.146
REMARK INTER:                  -3.051
REMARK INTRA:                  -0.095
REMARK UNBOUND:                -0.096
REMARK SMILES C=C(C)[C@H]1CC=C(C)C(=O)C1
REMARK SMILES IDX 8 1 7 2 6 3 5 4 4 5 11 6 9 7 10 8 2 9 1 10 3 11
REMARK H PARENT
REMARK Flexibility Score: inf
ROOT
ATOM      1  C   UNL     1       7.280  25.455  20.622  1.00  0.00     0.048 C 
ATOM      2  C   UNL     1       7.910  24.531  21.628  1.00  0.00    -0.012 C 
ATOM      3  C   UNL     1       8.596  23.454  21.211  1.00  0.00    -0.019 C 
ATOM      4  C   UNL     1       9.230  22.487  22.174  1.00  0.00     0.036 C 
ATOM      5  C   UNL     1       9.704  23.209  23.451  1.00  0.00     0.025 C 
ATOM      6  C   UNL     1       8.538  23.988  24.089  1.00  0.00     0.089 C 
ATOM      7  C   UNL     1       7.880  24.879  23.071  1.00  0.00     0.158 C 
ATOM      8  O   UNL     1       7.268  25.910  23.462  1.00  0.00    -0.295 OA
ENDROOT
BRANCH   5   9
ATOM      9  C   UNL     1      10.339  22.241  24.441  1.00  0.00    -0.077 C 
ATOM     10  C   UNL     1      11.125  21.232  24.027  1.00  0.00     0.008 C 
ATOM     11  C   UNL     1      10.094  22.404  25.919  1.00  0.00     0.039 C 
ENDBRANCH   5   9
TORSDOF 1
ENDMDL
MODEL 7
REMARK VINA RESULT:    -2.860     13.179     14.808
REMARK INTER + INTRA:          -3.124
REMARK INTER:                  -3.032
REMARK INTRA:                  -0.092
REMARK UNBOUND:                -0.096
REMARK SMILES C=C(C)[C@H]1CC=C(C)C(=O)C1
REMARK SMILES IDX 8 1 7 2 6 3 5 4 4 5 11 6 9 7 10 8 2 9 1 10 3 11
REMARK H PARENT
REMARK Flexibility Score: inf
ROOT
ATOM      1  C   UNL     1      11.032  21.624  24.937  1.00  0.00     0.048 C 
ATOM      2  C   UNL     1      10.186  22.343  23.922  1.00  0.00    -0.012 C 
ATOM      3  C   UNL     1       9.377  23.342  24.314  1.00  0.00    -0.019 C 
ATOM      4  C   UNL     1       8.494  24.082  23.345  1.00  0.00     0.036 C 
ATOM      5  C   UNL     1       9.153  24.174  21.954  1.00  0.00     0.025 C 
ATOM      6  C   UNL     1       9.527  22.768  21.447  1.00  0.00     0.089 C 
ATOM      7  C   UNL     1      10.338  22.032  22.479  1.00  0.00     0.158 C 
ATOM      8  O   UNL     1      11.124  21.120  22.106  1.00  0.00    -0.295 OA
ENDROOT
BRANCH   5   9
ATOM      9  C   UNL     1       8.267  24.912  20.960  1.00  0.00    -0.077 C 
ATOM     10  C   UNL     1       8.793  25.684  19.993  1.00  0.00     0.008 C 
ATOM     11  C   UNL     1       6.768  24.785  21.045  1.00  0.00     0.039 C 
ENDBRANCH   5   9
TORSDOF 1
ENDMDL
MODEL 8
REMARK VINA RESULT:    -2.823     14.481     15.903
REMARK INTER + INTRA:          -3.084
REMARK INTER:                  -2.987
REMARK INTRA:                  -0.097
REMARK UNBOUND:                -0.096
REMARK SMILES C=C(C)[C@H]1CC=C(C)C(=O)C1
REMARK SMILES IDX 8 1 7 2 6 3 5 4 4 5 11 6 9 7 10 8 2 9 1 10 3 11
REMARK H PARENT
REMARK Flexibility Score: inf
ROOT
ATOM      1  C   UNL     1       7.235  24.641  21.133  1.00  0.00     0.048 C 
ATOM      2  C   UNL     1       8.136  24.201  22.254  1.00  0.00    -0.012 C 
ATOM      3  C   UNL     1       8.146  24.885  23.411  1.00  0.00    -0.019 C 
ATOM      4  C   UNL     1       9.040  24.499  24.559  1.00  0.00     0.036 C 
ATOM      5  C   UNL     1       9.256  22.974  24.606  1.00  0.00     0.025 C 
ATOM      6  C   UNL     1       9.792  22.468  23.253  1.00  0.00     0.089 C 
ATOM      7  C   UNL     1       8.915  22.945  22.126  1.00  0.00     0.158 C 
ATOM      8  O   UNL     1       8.879  22.282  21.055  1.00  0.00    -0.295 OA
ENDROOT
BRANCH   5   9
ATOM      9  C   UNL     1      10.167  22.570  25.756  1.00  0.00    -0.077 C 
ATOM     10  C   UNL     1      11.123  21.639  25.598  1.00  0.00     0.008 C 
ATOM     11  C   UNL     1      10.010  23.219  27.108  1.00  0.00     0.039 C 
ENDBRANCH   5   9
TORSDOF 1
ENDMDL
MODEL 9
REMARK VINA RESULT:    -2.718     13.100     14.465
REMARK INTER + INTRA:          -2.973
REMARK INTER:                  -2.878
REMARK INTRA:                  -0.096
REMARK UNBOUND:                -0.096
REMARK SMILES C=C(C)[C@H]1CC=C(C)C(=O)C1
REMARK SMILES IDX 8 1 7 2 6 3 5 4 4 5 11 6 9 7 10 8 2 9 1 10 3 11
REMARK H PARENT
REMARK Flexibility Score: inf
ROOT
ATOM      1  C   UNL     1       8.968  22.242  25.686  1.00  0.00     0.048 C 
ATOM      2  C   UNL     1       9.552  22.471  24.319  1.00  0.00    -0.012 C 
ATOM      3  C   UNL     1      10.447  21.601  23.820  1.00  0.00    -0.019 C 
ATOM      4  C   UNL     1      11.076  21.792  22.466  1.00  0.00     0.036 C 
ATOM      5  C   UNL     1      10.099  22.479  21.492  1.00  0.00     0.025 C 
ATOM      6  C   UNL     1       9.591  23.804  22.091  1.00  0.00     0.089 C 
ATOM      7  C   UNL     1       9.047  23.583  23.476  1.00  0.00     0.158 C 
ATOM      8  O   UNL     1       8.180  24.379  23.928  1.00  0.00    -0.295 OA
ENDROOT
BRANCH   5   9
ATOM      9  C   UNL     1      10.726  22.687  20.120  1.00  0.00    -0.077 C 
ATOM     10  C   UNL     1      11.125  23.904  19.710  1.00  0.00     0.008 C 
ATOM     11  C   UNL     1      10.912  21.516  19.189  1.00  0.00     0.039 C 
ENDBRANCH   5   9
TORSDOF 1
ENDMDL
