MODEL 1
REMARK VINA RESULT:    -4.459      0.000      0.000
REMARK INTER + INTRA:          -4.459
REMARK INTER:                  -4.459
REMARK INTRA:                   0.000
REMARK UNBOUND:                 0.000
REMARK SMILES CC1=CC[C@@H]2[C@@H](C1)C2(C)C
REMARK SMILES IDX 1 1 2 2 3 3 4 4 5 5 6 6 7 7 8 8 9 9 10 10
REMARK H PARENT
REMARK Flexibility Score: inf
ROOT
ATOM      1  C   UNL     1      54.129  42.321  42.431  1.00  0.00     0.039 C 
ATOM      2  C   UNL     1      54.997  43.546  42.460  1.00  0.00    -0.077 C 
ATOM      3  C   UNL     1      54.432  44.765  42.705  1.00  0.00    -0.028 C 
ATOM      4  C   UNL     1      55.255  46.051  42.722  1.00  0.00     0.031 C 
ATOM      5  C   UNL     1      56.524  45.807  41.897  1.00  0.00     0.003 C 
ATOM      6  C   UNL     1      57.206  44.651  42.720  1.00  0.00     0.003 C 
ATOM      7  C   UNL     1      56.494  43.418  42.151  1.00  0.00     0.034 C 
ATOM      8  C   UNL     1      58.014  45.800  42.160  1.00  0.00    -0.029 C 
ATOM      9  C   UNL     1      58.926  45.455  40.980  1.00  0.00     0.012 C 
ATOM     10  C   UNL     1      58.515  46.848  43.158  1.00  0.00     0.012 C 
ENDROOT
TORSDOF 0
ENDMDL
MODEL 2
REMARK VINA RESULT:    -4.351      1.100      2.470
REMARK INTER + INTRA:          -4.351
REMARK INTER:                  -4.351
REMARK INTRA:                   0.000
REMARK UNBOUND:                 0.000
REMARK SMILES CC1=CC[C@@H]2[C@@H](C1)C2(C)C
REMARK SMILES IDX 1 1 2 2 3 3 4 4 5 5 6 6 7 7 8 8 9 9 10 10
REMARK H PARENT
REMARK Flexibility Score: inf
ROOT
ATOM      1  C   UNL     1      53.380  46.039  42.925  1.00  0.00     0.039 C 
ATOM      2  C   UNL     1      54.665  45.315  42.640  1.00  0.00    -0.077 C 
ATOM      3  C   UNL     1      54.648  43.962  42.453  1.00  0.00    -0.028 C 
ATOM      4  C   UNL     1      55.923  43.166  42.186  1.00  0.00     0.031 C 
ATOM      5  C   UNL     1      57.105  43.974  42.731  1.00  0.00     0.003 C 
ATOM      6  C   UNL     1      57.019  45.275  41.849  1.00  0.00     0.003 C 
ATOM      7  C   UNL     1      55.984  46.098  42.627  1.00  0.00     0.034 C 
ATOM      8  C   UNL     1      58.346  44.619  42.156  1.00  0.00    -0.029 C 
ATOM      9  C   UNL     1      59.250  45.379  43.130  1.00  0.00     0.012 C 
ATOM     10  C   UNL     1      59.022  43.853  41.015  1.00  0.00     0.012 C 
ENDROOT
TORSDOF 0
ENDMDL
MODEL 3
REMARK VINA RESULT:    -4.311      1.597      2.452
REMARK INTER + INTRA:          -4.311
REMARK INTER:                  -4.311
REMARK INTRA:                   0.000
REMARK UNBOUND:                 0.000
REMARK SMILES CC1=CC[C@@H]2[C@@H](C1)C2(C)C
REMARK SMILES IDX 1 1 2 2 3 3 4 4 5 5 6 6 7 7 8 8 9 9 10 10
REMARK H PARENT
REMARK Flexibility Score: inf
ROOT
ATOM      1  C   UNL     1      54.312  44.857  42.422  1.00  0.00     0.039 C 
ATOM      2  C   UNL     1      55.795  44.840  42.187  1.00  0.00    -0.077 C 
ATOM      3  C   UNL     1      56.444  46.006  41.898  1.00  0.00    -0.028 C 
ATOM      4  C   UNL     1      57.945  46.051  41.624  1.00  0.00     0.031 C 
ATOM      5  C   UNL     1      58.382  44.653  41.172  1.00  0.00     0.003 C 
ATOM      6  C   UNL     1      58.034  43.797  42.446  1.00  0.00     0.003 C 
ATOM      7  C   UNL     1      56.547  43.503  42.213  1.00  0.00     0.034 C 
ATOM      8  C   UNL     1      59.321  43.584  41.682  1.00  0.00    -0.029 C 
ATOM      9  C   UNL     1      59.404  42.287  40.872  1.00  0.00     0.012 C 
ATOM     10  C   UNL     1      60.609  44.091  42.337  1.00  0.00     0.012 C 
ENDROOT
TORSDOF 0
ENDMDL
MODEL 4
REMARK VINA RESULT:    -4.179      1.580      3.887
REMARK INTER + INTRA:          -4.179
REMARK INTER:                  -4.179
REMARK INTRA:                   0.000
REMARK UNBOUND:                 0.000
REMARK SMILES CC1=CC[C@@H]2[C@@H](C1)C2(C)C
REMARK SMILES IDX 1 1 2 2 3 3 4 4 5 5 6 6 7 7 8 8 9 9 10 10
REMARK H PARENT
REMARK Flexibility Score: inf
ROOT
ATOM      1  C   UNL     1      60.165  43.117  42.693  1.00  0.00     0.039 C 
ATOM      2  C   UNL     1      58.765  43.620  42.901  1.00  0.00    -0.077 C 
ATOM      3  C   UNL     1      58.527  44.575  43.848  1.00  0.00    -0.028 C 
ATOM      4  C   UNL     1      57.124  45.108  44.125  1.00  0.00     0.031 C 
ATOM      5  C   UNL     1      56.118  44.053  43.651  1.00  0.00     0.003 C 
ATOM      6  C   UNL     1      56.440  43.994  42.112  1.00  0.00     0.003 C 
ATOM      7  C   UNL     1      57.616  43.009  42.089  1.00  0.00     0.034 C 
ATOM      8  C   UNL     1      55.016  43.980  42.618  1.00  0.00    -0.029 C 
ATOM      9  C   UNL     1      54.277  42.647  42.483  1.00  0.00     0.012 C 
ATOM     10  C   UNL     1      54.200  45.263  42.429  1.00  0.00     0.012 C 
ENDROOT
TORSDOF 0
ENDMDL
MODEL 5
REMARK VINA RESULT:    -3.916      1.321      4.248
REMARK INTER + INTRA:          -3.916
REMARK INTER:                  -3.916
REMARK INTRA:                   0.000
REMARK UNBOUND:                 0.000
REMARK SMILES CC1=CC[C@@H]2[C@@H](C1)C2(C)C
REMARK SMILES IDX 1 1 2 2 3 3 4 4 5 5 6 6 7 7 8 8 9 9 10 10
REMARK H PARENT
REMARK Flexibility Score: inf
ROOT
ATOM      1  C   UNL     1      59.577  46.041  44.125  1.00  0.00     0.039 C 
ATOM      2  C   UNL     1      58.486  45.221  43.499  1.00  0.00    -0.077 C 
ATOM      3  C   UNL     1      58.811  44.229  42.618  1.00  0.00    -0.028 C 
ATOM      4  C   UNL     1      57.747  43.378  41.929  1.00  0.00     0.031 C 
ATOM      5  C   UNL     1      56.436  44.171  41.932  1.00  0.00     0.003 C 
ATOM      6  C   UNL     1      56.172  44.319  43.477  1.00  0.00     0.003 C 
ATOM      7  C   UNL     1      57.021  45.552  43.810  1.00  0.00     0.034 C 
ATOM      8  C   UNL     1      55.052  43.992  42.515  1.00  0.00    -0.029 C 
ATOM      9  C   UNL     1      54.043  45.116  42.268  1.00  0.00     0.012 C 
ATOM     10  C   UNL     1      54.521  42.556  42.531  1.00  0.00     0.012 C 
ENDROOT
TORSDOF 0
ENDMDL
MODEL 6
REMARK VINA RESULT:    -3.846      1.417      2.195
REMARK INTER + INTRA:          -3.846
REMARK INTER:                  -3.846
REMARK INTRA:                   0.000
REMARK UNBOUND:                 0.000
REMARK SMILES CC1=CC[C@@H]2[C@@H](C1)C2(C)C
REMARK SMILES IDX 1 1 2 2 3 3 4 4 5 5 6 6 7 7 8 8 9 9 10 10
REMARK H PARENT
REMARK Flexibility Score: inf
ROOT
ATOM      1  C   UNL     1      52.795  45.483  42.208  1.00  0.00     0.039 C 
ATOM      2  C   UNL     1      54.245  45.315  42.562  1.00  0.00    -0.077 C 
ATOM      3  C   UNL     1      54.929  46.363  43.110  1.00  0.00    -0.028 C 
ATOM      4  C   UNL     1      56.410  46.264  43.468  1.00  0.00     0.031 C 
ATOM      5  C   UNL     1      57.025  45.146  42.618  1.00  0.00     0.003 C 
ATOM      6  C   UNL     1      56.207  43.897  43.118  1.00  0.00     0.003 C 
ATOM      7  C   UNL     1      54.951  43.992  42.243  1.00  0.00     0.034 C 
ATOM      8  C   UNL     1      57.698  43.818  42.882  1.00  0.00    -0.029 C 
ATOM      9  C   UNL     1      58.133  43.004  41.661  1.00  0.00     0.012 C 
ATOM     10  C   UNL     1      58.595  43.765  44.123  1.00  0.00     0.012 C 
ENDROOT
TORSDOF 0
ENDMDL
MODEL 7
REMARK VINA RESULT:    -3.724      1.768      3.752
REMARK INTER + INTRA:          -3.724
REMARK INTER:                  -3.724
REMARK INTRA:                   0.000
REMARK UNBOUND:                 0.000
REMARK SMILES CC1=CC[C@@H]2[C@@H](C1)C2(C)C
REMARK SMILES IDX 1 1 2 2 3 3 4 4 5 5 6 6 7 7 8 8 9 9 10 10
REMARK H PARENT
REMARK Flexibility Score: inf
ROOT
ATOM      1  C   UNL     1      59.951  41.802  40.757  1.00  0.00     0.039 C 
ATOM      2  C   UNL     1      59.080  42.953  41.175  1.00  0.00    -0.077 C 
ATOM      3  C   UNL     1      59.478  44.231  40.902  1.00  0.00    -0.028 C 
ATOM      4  C   UNL     1      58.651  45.443  41.323  1.00  0.00     0.031 C 
ATOM      5  C   UNL     1      57.758  45.019  42.495  1.00  0.00     0.003 C 
ATOM      6  C   UNL     1      56.878  43.903  41.819  1.00  0.00     0.003 C 
ATOM      7  C   UNL     1      57.790  42.677  41.956  1.00  0.00     0.034 C 
ATOM      8  C   UNL     1      56.272  44.923  42.756  1.00  0.00    -0.029 C 
ATOM      9  C   UNL     1      55.840  44.390  44.125  1.00  0.00     0.012 C 
ATOM     10  C   UNL     1      55.416  46.024  42.124  1.00  0.00     0.012 C 
ENDROOT
TORSDOF 0
ENDMDL
MODEL 8
REMARK VINA RESULT:    -3.622     21.692     23.280
REMARK INTER + INTRA:          -3.622
REMARK INTER:                  -3.622
REMARK INTRA:                   0.000
REMARK UNBOUND:                 0.000
REMARK SMILES CC1=CC[C@@H]2[C@@H](C1)C2(C)C
REMARK SMILES IDX 1 1 2 2 3 3 4 4 5 5 6 6 7 7 8 8 9 9 10 10
REMARK H PARENT
REMARK Flexibility Score: inf
ROOT
ATOM      1  C   UNL     1      52.899  30.908  25.166  1.00  0.00     0.039 C 
ATOM      2  C   UNL     1      54.174  30.181  25.487  1.00  0.00    -0.077 C 
ATOM      3  C   UNL     1      54.992  30.659  26.470  1.00  0.00    -0.028 C 
ATOM      4  C   UNL     1      56.313  29.980  26.825  1.00  0.00     0.031 C 
ATOM      5  C   UNL     1      56.765  29.166  25.608  1.00  0.00     0.003 C 
ATOM      6  C   UNL     1      55.582  28.135  25.474  1.00  0.00     0.003 C 
ATOM      7  C   UNL     1      54.566  28.948  24.662  1.00  0.00     0.034 C 
ATOM      8  C   UNL     1      57.022  27.707  25.304  1.00  0.00    -0.029 C 
ATOM      9  C   UNL     1      57.446  27.358  23.875  1.00  0.00     0.012 C 
ATOM     10  C   UNL     1      57.643  26.893  26.444  1.00  0.00     0.012 C 
ENDROOT
TORSDOF 0
ENDMDL
MODEL 9
REMARK VINA RESULT:    -3.563     21.117     22.727
REMARK INTER + INTRA:          -3.563
REMARK INTER:                  -3.563
REMARK INTRA:                   0.000
REMARK UNBOUND:                 0.000
REMARK SMILES CC1=CC[C@@H]2[C@@H](C1)C2(C)C
REMARK SMILES IDX 1 1 2 2 3 3 4 4 5 5 6 6 7 7 8 8 9 9 10 10
REMARK H PARENT
REMARK Flexibility Score: inf
ROOT
ATOM      1  C   UNL     1      51.131  29.290  26.238  1.00  0.00     0.039 C 
ATOM      2  C   UNL     1      52.501  28.759  26.551  1.00  0.00    -0.077 C 
ATOM      3  C   UNL     1      52.633  27.498  27.059  1.00  0.00    -0.028 C 
ATOM      4  C   UNL     1      53.995  26.911  27.423  1.00  0.00     0.031 C 
ATOM      5  C   UNL     1      54.958  28.077  27.671  1.00  0.00     0.003 C 
ATOM      6  C   UNL     1      54.967  28.772  26.259  1.00  0.00     0.003 C 
ATOM      7  C   UNL     1      53.723  29.664  26.356  1.00  0.00     0.034 C 
ATOM      8  C   UNL     1      56.241  28.585  27.052  1.00  0.00    -0.029 C 
ATOM      9  C   UNL     1      56.843  29.860  27.647  1.00  0.00     0.012 C 
ATOM     10  C   UNL     1      57.212  27.507  26.561  1.00  0.00     0.012 C 
ENDROOT
TORSDOF 0
ENDMDL
