MODEL 1
REMARK VINA RESULT:    -5.311      0.000      0.000
REMARK INTER + INTRA:          -6.677
REMARK INTER:                  -6.553
REMARK INTRA:                  -0.124
REMARK UNBOUND:                -0.124
REMARK SMILES CCOC(=O)c1ccc(O)c(O)c1
REMARK SMILES IDX 4 1 5 2 3 3 2 4 1 5 6 6 13 7 7 8 11 9 8 10 9 11 12 12 10 14
REMARK H PARENT 12 13 10 15
REMARK Flexibility Score: inf
ROOT
ATOM      1  C   UNL     1     -21.809  -1.693  21.687  1.00  0.00     0.338 C 
ATOM      2  O   UNL     1     -22.388  -2.525  22.440  1.00  0.00    -0.246 OA
ENDROOT
BRANCH   1   3
ATOM      3  O   UNL     1     -21.763  -0.338  22.041  1.00  0.00    -0.462 OA
BRANCH   3   4
ATOM      4  C   UNL     1     -22.505   0.218  23.125  1.00  0.00     0.230 C 
ATOM      5  C   UNL     1     -22.966   1.633  22.790  1.00  0.00     0.049 C 
ENDBRANCH   3   4
ENDBRANCH   1   3
BRANCH   1   6
ATOM      6  C   UNL     1     -21.184  -2.145  20.424  1.00  0.00     0.064 A 
ATOM      7  C   UNL     1     -20.001  -2.902  20.449  1.00  0.00     0.065 A 
ATOM      8  C   UNL     1     -21.764  -1.829  19.185  1.00  0.00     0.020 A 
ATOM      9  C   UNL     1     -19.399  -3.338  19.261  1.00  0.00     0.158 A 
ATOM     10  C   UNL     1     -21.170  -2.259  17.997  1.00  0.00     0.051 A 
ATOM     11  C   UNL     1     -19.991  -3.012  18.018  1.00  0.00     0.157 A 
BRANCH   9  12
ATOM     12  O   UNL     1     -18.223  -4.085  19.363  1.00  0.00    -0.504 OA
ATOM     13  H   UNL     1     -17.638  -4.109  20.184  1.00  0.00     0.293 HD
ENDBRANCH   9  12
BRANCH  11  14
ATOM     14  O   UNL     1     -19.448  -3.411  16.796  1.00  0.00    -0.504 OA
ATOM     15  H   UNL     1     -18.757  -4.140  16.695  1.00  0.00     0.293 HD
ENDBRANCH  11  14
ENDBRANCH   1   6
TORSDOF 5
ENDMDL
MODEL 2
REMARK VINA RESULT:    -5.263     16.987     18.588
REMARK INTER + INTRA:          -6.618
REMARK INTER:                  -6.311
REMARK INTRA:                  -0.306
REMARK UNBOUND:                -0.124
REMARK SMILES CCOC(=O)c1ccc(O)c(O)c1
REMARK SMILES IDX 4 1 5 2 3 3 2 4 1 5 6 6 13 7 7 8 11 9 8 10 9 11 12 12 10 14
REMARK H PARENT 12 13 10 15
REMARK Flexibility Score: inf
ROOT
ATOM      1  C   UNL     1      -6.781  -6.782   8.239  1.00  0.00     0.338 C 
ATOM      2  O   UNL     1      -6.802  -8.043   8.225  1.00  0.00    -0.246 OA
ENDROOT
BRANCH   1   3
ATOM      3  O   UNL     1      -5.758  -6.103   8.915  1.00  0.00    -0.462 OA
BRANCH   3   4
ATOM      4  C   UNL     1      -5.996  -5.135   9.935  1.00  0.00     0.230 C 
ATOM      5  C   UNL     1      -6.367  -5.818  11.247  1.00  0.00     0.049 C 
ENDBRANCH   3   4
ENDBRANCH   1   3
BRANCH   1   6
ATOM      6  C   UNL     1      -7.841  -6.014   7.549  1.00  0.00     0.064 A 
ATOM      7  C   UNL     1      -9.141  -5.964   8.079  1.00  0.00     0.065 A 
ATOM      8  C   UNL     1      -7.565  -5.324   6.357  1.00  0.00     0.020 A 
ATOM      9  C   UNL     1     -10.154  -5.240   7.436  1.00  0.00     0.158 A 
ATOM     10  C   UNL     1      -8.569  -4.600   5.711  1.00  0.00     0.051 A 
ATOM     11  C   UNL     1      -9.865  -4.549   6.236  1.00  0.00     0.157 A 
BRANCH   9  12
ATOM     12  O   UNL     1     -11.423  -5.236   8.021  1.00  0.00    -0.504 OA
ATOM     13  H   UNL     1     -12.004  -6.056   8.117  1.00  0.00     0.293 HD
ENDBRANCH   9  12
BRANCH  11  14
ATOM     14  O   UNL     1     -10.823  -3.809   5.542  1.00  0.00    -0.504 OA
ATOM     15  H   UNL     1     -10.609  -3.016   4.955  1.00  0.00     0.293 HD
ENDBRANCH  11  14
ENDBRANCH   1   6
TORSDOF 5
ENDMDL
MODEL 3
REMARK VINA RESULT:    -5.179     17.753     18.919
REMARK INTER + INTRA:          -6.513
REMARK INTER:                  -6.197
REMARK INTRA:                  -0.316
REMARK UNBOUND:                -0.124
REMARK SMILES CCOC(=O)c1ccc(O)c(O)c1
REMARK SMILES IDX 4 1 5 2 3 3 2 4 1 5 6 6 13 7 7 8 11 9 8 10 9 11 12 12 10 14
REMARK H PARENT 12 13 10 15
REMARK Flexibility Score: inf
ROOT
ATOM      1  C   UNL     1      -6.786  -6.724   8.175  1.00  0.00     0.338 C 
ATOM      2  O   UNL     1      -6.786  -7.984   8.109  1.00  0.00    -0.246 OA
ENDROOT
BRANCH   1   3
ATOM      3  O   UNL     1      -5.808  -6.059   8.928  1.00  0.00    -0.462 OA
BRANCH   3   4
ATOM      4  C   UNL     1      -6.106  -5.244  10.060  1.00  0.00     0.230 C 
ATOM      5  C   UNL     1      -6.613  -6.098  11.217  1.00  0.00     0.049 C 
ENDBRANCH   3   4
ENDBRANCH   1   3
BRANCH   1   6
ATOM      6  C   UNL     1      -7.823  -5.944   7.465  1.00  0.00     0.064 A 
ATOM      7  C   UNL     1      -7.483  -5.159   6.349  1.00  0.00     0.065 A 
ATOM      8  C   UNL     1      -9.161  -5.976   7.890  1.00  0.00     0.020 A 
ATOM      9  C   UNL     1      -8.455  -4.416   5.666  1.00  0.00     0.158 A 
ATOM     10  C   UNL     1     -10.136  -5.238   7.215  1.00  0.00     0.051 A 
ATOM     11  C   UNL     1      -9.800  -4.456   6.105  1.00  0.00     0.157 A 
BRANCH   9  12
ATOM     12  O   UNL     1      -8.043  -3.660   4.567  1.00  0.00    -0.504 OA
ATOM     13  H   UNL     1      -8.611  -2.953   4.123  1.00  0.00     0.293 HD
ENDBRANCH   9  12
BRANCH  11  14
ATOM     14  O   UNL     1     -10.820  -3.743   5.474  1.00  0.00    -0.504 OA
ATOM     15  H   UNL     1     -10.954  -2.747   5.565  1.00  0.00     0.293 HD
ENDBRANCH  11  14
ENDBRANCH   1   6
TORSDOF 5
ENDMDL
MODEL 4
REMARK VINA RESULT:    -5.094     16.949     18.959
REMARK INTER + INTRA:          -6.409
REMARK INTER:                  -6.152
REMARK INTRA:                  -0.257
REMARK UNBOUND:                -0.124
REMARK SMILES CCOC(=O)c1ccc(O)c(O)c1
REMARK SMILES IDX 4 1 5 2 3 3 2 4 1 5 6 6 13 7 7 8 11 9 8 10 9 11 12 12 10 14
REMARK H PARENT 12 13 10 15
REMARK Flexibility Score: inf
ROOT
ATOM      1  C   UNL     1      -6.665  -6.522   8.458  1.00  0.00     0.338 C 
ATOM      2  O   UNL     1      -5.704  -5.855   8.929  1.00  0.00    -0.246 OA
ENDROOT
BRANCH   1   3
ATOM      3  O   UNL     1      -6.710  -7.912   8.633  1.00  0.00    -0.462 OA
BRANCH   3   4
ATOM      4  C   UNL     1      -7.051  -8.826   7.592  1.00  0.00     0.230 C 
ATOM      5  C   UNL     1      -7.959  -9.930   8.123  1.00  0.00     0.049 C 
ENDBRANCH   3   4
ENDBRANCH   1   3
BRANCH   1   6
ATOM      6  C   UNL     1      -7.746  -5.840   7.711  1.00  0.00     0.064 A 
ATOM      7  C   UNL     1      -9.054  -5.811   8.224  1.00  0.00     0.065 A 
ATOM      8  C   UNL     1      -7.483  -5.212   6.483  1.00  0.00     0.020 A 
ATOM      9  C   UNL     1     -10.087  -5.168   7.529  1.00  0.00     0.158 A 
ATOM     10  C   UNL     1      -8.506  -4.569   5.785  1.00  0.00     0.051 A 
ATOM     11  C   UNL     1      -9.809  -4.539   6.292  1.00  0.00     0.157 A 
BRANCH   9  12
ATOM     12  O   UNL     1     -11.362  -5.179   8.100  1.00  0.00    -0.504 OA
ATOM     13  H   UNL     1     -12.017  -4.414   8.034  1.00  0.00     0.293 HD
ENDBRANCH   9  12
BRANCH  11  14
ATOM     14  O   UNL     1     -10.787  -3.879   5.545  1.00  0.00    -0.504 OA
ATOM     15  H   UNL     1     -11.119  -2.947   5.745  1.00  0.00     0.293 HD
ENDBRANCH  11  14
ENDBRANCH   1   6
TORSDOF 5
ENDMDL
MODEL 5
REMARK VINA RESULT:    -5.083      2.188      4.982
REMARK INTER + INTRA:          -6.396
REMARK INTER:                  -6.191
REMARK INTRA:                  -0.205
REMARK UNBOUND:                -0.124
REMARK SMILES CCOC(=O)c1ccc(O)c(O)c1
REMARK SMILES IDX 4 1 5 2 3 3 2 4 1 5 6 6 13 7 7 8 11 9 8 10 9 11 12 12 10 14
REMARK H PARENT 12 13 10 15
REMARK Flexibility Score: inf
ROOT
ATOM      1  C   UNL     1     -21.599  -1.865  17.347  1.00  0.00     0.338 C 
ATOM      2  O   UNL     1     -20.678  -2.010  16.496  1.00  0.00    -0.246 OA
ENDROOT
BRANCH   1   3
ATOM      3  O   UNL     1     -22.783  -1.204  16.996  1.00  0.00    -0.462 OA
BRANCH   3   4
ATOM      4  C   UNL     1     -23.355  -1.253  15.690  1.00  0.00     0.230 C 
ATOM      5  C   UNL     1     -24.304  -2.439  15.564  1.00  0.00     0.049 C 
ENDBRANCH   3   4
ENDBRANCH   1   3
BRANCH   1   6
ATOM      6  C   UNL     1     -21.427  -2.388  18.720  1.00  0.00     0.064 A 
ATOM      7  C   UNL     1     -21.712  -1.574  19.830  1.00  0.00     0.065 A 
ATOM      8  C   UNL     1     -20.982  -3.702  18.938  1.00  0.00     0.020 A 
ATOM      9  C   UNL     1     -21.555  -2.055  21.137  1.00  0.00     0.158 A 
ATOM     10  C   UNL     1     -20.823  -4.189  20.236  1.00  0.00     0.051 A 
ATOM     11  C   UNL     1     -21.105  -3.381  21.343  1.00  0.00     0.157 A 
BRANCH   9  12
ATOM     12  O   UNL     1     -21.856  -1.189  22.190  1.00  0.00    -0.504 OA
ATOM     13  H   UNL     1     -21.593  -1.354  23.150  1.00  0.00     0.293 HD
ENDBRANCH   9  12
BRANCH  11  14
ATOM     14  O   UNL     1     -20.926  -3.928  22.614  1.00  0.00    -0.504 OA
ATOM     15  H   UNL     1     -20.302  -4.695  22.817  1.00  0.00     0.293 HD
ENDBRANCH  11  14
ENDBRANCH   1   6
TORSDOF 5
ENDMDL
MODEL 6
REMARK VINA RESULT:    -5.026      1.726      5.430
REMARK INTER + INTRA:          -6.325
REMARK INTER:                  -6.157
REMARK INTRA:                  -0.168
REMARK UNBOUND:                -0.124
REMARK SMILES CCOC(=O)c1ccc(O)c(O)c1
REMARK SMILES IDX 4 1 5 2 3 3 2 4 1 5 6 6 13 7 7 8 11 9 8 10 9 11 12 12 10 14
REMARK H PARENT 12 13 10 15
REMARK Flexibility Score: inf
ROOT
ATOM      1  C   UNL     1     -20.245  -4.243  19.161  1.00  0.00     0.338 C 
ATOM      2  O   UNL     1     -20.132  -5.475  19.408  1.00  0.00    -0.246 OA
ENDROOT
BRANCH   1   3
ATOM      3  O   UNL     1     -19.830  -3.732  17.925  1.00  0.00    -0.462 OA
BRANCH   3   4
ATOM      4  C   UNL     1     -18.461  -3.543  17.571  1.00  0.00     0.230 C 
ATOM      5  C   UNL     1     -18.282  -3.611  16.058  1.00  0.00     0.049 C 
ENDBRANCH   3   4
ENDBRANCH   1   3
BRANCH   1   6
ATOM      6  C   UNL     1     -20.809  -3.331  20.181  1.00  0.00     0.064 A 
ATOM      7  C   UNL     1     -21.044  -1.980  19.874  1.00  0.00     0.065 A 
ATOM      8  C   UNL     1     -21.120  -3.800  21.468  1.00  0.00     0.020 A 
ATOM      9  C   UNL     1     -21.579  -1.106  20.830  1.00  0.00     0.158 A 
ATOM     10  C   UNL     1     -21.653  -2.936  22.426  1.00  0.00     0.051 A 
ATOM     11  C   UNL     1     -21.887  -1.590  22.123  1.00  0.00     0.157 A 
BRANCH   9  12
ATOM     12  O   UNL     1     -21.785   0.223  20.454  1.00  0.00    -0.504 OA
ATOM     13  H   UNL     1     -22.696   0.643  20.337  1.00  0.00     0.293 HD
ENDBRANCH   9  12
BRANCH  11  14
ATOM     14  O   UNL     1     -22.422  -0.778  23.125  1.00  0.00    -0.504 OA
ATOM     15  H   UNL     1     -22.065  -0.734  24.068  1.00  0.00     0.293 HD
ENDBRANCH  11  14
ENDBRANCH   1   6
TORSDOF 5
ENDMDL
MODEL 7
REMARK VINA RESULT:    -4.931     14.743     17.633
REMARK INTER + INTRA:          -6.208
REMARK INTER:                  -5.962
REMARK INTRA:                  -0.246
REMARK UNBOUND:                -0.124
REMARK SMILES CCOC(=O)c1ccc(O)c(O)c1
REMARK SMILES IDX 4 1 5 2 3 3 2 4 1 5 6 6 13 7 7 8 11 9 8 10 9 11 12 12 10 14
REMARK H PARENT 12 13 10 15
REMARK Flexibility Score: inf
ROOT
ATOM      1  C   UNL     1      -9.651  -6.996   8.980  1.00  0.00     0.338 C 
ATOM      2  O   UNL     1      -8.786  -7.576   9.693  1.00  0.00    -0.246 OA
ENDROOT
BRANCH   1   3
ATOM      3  O   UNL     1     -11.016  -7.176   9.243  1.00  0.00    -0.462 OA
BRANCH   3   4
ATOM      4  C   UNL     1     -11.676  -6.630  10.384  1.00  0.00     0.230 C 
ATOM      5  C   UNL     1     -12.448  -5.371  10.005  1.00  0.00     0.049 C 
ENDBRANCH   3   4
ENDBRANCH   1   3
BRANCH   1   6
ATOM      6  C   UNL     1      -9.227  -6.129   7.858  1.00  0.00     0.064 A 
ATOM      7  C   UNL     1     -10.169  -5.344   7.172  1.00  0.00     0.065 A 
ATOM      8  C   UNL     1      -7.880  -6.075   7.464  1.00  0.00     0.020 A 
ATOM      9  C   UNL     1      -9.781  -4.518   6.108  1.00  0.00     0.158 A 
ATOM     10  C   UNL     1      -7.486  -5.255   6.405  1.00  0.00     0.051 A 
ATOM     11  C   UNL     1      -8.422  -4.473   5.719  1.00  0.00     0.157 A 
BRANCH   9  12
ATOM     12  O   UNL     1     -10.772  -3.767   5.473  1.00  0.00    -0.504 OA
ATOM     13  H   UNL     1     -11.556  -3.346   5.950  1.00  0.00     0.293 HD
ENDBRANCH   9  12
BRANCH  11  14
ATOM     14  O   UNL     1      -7.963  -3.674   4.671  1.00  0.00    -0.504 OA
ATOM     15  H   UNL     1      -7.908  -2.667   4.709  1.00  0.00     0.293 HD
ENDBRANCH  11  14
ENDBRANCH   1   6
TORSDOF 5
ENDMDL
MODEL 8
REMARK VINA RESULT:    -4.919      2.185      5.140
REMARK INTER + INTRA:          -6.193
REMARK INTER:                  -5.917
REMARK INTRA:                  -0.276
REMARK UNBOUND:                -0.124
REMARK SMILES CCOC(=O)c1ccc(O)c(O)c1
REMARK SMILES IDX 4 1 5 2 3 3 2 4 1 5 6 6 13 7 7 8 11 9 8 10 9 11 12 12 10 14
REMARK H PARENT 12 13 10 15
REMARK Flexibility Score: inf
ROOT
ATOM      1  C   UNL     1     -21.730  -1.879  17.277  1.00  0.00     0.338 C 
ATOM      2  O   UNL     1     -22.657  -1.053  17.051  1.00  0.00    -0.246 OA
ENDROOT
BRANCH   1   3
ATOM      3  O   UNL     1     -20.914  -2.325  16.229  1.00  0.00    -0.462 OA
BRANCH   3   4
ATOM      4  C   UNL     1     -19.558  -1.915  16.059  1.00  0.00     0.230 C 
ATOM      5  C   UNL     1     -18.615  -3.103  16.216  1.00  0.00     0.049 C 
ENDBRANCH   3   4
ENDBRANCH   1   3
BRANCH   1   6
ATOM      6  C   UNL     1     -21.506  -2.385  18.650  1.00  0.00     0.064 A 
ATOM      7  C   UNL     1     -21.722  -1.549  19.759  1.00  0.00     0.065 A 
ATOM      8  C   UNL     1     -21.078  -3.705  18.866  1.00  0.00     0.020 A 
ATOM      9  C   UNL     1     -21.515  -2.015  21.064  1.00  0.00     0.158 A 
ATOM     10  C   UNL     1     -20.870  -4.177  20.163  1.00  0.00     0.051 A 
ATOM     11  C   UNL     1     -21.083  -3.347  21.269  1.00  0.00     0.157 A 
BRANCH   9  12
ATOM     12  O   UNL     1     -21.749  -1.128  22.117  1.00  0.00    -0.504 OA
ATOM     13  H   UNL     1     -21.599  -1.353  23.089  1.00  0.00     0.293 HD
ENDBRANCH   9  12
BRANCH  11  14
ATOM     14  O   UNL     1     -20.857  -3.879  22.539  1.00  0.00    -0.504 OA
ATOM     15  H   UNL     1     -19.967  -4.239  22.852  1.00  0.00     0.293 HD
ENDBRANCH  11  14
ENDBRANCH   1   6
TORSDOF 5
ENDMDL
MODEL 9
REMARK VINA RESULT:    -4.863     16.656     18.109
REMARK INTER + INTRA:          -6.124
REMARK INTER:                  -5.838
REMARK INTRA:                  -0.286
REMARK UNBOUND:                -0.124
REMARK SMILES CCOC(=O)c1ccc(O)c(O)c1
REMARK SMILES IDX 4 1 5 2 3 3 2 4 1 5 6 6 13 7 7 8 11 9 8 10 9 11 12 12 10 14
REMARK H PARENT 12 13 10 15
REMARK Flexibility Score: inf
ROOT
ATOM      1  C   UNL     1      -9.509  -6.860   9.053  1.00  0.00     0.338 C 
ATOM      2  O   UNL     1     -10.142  -7.942   8.905  1.00  0.00    -0.246 OA
ENDROOT
BRANCH   1   3
ATOM      3  O   UNL     1      -9.155  -6.422  10.336  1.00  0.00    -0.462 OA
BRANCH   3   4
ATOM      4  C   UNL     1      -8.146  -7.045  11.130  1.00  0.00     0.230 C 
ATOM      5  C   UNL     1      -6.821  -6.303  10.992  1.00  0.00     0.049 C 
ENDBRANCH   3   4
ENDBRANCH   1   3
BRANCH   1   6
ATOM      6  C   UNL     1      -9.145  -6.046   7.872  1.00  0.00     0.064 A 
ATOM      7  C   UNL     1     -10.116  -5.265   7.222  1.00  0.00     0.065 A 
ATOM      8  C   UNL     1      -7.829  -6.039   7.384  1.00  0.00     0.020 A 
ATOM      9  C   UNL     1      -9.786  -4.489   6.103  1.00  0.00     0.158 A 
ATOM     10  C   UNL     1      -7.492  -5.269   6.269  1.00  0.00     0.051 A 
ATOM     11  C   UNL     1      -8.456  -4.491   5.620  1.00  0.00     0.157 A 
BRANCH   9  12
ATOM     12  O   UNL     1     -10.803  -3.738   5.509  1.00  0.00    -0.504 OA
ATOM     13  H   UNL     1     -11.786  -3.947   5.599  1.00  0.00     0.293 HD
ENDBRANCH   9  12
BRANCH  11  14
ATOM     14  O   UNL     1      -8.055  -3.743   4.512  1.00  0.00    -0.504 OA
ATOM     15  H   UNL     1      -7.116  -3.740   4.142  1.00  0.00     0.293 HD
ENDBRANCH  11  14
ENDBRANCH   1   6
TORSDOF 5
ENDMDL
