MODEL 1
REMARK VINA RESULT:    -4.754      0.000      0.000
REMARK INTER + INTRA:          -5.733
REMARK INTER:                  -5.449
REMARK INTRA:                  -0.284
REMARK UNBOUND:                -0.284
REMARK SMILES O=C([O-])C=Cc1ccc(O)cc1
REMARK SMILES IDX 6 1 7 2 12 3 8 4 11 5 9 6 5 7 4 8 2 9 1 10 3 11 10 12
REMARK H PARENT 10 13
REMARK Flexibility Score: inf
ROOT
ATOM      1  C   UNL     1       8.289  -7.680  -9.167  1.00  0.00    -0.025 A 
ATOM      2  C   UNL     1       9.602  -8.016  -8.806  1.00  0.00     0.012 A 
ATOM      3  C   UNL     1       7.721  -6.493  -8.671  1.00  0.00     0.012 A 
ATOM      4  C   UNL     1      10.320  -7.205  -7.920  1.00  0.00     0.047 A 
ATOM      5  C   UNL     1       8.440  -5.684  -7.786  1.00  0.00     0.047 A 
ATOM      6  C   UNL     1       9.740  -6.041  -7.405  1.00  0.00     0.115 A 
ENDROOT
BRANCH   1   7
ATOM      7  C   UNL     1       7.569  -8.522 -10.145  1.00  0.00     0.010 C 
ATOM      8  C   UNL     1       7.693  -8.442 -11.479  1.00  0.00     0.025 C 
BRANCH   8   9
ATOM      9  C   UNL     1       8.416  -7.385 -12.209  1.00  0.00     0.064 C 
ATOM     10  O   UNL     1       9.581  -7.613 -12.628  1.00  0.00    -0.545 OA
ATOM     11  O   UNL     1       7.817  -6.168 -12.508  1.00  0.00    -0.545 OA
ENDBRANCH   8   9
ENDBRANCH   1   7
BRANCH   6  12
ATOM     12  O   UNL     1      10.467  -5.243  -6.523  1.00  0.00    -0.508 OA
ATOM     13  H   UNL     1      11.100  -5.648  -5.844  1.00  0.00     0.293 HD
ENDBRANCH   6  12
TORSDOF 3
ENDMDL
MODEL 2
REMARK VINA RESULT:    -4.475      2.333      3.053
REMARK INTER + INTRA:          -5.414
REMARK INTER:                  -5.122
REMARK INTRA:                  -0.291
REMARK UNBOUND:                -0.284
REMARK SMILES O=C([O-])C=Cc1ccc(O)cc1
REMARK SMILES IDX 6 1 7 2 12 3 8 4 11 5 9 6 5 7 4 8 2 9 1 10 3 11 10 12
REMARK H PARENT 10 13
REMARK Flexibility Score: inf
ROOT
ATOM      1  C   UNL     1      10.051  -6.990  -8.123  1.00  0.00    -0.025 A 
ATOM      2  C   UNL     1       9.760  -8.361  -8.140  1.00  0.00     0.012 A 
ATOM      3  C   UNL     1       9.264  -6.129  -7.337  1.00  0.00     0.012 A 
ATOM      4  C   UNL     1       8.666  -8.860  -7.425  1.00  0.00     0.047 A 
ATOM      5  C   UNL     1       8.171  -6.629  -6.623  1.00  0.00     0.047 A 
ATOM      6  C   UNL     1       7.866  -7.995  -6.669  1.00  0.00     0.115 A 
ENDROOT
BRANCH   1   7
ATOM      7  C   UNL     1      11.243  -6.494  -8.842  1.00  0.00     0.010 C 
ATOM      8  C   UNL     1      11.238  -5.939 -10.064  1.00  0.00     0.025 C 
BRANCH   8   9
ATOM      9  C   UNL     1      10.083  -5.897 -10.979  1.00  0.00     0.064 C 
ATOM     10  O   UNL     1       9.361  -4.867 -11.014  1.00  0.00    -0.545 OA
ATOM     11  O   UNL     1       9.814  -6.940 -11.858  1.00  0.00    -0.545 OA
ENDBRANCH   8   9
ENDBRANCH   1   7
BRANCH   6  12
ATOM     12  O   UNL     1       6.779  -8.505  -5.962  1.00  0.00    -0.508 OA
ATOM     13  H   UNL     1       5.886  -8.667  -6.412  1.00  0.00     0.293 HD
ENDBRANCH   6  12
TORSDOF 3
ENDMDL
MODEL 3
REMARK VINA RESULT:    -4.457      1.954      2.494
REMARK INTER + INTRA:          -5.392
REMARK INTER:                  -5.105
REMARK INTRA:                  -0.287
REMARK UNBOUND:                -0.284
REMARK SMILES O=C([O-])C=Cc1ccc(O)cc1
REMARK SMILES IDX 6 1 7 2 12 3 8 4 11 5 9 6 5 7 4 8 2 9 1 10 3 11 10 12
REMARK H PARENT 10 13
REMARK Flexibility Score: inf
ROOT
ATOM      1  C   UNL     1       9.308  -7.529  -7.687  1.00  0.00    -0.025 A 
ATOM      2  C   UNL     1       8.256  -7.988  -6.881  1.00  0.00     0.012 A 
ATOM      3  C   UNL     1       9.824  -6.238  -7.475  1.00  0.00     0.012 A 
ATOM      4  C   UNL     1       7.691  -7.151  -5.913  1.00  0.00     0.047 A 
ATOM      5  C   UNL     1       9.259  -5.403  -6.507  1.00  0.00     0.047 A 
ATOM      6  C   UNL     1       8.188  -5.856  -5.726  1.00  0.00     0.115 A 
ENDROOT
BRANCH   1   7
ATOM      7  C   UNL     1       9.924  -8.448  -8.666  1.00  0.00     0.010 C 
ATOM      8  C   UNL     1       9.544  -8.588  -9.946  1.00  0.00     0.025 C 
BRANCH   8   9
ATOM      9  C   UNL     1       8.336  -7.997 -10.548  1.00  0.00     0.064 C 
ATOM     10  O   UNL     1       7.268  -8.663 -10.567  1.00  0.00    -0.545 OA
ATOM     11  O   UNL     1       8.328  -6.695 -11.032  1.00  0.00    -0.545 OA
ENDBRANCH   8   9
ENDBRANCH   1   7
BRANCH   6  12
ATOM     12  O   UNL     1       7.615  -5.034  -4.758  1.00  0.00    -0.508 OA
ATOM     13  H   UNL     1       6.735  -4.559  -4.921  1.00  0.00     0.293 HD
ENDBRANCH   6  12
TORSDOF 3
ENDMDL
MODEL 4
REMARK VINA RESULT:    -4.365     12.010     13.788
REMARK INTER + INTRA:          -5.287
REMARK INTER:                  -4.999
REMARK INTRA:                  -0.288
REMARK UNBOUND:                -0.284
REMARK SMILES O=C([O-])C=Cc1ccc(O)cc1
REMARK SMILES IDX 6 1 7 2 12 3 8 4 11 5 9 6 5 7 4 8 2 9 1 10 3 11 10 12
REMARK H PARENT 10 13
REMARK Flexibility Score: inf
ROOT
ATOM      1  C   UNL     1      21.710  -2.457  -7.524  1.00  0.00    -0.025 A 
ATOM      2  C   UNL     1      21.356  -2.783  -6.206  1.00  0.00     0.012 A 
ATOM      3  C   UNL     1      20.699  -2.270  -8.482  1.00  0.00     0.012 A 
ATOM      4  C   UNL     1      20.013  -2.969  -5.862  1.00  0.00     0.047 A 
ATOM      5  C   UNL     1      19.357  -2.458  -8.137  1.00  0.00     0.047 A 
ATOM      6  C   UNL     1      19.011  -2.812  -6.826  1.00  0.00     0.115 A 
ENDROOT
BRANCH   1   7
ATOM      7  C   UNL     1      23.130  -2.212  -7.852  1.00  0.00     0.010 C 
ATOM      8  C   UNL     1      23.950  -3.087  -8.455  1.00  0.00     0.025 C 
BRANCH   8   9
ATOM      9  C   UNL     1      23.642  -4.502  -8.725  1.00  0.00     0.064 C 
ATOM     10  O   UNL     1      24.007  -5.381  -7.900  1.00  0.00    -0.545 OA
ATOM     11  O   UNL     1      22.895  -4.885  -9.832  1.00  0.00    -0.545 OA
ENDBRANCH   8   9
ENDBRANCH   1   7
BRANCH   6  12
ATOM     12  O   UNL     1      17.678  -3.003  -6.469  1.00  0.00    -0.508 OA
ATOM     13  H   UNL     1      17.413  -3.241  -5.521  1.00  0.00     0.293 HD
ENDBRANCH   6  12
TORSDOF 3
ENDMDL
MODEL 5
REMARK VINA RESULT:    -4.206     13.210     15.163
REMARK INTER + INTRA:          -5.105
REMARK INTER:                  -4.831
REMARK INTRA:                  -0.274
REMARK UNBOUND:                -0.284
REMARK SMILES O=C([O-])C=Cc1ccc(O)cc1
REMARK SMILES IDX 6 1 7 2 12 3 8 4 11 5 9 6 5 7 4 8 2 9 1 10 3 11 10 12
REMARK H PARENT 10 13
REMARK Flexibility Score: inf
ROOT
ATOM      1  C   UNL     1      23.610  -3.681  -7.898  1.00  0.00    -0.025 A 
ATOM      2  C   UNL     1      23.580  -4.582  -8.973  1.00  0.00     0.012 A 
ATOM      3  C   UNL     1      24.125  -4.105  -6.659  1.00  0.00     0.012 A 
ATOM      4  C   UNL     1      24.010  -5.902  -8.800  1.00  0.00     0.047 A 
ATOM      5  C   UNL     1      24.553  -5.426  -6.488  1.00  0.00     0.047 A 
ATOM      6  C   UNL     1      24.492  -6.328  -7.558  1.00  0.00     0.115 A 
ENDROOT
BRANCH   1   7
ATOM      7  C   UNL     1      23.203  -2.279  -8.117  1.00  0.00     0.010 C 
ATOM      8  C   UNL     1      22.043  -1.735  -7.718  1.00  0.00     0.025 C 
BRANCH   8   9
ATOM      9  C   UNL     1      20.897  -2.477  -7.162  1.00  0.00     0.064 C 
ATOM     10  O   UNL     1      19.972  -2.848  -7.931  1.00  0.00    -0.545 OA
ATOM     11  O   UNL     1      20.847  -2.840  -5.822  1.00  0.00    -0.545 OA
ENDBRANCH   8   9
ENDBRANCH   1   7
BRANCH   6  12
ATOM     12  O   UNL     1      24.915  -7.647  -7.400  1.00  0.00    -0.508 OA
ATOM     13  H   UNL     1      24.476  -8.407  -7.905  1.00  0.00     0.293 HD
ENDBRANCH   6  12
TORSDOF 3
ENDMDL
MODEL 6
REMARK VINA RESULT:    -4.182     11.316     12.260
REMARK INTER + INTRA:          -5.078
REMARK INTER:                  -4.822
REMARK INTRA:                  -0.256
REMARK UNBOUND:                -0.284
REMARK SMILES O=C([O-])C=Cc1ccc(O)cc1
REMARK SMILES IDX 6 1 7 2 12 3 8 4 11 5 9 6 5 7 4 8 2 9 1 10 3 11 10 12
REMARK H PARENT 10 13
REMARK Flexibility Score: inf
ROOT
ATOM      1  C   UNL     1      13.911   3.842  -5.614  1.00  0.00    -0.025 A 
ATOM      2  C   UNL     1      14.298   3.381  -4.347  1.00  0.00     0.012 A 
ATOM      3  C   UNL     1      12.587   3.640  -6.045  1.00  0.00     0.012 A 
ATOM      4  C   UNL     1      13.391   2.682  -3.543  1.00  0.00     0.047 A 
ATOM      5  C   UNL     1      11.683   2.941  -5.240  1.00  0.00     0.047 A 
ATOM      6  C   UNL     1      12.084   2.456  -3.988  1.00  0.00     0.115 A 
ENDROOT
BRANCH   1   7
ATOM      7  C   UNL     1      14.868   4.624  -6.423  1.00  0.00     0.010 C 
ATOM      8  C   UNL     1      15.589   4.148  -7.450  1.00  0.00     0.025 C 
BRANCH   8   9
ATOM      9  C   UNL     1      15.699   2.728  -7.831  1.00  0.00     0.064 C 
ATOM     10  O   UNL     1      16.737   2.086  -7.523  1.00  0.00    -0.545 OA
ATOM     11  O   UNL     1      14.655   2.062  -8.460  1.00  0.00    -0.545 OA
ENDBRANCH   8   9
ENDBRANCH   1   7
BRANCH   6  12
ATOM     12  O   UNL     1      11.193   1.757  -3.177  1.00  0.00    -0.508 OA
ATOM     13  H   UNL     1      11.396   1.577  -2.201  1.00  0.00     0.293 HD
ENDBRANCH   6  12
TORSDOF 3
ENDMDL
MODEL 7
REMARK VINA RESULT:    -4.149      2.295      4.138
REMARK INTER + INTRA:          -5.040
REMARK INTER:                  -4.761
REMARK INTRA:                  -0.279
REMARK UNBOUND:                -0.284
REMARK SMILES O=C([O-])C=Cc1ccc(O)cc1
REMARK SMILES IDX 6 1 7 2 12 3 8 4 11 5 9 6 5 7 4 8 2 9 1 10 3 11 10 12
REMARK H PARENT 10 13
REMARK Flexibility Score: inf
ROOT
ATOM      1  C   UNL     1       9.640  -7.590  -8.653  1.00  0.00    -0.025 A 
ATOM      2  C   UNL     1      10.895  -7.083  -8.287  1.00  0.00     0.012 A 
ATOM      3  C   UNL     1       9.201  -7.449  -9.982  1.00  0.00     0.012 A 
ATOM      4  C   UNL     1      11.679  -6.398  -9.221  1.00  0.00     0.047 A 
ATOM      5  C   UNL     1       9.986  -6.763 -10.914  1.00  0.00     0.047 A 
ATOM      6  C   UNL     1      11.226  -6.232 -10.534  1.00  0.00     0.115 A 
ENDROOT
BRANCH   1   7
ATOM      7  C   UNL     1       8.853  -8.357  -7.665  1.00  0.00     0.010 C 
ATOM      8  C   UNL     1       7.897  -7.850  -6.871  1.00  0.00     0.025 C 
BRANCH   8   9
ATOM      9  C   UNL     1       7.593  -6.417  -6.707  1.00  0.00     0.064 C 
ATOM     10  O   UNL     1       8.038  -5.803  -5.702  1.00  0.00    -0.545 OA
ATOM     11  O   UNL     1       6.886  -5.709  -7.672  1.00  0.00    -0.545 OA
ENDBRANCH   8   9
ENDBRANCH   1   7
BRANCH   6  12
ATOM     12  O   UNL     1      12.017  -5.547 -11.453  1.00  0.00    -0.508 OA
ATOM     13  H   UNL     1      12.818  -5.000 -11.158  1.00  0.00     0.293 HD
ENDBRANCH   6  12
TORSDOF 3
ENDMDL
MODEL 8
REMARK VINA RESULT:    -4.128     11.590     13.385
REMARK INTER + INTRA:          -5.016
REMARK INTER:                  -4.778
REMARK INTRA:                  -0.239
REMARK UNBOUND:                -0.284
REMARK SMILES O=C([O-])C=Cc1ccc(O)cc1
REMARK SMILES IDX 6 1 7 2 12 3 8 4 11 5 9 6 5 7 4 8 2 9 1 10 3 11 10 12
REMARK H PARENT 10 13
REMARK Flexibility Score: inf
ROOT
ATOM      1  C   UNL     1       7.785   3.197 -17.782  1.00  0.00    -0.025 A 
ATOM      2  C   UNL     1       7.670   2.469 -16.588  1.00  0.00     0.012 A 
ATOM      3  C   UNL     1       6.933   2.893 -18.858  1.00  0.00     0.012 A 
ATOM      4  C   UNL     1       6.752   1.418 -16.489  1.00  0.00     0.047 A 
ATOM      5  C   UNL     1       6.017   1.842 -18.757  1.00  0.00     0.047 A 
ATOM      6  C   UNL     1       5.927   1.099 -17.573  1.00  0.00     0.115 A 
ENDROOT
BRANCH   1   7
ATOM      7  C   UNL     1       8.723   4.337 -17.846  1.00  0.00     0.010 C 
ATOM      8  C   UNL     1       9.868   4.363 -18.545  1.00  0.00     0.025 C 
BRANCH   8   9
ATOM      9  C   UNL     1      10.487   3.204 -19.214  1.00  0.00     0.064 C 
ATOM     10  O   UNL     1      11.379   2.550 -18.614  1.00  0.00    -0.545 OA
ATOM     11  O   UNL     1      10.060   2.774 -20.464  1.00  0.00    -0.545 OA
ENDBRANCH   8   9
ENDBRANCH   1   7
BRANCH   6  12
ATOM     12  O   UNL     1       5.018   0.048 -17.459  1.00  0.00    -0.508 OA
ATOM     13  H   UNL     1       5.006  -0.555 -16.645  1.00  0.00     0.293 HD
ENDBRANCH   6  12
TORSDOF 3
ENDMDL
MODEL 9
REMARK VINA RESULT:    -4.126      1.756      4.814
REMARK INTER + INTRA:          -5.013
REMARK INTER:                  -4.741
REMARK INTRA:                  -0.272
REMARK UNBOUND:                -0.284
REMARK SMILES O=C([O-])C=Cc1ccc(O)cc1
REMARK SMILES IDX 6 1 7 2 12 3 8 4 11 5 9 6 5 7 4 8 2 9 1 10 3 11 10 12
REMARK H PARENT 10 13
REMARK Flexibility Score: inf
ROOT
ATOM      1  C   UNL     1       9.691  -6.900 -10.283  1.00  0.00    -0.025 A 
ATOM      2  C   UNL     1       9.460  -8.280 -10.386  1.00  0.00     0.012 A 
ATOM      3  C   UNL     1       8.950  -6.017 -11.088  1.00  0.00     0.012 A 
ATOM      4  C   UNL     1       8.540  -8.775 -11.316  1.00  0.00     0.047 A 
ATOM      5  C   UNL     1       8.031  -6.513 -12.018  1.00  0.00     0.047 A 
ATOM      6  C   UNL     1       7.827  -7.894 -12.137  1.00  0.00     0.115 A 
ENDROOT
BRANCH   1   7
ATOM      7  C   UNL     1      10.627  -6.397  -9.257  1.00  0.00     0.010 C 
ATOM      8  C   UNL     1      10.353  -6.272  -7.949  1.00  0.00     0.025 C 
BRANCH   8   9
ATOM      9  C   UNL     1       9.023  -6.432  -7.335  1.00  0.00     0.064 C 
ATOM     10  O   UNL     1       8.276  -5.426  -7.213  1.00  0.00    -0.545 OA
ATOM     11  O   UNL     1       8.543  -7.679  -6.954  1.00  0.00    -0.545 OA
ENDBRANCH   8   9
ENDBRANCH   1   7
BRANCH   6  12
ATOM     12  O   UNL     1       6.914  -8.401 -13.060  1.00  0.00    -0.508 OA
ATOM     13  H   UNL     1       5.916  -8.270 -12.944  1.00  0.00     0.293 HD
ENDBRANCH   6  12
TORSDOF 3
ENDMDL
