MODEL 1
REMARK VINA RESULT:    -6.537      0.000      0.000
REMARK INTER + INTRA:         -13.490
REMARK INTER:                 -11.314
REMARK INTRA:                  -2.175
REMARK UNBOUND:                -2.175
REMARK SMILES OC[C@@H]1O[C@H](O[C@H]2[C@H](O)[C@H](O)[C@@H](O)O[C@@H]2CO)[C@@H](O)[C@@H](O)[C@H]1O[C@H]1O[C@H](CO)[C@@H](O)[C@@H](O)[C@H]1O
REMARK SMILES IDX 22 1 3 2 4 3 5 4 18 5 20 6 23 7 24 8 26 9 29 10 25 11 31 12
REMARK SMILES IDX 33 13 27 14 28 15 30 17 32 19 34 21 2 23 1 24 21 26 19 28
REMARK SMILES IDX 6 30 7 31 15 32 8 33 14 34 10 35 12 36 16 37 17 38 9 40
REMARK SMILES IDX 11 42 13 44
REMARK H PARENT 28 16 30 18 32 20 34 22 1 25 21 27 19 29 17 39 9 41 11 43
REMARK H PARENT 13 45
REMARK Flexibility Score: inf
ROOT
ATOM      1  C   UNL     1     -11.535   4.332 -41.286  1.00  0.00     0.184 C 
ATOM      2  C   UNL     1     -11.349   5.868 -40.965  1.00  0.00     0.178 C 
ATOM      3  O   UNL     1     -11.904   6.795 -41.889  1.00  0.00    -0.341 OA
ATOM      4  C   UNL     1     -13.016   6.317 -42.618  1.00  0.00     0.282 C 
ATOM      5  C   UNL     1     -12.592   5.150 -43.508  1.00  0.00     0.202 C 
ATOM      6  C   UNL     1     -12.181   3.936 -42.655  1.00  0.00     0.180 C 
ENDROOT
BRANCH   1   7
ATOM      7  O   UNL     1     -10.401   3.540 -40.935  1.00  0.00    -0.341 OA
BRANCH   7   8
ATOM      8  C   UNL     1     -10.639   2.316 -40.238  1.00  0.00     0.282 C 
ATOM      9  C   UNL     1     -11.058  -0.023 -40.423  1.00  0.00     0.178 C 
ATOM     10  C   UNL     1     -10.739  -0.088 -38.898  1.00  0.00     0.177 C 
ATOM     11  O   UNL     1     -10.612   1.165 -41.076  1.00  0.00    -0.341 OA
ATOM     12  C   UNL     1      -9.473   0.721 -38.589  1.00  0.00     0.179 C 
ATOM     13  C   UNL     1      -9.644   2.192 -39.053  1.00  0.00     0.202 C 
BRANCH   9  14
ATOM     14  C   UNL     1     -12.542  -0.298 -40.725  1.00  0.00     0.191 C 
BRANCH  14  15
ATOM     15  O   UNL     1     -12.986  -1.459 -40.076  1.00  0.00    -0.394 OA
ATOM     16  H   UNL     1     -12.882  -2.214 -40.715  1.00  0.00     0.210 HD
ENDBRANCH  14  15
ENDBRANCH   9  14
BRANCH  10  17
ATOM     17  O   UNL     1     -10.554  -1.419 -38.490  1.00  0.00    -0.387 OA
ATOM     18  H   UNL     1     -11.231  -1.603 -37.789  1.00  0.00     0.211 HD
ENDBRANCH  10  17
BRANCH  12  19
ATOM     19  O   UNL     1      -8.332   0.109 -39.150  1.00  0.00    -0.387 OA
ATOM     20  H   UNL     1      -8.161  -0.738 -38.666  1.00  0.00     0.211 HD
ENDBRANCH  12  19
BRANCH  13  21
ATOM     21  O   UNL     1      -8.400   2.755 -39.383  1.00  0.00    -0.385 OA
ATOM     22  H   UNL     1      -8.541   3.308 -40.195  1.00  0.00     0.211 HD
ENDBRANCH  13  21
ENDBRANCH   7   8
ENDBRANCH   1   7
BRANCH   2  23
ATOM     23  C   UNL     1     -11.816   6.210 -39.539  1.00  0.00     0.191 C 
BRANCH  23  24
ATOM     24  O   UNL     1     -12.587   5.162 -39.021  1.00  0.00    -0.394 OA
ATOM     25  H   UNL     1     -13.417   5.574 -38.669  1.00  0.00     0.210 HD
ENDBRANCH  23  24
ENDBRANCH   2  23
BRANCH   6  26
ATOM     26  O   UNL     1     -11.355   3.067 -43.385  1.00  0.00    -0.387 OA
ATOM     27  H   UNL     1     -11.703   2.148 -43.250  1.00  0.00     0.211 HD
ENDBRANCH   6  26
BRANCH   5  28
ATOM     28  O   UNL     1     -11.535   5.568 -44.332  1.00  0.00    -0.385 OA
ATOM     29  H   UNL     1     -11.385   6.531 -44.149  1.00  0.00     0.211 HD
ENDBRANCH   5  28
BRANCH   4  30
ATOM     30  O   UNL     1     -14.067   5.927 -41.741  1.00  0.00    -0.341 OA
BRANCH  30  31
ATOM     31  C   UNL     1     -15.368   6.258 -42.212  1.00  0.00     0.184 C 
ATOM     32  C   UNL     1     -15.925   7.422 -41.352  1.00  0.00     0.178 C 
ATOM     33  C   UNL     1     -16.274   4.999 -42.099  1.00  0.00     0.180 C 
ATOM     34  O   UNL     1     -17.338   7.432 -41.424  1.00  0.00    -0.342 OA
ATOM     35  C   UNL     1     -17.123   5.022 -40.809  1.00  0.00     0.201 C 
ATOM     36  C   UNL     1     -17.904   6.361 -40.678  1.00  0.00     0.279 C 
BRANCH  32  37
ATOM     37  C   UNL     1     -15.386   8.773 -41.839  1.00  0.00     0.191 C 
BRANCH  37  38
ATOM     38  O   UNL     1     -14.172   9.080 -41.202  1.00  0.00    -0.394 OA
ATOM     39  H   UNL     1     -14.225  10.036 -40.932  1.00  0.00     0.210 HD
ENDBRANCH  37  38
ENDBRANCH  32  37
BRANCH  33  40
ATOM     40  O   UNL     1     -17.093   4.852 -43.236  1.00  0.00    -0.387 OA
ATOM     41  H   UNL     1     -18.023   4.693 -42.935  1.00  0.00     0.211 HD
ENDBRANCH  33  40
BRANCH  35  42
ATOM     42  O   UNL     1     -18.025   3.944 -40.792  1.00  0.00    -0.385 OA
ATOM     43  H   UNL     1     -17.932   3.504 -39.907  1.00  0.00     0.211 HD
ENDBRANCH  35  42
BRANCH  36  44
ATOM     44  O   UNL     1     -18.009   6.720 -39.325  1.00  0.00    -0.366 OA
ATOM     45  H   UNL     1     -18.357   5.923 -38.850  1.00  0.00     0.213 HD
ENDBRANCH  36  44
ENDBRANCH  30  31
ENDBRANCH   4  30
TORSDOF 18
ENDMDL
MODEL 2
REMARK VINA RESULT:    -6.423      1.754      7.884
REMARK INTER + INTRA:         -13.293
REMARK INTER:                 -11.052
REMARK INTRA:                  -2.241
REMARK UNBOUND:                -2.175
REMARK SMILES OC[C@@H]1O[C@H](O[C@H]2[C@H](O)[C@H](O)[C@@H](O)O[C@@H]2CO)[C@@H](O)[C@@H](O)[C@H]1O[C@H]1O[C@H](CO)[C@@H](O)[C@@H](O)[C@H]1O
REMARK SMILES IDX 22 1 3 2 4 3 5 4 18 5 20 6 23 7 24 8 26 9 29 10 25 11 31 12
REMARK SMILES IDX 33 13 27 14 28 15 30 17 32 19 34 21 2 23 1 24 21 26 19 28
REMARK SMILES IDX 6 30 7 31 15 32 8 33 14 34 10 35 12 36 16 37 17 38 9 40
REMARK SMILES IDX 11 42 13 44
REMARK H PARENT 28 16 30 18 32 20 34 22 1 25 21 27 19 29 17 39 9 41 11 43
REMARK H PARENT 13 45
REMARK Flexibility Score: inf
ROOT
ATOM      1  C   UNL     1     -11.650   4.679 -40.976  1.00  0.00     0.184 C 
ATOM      2  C   UNL     1     -10.200   4.764 -41.597  1.00  0.00     0.178 C 
ATOM      3  O   UNL     1      -9.119   4.334 -40.779  1.00  0.00    -0.341 OA
ATOM      4  C   UNL     1      -9.456   3.369 -39.805  1.00  0.00     0.282 C 
ATOM      5  C   UNL     1     -10.438   3.965 -38.798  1.00  0.00     0.202 C 
ATOM      6  C   UNL     1     -11.788   4.273 -39.472  1.00  0.00     0.180 C 
ENDROOT
BRANCH   1   7
ATOM      7  O   UNL     1     -12.492   5.766 -41.356  1.00  0.00    -0.341 OA
BRANCH   7   8
ATOM      8  C   UNL     1     -13.832   5.461 -41.749  1.00  0.00     0.282 C 
ATOM      9  C   UNL     1     -16.091   5.180 -41.044  1.00  0.00     0.178 C 
ATOM     10  C   UNL     1     -16.453   5.227 -42.560  1.00  0.00     0.177 C 
ATOM     11  O   UNL     1     -14.795   5.685 -40.724  1.00  0.00    -0.341 OA
ATOM     12  C   UNL     1     -15.713   6.383 -43.243  1.00  0.00     0.179 C 
ATOM     13  C   UNL     1     -14.181   6.235 -43.049  1.00  0.00     0.202 C 
BRANCH   9  14
ATOM     14  C   UNL     1     -16.310   3.786 -40.430  1.00  0.00     0.191 C 
BRANCH  14  15
ATOM     15  O   UNL     1     -17.667   3.431 -40.446  1.00  0.00    -0.394 OA
ATOM     16  H   UNL     1     -17.856   3.022 -41.332  1.00  0.00     0.210 HD
ENDBRANCH  14  15
ENDBRANCH   9  14
BRANCH  10  17
ATOM     17  O   UNL     1     -17.838   5.393 -42.729  1.00  0.00    -0.387 OA
ATOM     18  H   UNL     1     -18.255   5.259 -41.839  1.00  0.00     0.211 HD
ENDBRANCH  10  17
BRANCH  12  19
ATOM     19  O   UNL     1     -16.195   7.630 -42.792  1.00  0.00    -0.387 OA
ATOM     20  H   UNL     1     -16.261   8.241 -43.569  1.00  0.00     0.211 HD
ENDBRANCH  12  19
BRANCH  13  21
ATOM     21  O   UNL     1     -13.555   7.492 -43.066  1.00  0.00    -0.385 OA
ATOM     22  H   UNL     1     -13.461   7.779 -42.120  1.00  0.00     0.211 HD
ENDBRANCH  13  21
ENDBRANCH   7   8
ENDBRANCH   1   7
BRANCH   2  23
ATOM     23  C   UNL     1     -10.128   4.065 -42.966  1.00  0.00     0.191 C 
BRANCH  23  24
ATOM     24  O   UNL     1     -11.020   2.986 -43.004  1.00  0.00    -0.394 OA
ATOM     25  H   UNL     1     -11.679   3.143 -42.279  1.00  0.00     0.210 HD
ENDBRANCH  23  24
ENDBRANCH   2  23
BRANCH   6  26
ATOM     26  O   UNL     1     -12.506   5.231 -38.739  1.00  0.00    -0.387 OA
ATOM     27  H   UNL     1     -11.873   5.647 -38.099  1.00  0.00     0.211 HD
ENDBRANCH   6  26
BRANCH   5  28
ATOM     28  O   UNL     1      -9.873   5.127 -38.246  1.00  0.00    -0.385 OA
ATOM     29  H   UNL     1      -9.911   5.830 -38.945  1.00  0.00     0.211 HD
ENDBRANCH   5  28
BRANCH   4  30
ATOM     30  O   UNL     1     -10.002   2.204 -40.413  1.00  0.00    -0.341 OA
BRANCH  30  31
ATOM     31  C   UNL     1      -9.431   0.986 -39.950  1.00  0.00     0.184 C 
ATOM     32  C   UNL     1      -8.501   0.423 -41.056  1.00  0.00     0.178 C 
ATOM     33  C   UNL     1     -10.579  -0.012 -39.628  1.00  0.00     0.180 C 
ATOM     34  O   UNL     1      -8.335  -0.970 -40.875  1.00  0.00    -0.342 OA
ATOM     35  C   UNL     1     -10.831  -0.989 -40.798  1.00  0.00     0.201 C 
ATOM     36  C   UNL     1      -9.511  -1.685 -41.238  1.00  0.00     0.279 C 
BRANCH  32  37
ATOM     37  C   UNL     1      -7.126   1.103 -41.017  1.00  0.00     0.191 C 
BRANCH  37  38
ATOM     38  O   UNL     1      -7.136   2.283 -41.780  1.00  0.00    -0.394 OA
ATOM     39  H   UNL     1      -6.375   2.837 -41.459  1.00  0.00     0.210 HD
ENDBRANCH  37  38
ENDBRANCH  32  37
BRANCH  33  40
ATOM     40  O   UNL     1     -10.328  -0.715 -38.433  1.00  0.00    -0.387 OA
ATOM     41  H   UNL     1     -10.084  -1.647 -38.663  1.00  0.00     0.211 HD
ENDBRANCH  33  40
BRANCH  35  42
ATOM     42  O   UNL     1     -11.780  -1.960 -40.435  1.00  0.00    -0.385 OA
ATOM     43  H   UNL     1     -12.463  -1.978 -41.156  1.00  0.00     0.211 HD
ENDBRANCH  35  42
BRANCH  36  44
ATOM     44  O   UNL     1      -9.530  -1.906 -42.624  1.00  0.00    -0.366 OA
ATOM     45  H   UNL     1     -10.426  -2.272 -42.838  1.00  0.00     0.213 HD
ENDBRANCH  36  44
ENDBRANCH  30  31
ENDBRANCH   4  30
TORSDOF 18
ENDMDL
MODEL 3
REMARK VINA RESULT:    -6.164      1.423      8.030
REMARK INTER + INTRA:         -12.844
REMARK INTER:                 -11.293
REMARK INTRA:                  -1.551
REMARK UNBOUND:                -2.175
REMARK SMILES OC[C@@H]1O[C@H](O[C@H]2[C@H](O)[C@H](O)[C@@H](O)O[C@@H]2CO)[C@@H](O)[C@@H](O)[C@H]1O[C@H]1O[C@H](CO)[C@@H](O)[C@@H](O)[C@H]1O
REMARK SMILES IDX 22 1 3 2 4 3 5 4 18 5 20 6 23 7 24 8 26 9 29 10 25 11 31 12
REMARK SMILES IDX 33 13 27 14 28 15 30 17 32 19 34 21 2 23 1 24 21 26 19 28
REMARK SMILES IDX 6 30 7 31 15 32 8 33 14 34 10 35 12 36 16 37 17 38 9 40
REMARK SMILES IDX 11 42 13 44
REMARK H PARENT 28 16 30 18 32 20 34 22 1 25 21 27 19 29 17 39 9 41 11 43
REMARK H PARENT 13 45
REMARK Flexibility Score: inf
ROOT
ATOM      1  C   UNL     1     -12.581   4.676 -40.830  1.00  0.00     0.184 C 
ATOM      2  C   UNL     1     -11.510   4.611 -41.989  1.00  0.00     0.178 C 
ATOM      3  O   UNL     1     -10.223   4.105 -41.655  1.00  0.00    -0.341 OA
ATOM      4  C   UNL     1     -10.202   3.201 -40.571  1.00  0.00     0.282 C 
ATOM      5  C   UNL     1     -10.640   3.911 -39.291  1.00  0.00     0.202 C 
ATOM      6  C   UNL     1     -12.120   4.324 -39.377  1.00  0.00     0.180 C 
ENDROOT
BRANCH   1   7
ATOM      7  O   UNL     1     -13.422   5.826 -40.903  1.00  0.00    -0.341 OA
BRANCH   7   8
ATOM      8  C   UNL     1     -14.807   5.616 -41.189  1.00  0.00     0.282 C 
ATOM      9  C   UNL     1     -16.908   4.845 -40.371  1.00  0.00     0.178 C 
ATOM     10  C   UNL     1     -17.526   5.549 -41.618  1.00  0.00     0.177 C 
ATOM     11  O   UNL     1     -15.581   5.260 -40.049  1.00  0.00    -0.341 OA
ATOM     12  C   UNL     1     -16.926   6.950 -41.786  1.00  0.00     0.179 C 
ATOM     13  C   UNL     1     -15.381   6.865 -41.912  1.00  0.00     0.202 C 
BRANCH   9  14
ATOM     14  C   UNL     1     -17.005   3.312 -40.453  1.00  0.00     0.191 C 
BRANCH  14  15
ATOM     15  O   UNL     1     -18.341   2.887 -40.460  1.00  0.00    -0.394 OA
ATOM     16  H   UNL     1     -18.399   2.076 -39.887  1.00  0.00     0.210 HD
ENDBRANCH  14  15
ENDBRANCH   9  14
BRANCH  10  17
ATOM     17  O   UNL     1     -18.921   5.650 -41.484  1.00  0.00    -0.387 OA
ATOM     18  H   UNL     1     -19.196   6.479 -41.955  1.00  0.00     0.211 HD
ENDBRANCH  10  17
BRANCH  12  19
ATOM     19  O   UNL     1     -17.335   7.804 -40.739  1.00  0.00    -0.387 OA
ATOM     20  H   UNL     1     -17.746   7.252 -40.027  1.00  0.00     0.211 HD
ENDBRANCH  12  19
BRANCH  13  21
ATOM     21  O   UNL     1     -14.780   8.041 -41.432  1.00  0.00    -0.385 OA
ATOM     22  H   UNL     1     -14.018   7.762 -40.861  1.00  0.00     0.211 HD
ENDBRANCH  13  21
ENDBRANCH   7   8
ENDBRANCH   1   7
BRANCH   2  23
ATOM     23  C   UNL     1     -12.055   3.873 -43.225  1.00  0.00     0.191 C 
BRANCH  23  24
ATOM     24  O   UNL     1     -11.053   3.073 -43.789  1.00  0.00    -0.394 OA
ATOM     25  H   UNL     1     -10.281   3.114 -43.169  1.00  0.00     0.210 HD
ENDBRANCH  23  24
ENDBRANCH   2  23
BRANCH   6  26
ATOM     26  O   UNL     1     -12.404   5.363 -38.477  1.00  0.00    -0.387 OA
ATOM     27  H   UNL     1     -11.663   5.392 -37.820  1.00  0.00     0.211 HD
ENDBRANCH   6  26
BRANCH   5  28
ATOM     28  O   UNL     1      -9.815   5.030 -39.088  1.00  0.00    -0.385 OA
ATOM     29  H   UNL     1      -9.718   5.484 -39.964  1.00  0.00     0.211 HD
ENDBRANCH   5  28
BRANCH   4  30
ATOM     30  O   UNL     1     -11.033   2.075 -40.833  1.00  0.00    -0.341 OA
BRANCH  30  31
ATOM     31  C   UNL     1     -10.338   0.834 -40.852  1.00  0.00     0.184 C 
ATOM     32  C   UNL     1     -11.028  -0.135 -39.857  1.00  0.00     0.178 C 
ATOM     33  C   UNL     1      -8.857   1.085 -40.450  1.00  0.00     0.180 C 
ATOM     34  O   UNL     1     -10.115  -1.140 -39.462  1.00  0.00    -0.342 OA
ATOM     35  C   UNL     1      -8.615   0.790 -38.953  1.00  0.00     0.201 C 
ATOM     36  C   UNL     1      -9.129  -0.628 -38.573  1.00  0.00     0.279 C 
BRANCH  32  37
ATOM     37  C   UNL     1     -12.259  -0.793 -40.492  1.00  0.00     0.191 C 
BRANCH  37  38
ATOM     38  O   UNL     1     -12.347  -2.144 -40.116  1.00  0.00    -0.394 OA
ATOM     39  H   UNL     1     -11.665  -2.287 -39.405  1.00  0.00     0.210 HD
ENDBRANCH  37  38
ENDBRANCH  32  37
BRANCH  33  40
ATOM     40  O   UNL     1      -7.973   0.341 -41.256  1.00  0.00    -0.387 OA
ATOM     41  H   UNL     1      -7.200   0.917 -41.489  1.00  0.00     0.211 HD
ENDBRANCH  33  40
BRANCH  35  42
ATOM     42  O   UNL     1      -7.249   0.898 -38.642  1.00  0.00    -0.385 OA
ATOM     43  H   UNL     1      -6.746   0.613 -39.449  1.00  0.00     0.211 HD
ENDBRANCH  35  42
BRANCH  36  44
ATOM     44  O   UNL     1      -9.625  -0.618 -37.260  1.00  0.00    -0.366 OA
ATOM     45  H   UNL     1      -9.196   0.150 -36.803  1.00  0.00     0.213 HD
ENDBRANCH  36  44
ENDBRANCH  30  31
ENDBRANCH   4  30
TORSDOF 18
ENDMDL
MODEL 4
REMARK VINA RESULT:    -6.099      2.156      7.590
REMARK INTER + INTRA:         -12.732
REMARK INTER:                  -9.989
REMARK INTRA:                  -2.742
REMARK UNBOUND:                -2.175
REMARK SMILES OC[C@@H]1O[C@H](O[C@H]2[C@H](O)[C@H](O)[C@@H](O)O[C@@H]2CO)[C@@H](O)[C@@H](O)[C@H]1O[C@H]1O[C@H](CO)[C@@H](O)[C@@H](O)[C@H]1O
REMARK SMILES IDX 22 1 3 2 4 3 5 4 18 5 20 6 23 7 24 8 26 9 29 10 25 11 31 12
REMARK SMILES IDX 33 13 27 14 28 15 30 17 32 19 34 21 2 23 1 24 21 26 19 28
REMARK SMILES IDX 6 30 7 31 15 32 8 33 14 34 10 35 12 36 16 37 17 38 9 40
REMARK SMILES IDX 11 42 13 44
REMARK H PARENT 28 16 30 18 32 20 34 22 1 25 21 27 19 29 17 39 9 41 11 43
REMARK H PARENT 13 45
REMARK Flexibility Score: inf
ROOT
ATOM      1  C   UNL     1     -13.143   6.417 -41.485  1.00  0.00     0.184 C 
ATOM      2  C   UNL     1     -12.271   5.123 -41.727  1.00  0.00     0.178 C 
ATOM      3  O   UNL     1     -10.901   5.185 -41.350  1.00  0.00    -0.341 OA
ATOM      4  C   UNL     1     -10.610   6.094 -40.310  1.00  0.00     0.282 C 
ATOM      5  C   UNL     1     -10.910   7.521 -40.765  1.00  0.00     0.202 C 
ATOM      6  C   UNL     1     -12.421   7.714 -40.990  1.00  0.00     0.180 C 
ENDROOT
BRANCH   1   7
ATOM      7  O   UNL     1     -14.103   6.652 -42.514  1.00  0.00    -0.341 OA
BRANCH   7   8
ATOM      8  C   UNL     1     -15.484   6.496 -42.179  1.00  0.00     0.282 C 
ATOM      9  C   UNL     1     -17.060   5.712 -40.573  1.00  0.00     0.178 C 
ATOM     10  C   UNL     1     -18.119   6.523 -41.380  1.00  0.00     0.177 C 
ATOM     11  O   UNL     1     -15.704   6.071 -40.838  1.00  0.00    -0.341 OA
ATOM     12  C   UNL     1     -17.576   7.919 -41.710  1.00  0.00     0.179 C 
ATOM     13  C   UNL     1     -16.247   7.810 -42.502  1.00  0.00     0.202 C 
BRANCH   9  14
ATOM     14  C   UNL     1     -17.265   4.192 -40.695  1.00  0.00     0.191 C 
BRANCH  14  15
ATOM     15  O   UNL     1     -18.582   3.886 -41.067  1.00  0.00    -0.394 OA
ATOM     16  H   UNL     1     -18.651   2.896 -41.129  1.00  0.00     0.210 HD
ENDBRANCH  14  15
ENDBRANCH   9  14
BRANCH  10  17
ATOM     17  O   UNL     1     -19.310   6.646 -40.645  1.00  0.00    -0.387 OA
ATOM     18  H   UNL     1     -19.514   7.615 -40.586  1.00  0.00     0.211 HD
ENDBRANCH  10  17
BRANCH  12  19
ATOM     19  O   UNL     1     -17.444   8.700 -40.541  1.00  0.00    -0.387 OA
ATOM     20  H   UNL     1     -18.242   9.281 -40.461  1.00  0.00     0.211 HD
ENDBRANCH  12  19
BRANCH  13  21
ATOM     21  O   UNL     1     -15.435   8.931 -42.265  1.00  0.00    -0.385 OA
ATOM     22  H   UNL     1     -14.761   8.958 -42.993  1.00  0.00     0.211 HD
ENDBRANCH  13  21
ENDBRANCH   7   8
ENDBRANCH   1   7
BRANCH   2  23
ATOM     23  C   UNL     1     -12.925   3.874 -41.110  1.00  0.00     0.191 C 
BRANCH  23  24
ATOM     24  O   UNL     1     -13.699   4.235 -39.999  1.00  0.00    -0.394 OA
ATOM     25  H   UNL     1     -14.398   4.852 -40.335  1.00  0.00     0.210 HD
ENDBRANCH  23  24
ENDBRANCH   2  23
BRANCH   6  26
ATOM     26  O   UNL     1     -12.666   8.801 -41.843  1.00  0.00    -0.387 OA
ATOM     27  H   UNL     1     -13.624   8.766 -42.095  1.00  0.00     0.211 HD
ENDBRANCH   6  26
BRANCH   5  28
ATOM     28  O   UNL     1     -10.188   7.784 -41.941  1.00  0.00    -0.385 OA
ATOM     29  H   UNL     1      -9.459   8.412 -41.702  1.00  0.00     0.211 HD
ENDBRANCH   5  28
BRANCH   4  30
ATOM     30  O   UNL     1     -11.347   5.773 -39.135  1.00  0.00    -0.341 OA
BRANCH  30  31
ATOM     31  C   UNL     1     -10.562   5.202 -38.096  1.00  0.00     0.184 C 
ATOM     32  C   UNL     1      -9.077   5.583 -38.329  1.00  0.00     0.178 C 
ATOM     33  C   UNL     1     -10.750   3.658 -38.120  1.00  0.00     0.180 C 
ATOM     34  O   UNL     1      -8.238   4.655 -37.670  1.00  0.00    -0.342 OA
ATOM     35  C   UNL     1      -9.606   2.956 -38.884  1.00  0.00     0.201 C 
ATOM     36  C   UNL     1      -8.217   3.402 -38.345  1.00  0.00     0.279 C 
BRANCH  32  37
ATOM     37  C   UNL     1      -8.782   6.993 -37.801  1.00  0.00     0.191 C 
BRANCH  37  38
ATOM     38  O   UNL     1      -9.898   7.511 -37.122  1.00  0.00    -0.394 OA
ATOM     39  H   UNL     1      -9.675   8.450 -36.881  1.00  0.00     0.210 HD
ENDBRANCH  37  38
ENDBRANCH  32  37
BRANCH  33  40
ATOM     40  O   UNL     1     -10.878   3.135 -36.818  1.00  0.00    -0.387 OA
ATOM     41  H   UNL     1     -10.763   3.876 -36.170  1.00  0.00     0.211 HD
ENDBRANCH  33  40
BRANCH  35  42
ATOM     42  O   UNL     1      -9.728   1.560 -38.783  1.00  0.00    -0.385 OA
ATOM     43  H   UNL     1      -8.840   1.176 -39.007  1.00  0.00     0.211 HD
ENDBRANCH  35  42
BRANCH  36  44
ATOM     44  O   UNL     1      -7.287   3.437 -39.395  1.00  0.00    -0.366 OA
ATOM     45  H   UNL     1      -6.477   3.883 -39.038  1.00  0.00     0.213 HD
ENDBRANCH  36  44
ENDBRANCH  30  31
ENDBRANCH   4  30
TORSDOF 18
ENDMDL
MODEL 5
REMARK VINA RESULT:    -6.076      1.528      2.638
REMARK INTER + INTRA:         -12.692
REMARK INTER:                 -10.936
REMARK INTRA:                  -1.755
REMARK UNBOUND:                -2.175
REMARK SMILES OC[C@@H]1O[C@H](O[C@H]2[C@H](O)[C@H](O)[C@@H](O)O[C@@H]2CO)[C@@H](O)[C@@H](O)[C@H]1O[C@H]1O[C@H](CO)[C@@H](O)[C@@H](O)[C@H]1O
REMARK SMILES IDX 22 1 3 2 4 3 5 4 18 5 20 6 23 7 24 8 26 9 29 10 25 11 31 12
REMARK SMILES IDX 33 13 27 14 28 15 30 17 32 19 34 21 2 23 1 24 21 26 19 28
REMARK SMILES IDX 6 30 7 31 15 32 8 33 14 34 10 35 12 36 16 37 17 38 9 40
REMARK SMILES IDX 11 42 13 44
REMARK H PARENT 28 16 30 18 32 20 34 22 1 25 21 27 19 29 17 39 9 41 11 43
REMARK H PARENT 13 45
REMARK Flexibility Score: inf
ROOT
ATOM      1  C   UNL     1     -11.262   3.435 -41.201  1.00  0.00     0.184 C 
ATOM      2  C   UNL     1     -11.067   4.747 -40.343  1.00  0.00     0.178 C 
ATOM      3  O   UNL     1     -11.567   5.961 -40.892  1.00  0.00    -0.341 OA
ATOM      4  C   UNL     1     -12.651   5.809 -41.784  1.00  0.00     0.282 C 
ATOM      5  C   UNL     1     -12.207   5.026 -43.018  1.00  0.00     0.202 C 
ATOM      6  C   UNL     1     -11.852   3.575 -42.643  1.00  0.00     0.180 C 
ENDROOT
BRANCH   1   7
ATOM      7  O   UNL     1     -10.158   2.536 -41.117  1.00  0.00    -0.341 OA
BRANCH   7   8
ATOM      8  C   UNL     1     -10.413   1.217 -40.630  1.00  0.00     0.282 C 
ATOM      9  C   UNL     1     -11.606  -0.821 -40.953  1.00  0.00     0.178 C 
ATOM     10  C   UNL     1     -10.629  -1.430 -39.902  1.00  0.00     0.177 C 
ATOM     11  O   UNL     1     -11.173   0.412 -41.527  1.00  0.00    -0.341 OA
ATOM     12  C   UNL     1      -9.188  -1.008 -40.213  1.00  0.00     0.179 C 
ATOM     13  C   UNL     1      -9.071   0.539 -40.240  1.00  0.00     0.202 C 
BRANCH   9  14
ATOM     14  C   UNL     1     -13.046  -0.709 -40.422  1.00  0.00     0.191 C 
BRANCH  14  15
ATOM     15  O   UNL     1     -13.447  -1.894 -39.788  1.00  0.00    -0.394 OA
ATOM     16  H   UNL     1     -14.438  -1.943 -39.848  1.00  0.00     0.210 HD
ENDBRANCH  14  15
ENDBRANCH   9  14
BRANCH  10  17
ATOM     17  O   UNL     1     -10.716  -2.832 -39.904  1.00  0.00    -0.387 OA
ATOM     18  H   UNL     1     -11.680  -3.061 -39.951  1.00  0.00     0.211 HD
ENDBRANCH  10  17
BRANCH  12  19
ATOM     19  O   UNL     1      -8.734  -1.603 -41.410  1.00  0.00    -0.387 OA
ATOM     20  H   UNL     1      -9.440  -1.504 -42.097  1.00  0.00     0.211 HD
ENDBRANCH  12  19
BRANCH  13  21
ATOM     21  O   UNL     1      -8.038   0.943 -41.102  1.00  0.00    -0.385 OA
ATOM     22  H   UNL     1      -7.414   1.496 -40.564  1.00  0.00     0.211 HD
ENDBRANCH  13  21
ENDBRANCH   7   8
ENDBRANCH   1   7
BRANCH   2  23
ATOM     23  C   UNL     1     -11.592   4.570 -38.907  1.00  0.00     0.191 C 
BRANCH  23  24
ATOM     24  O   UNL     1     -12.390   5.664 -38.548  1.00  0.00    -0.394 OA
ATOM     25  H   UNL     1     -12.696   5.493 -37.621  1.00  0.00     0.210 HD
ENDBRANCH  23  24
ENDBRANCH   2  23
BRANCH   6  26
ATOM     26  O   UNL     1     -11.008   3.001 -43.606  1.00  0.00    -0.387 OA
ATOM     27  H   UNL     1     -11.403   2.128 -43.860  1.00  0.00     0.211 HD
ENDBRANCH   6  26
BRANCH   5  28
ATOM     28  O   UNL     1     -11.107   5.680 -43.598  1.00  0.00    -0.385 OA
ATOM     29  H   UNL     1     -11.406   6.031 -44.476  1.00  0.00     0.211 HD
ENDBRANCH   5  28
BRANCH   4  30
ATOM     30  O   UNL     1     -13.747   5.163 -41.144  1.00  0.00    -0.341 OA
BRANCH  30  31
ATOM     31  C   UNL     1     -14.952   5.920 -41.153  1.00  0.00     0.184 C 
ATOM     32  C   UNL     1     -16.086   5.037 -41.736  1.00  0.00     0.178 C 
ATOM     33  C   UNL     1     -14.735   7.192 -42.021  1.00  0.00     0.180 C 
ATOM     34  O   UNL     1     -17.120   5.861 -42.237  1.00  0.00    -0.342 OA
ATOM     35  C   UNL     1     -15.264   6.999 -43.459  1.00  0.00     0.201 C 
ATOM     36  C   UNL     1     -16.737   6.499 -43.450  1.00  0.00     0.279 C 
BRANCH  32  37
ATOM     37  C   UNL     1     -16.661   4.101 -40.665  1.00  0.00     0.191 C 
BRANCH  37  38
ATOM     38  O   UNL     1     -15.632   3.386 -40.030  1.00  0.00    -0.394 OA
ATOM     39  H   UNL     1     -15.123   2.920 -40.746  1.00  0.00     0.210 HD
ENDBRANCH  37  38
ENDBRANCH  32  37
BRANCH  33  40
ATOM     40  O   UNL     1     -15.315   8.327 -41.421  1.00  0.00    -0.387 OA
ATOM     41  H   UNL     1     -15.975   8.713 -42.052  1.00  0.00     0.211 HD
ENDBRANCH  33  40
BRANCH  35  42
ATOM     42  O   UNL     1     -15.176   8.199 -44.184  1.00  0.00    -0.385 OA
ATOM     43  H   UNL     1     -15.566   8.911 -43.612  1.00  0.00     0.211 HD
ENDBRANCH  35  42
BRANCH  36  44
ATOM     44  O   UNL     1     -16.953   5.635 -44.535  1.00  0.00    -0.366 OA
ATOM     45  H   UNL     1     -17.545   4.912 -44.205  1.00  0.00     0.213 HD
ENDBRANCH  36  44
ENDBRANCH  30  31
ENDBRANCH   4  30
TORSDOF 18
ENDMDL
MODEL 6
REMARK VINA RESULT:    -6.062      1.216      2.012
REMARK INTER + INTRA:         -12.667
REMARK INTER:                 -10.293
REMARK INTRA:                  -2.374
REMARK UNBOUND:                -2.175
REMARK SMILES OC[C@@H]1O[C@H](O[C@H]2[C@H](O)[C@H](O)[C@@H](O)O[C@@H]2CO)[C@@H](O)[C@@H](O)[C@H]1O[C@H]1O[C@H](CO)[C@@H](O)[C@@H](O)[C@H]1O
REMARK SMILES IDX 22 1 3 2 4 3 5 4 18 5 20 6 23 7 24 8 26 9 29 10 25 11 31 12
REMARK SMILES IDX 33 13 27 14 28 15 30 17 32 19 34 21 2 23 1 24 21 26 19 28
REMARK SMILES IDX 6 30 7 31 15 32 8 33 14 34 10 35 12 36 16 37 17 38 9 40
REMARK SMILES IDX 11 42 13 44
REMARK H PARENT 28 16 30 18 32 20 34 22 1 25 21 27 19 29 17 39 9 41 11 43
REMARK H PARENT 13 45
REMARK Flexibility Score: inf
ROOT
ATOM      1  C   UNL     1     -11.347   4.580 -41.818  1.00  0.00     0.184 C 
ATOM      2  C   UNL     1     -11.219   6.109 -41.443  1.00  0.00     0.178 C 
ATOM      3  O   UNL     1     -11.915   7.038 -42.264  1.00  0.00    -0.341 OA
ATOM      4  C   UNL     1     -13.062   6.523 -42.907  1.00  0.00     0.282 C 
ATOM      5  C   UNL     1     -12.661   5.424 -43.888  1.00  0.00     0.202 C 
ATOM      6  C   UNL     1     -12.099   4.203 -43.138  1.00  0.00     0.180 C 
ENDROOT
BRANCH   1   7
ATOM      7  O   UNL     1     -10.141   3.845 -41.615  1.00  0.00    -0.341 OA
BRANCH   7   8
ATOM      8  C   UNL     1     -10.072   2.989 -40.473  1.00  0.00     0.282 C 
ATOM      9  C   UNL     1     -11.012   2.422 -38.358  1.00  0.00     0.178 C 
ATOM     10  C   UNL     1     -10.162   1.118 -38.454  1.00  0.00     0.177 C 
ATOM     11  O   UNL     1     -11.185   3.114 -39.594  1.00  0.00    -0.341 OA
ATOM     12  C   UNL     1     -10.298   0.501 -39.852  1.00  0.00     0.179 C 
ATOM     13  C   UNL     1      -9.865   1.521 -40.938  1.00  0.00     0.202 C 
BRANCH   9  14
ATOM     14  C   UNL     1     -10.508   3.371 -37.256  1.00  0.00     0.191 C 
BRANCH  14  15
ATOM     15  O   UNL     1     -10.683   2.810 -35.983  1.00  0.00    -0.394 OA
ATOM     16  H   UNL     1     -11.659   2.799 -35.794  1.00  0.00     0.210 HD
ENDBRANCH  14  15
ENDBRANCH   9  14
BRANCH  10  17
ATOM     17  O   UNL     1     -10.580   0.186 -37.490  1.00  0.00    -0.387 OA
ATOM     18  H   UNL     1      -9.769  -0.301 -37.189  1.00  0.00     0.211 HD
ENDBRANCH  10  17
BRANCH  12  19
ATOM     19  O   UNL     1     -11.605   0.012 -40.064  1.00  0.00    -0.387 OA
ATOM     20  H   UNL     1     -11.577  -0.978 -40.037  1.00  0.00     0.211 HD
ENDBRANCH  12  19
BRANCH  13  21
ATOM     21  O   UNL     1     -10.542   1.278 -42.144  1.00  0.00    -0.385 OA
ATOM     22  H   UNL     1     -10.976   2.131 -42.408  1.00  0.00     0.211 HD
ENDBRANCH  13  21
ENDBRANCH   7   8
ENDBRANCH   1   7
BRANCH   2  23
ATOM     23  C   UNL     1     -11.564   6.360 -39.964  1.00  0.00     0.191 C 
BRANCH  23  24
ATOM     24  O   UNL     1     -12.617   5.525 -39.566  1.00  0.00    -0.394 OA
ATOM     25  H   UNL     1     -12.637   5.554 -38.576  1.00  0.00     0.210 HD
ENDBRANCH  23  24
ENDBRANCH   2  23
BRANCH   6  26
ATOM     26  O   UNL     1     -11.299   3.419 -43.984  1.00  0.00    -0.387 OA
ATOM     27  H   UNL     1     -11.171   3.930 -44.823  1.00  0.00     0.211 HD
ENDBRANCH   6  26
BRANCH   5  28
ATOM     28  O   UNL     1     -11.715   5.942 -44.788  1.00  0.00    -0.385 OA
ATOM     29  H   UNL     1     -11.541   6.881 -44.521  1.00  0.00     0.211 HD
ENDBRANCH   5  28
BRANCH   4  30
ATOM     30  O   UNL     1     -13.999   6.033 -41.954  1.00  0.00    -0.341 OA
BRANCH  30  31
ATOM     31  C   UNL     1     -15.357   6.156 -42.359  1.00  0.00     0.184 C 
ATOM     32  C   UNL     1     -15.991   7.356 -41.608  1.00  0.00     0.178 C 
ATOM     33  C   UNL     1     -16.100   4.832 -42.022  1.00  0.00     0.180 C 
ATOM     34  O   UNL     1     -17.396   7.204 -41.570  1.00  0.00    -0.342 OA
ATOM     35  C   UNL     1     -16.863   4.933 -40.682  1.00  0.00     0.201 C 
ATOM     36  C   UNL     1     -17.785   6.185 -40.655  1.00  0.00     0.279 C 
BRANCH  32  37
ATOM     37  C   UNL     1     -15.646   8.682 -42.298  1.00  0.00     0.191 C 
BRANCH  37  38
ATOM     38  O   UNL     1     -16.685   9.612 -42.129  1.00  0.00    -0.394 OA
ATOM     39  H   UNL     1     -17.534   9.094 -42.126  1.00  0.00     0.210 HD
ENDBRANCH  37  38
ENDBRANCH  32  37
BRANCH  33  40
ATOM     40  O   UNL     1     -16.967   4.450 -43.064  1.00  0.00    -0.387 OA
ATOM     41  H   UNL     1     -16.741   4.980 -43.871  1.00  0.00     0.211 HD
ENDBRANCH  33  40
BRANCH  35  42
ATOM     42  O   UNL     1     -17.629   3.775 -40.462  1.00  0.00    -0.385 OA
ATOM     43  H   UNL     1     -17.060   3.147 -39.944  1.00  0.00     0.211 HD
ENDBRANCH  35  42
BRANCH  36  44
ATOM     44  O   UNL     1     -17.844   6.705 -39.353  1.00  0.00    -0.366 OA
ATOM     45  H   UNL     1     -18.502   6.151 -38.860  1.00  0.00     0.213 HD
ENDBRANCH  36  44
ENDBRANCH  30  31
ENDBRANCH   4  30
TORSDOF 18
ENDMDL
MODEL 7
REMARK VINA RESULT:    -6.029      2.070      3.157
REMARK INTER + INTRA:         -12.610
REMARK INTER:                  -9.814
REMARK INTRA:                  -2.797
REMARK UNBOUND:                -2.175
REMARK SMILES OC[C@@H]1O[C@H](O[C@H]2[C@H](O)[C@H](O)[C@@H](O)O[C@@H]2CO)[C@@H](O)[C@@H](O)[C@H]1O[C@H]1O[C@H](CO)[C@@H](O)[C@@H](O)[C@H]1O
REMARK SMILES IDX 22 1 3 2 4 3 5 4 18 5 20 6 23 7 24 8 26 9 29 10 25 11 31 12
REMARK SMILES IDX 33 13 27 14 28 15 30 17 32 19 34 21 2 23 1 24 21 26 19 28
REMARK SMILES IDX 6 30 7 31 15 32 8 33 14 34 10 35 12 36 16 37 17 38 9 40
REMARK SMILES IDX 11 42 13 44
REMARK H PARENT 28 16 30 18 32 20 34 22 1 25 21 27 19 29 17 39 9 41 11 43
REMARK H PARENT 13 45
REMARK Flexibility Score: inf
ROOT
ATOM      1  C   UNL     1     -11.618   5.625 -42.482  1.00  0.00     0.184 C 
ATOM      2  C   UNL     1     -11.672   7.134 -42.946  1.00  0.00     0.178 C 
ATOM      3  O   UNL     1     -12.637   7.475 -43.934  1.00  0.00    -0.341 OA
ATOM      4  C   UNL     1     -13.781   6.648 -43.958  1.00  0.00     0.282 C 
ATOM      5  C   UNL     1     -13.386   5.221 -44.335  1.00  0.00     0.202 C 
ATOM      6  C   UNL     1     -12.517   4.588 -43.233  1.00  0.00     0.180 C 
ENDROOT
BRANCH   1   7
ATOM      7  O   UNL     1     -10.294   5.159 -42.226  1.00  0.00    -0.341 OA
BRANCH   7   8
ATOM      8  C   UNL     1      -9.924   4.930 -40.865  1.00  0.00     0.282 C 
ATOM      9  C   UNL     1     -10.531   5.180 -38.574  1.00  0.00     0.178 C 
ATOM     10  C   UNL     1      -9.380   4.172 -38.274  1.00  0.00     0.177 C 
ATOM     11  O   UNL     1     -10.966   5.202 -39.934  1.00  0.00    -0.341 OA
ATOM     12  C   UNL     1      -9.450   2.987 -39.246  1.00  0.00     0.179 C 
ATOM     13  C   UNL     1      -9.375   3.485 -40.713  1.00  0.00     0.202 C 
BRANCH   9  14
ATOM     14  C   UNL     1     -10.216   6.599 -38.070  1.00  0.00     0.191 C 
BRANCH  14  15
ATOM     15  O   UNL     1     -11.293   7.469 -38.297  1.00  0.00    -0.394 OA
ATOM     16  H   UNL     1     -12.067   7.127 -37.775  1.00  0.00     0.210 HD
ENDBRANCH  14  15
ENDBRANCH   9  14
BRANCH  10  17
ATOM     17  O   UNL     1      -9.471   3.700 -36.954  1.00  0.00    -0.387 OA
ATOM     18  H   UNL     1      -8.698   3.096 -36.810  1.00  0.00     0.211 HD
ENDBRANCH  10  17
BRANCH  12  19
ATOM     19  O   UNL     1     -10.595   2.199 -39.002  1.00  0.00    -0.387 OA
ATOM     20  H   UNL     1     -10.364   1.510 -38.330  1.00  0.00     0.211 HD
ENDBRANCH  12  19
BRANCH  13  21
ATOM     21  O   UNL     1     -10.049   2.601 -41.571  1.00  0.00    -0.385 OA
ATOM     22  H   UNL     1     -10.140   3.062 -42.446  1.00  0.00     0.211 HD
ENDBRANCH  13  21
ENDBRANCH   7   8
ENDBRANCH   1   7
BRANCH   2  23
ATOM     23  C   UNL     1     -11.791   8.092 -41.748  1.00  0.00     0.191 C 
BRANCH  23  24
ATOM     24  O   UNL     1     -12.563   7.505 -40.737  1.00  0.00    -0.394 OA
ATOM     25  H   UNL     1     -13.477   7.404 -41.106  1.00  0.00     0.210 HD
ENDBRANCH  23  24
ENDBRANCH   2  23
BRANCH   6  26
ATOM     26  O   UNL     1     -11.762   3.520 -43.742  1.00  0.00    -0.387 OA
ATOM     27  H   UNL     1     -10.988   3.392 -43.135  1.00  0.00     0.211 HD
ENDBRANCH   6  26
BRANCH   5  28
ATOM     28  O   UNL     1     -12.704   5.248 -45.562  1.00  0.00    -0.385 OA
ATOM     29  H   UNL     1     -13.381   5.128 -46.276  1.00  0.00     0.211 HD
ENDBRANCH   5  28
BRANCH   4  30
ATOM     30  O   UNL     1     -14.450   6.672 -42.702  1.00  0.00    -0.341 OA
BRANCH  30  31
ATOM     31  C   UNL     1     -15.805   7.100 -42.774  1.00  0.00     0.184 C 
ATOM     32  C   UNL     1     -16.153   7.862 -41.469  1.00  0.00     0.178 C 
ATOM     33  C   UNL     1     -16.714   5.849 -42.948  1.00  0.00     0.180 C 
ATOM     34  O   UNL     1     -17.553   7.845 -41.268  1.00  0.00    -0.342 OA
ATOM     35  C   UNL     1     -17.306   5.383 -41.599  1.00  0.00     0.201 C 
ATOM     36  C   UNL     1     -18.004   6.559 -40.859  1.00  0.00     0.279 C 
BRANCH  32  37
ATOM     37  C   UNL     1     -15.672   9.317 -41.537  1.00  0.00     0.191 C 
BRANCH  37  38
ATOM     38  O   UNL     1     -16.412  10.124 -40.657  1.00  0.00    -0.394 OA
ATOM     39  H   UNL     1     -17.153  10.522 -41.188  1.00  0.00     0.210 HD
ENDBRANCH  37  38
ENDBRANCH  32  37
BRANCH  33  40
ATOM     40  O   UNL     1     -17.735   6.085 -43.889  1.00  0.00    -0.387 OA
ATOM     41  H   UNL     1     -17.550   6.944 -44.345  1.00  0.00     0.211 HD
ENDBRANCH  33  40
BRANCH  35  42
ATOM     42  O   UNL     1     -18.222   4.337 -41.797  1.00  0.00    -0.385 OA
ATOM     43  H   UNL     1     -19.127   4.745 -41.817  1.00  0.00     0.211 HD
ENDBRANCH  35  42
BRANCH  36  44
ATOM     44  O   UNL     1     -17.842   6.412 -39.472  1.00  0.00    -0.366 OA
ATOM     45  H   UNL     1     -17.181   7.095 -39.193  1.00  0.00     0.213 HD
ENDBRANCH  36  44
ENDBRANCH  30  31
ENDBRANCH   4  30
TORSDOF 18
ENDMDL
MODEL 8
REMARK VINA RESULT:    -5.994      1.974      7.632
REMARK INTER + INTRA:         -12.550
REMARK INTER:                  -9.531
REMARK INTRA:                  -3.019
REMARK UNBOUND:                -2.175
REMARK SMILES OC[C@@H]1O[C@H](O[C@H]2[C@H](O)[C@H](O)[C@@H](O)O[C@@H]2CO)[C@@H](O)[C@@H](O)[C@H]1O[C@H]1O[C@H](CO)[C@@H](O)[C@@H](O)[C@H]1O
REMARK SMILES IDX 22 1 3 2 4 3 5 4 18 5 20 6 23 7 24 8 26 9 29 10 25 11 31 12
REMARK SMILES IDX 33 13 27 14 28 15 30 17 32 19 34 21 2 23 1 24 21 26 19 28
REMARK SMILES IDX 6 30 7 31 15 32 8 33 14 34 10 35 12 36 16 37 17 38 9 40
REMARK SMILES IDX 11 42 13 44
REMARK H PARENT 28 16 30 18 32 20 34 22 1 25 21 27 19 29 17 39 9 41 11 43
REMARK H PARENT 13 45
REMARK Flexibility Score: inf
ROOT
ATOM      1  C   UNL     1     -13.284   7.147 -42.033  1.00  0.00     0.184 C 
ATOM      2  C   UNL     1     -12.441   6.503 -43.203  1.00  0.00     0.178 C 
ATOM      3  O   UNL     1     -11.035   6.408 -43.013  1.00  0.00    -0.341 OA
ATOM      4  C   UNL     1     -10.620   6.326 -41.666  1.00  0.00     0.282 C 
ATOM      5  C   UNL     1     -10.985   7.614 -40.929  1.00  0.00     0.202 C 
ATOM      6  C   UNL     1     -12.513   7.764 -40.819  1.00  0.00     0.180 C 
ENDROOT
BRANCH   1   7
ATOM      7  O   UNL     1     -14.368   7.951 -42.494  1.00  0.00    -0.341 OA
BRANCH   7   8
ATOM      8  C   UNL     1     -15.693   7.453 -42.298  1.00  0.00     0.282 C 
ATOM      9  C   UNL     1     -17.044   5.713 -41.389  1.00  0.00     0.178 C 
ATOM     10  C   UNL     1     -18.246   6.681 -41.612  1.00  0.00     0.177 C 
ATOM     11  O   UNL     1     -15.762   6.338 -41.415  1.00  0.00    -0.341 OA
ATOM     12  C   UNL     1     -17.889   8.088 -41.117  1.00  0.00     0.179 C 
ATOM     13  C   UNL     1     -16.621   8.611 -41.840  1.00  0.00     0.202 C 
BRANCH   9  14
ATOM     14  C   UNL     1     -17.087   4.496 -42.331  1.00  0.00     0.191 C 
BRANCH  14  15
ATOM     15  O   UNL     1     -18.132   3.625 -41.988  1.00  0.00    -0.394 OA
ATOM     16  H   UNL     1     -17.721   2.800 -41.614  1.00  0.00     0.210 HD
ENDBRANCH  14  15
ENDBRANCH   9  14
BRANCH  10  17
ATOM     17  O   UNL     1     -19.383   6.219 -40.929  1.00  0.00    -0.387 OA
ATOM     18  H   UNL     1     -19.373   6.641 -40.032  1.00  0.00     0.211 HD
ENDBRANCH  10  17
BRANCH  12  19
ATOM     19  O   UNL     1     -17.756   8.111 -39.712  1.00  0.00    -0.387 OA
ATOM     20  H   UNL     1     -17.002   8.709 -39.478  1.00  0.00     0.211 HD
ENDBRANCH  12  19
BRANCH  13  21
ATOM     21  O   UNL     1     -15.924   9.517 -41.024  1.00  0.00    -0.385 OA
ATOM     22  H   UNL     1     -15.172   9.873 -41.566  1.00  0.00     0.211 HD
ENDBRANCH  13  21
ENDBRANCH   7   8
ENDBRANCH   1   7
BRANCH   2  23
ATOM     23  C   UNL     1     -13.004   5.133 -43.621  1.00  0.00     0.191 C 
BRANCH  23  24
ATOM     24  O   UNL     1     -13.602   4.503 -42.522  1.00  0.00    -0.394 OA
ATOM     25  H   UNL     1     -14.494   4.922 -42.411  1.00  0.00     0.210 HD
ENDBRANCH  23  24
ENDBRANCH   2  23
BRANCH   6  26
ATOM     26  O   UNL     1     -12.872   9.104 -40.606  1.00  0.00    -0.387 OA
ATOM     27  H   UNL     1     -13.165   9.183 -39.662  1.00  0.00     0.211 HD
ENDBRANCH   6  26
BRANCH   5  28
ATOM     28  O   UNL     1     -10.419   8.703 -41.611  1.00  0.00    -0.385 OA
ATOM     29  H   UNL     1     -11.109   9.416 -41.648  1.00  0.00     0.211 HD
ENDBRANCH   5  28
BRANCH   4  30
ATOM     30  O   UNL     1     -11.201   5.196 -41.025  1.00  0.00    -0.341 OA
BRANCH  30  31
ATOM     31  C   UNL     1     -10.267   4.176 -40.689  1.00  0.00     0.184 C 
ATOM     32  C   UNL     1     -11.020   3.039 -39.951  1.00  0.00     0.178 C 
ATOM     33  C   UNL     1      -9.161   4.791 -39.785  1.00  0.00     0.180 C 
ATOM     34  O   UNL     1     -10.107   2.294 -39.170  1.00  0.00    -0.342 OA
ATOM     35  C   UNL     1      -9.440   4.532 -38.288  1.00  0.00     0.201 C 
ATOM     36  C   UNL     1      -9.692   3.021 -38.019  1.00  0.00     0.279 C 
BRANCH  32  37
ATOM     37  C   UNL     1     -11.714   2.101 -40.947  1.00  0.00     0.191 C 
BRANCH  37  38
ATOM     38  O   UNL     1     -11.401   2.463 -42.268  1.00  0.00    -0.394 OA
ATOM     39  H   UNL     1     -11.542   1.653 -42.828  1.00  0.00     0.210 HD
ENDBRANCH  37  38
ENDBRANCH  32  37
BRANCH  33  40
ATOM     40  O   UNL     1      -7.883   4.320 -40.145  1.00  0.00    -0.387 OA
ATOM     41  H   UNL     1      -7.645   3.568 -39.546  1.00  0.00     0.211 HD
ENDBRANCH  33  40
BRANCH  35  42
ATOM     42  O   UNL     1      -8.367   4.982 -37.500  1.00  0.00    -0.385 OA
ATOM     43  H   UNL     1      -8.748   5.586 -36.811  1.00  0.00     0.211 HD
ENDBRANCH  35  42
BRANCH  36  44
ATOM     44  O   UNL     1     -10.635   2.871 -36.990  1.00  0.00    -0.366 OA
ATOM     45  H   UNL     1     -11.394   2.365 -37.377  1.00  0.00     0.213 HD
ENDBRANCH  36  44
ENDBRANCH  30  31
ENDBRANCH   4  30
TORSDOF 18
ENDMDL
MODEL 9
REMARK VINA RESULT:    -5.980      3.995      8.317
REMARK INTER + INTRA:         -12.525
REMARK INTER:                 -10.231
REMARK INTRA:                  -2.295
REMARK UNBOUND:                -2.175
REMARK SMILES OC[C@@H]1O[C@H](O[C@H]2[C@H](O)[C@H](O)[C@@H](O)O[C@@H]2CO)[C@@H](O)[C@@H](O)[C@H]1O[C@H]1O[C@H](CO)[C@@H](O)[C@@H](O)[C@H]1O
REMARK SMILES IDX 22 1 3 2 4 3 5 4 18 5 20 6 23 7 24 8 26 9 29 10 25 11 31 12
REMARK SMILES IDX 33 13 27 14 28 15 30 17 32 19 34 21 2 23 1 24 21 26 19 28
REMARK SMILES IDX 6 30 7 31 15 32 8 33 14 34 10 35 12 36 16 37 17 38 9 40
REMARK SMILES IDX 11 42 13 44
REMARK H PARENT 28 16 30 18 32 20 34 22 1 25 21 27 19 29 17 39 9 41 11 43
REMARK H PARENT 13 45
REMARK Flexibility Score: inf
ROOT
ATOM      1  C   UNL     1     -13.564   5.443 -43.934  1.00  0.00     0.184 C 
ATOM      2  C   UNL     1     -14.157   6.689 -44.703  1.00  0.00     0.178 C 
ATOM      3  O   UNL     1     -13.261   7.752 -45.003  1.00  0.00    -0.341 OA
ATOM      4  C   UNL     1     -11.908   7.370 -45.137  1.00  0.00     0.282 C 
ATOM      5  C   UNL     1     -11.383   6.838 -43.805  1.00  0.00     0.202 C 
ATOM      6  C   UNL     1     -12.085   5.521 -43.430  1.00  0.00     0.180 C 
ENDROOT
BRANCH   1   7
ATOM      7  O   UNL     1     -14.467   4.884 -42.981  1.00  0.00    -0.341 OA
BRANCH   7   8
ATOM      8  C   UNL     1     -15.524   5.719 -42.504  1.00  0.00     0.282 C 
ATOM      9  C   UNL     1     -17.781   6.426 -42.797  1.00  0.00     0.178 C 
ATOM     10  C   UNL     1     -17.656   7.046 -41.372  1.00  0.00     0.177 C 
ATOM     11  O   UNL     1     -16.783   5.457 -43.117  1.00  0.00    -0.341 OA
ATOM     12  C   UNL     1     -16.995   6.045 -40.417  1.00  0.00     0.179 C 
ATOM     13  C   UNL     1     -15.604   5.619 -40.956  1.00  0.00     0.202 C 
BRANCH   9  14
ATOM     14  C   UNL     1     -17.887   7.496 -43.898  1.00  0.00     0.191 C 
BRANCH  14  15
ATOM     15  O   UNL     1     -18.610   8.613 -43.453  1.00  0.00    -0.394 OA
ATOM     16  H   UNL     1     -17.976   9.201 -42.962  1.00  0.00     0.210 HD
ENDBRANCH  14  15
ENDBRANCH   9  14
BRANCH  10  17
ATOM     17  O   UNL     1     -18.921   7.401 -40.877  1.00  0.00    -0.387 OA
ATOM     18  H   UNL     1     -18.971   7.065 -39.945  1.00  0.00     0.211 HD
ENDBRANCH  10  17
BRANCH  12  19
ATOM     19  O   UNL     1     -17.841   4.940 -40.178  1.00  0.00    -0.387 OA
ATOM     20  H   UNL     1     -17.510   4.172 -40.709  1.00  0.00     0.211 HD
ENDBRANCH  12  19
BRANCH  13  21
ATOM     21  O   UNL     1     -15.279   4.324 -40.520  1.00  0.00    -0.385 OA
ATOM     22  H   UNL     1     -15.808   3.693 -41.074  1.00  0.00     0.211 HD
ENDBRANCH  13  21
ENDBRANCH   7   8
ENDBRANCH   1   7
BRANCH   2  23
ATOM     23  C   UNL     1     -14.908   6.264 -45.978  1.00  0.00     0.191 C 
BRANCH  23  24
ATOM     24  O   UNL     1     -14.351   5.087 -46.495  1.00  0.00    -0.394 OA
ATOM     25  H   UNL     1     -14.975   4.354 -46.256  1.00  0.00     0.210 HD
ENDBRANCH  23  24
ENDBRANCH   2  23
BRANCH   6  26
ATOM     26  O   UNL     1     -11.995   5.279 -42.050  1.00  0.00    -0.387 OA
ATOM     27  H   UNL     1     -11.102   5.593 -41.755  1.00  0.00     0.211 HD
ENDBRANCH   6  26
BRANCH   5  28
ATOM     28  O   UNL     1     -11.582   7.815 -42.816  1.00  0.00    -0.385 OA
ATOM     29  H   UNL     1     -10.717   7.935 -42.344  1.00  0.00     0.211 HD
ENDBRANCH   5  28
BRANCH   4  30
ATOM     30  O   UNL     1     -11.755   6.398 -46.165  1.00  0.00    -0.341 OA
BRANCH  30  31
ATOM     31  C   UNL     1     -11.051   6.869 -47.308  1.00  0.00     0.184 C 
ATOM     32  C   UNL     1     -11.777   6.361 -48.581  1.00  0.00     0.178 C 
ATOM     33  C   UNL     1      -9.591   6.335 -47.250  1.00  0.00     0.180 C 
ATOM     34  O   UNL     1     -10.876   6.350 -49.670  1.00  0.00    -0.342 OA
ATOM     35  C   UNL     1      -9.415   5.062 -48.107  1.00  0.00     0.201 C 
ATOM     36  C   UNL     1      -9.935   5.288 -49.556  1.00  0.00     0.279 C 
BRANCH  32  37
ATOM     37  C   UNL     1     -12.974   7.257 -48.926  1.00  0.00     0.191 C 
BRANCH  37  38
ATOM     38  O   UNL     1     -14.076   6.480 -49.318  1.00  0.00    -0.394 OA
ATOM     39  H   UNL     1     -14.040   5.642 -48.784  1.00  0.00     0.210 HD
ENDBRANCH  37  38
ENDBRANCH  32  37
BRANCH  33  40
ATOM     40  O   UNL     1      -8.666   7.328 -47.629  1.00  0.00    -0.387 OA
ATOM     41  H   UNL     1      -8.228   7.678 -46.812  1.00  0.00     0.211 HD
ENDBRANCH  33  40
BRANCH  35  42
ATOM     42  O   UNL     1      -8.065   4.674 -48.143  1.00  0.00    -0.385 OA
ATOM     43  H   UNL     1      -7.597   5.312 -48.742  1.00  0.00     0.211 HD
ENDBRANCH  35  42
BRANCH  36  44
ATOM     44  O   UNL     1     -10.490   4.098 -50.052  1.00  0.00    -0.366 OA
ATOM     45  H   UNL     1      -9.731   3.551 -50.381  1.00  0.00     0.213 HD
ENDBRANCH  36  44
ENDBRANCH  30  31
ENDBRANCH   4  30
TORSDOF 18
ENDMDL
