MODEL 1
REMARK VINA RESULT:    -4.520      0.000      0.000
REMARK INTER + INTRA:          -4.652
REMARK INTER:                  -4.652
REMARK INTRA:                   0.000
REMARK UNBOUND:                 0.000
REMARK SMILES CC1(C)[C@H]2CC[C@]1(C)[C@H](O)C2
REMARK SMILES IDX 1 1 2 2 4 3 5 4 6 5 7 6 9 7 11 8 8 9 3 10 10 11
REMARK H PARENT 10 12
REMARK Flexibility Score: inf
ROOT
ATOM      1  C   UNL     1     104.044 105.615 104.414  1.00  0.00     0.012 C 
ATOM      2  C   UNL     1     104.698 106.309 103.179  1.00  0.00    -0.025 C 
ATOM      3  C   UNL     1     104.516 107.836 103.155  1.00  0.00    -0.002 C 
ATOM      4  C   UNL     1     105.286 108.307 104.413  1.00  0.00     0.005 C 
ATOM      5  C   UNL     1     106.477 107.330 104.471  1.00  0.00     0.010 C 
ATOM      6  C   UNL     1     106.240 106.432 103.222  1.00  0.00    -0.001 C 
ATOM      7  C   UNL     1     106.552 107.291 101.960  1.00  0.00     0.121 C 
ATOM      8  C   UNL     1     105.365 108.283 101.938  1.00  0.00     0.036 C 
ATOM      9  C   UNL     1     107.015 105.109 103.268  1.00  0.00     0.015 C 
ATOM     10  C   UNL     1     104.111 105.588 101.926  1.00  0.00     0.012 C 
ENDROOT
BRANCH   7  11
ATOM     11  O   UNL     1     107.785 107.957 102.063  1.00  0.00    -0.393 OA
ATOM     12  H   UNL     1     108.314 107.693 101.265  1.00  0.00     0.210 HD
ENDBRANCH   7  11
TORSDOF 1
ENDMDL
MODEL 2
REMARK VINA RESULT:    -4.516      1.660      2.625
REMARK INTER + INTRA:          -4.648
REMARK INTER:                  -4.648
REMARK INTRA:                   0.000
REMARK UNBOUND:                 0.000
REMARK SMILES CC1(C)[C@H]2CC[C@]1(C)[C@H](O)C2
REMARK SMILES IDX 1 1 2 2 4 3 5 4 6 5 7 6 9 7 11 8 8 9 3 10 10 11
REMARK H PARENT 10 12
REMARK Flexibility Score: inf
ROOT
ATOM      1  C   UNL     1     105.516 107.880 104.412  1.00  0.00     0.012 C 
ATOM      2  C   UNL     1     106.211 107.274 103.153  1.00  0.00    -0.025 C 
ATOM      3  C   UNL     1     107.733 107.490 103.119  1.00  0.00    -0.002 C 
ATOM      4  C   UNL     1     108.233 106.697 104.351  1.00  0.00     0.005 C 
ATOM      5  C   UNL     1     107.283 105.484 104.387  1.00  0.00     0.010 C 
ATOM      6  C   UNL     1     106.368 105.734 103.154  1.00  0.00    -0.001 C 
ATOM      7  C   UNL     1     107.220 105.475 101.875  1.00  0.00     0.121 C 
ATOM      8  C   UNL     1     108.186 106.683 101.876  1.00  0.00     0.036 C 
ATOM      9  C   UNL     1     105.062 104.930 103.191  1.00  0.00     0.015 C 
ATOM     10  C   UNL     1     105.464 107.878 101.924  1.00  0.00     0.012 C 
ENDROOT
BRANCH   7  11
ATOM     11  O   UNL     1     107.913 104.254 101.939  1.00  0.00    -0.393 OA
ATOM     12  H   UNL     1     107.447 103.634 101.319  1.00  0.00     0.210 HD
ENDBRANCH   7  11
TORSDOF 1
ENDMDL
MODEL 3
REMARK VINA RESULT:    -4.515      1.696      2.696
REMARK INTER + INTRA:          -4.647
REMARK INTER:                  -4.647
REMARK INTRA:                   0.000
REMARK UNBOUND:                 0.000
REMARK SMILES CC1(C)[C@H]2CC[C@]1(C)[C@H](O)C2
REMARK SMILES IDX 1 1 2 2 4 3 5 4 6 5 7 6 9 7 11 8 8 9 3 10 10 11
REMARK H PARENT 10 12
REMARK Flexibility Score: inf
ROOT
ATOM      1  C   UNL     1     106.421 104.093 104.420  1.00  0.00     0.012 C 
ATOM      2  C   UNL     1     105.705 104.740 103.193  1.00  0.00    -0.025 C 
ATOM      3  C   UNL     1     104.183 104.521 103.176  1.00  0.00    -0.002 C 
ATOM      4  C   UNL     1     103.701 105.270 104.442  1.00  0.00     0.005 C 
ATOM      5  C   UNL     1     104.649 106.484 104.504  1.00  0.00     0.010 C 
ATOM      6  C   UNL     1     105.545 106.278 103.249  1.00  0.00    -0.001 C 
ATOM      7  C   UNL     1     104.672 106.577 101.993  1.00  0.00     0.121 C 
ATOM      8  C   UNL     1     103.708 105.368 101.968  1.00  0.00     0.036 C 
ATOM      9  C   UNL     1     106.849 107.084 103.293  1.00  0.00     0.015 C 
ATOM     10  C   UNL     1     106.434 104.179 101.933  1.00  0.00     0.012 C 
ENDROOT
BRANCH   7  11
ATOM     11  O   UNL     1     103.977 107.794 102.109  1.00  0.00    -0.393 OA
ATOM     12  H   UNL     1     104.125 108.114 103.037  1.00  0.00     0.210 HD
ENDBRANCH   7  11
TORSDOF 1
ENDMDL
MODEL 4
REMARK VINA RESULT:    -4.472      2.067      3.730
REMARK INTER + INTRA:          -4.602
REMARK INTER:                  -4.602
REMARK INTRA:                   0.000
REMARK UNBOUND:                 0.000
REMARK SMILES CC1(C)[C@H]2CC[C@]1(C)[C@H](O)C2
REMARK SMILES IDX 1 1 2 2 4 3 5 4 6 5 7 6 9 7 11 8 8 9 3 10 10 11
REMARK H PARENT 10 12
REMARK Flexibility Score: inf
ROOT
ATOM      1  C   UNL     1     107.887 106.554 104.385  1.00  0.00     0.012 C 
ATOM      2  C   UNL     1     107.275 105.845 103.137  1.00  0.00    -0.025 C 
ATOM      3  C   UNL     1     107.499 104.323 103.114  1.00  0.00    -0.002 C 
ATOM      4  C   UNL     1     106.718 103.829 104.356  1.00  0.00     0.005 C 
ATOM      5  C   UNL     1     105.500 104.773 104.393  1.00  0.00     0.010 C 
ATOM      6  C   UNL     1     105.737 105.680 103.150  1.00  0.00    -0.001 C 
ATOM      7  C   UNL     1     105.473 104.816 101.881  1.00  0.00     0.121 C 
ATOM      8  C   UNL     1     106.686 103.856 101.881  1.00  0.00     0.036 C 
ATOM      9  C   UNL     1     104.925 106.981 103.183  1.00  0.00     0.015 C 
ATOM     10  C   UNL     1     107.866 106.585 101.897  1.00  0.00     0.012 C 
ENDROOT
BRANCH   7  11
ATOM     11  O   UNL     1     104.256 104.116 101.960  1.00  0.00    -0.393 OA
ATOM     12  H   UNL     1     103.606 104.621 101.405  1.00  0.00     0.210 HD
ENDBRANCH   7  11
TORSDOF 1
ENDMDL
MODEL 5
REMARK VINA RESULT:    -4.111      1.555      3.172
REMARK INTER + INTRA:          -4.231
REMARK INTER:                  -4.231
REMARK INTRA:                   0.000
REMARK UNBOUND:                 0.000
REMARK SMILES CC1(C)[C@H]2CC[C@]1(C)[C@H](O)C2
REMARK SMILES IDX 1 1 2 2 4 3 5 4 6 5 7 6 9 7 11 8 8 9 3 10 10 11
REMARK H PARENT 10 12
REMARK Flexibility Score: inf
ROOT
ATOM      1  C   UNL     1     107.495 104.622 102.249  1.00  0.00     0.012 C 
ATOM      2  C   UNL     1     106.959 105.400 103.491  1.00  0.00    -0.025 C 
ATOM      3  C   UNL     1     107.967 106.404 104.077  1.00  0.00    -0.002 C 
ATOM      4  C   UNL     1     108.154 107.430 102.933  1.00  0.00     0.005 C 
ATOM      5  C   UNL     1     106.749 107.504 102.305  1.00  0.00     0.010 C 
ATOM      6  C   UNL     1     105.931 106.516 103.186  1.00  0.00    -0.001 C 
ATOM      7  C   UNL     1     105.729 107.185 104.579  1.00  0.00     0.121 C 
ATOM      8  C   UNL     1     107.154 107.131 105.178  1.00  0.00     0.036 C 
ATOM      9  C   UNL     1     104.622 106.057 102.532  1.00  0.00     0.015 C 
ATOM     10  C   UNL     1     106.496 104.311 104.506  1.00  0.00     0.012 C 
ENDROOT
BRANCH   7  11
ATOM     11  O   UNL     1     105.261 108.506 104.468  1.00  0.00    -0.393 OA
ATOM     12  H   UNL     1     106.007 109.093 104.762  1.00  0.00     0.210 HD
ENDBRANCH   7  11
TORSDOF 1
ENDMDL
MODEL 6
REMARK VINA RESULT:    -4.102      1.914      3.384
REMARK INTER + INTRA:          -4.222
REMARK INTER:                  -4.222
REMARK INTRA:                   0.000
REMARK UNBOUND:                 0.000
REMARK SMILES CC1(C)[C@H]2CC[C@]1(C)[C@H](O)C2
REMARK SMILES IDX 1 1 2 2 4 3 5 4 6 5 7 6 9 7 11 8 8 9 3 10 10 11
REMARK H PARENT 10 12
REMARK Flexibility Score: inf
ROOT
ATOM      1  C   UNL     1     104.937 107.399 102.305  1.00  0.00     0.012 C 
ATOM      2  C   UNL     1     105.598 106.482 103.380  1.00  0.00    -0.025 C 
ATOM      3  C   UNL     1     104.672 105.372 103.904  1.00  0.00    -0.002 C 
ATOM      4  C   UNL     1     104.412 104.502 102.650  1.00  0.00     0.005 C 
ATOM      5  C   UNL     1     105.759 104.566 101.904  1.00  0.00     0.010 C 
ATOM      6  C   UNL     1     106.625 105.456 102.843  1.00  0.00    -0.001 C 
ATOM      7  C   UNL     1     106.963 104.614 104.109  1.00  0.00     0.121 C 
ATOM      8  C   UNL     1     105.595 104.534 104.825  1.00  0.00     0.036 C 
ATOM      9  C   UNL     1     107.861 106.046 102.152  1.00  0.00     0.015 C 
ATOM     10  C   UNL     1     106.120 107.442 104.494  1.00  0.00     0.012 C 
ENDROOT
BRANCH   7  11
ATOM     11  O   UNL     1     107.454 103.338 103.781  1.00  0.00    -0.393 OA
ATOM     12  H   UNL     1     106.713 102.700 103.955  1.00  0.00     0.210 HD
ENDBRANCH   7  11
TORSDOF 1
ENDMDL
MODEL 7
REMARK VINA RESULT:    -4.057      2.068      3.338
REMARK INTER + INTRA:          -4.176
REMARK INTER:                  -4.176
REMARK INTRA:                   0.000
REMARK UNBOUND:                 0.000
REMARK SMILES CC1(C)[C@H]2CC[C@]1(C)[C@H](O)C2
REMARK SMILES IDX 1 1 2 2 4 3 5 4 6 5 7 6 9 7 11 8 8 9 3 10 10 11
REMARK H PARENT 10 12
REMARK Flexibility Score: inf
ROOT
ATOM      1  C   UNL     1     107.379 107.089 102.536  1.00  0.00     0.012 C 
ATOM      2  C   UNL     1     106.457 106.372 103.571  1.00  0.00    -0.025 C 
ATOM      3  C   UNL     1     105.363 107.277 104.161  1.00  0.00    -0.002 C 
ATOM      4  C   UNL     1     104.491 107.631 102.931  1.00  0.00     0.005 C 
ATOM      5  C   UNL     1     104.532 106.335 102.098  1.00  0.00     0.010 C 
ATOM      6  C   UNL     1     105.414 105.397 102.972  1.00  0.00    -0.001 C 
ATOM      7  C   UNL     1     104.573 104.988 104.218  1.00  0.00     0.121 C 
ATOM      8  C   UNL     1     104.516 106.307 105.024  1.00  0.00     0.036 C 
ATOM      9  C   UNL     1     105.984 104.201 102.199  1.00  0.00     0.015 C 
ATOM     10  C   UNL     1     107.414 105.765 104.642  1.00  0.00     0.012 C 
ENDROOT
BRANCH   7  11
ATOM     11  O   UNL     1     103.289 104.538 103.866  1.00  0.00    -0.393 OA
ATOM     12  H   UNL     1     102.895 104.142 104.688  1.00  0.00     0.210 HD
ENDBRANCH   7  11
TORSDOF 1
ENDMDL
MODEL 8
REMARK VINA RESULT:    -4.026      1.638      3.270
REMARK INTER + INTRA:          -4.143
REMARK INTER:                  -4.143
REMARK INTRA:                   0.000
REMARK UNBOUND:                 0.000
REMARK SMILES CC1(C)[C@H]2CC[C@]1(C)[C@H](O)C2
REMARK SMILES IDX 1 1 2 2 4 3 5 4 6 5 7 6 9 7 11 8 8 9 3 10 10 11
REMARK H PARENT 10 12
REMARK Flexibility Score: inf
ROOT
ATOM      1  C   UNL     1     106.938 104.145 104.732  1.00  0.00     0.012 C 
ATOM      2  C   UNL     1     106.634 105.475 103.973  1.00  0.00    -0.025 C 
ATOM      3  C   UNL     1     107.067 105.461 102.498  1.00  0.00    -0.002 C 
ATOM      4  C   UNL     1     106.176 104.359 101.875  1.00  0.00     0.005 C 
ATOM      5  C   UNL     1     104.849 104.516 102.643  1.00  0.00     0.010 C 
ATOM      6  C   UNL     1     105.151 105.706 103.600  1.00  0.00    -0.001 C 
ATOM      7  C   UNL     1     105.212 107.001 102.736  1.00  0.00     0.121 C 
ATOM      8  C   UNL     1     106.531 106.808 101.951  1.00  0.00     0.036 C 
ATOM      9  C   UNL     1     104.172 105.802 104.777  1.00  0.00     0.015 C 
ATOM     10  C   UNL     1     107.305 106.605 104.814  1.00  0.00     0.012 C 
ENDROOT
BRANCH   7  11
ATOM     11  O   UNL     1     104.106 107.116 101.875  1.00  0.00    -0.393 OA
ATOM     12  H   UNL     1     103.828 106.190 101.650  1.00  0.00     0.210 HD
ENDBRANCH   7  11
TORSDOF 1
ENDMDL
MODEL 9
REMARK VINA RESULT:    -3.947      1.927      3.075
REMARK INTER + INTRA:          -4.062
REMARK INTER:                  -4.062
REMARK INTRA:                   0.000
REMARK UNBOUND:                 0.000
REMARK SMILES CC1(C)[C@H]2CC[C@]1(C)[C@H](O)C2
REMARK SMILES IDX 1 1 2 2 4 3 5 4 6 5 7 6 9 7 11 8 8 9 3 10 10 11
REMARK H PARENT 10 12
REMARK Flexibility Score: inf
ROOT
ATOM      1  C   UNL     1     107.961 106.766 104.737  1.00  0.00     0.012 C 
ATOM      2  C   UNL     1     106.546 106.393 104.194  1.00  0.00    -0.025 C 
ATOM      3  C   UNL     1     106.160 107.133 102.903  1.00  0.00    -0.002 C 
ATOM      4  C   UNL     1     107.200 106.622 101.875  1.00  0.00     0.005 C 
ATOM      5  C   UNL     1     107.404 105.154 102.296  1.00  0.00     0.010 C 
ATOM      6  C   UNL     1     106.438 105.011 103.508  1.00  0.00    -0.001 C 
ATOM      7  C   UNL     1     104.983 105.017 102.951  1.00  0.00     0.121 C 
ATOM      8  C   UNL     1     104.809 106.488 102.505  1.00  0.00     0.036 C 
ATOM      9  C   UNL     1     106.748 103.798 104.394  1.00  0.00     0.015 C 
ATOM     10  C   UNL     1     105.560 106.641 105.378  1.00  0.00     0.012 C 
ENDROOT
BRANCH   7  11
ATOM     11  O   UNL     1     104.822 104.125 101.877  1.00  0.00    -0.393 OA
ATOM     12  H   UNL     1     105.434 103.362 102.052  1.00  0.00     0.210 HD
ENDBRANCH   7  11
TORSDOF 1
ENDMDL
