MODEL 1
REMARK VINA RESULT:     3.077      0.000      0.000
REMARK INTER + INTRA:           4.377
REMARK INTER:                   5.595
REMARK INTRA:                  -1.218
REMARK UNBOUND:                -1.218
REMARK SMILES CCCCCCCCCCCCCCCC(=O)[O-]
REMARK SMILES IDX 9 1 10 2 11 3 12 4 13 5 14 6 15 7 16 8 17 9 18 10 8 11 7 12
REMARK SMILES IDX 6 13 5 14 4 15 3 16 2 17 1 18
REMARK H PARENT
REMARK Flexibility Score: inf
ROOT
ATOM      1  C   UNL     1       3.627 -51.965   8.886  1.00  0.00     0.000 C 
ENDROOT
BRANCH   1   2
ATOM      2  C   UNL     1       3.658 -52.421  10.356  1.00  0.00     0.000 C 
BRANCH   2   3
ATOM      3  C   UNL     1       4.603 -53.600  10.656  1.00  0.00     0.000 C 
BRANCH   3   4
ATOM      4  C   UNL     1       6.015 -53.150  11.067  1.00  0.00     0.000 C 
BRANCH   4   5
ATOM      5  C   UNL     1       7.042 -54.297  11.042  1.00  0.00     0.000 C 
BRANCH   5   6
ATOM      6  C   UNL     1       8.472 -53.888  10.642  1.00  0.00     0.006 C 
BRANCH   6   7
ATOM      7  C   UNL     1       8.805 -52.436  11.006  1.00  0.00     0.053 C 
BRANCH   7   8
ATOM      8  C   UNL     1      10.287 -52.236  11.056  1.00  0.00     0.041 C 
ATOM      9  O   UNL     1      11.062 -53.226  10.990  1.00  0.00    -0.550 OA
ATOM     10  O   UNL     1      10.813 -50.952  11.124  1.00  0.00    -0.550 OA
ENDBRANCH   7   8
ENDBRANCH   6   7
ENDBRANCH   5   6
ENDBRANCH   4   5
ENDBRANCH   3   4
ENDBRANCH   2   3
ENDBRANCH   1   2
BRANCH   1  11
ATOM     11  C   UNL     1       3.760 -50.440   8.729  1.00  0.00     0.000 C 
BRANCH  11  12
ATOM     12  C   UNL     1       2.414 -49.707   8.862  1.00  0.00    -0.000 C 
BRANCH  12  13
ATOM     13  C   UNL     1       2.127 -49.128  10.262  1.00  0.00    -0.000 C 
BRANCH  13  14
ATOM     14  C   UNL     1       0.944 -49.777  11.007  1.00  0.00    -0.000 C 
BRANCH  14  15
ATOM     15  C   UNL     1      -0.328 -49.982  10.159  1.00  0.00    -0.000 C 
BRANCH  15  16
ATOM     16  C   UNL     1      -1.114 -51.269  10.469  1.00  0.00    -0.000 C 
BRANCH  16  17
ATOM     17  C   UNL     1      -0.632 -52.474   9.648  1.00  0.00    -0.003 C 
ATOM     18  C   UNL     1      -0.433 -52.096   8.183  1.00  0.00     0.004 C 
ENDBRANCH  16  17
ENDBRANCH  15  16
ENDBRANCH  14  15
ENDBRANCH  13  14
ENDBRANCH  12  13
ENDBRANCH  11  12
ENDBRANCH   1  11
TORSDOF 14
ENDMDL
