MODEL 1
REMARK VINA RESULT:    -3.457      0.000      0.000
REMARK INTER + INTRA:          -4.744
REMARK INTER:                  -4.872
REMARK INTRA:                   0.128
REMARK UNBOUND:                 0.128
REMARK SMILES CC1=CCC(=C(C)C)C(=O)CC(C)=CCC1
REMARK SMILES IDX 12 1 14 2 13 3 15 4 16 5 2 6 1 7 3 8 11 10 9 11 10 12 5 13
REMARK SMILES IDX 6 14 7 15 8 16 4 17
REMARK H PARENT
REMARK Flexibility Score: 60.00
ROOT
ATOM      1  C   UNL     1      11.392  52.576  18.540  1.00  0.00    -0.070 C 
ATOM      2  C   UNL     1      12.410  52.037  19.247  1.00  0.00    -0.027 C 
ATOM      3  C   UNL     1      11.589  53.951  17.954  1.00  0.00     0.039 C 
ENDROOT
BRANCH   2   4
ATOM      4  C   UNL     1      12.369  50.719  19.989  1.00  0.00     0.032 C 
BRANCH   4   5
ATOM      5  C   UNL     1      11.740  50.786  21.395  1.00  0.00     0.034 C 
BRANCH   5   6
ATOM      6  C   UNL     1      10.761  49.657  21.666  1.00  0.00    -0.077 C 
ATOM      7  C   UNL     1      11.320  48.265  21.818  1.00  0.00     0.039 C 
ATOM      8  C   UNL     1       9.415  49.809  21.711  1.00  0.00    -0.023 CG0
ATOM      9  G   UNL     1       8.635  51.104  21.605  1.00  0.00     0.000 G0
ENDBRANCH   5   6
ENDBRANCH   4   5
ENDBRANCH   2   4
BRANCH   1  10
ATOM     10  C   UNL     1      10.040  51.908  18.387  1.00  0.00     0.111 C 
BRANCH  10  11
ATOM     11  C   UNL     1       9.062  52.388  19.427  1.00  0.00     0.163 C 
ATOM     12  O   UNL     1       9.019  53.623  19.677  1.00  0.00    -0.294 OA
BRANCH  11  13
ATOM     13  C   UNL     1       8.197  51.452  20.206  1.00  0.00    -0.002 C 
ATOM     14  C   UNL     1       7.017  50.996  19.688  1.00  0.00    -0.069 C 
ATOM     15  C   UNL     1       6.044  50.178  20.508  1.00  0.00     0.039 C 
ATOM     16  C   UNL     1       6.621  51.293  18.257  1.00  0.00     0.039 C 
BRANCH  13  17
ATOM     17  C   UNL     1       8.637  51.112  21.621  1.00  0.00     0.066 CG0
ATOM     18  G   UNL     1       9.413  49.811  21.685  1.00  0.00     0.000 G0
ENDBRANCH  13  17
ENDBRANCH  11  13
ENDBRANCH  10  11
ENDBRANCH   1  10
TORSDOF 0
ENDMDL
MODEL 2
REMARK VINA RESULT:    -3.298     13.246     14.925
REMARK INTER + INTRA:          -4.521
REMARK INTER:                  -4.621
REMARK INTRA:                   0.101
REMARK UNBOUND:                 0.128
REMARK SMILES CC1=CCC(=C(C)C)C(=O)CC(C)=CCC1
REMARK SMILES IDX 12 1 14 2 13 3 15 4 16 5 2 6 1 7 3 8 11 10 9 11 10 12 5 13
REMARK SMILES IDX 6 14 7 15 8 16 4 17
REMARK H PARENT
REMARK Flexibility Score: 60.00
ROOT
ATOM      1  C   UNL     1      19.401  52.377  32.988  1.00  0.00    -0.070 C 
ATOM      2  C   UNL     1      19.353  52.866  34.247  1.00  0.00    -0.027 C 
ATOM      3  C   UNL     1      20.475  52.898  32.068  1.00  0.00     0.039 C 
ENDROOT
BRANCH   2   4
ATOM      4  C   UNL     1      18.298  52.541  35.282  1.00  0.00     0.032 C 
BRANCH   4   5
ATOM      5  C   UNL     1      16.992  53.353  35.152  1.00  0.00     0.034 C 
BRANCH   5   6
ATOM      6  C   UNL     1      15.743  52.500  35.282  1.00  0.00    -0.077 C 
ATOM      7  C   UNL     1      15.432  51.913  36.636  1.00  0.00     0.039 C 
ATOM      8  C   UNL     1      14.929  52.175  34.248  1.00  0.00    -0.023 CG0
ATOM      9  G   UNL     1      15.033  52.658  32.814  1.00  0.00     0.000 G0
ENDBRANCH   5   6
ENDBRANCH   4   5
ENDBRANCH   2   4
BRANCH   1  10
ATOM     10  C   UNL     1      18.377  51.405  32.435  1.00  0.00     0.111 C 
BRANCH  10  11
ATOM     11  C   UNL     1      17.273  52.120  31.701  1.00  0.00     0.163 C 
ATOM     12  O   UNL     1      17.585  53.073  30.939  1.00  0.00    -0.294 OA
BRANCH  11  13
ATOM     13  C   UNL     1      15.832  51.778  31.895  1.00  0.00    -0.002 C 
ATOM     14  C   UNL     1      15.260  50.742  31.210  1.00  0.00    -0.069 C 
ATOM     15  C   UNL     1      13.773  50.471  31.262  1.00  0.00     0.039 C 
ATOM     16  C   UNL     1      16.095  49.811  30.357  1.00  0.00     0.039 C 
BRANCH  13  17
ATOM     17  C   UNL     1      15.018  52.685  32.804  1.00  0.00     0.066 CG0
ATOM     18  G   UNL     1      14.958  52.170  34.229  1.00  0.00     0.000 G0
ENDBRANCH  13  17
ENDBRANCH  11  13
ENDBRANCH  10  11
ENDBRANCH   1  10
TORSDOF 0
ENDMDL
MODEL 3
REMARK VINA RESULT:    -3.241     11.015     12.737
REMARK INTER + INTRA:          -4.440
REMARK INTER:                  -4.627
REMARK INTRA:                   0.187
REMARK UNBOUND:                 0.128
REMARK SMILES CC1=CCC(=C(C)C)C(=O)CC(C)=CCC1
REMARK SMILES IDX 12 1 14 2 13 3 15 4 16 5 2 6 1 7 3 8 11 10 9 11 10 12 5 13
REMARK SMILES IDX 6 14 7 15 8 16 4 17
REMARK H PARENT
REMARK Flexibility Score: 60.00
ROOT
ATOM      1  C   UNL     1      18.111  60.665  22.003  1.00  0.00    -0.070 C 
ATOM      2  C   UNL     1      17.531  60.200  20.875  1.00  0.00    -0.027 C 
ATOM      3  C   UNL     1      19.237  59.862  22.602  1.00  0.00     0.039 C 
ENDROOT
BRANCH   2   4
ATOM      4  C   UNL     1      16.331  60.809  20.183  1.00  0.00     0.032 C 
BRANCH   4   5
ATOM      5  C   UNL     1      14.977  60.165  20.546  1.00  0.00     0.034 C 
BRANCH   5   6
ATOM      6  C   UNL     1      13.947  61.172  21.028  1.00  0.00    -0.077 C 
ATOM      7  C   UNL     1      13.140  61.903  19.984  1.00  0.00     0.039 C 
ATOM      8  C   UNL     1      13.754  61.505  22.327  1.00  0.00    -0.023 CG0
ATOM      9  G   UNL     1      14.431  60.895  23.539  1.00  0.00     0.000 G0
ENDBRANCH   5   6
ENDBRANCH   4   5
ENDBRANCH   2   4
BRANCH   1  10
ATOM     10  C   UNL     1      17.627  61.899  22.739  1.00  0.00     0.111 C 
BRANCH  10  11
ATOM     11  C   UNL     1      16.883  61.538  23.999  1.00  0.00     0.163 C 
ATOM     12  O   UNL     1      17.500  60.894  24.890  1.00  0.00    -0.294 OA
BRANCH  11  13
ATOM     13  C   UNL     1      15.438  61.861  24.195  1.00  0.00    -0.002 C 
ATOM     14  C   UNL     1      15.058  62.913  24.982  1.00  0.00    -0.069 C 
ATOM     15  C   UNL     1      13.608  63.170  25.330  1.00  0.00     0.039 C 
ATOM     16  C   UNL     1      16.077  63.877  25.550  1.00  0.00     0.039 C 
BRANCH  13  17
ATOM     17  C   UNL     1      14.423  60.920  23.567  1.00  0.00     0.066 CG0
ATOM     18  G   UNL     1      13.783  61.509  22.325  1.00  0.00     0.000 G0
ENDBRANCH  13  17
ENDBRANCH  11  13
ENDBRANCH  10  11
ENDBRANCH   1  10
TORSDOF 0
ENDMDL
MODEL 4
REMARK VINA RESULT:    -3.106      8.644     10.745
REMARK INTER + INTRA:          -4.250
REMARK INTER:                  -4.600
REMARK INTRA:                   0.350
REMARK UNBOUND:                 0.128
REMARK SMILES CC1=CCC(=C(C)C)C(=O)CC(C)=CCC1
REMARK SMILES IDX 12 1 14 2 13 3 15 4 16 5 2 6 1 7 3 8 11 10 9 11 10 12 5 13
REMARK SMILES IDX 6 14 7 15 8 16 4 17
REMARK H PARENT
REMARK Flexibility Score: 60.00
ROOT
ATOM      1  C   UNL     1      12.982  61.213  20.298  1.00  0.00    -0.070 C 
ATOM      2  C   UNL     1      12.132  60.370  20.924  1.00  0.00    -0.027 C 
ATOM      3  C   UNL     1      12.617  61.685  18.914  1.00  0.00     0.039 C 
ENDROOT
BRANCH   2   4
ATOM      4  C   UNL     1      12.367  59.715  22.268  1.00  0.00     0.032 C 
BRANCH   4   5
ATOM      5  C   UNL     1      12.756  58.224  22.203  1.00  0.00     0.034 C 
BRANCH   5   6
ATOM      6  C   UNL     1      13.825  57.839  23.211  1.00  0.00    -0.077 C 
ATOM      7  C   UNL     1      13.371  57.380  24.573  1.00  0.00     0.039 C 
ATOM      8  C   UNL     1      15.157  57.949  22.990  1.00  0.00    -0.023 CG0
ATOM      9  G   UNL     1      15.841  58.367  21.702  1.00  0.00     0.000 G0
ENDBRANCH   5   6
ENDBRANCH   4   5
ENDBRANCH   2   4
BRANCH   1  10
ATOM     10  C   UNL     1      14.317  61.632  20.880  1.00  0.00     0.111 C 
BRANCH  10  11
ATOM     11  C   UNL     1      15.399  60.632  20.564  1.00  0.00     0.163 C 
ATOM     12  O   UNL     1      15.663  60.404  19.353  1.00  0.00    -0.294 OA
BRANCH  11  13
ATOM     13  C   UNL     1      16.116  59.866  21.627  1.00  0.00    -0.002 C 
ATOM     14  C   UNL     1      17.029  60.481  22.438  1.00  0.00    -0.069 C 
ATOM     15  C   UNL     1      17.885  59.705  23.414  1.00  0.00     0.039 C 
ATOM     16  C   UNL     1      17.229  61.981  22.396  1.00  0.00     0.039 C 
BRANCH  13  17
ATOM     17  C   UNL     1      15.859  58.369  21.700  1.00  0.00     0.066 CG0
ATOM     18  G   UNL     1      15.179  57.964  22.993  1.00  0.00     0.000 G0
ENDBRANCH  13  17
ENDBRANCH  11  13
ENDBRANCH  10  11
ENDBRANCH   1  10
TORSDOF 0
ENDMDL
MODEL 5
REMARK VINA RESULT:    -3.084     15.391     16.664
REMARK INTER + INTRA:          -4.218
REMARK INTER:                  -4.525
REMARK INTRA:                   0.307
REMARK UNBOUND:                 0.128
REMARK SMILES CC1=CCC(=C(C)C)C(=O)CC(C)=CCC1
REMARK SMILES IDX 12 1 14 2 13 3 15 4 16 5 2 6 1 7 3 8 11 10 9 11 10 12 5 13
REMARK SMILES IDX 6 14 7 15 8 16 4 17
REMARK H PARENT
REMARK Flexibility Score: 60.00
ROOT
ATOM      1  C   UNL     1      16.402  52.354  34.806  1.00  0.00    -0.070 C 
ATOM      2  C   UNL     1      17.654  51.847  34.766  1.00  0.00    -0.027 C 
ATOM      3  C   UNL     1      15.411  51.715  35.745  1.00  0.00     0.039 C 
ENDROOT
BRANCH   2   4
ATOM      4  C   UNL     1      18.755  52.286  33.825  1.00  0.00     0.032 C 
BRANCH   4   5
ATOM      5  C   UNL     1      19.580  53.495  34.313  1.00  0.00     0.034 C 
BRANCH   5   6
ATOM      6  C   UNL     1      19.601  54.644  33.320  1.00  0.00    -0.077 C 
ATOM      7  C   UNL     1      20.492  54.509  32.111  1.00  0.00     0.039 C 
ATOM      8  C   UNL     1      18.927  55.808  33.485  1.00  0.00    -0.023 CG0
ATOM      9  G   UNL     1      17.965  56.159  34.602  1.00  0.00     0.000 G0
ENDBRANCH   5   6
ENDBRANCH   4   5
ENDBRANCH   2   4
BRANCH   1  10
ATOM     10  C   UNL     1      15.926  53.467  33.894  1.00  0.00     0.111 C 
BRANCH  10  11
ATOM     11  C   UNL     1      15.798  54.774  34.631  1.00  0.00     0.163 C 
ATOM     12  O   UNL     1      15.022  54.823  35.623  1.00  0.00    -0.294 OA
BRANCH  11  13
ATOM     13  C   UNL     1      16.504  56.014  34.191  1.00  0.00    -0.002 C 
ATOM     14  C   UNL     1      15.882  56.923  33.382  1.00  0.00    -0.069 C 
ATOM     15  C   UNL     1      16.619  58.105  32.791  1.00  0.00     0.039 C 
ATOM     16  C   UNL     1      14.416  56.788  33.032  1.00  0.00     0.039 C 
BRANCH  13  17
ATOM     17  C   UNL     1      17.960  56.168  34.601  1.00  0.00     0.066 CG0
ATOM     18  G   UNL     1      18.915  55.807  33.480  1.00  0.00     0.000 G0
ENDBRANCH  13  17
ENDBRANCH  11  13
ENDBRANCH  10  11
ENDBRANCH   1  10
TORSDOF 0
ENDMDL
MODEL 6
REMARK VINA RESULT:    -2.885      9.149     10.624
REMARK INTER + INTRA:          -3.937
REMARK INTER:                  -4.470
REMARK INTRA:                   0.532
REMARK UNBOUND:                 0.128
REMARK SMILES CC1=CCC(=C(C)C)C(=O)CC(C)=CCC1
REMARK SMILES IDX 12 1 14 2 13 3 15 4 16 5 2 6 1 7 3 8 11 10 9 11 10 12 5 13
REMARK SMILES IDX 6 14 7 15 8 16 4 17
REMARK H PARENT
REMARK Flexibility Score: 60.00
ROOT
ATOM      1  C   UNL     1      13.748  61.422  20.794  1.00  0.00    -0.070 C 
ATOM      2  C   UNL     1      15.007  61.048  20.475  1.00  0.00    -0.027 C 
ATOM      3  C   UNL     1      12.732  61.501  19.684  1.00  0.00     0.039 C 
ENDROOT
BRANCH   2   4
ATOM      4  C   UNL     1      16.183  61.003  21.426  1.00  0.00     0.032 C 
BRANCH   4   5
ATOM      5  C   UNL     1      16.833  59.613  21.586  1.00  0.00     0.034 C 
BRANCH   5   6
ATOM      6  C   UNL     1      15.831  58.518  21.908  1.00  0.00    -0.077 C 
ATOM      7  C   UNL     1      15.745  57.346  20.964  1.00  0.00     0.039 C 
ATOM      8  C   UNL     1      14.963  58.560  22.948  1.00  0.00    -0.023 CG0
ATOM      9  G   UNL     1      14.879  59.620  24.029  1.00  0.00     0.000 G0
ENDBRANCH   5   6
ENDBRANCH   4   5
ENDBRANCH   2   4
BRANCH   1  10
ATOM     10  C   UNL     1      13.336  61.849  22.189  1.00  0.00     0.111 C 
BRANCH  10  11
ATOM     11  C   UNL     1      12.782  60.694  22.983  1.00  0.00     0.163 C 
ATOM     12  O   UNL     1      11.682  60.198  22.620  1.00  0.00    -0.294 OA
BRANCH  11  13
ATOM     13  C   UNL     1      13.456  60.168  24.207  1.00  0.00    -0.002 C 
ATOM     14  C   UNL     1      12.854  60.261  25.431  1.00  0.00    -0.069 C 
ATOM     15  C   UNL     1      13.572  59.884  26.708  1.00  0.00     0.039 C 
ATOM     16  C   UNL     1      11.428  60.752  25.569  1.00  0.00     0.039 C 
BRANCH  13  17
ATOM     17  C   UNL     1      14.864  59.619  24.045  1.00  0.00     0.066 CG0
ATOM     18  G   UNL     1      14.950  58.563  22.960  1.00  0.00     0.000 G0
ENDBRANCH  13  17
ENDBRANCH  11  13
ENDBRANCH  10  11
ENDBRANCH   1  10
TORSDOF 0
ENDMDL
MODEL 7
REMARK VINA RESULT:    -2.873     14.170     15.811
REMARK INTER + INTRA:          -3.922
REMARK INTER:                  -4.190
REMARK INTRA:                   0.268
REMARK UNBOUND:                 0.128
REMARK SMILES CC1=CCC(=C(C)C)C(=O)CC(C)=CCC1
REMARK SMILES IDX 12 1 14 2 13 3 15 4 16 5 2 6 1 7 3 8 11 10 9 11 10 12 5 13
REMARK SMILES IDX 6 14 7 15 8 16 4 17
REMARK H PARENT
REMARK Flexibility Score: 60.00
ROOT
ATOM      1  C   UNL     1      15.752  52.145  35.549  1.00  0.00    -0.070 C 
ATOM      2  C   UNL     1      17.086  52.211  35.344  1.00  0.00    -0.027 C 
ATOM      3  C   UNL     1      15.258  51.376  36.747  1.00  0.00     0.039 C 
ENDROOT
BRANCH   2   4
ATOM      4  C   UNL     1      17.767  52.850  34.153  1.00  0.00     0.032 C 
BRANCH   4   5
ATOM      5  C   UNL     1      17.908  54.384  34.234  1.00  0.00     0.034 C 
BRANCH   5   6
ATOM      6  C   UNL     1      17.454  55.093  32.970  1.00  0.00    -0.077 C 
ATOM      7  C   UNL     1      18.299  54.930  31.732  1.00  0.00     0.039 C 
ATOM      8  C   UNL     1      16.380  55.917  32.901  1.00  0.00    -0.023 CG0
ATOM      9  G   UNL     1      15.383  56.216  34.004  1.00  0.00     0.000 G0
ENDBRANCH   5   6
ENDBRANCH   4   5
ENDBRANCH   2   4
BRANCH   1  10
ATOM     10  C   UNL     1      14.734  52.726  34.587  1.00  0.00     0.111 C 
BRANCH  10  11
ATOM     11  C   UNL     1      14.308  54.111  34.998  1.00  0.00     0.163 C 
ATOM     12  O   UNL     1      13.958  54.295  36.194  1.00  0.00    -0.294 OA
BRANCH  11  13
ATOM     13  C   UNL     1      14.229  55.245  34.029  1.00  0.00    -0.002 C 
ATOM     14  C   UNL     1      13.191  55.337  33.143  1.00  0.00    -0.069 C 
ATOM     15  C   UNL     1      13.163  56.379  32.047  1.00  0.00     0.039 C 
ATOM     16  C   UNL     1      12.012  54.391  33.216  1.00  0.00     0.039 C 
BRANCH  13  17
ATOM     17  C   UNL     1      15.392  56.224  34.008  1.00  0.00     0.066 CG0
ATOM     18  G   UNL     1      16.373  55.930  32.890  1.00  0.00     0.000 G0
ENDBRANCH  13  17
ENDBRANCH  11  13
ENDBRANCH  10  11
ENDBRANCH   1  10
TORSDOF 0
ENDMDL
MODEL 8
REMARK VINA RESULT:    -2.863     13.431     15.318
REMARK INTER + INTRA:          -3.907
REMARK INTER:                  -4.392
REMARK INTRA:                   0.485
REMARK UNBOUND:                 0.128
REMARK SMILES CC1=CCC(=C(C)C)C(=O)CC(C)=CCC1
REMARK SMILES IDX 12 1 14 2 13 3 15 4 16 5 2 6 1 7 3 8 11 10 9 11 10 12 5 13
REMARK SMILES IDX 6 14 7 15 8 16 4 17
REMARK H PARENT
REMARK Flexibility Score: 60.00
ROOT
ATOM      1  C   UNL     1      15.860  52.648  35.410  1.00  0.00    -0.070 C 
ATOM      2  C   UNL     1      17.171  52.797  35.702  1.00  0.00    -0.027 C 
ATOM      3  C   UNL     1      14.853  53.233  36.367  1.00  0.00     0.039 C 
ENDROOT
BRANCH   2   4
ATOM      4  C   UNL     1      18.323  52.201  34.921  1.00  0.00     0.032 C 
BRANCH   4   5
ATOM      5  C   UNL     1      19.309  53.233  34.334  1.00  0.00     0.034 C 
BRANCH   5   6
ATOM      6  C   UNL     1      18.628  54.298  33.492  1.00  0.00    -0.077 C 
ATOM      7  C   UNL     1      18.714  55.727  33.965  1.00  0.00     0.039 C 
ATOM      8  C   UNL     1      17.892  54.040  32.384  1.00  0.00    -0.023 CG0
ATOM      9  G   UNL     1      17.682  52.695  31.716  1.00  0.00     0.000 G0
ENDBRANCH   5   6
ENDBRANCH   4   5
ENDBRANCH   2   4
BRANCH   1  10
ATOM     10  C   UNL     1      15.358  51.849  34.224  1.00  0.00     0.111 C 
BRANCH  10  11
ATOM     11  C   UNL     1      15.421  52.648  32.948  1.00  0.00     0.163 C 
ATOM     12  O   UNL     1      14.714  53.688  32.863  1.00  0.00    -0.294 OA
BRANCH  11  13
ATOM     13  C   UNL     1      16.236  52.218  31.773  1.00  0.00    -0.002 C 
ATOM     14  C   UNL     1      15.722  51.358  30.843  1.00  0.00    -0.069 C 
ATOM     15  C   UNL     1      16.570  50.779  29.732  1.00  0.00     0.039 C 
ATOM     16  C   UNL     1      14.268  50.938  30.881  1.00  0.00     0.039 C 
BRANCH  13  17
ATOM     17  C   UNL     1      17.678  52.697  31.713  1.00  0.00     0.066 CG0
ATOM     18  G   UNL     1      17.866  54.042  32.387  1.00  0.00     0.000 G0
ENDBRANCH  13  17
ENDBRANCH  11  13
ENDBRANCH  10  11
ENDBRANCH   1  10
TORSDOF 0
ENDMDL
MODEL 9
REMARK VINA RESULT:    -2.857     14.473     16.143
REMARK INTER + INTRA:          -3.899
REMARK INTER:                  -4.489
REMARK INTRA:                   0.590
REMARK UNBOUND:                 0.128
REMARK SMILES CC1=CCC(=C(C)C)C(=O)CC(C)=CCC1
REMARK SMILES IDX 12 1 14 2 13 3 15 4 16 5 2 6 1 7 3 8 11 10 9 11 10 12 5 13
REMARK SMILES IDX 6 14 7 15 8 16 4 17
REMARK H PARENT
REMARK Flexibility Score: 60.00
ROOT
ATOM      1  C   UNL     1      18.353  53.321  34.556  1.00  0.00    -0.070 C 
ATOM      2  C   UNL     1      17.540  52.397  35.114  1.00  0.00    -0.027 C 
ATOM      3  C   UNL     1      19.548  52.832  33.778  1.00  0.00     0.039 C 
ENDROOT
BRANCH   2   4
ATOM      4  C   UNL     1      16.353  52.689  36.007  1.00  0.00     0.032 C 
BRANCH   4   5
ATOM      5  C   UNL     1      15.017  52.087  35.526  1.00  0.00     0.034 C 
BRANCH   5   6
ATOM      6  C   UNL     1      14.609  52.566  34.144  1.00  0.00    -0.077 C 
ATOM      7  C   UNL     1      14.259  51.521  33.114  1.00  0.00     0.039 C 
ATOM      8  C   UNL     1      14.606  53.865  33.756  1.00  0.00    -0.023 CG0
ATOM      9  G   UNL     1      14.901  55.078  34.616  1.00  0.00     0.000 G0
ENDBRANCH   5   6
ENDBRANCH   4   5
ENDBRANCH   2   4
BRANCH   1  10
ATOM     10  C   UNL     1      18.173  54.813  34.751  1.00  0.00     0.111 C 
BRANCH  10  11
ATOM     11  C   UNL     1      17.278  55.408  33.696  1.00  0.00     0.163 C 
ATOM     12  O   UNL     1      17.701  55.443  32.509  1.00  0.00    -0.294 OA
BRANCH  11  13
ATOM     13  C   UNL     1      15.949  56.007  34.018  1.00  0.00    -0.002 C 
ATOM     14  C   UNL     1      15.726  57.346  33.853  1.00  0.00    -0.069 C 
ATOM     15  C   UNL     1      14.448  58.009  34.318  1.00  0.00     0.039 C 
ATOM     16  C   UNL     1      16.757  58.237  33.195  1.00  0.00     0.039 C 
BRANCH  13  17
ATOM     17  C   UNL     1      14.899  55.087  34.622  1.00  0.00     0.066 CG0
ATOM     18  G   UNL     1      14.631  53.872  33.755  1.00  0.00     0.000 G0
ENDBRANCH  13  17
ENDBRANCH  11  13
ENDBRANCH  10  11
ENDBRANCH   1  10
TORSDOF 0
ENDMDL
