MODEL 1
REMARK VINA RESULT:    -4.353      0.000      0.000
REMARK INTER + INTRA:          -6.991
REMARK INTER:                  -6.388
REMARK INTRA:                  -0.602
REMARK UNBOUND:                -0.602
REMARK SMILES O=C([O-])CCCCCCCC(=O)[O-]
REMARK SMILES IDX 7 1 6 2 5 3 4 4 2 5 1 6 3 7 8 8 9 9 10 10 11 11 12 12 13 13
REMARK H PARENT
REMARK Flexibility Score: inf
ROOT
ATOM      1  C   UNL     1      86.701  76.850  70.574  1.00  0.00     0.000 C 
ENDROOT
BRANCH   1   2
ATOM      2  C   UNL     1      85.613  75.770  70.596  1.00  0.00     0.000 C 
BRANCH   2   3
ATOM      3  C   UNL     1      86.125  74.485  71.258  1.00  0.00     0.006 C 
BRANCH   3   4
ATOM      4  C   UNL     1      87.561  74.178  70.823  1.00  0.00     0.053 C 
BRANCH   4   5
ATOM      5  C   UNL     1      88.383  73.749  71.997  1.00  0.00     0.041 C 
ATOM      6  O   UNL     1      88.378  74.431  73.056  1.00  0.00    -0.550 OA
ATOM      7  O   UNL     1      89.194  72.626  71.906  1.00  0.00    -0.550 OA
ENDBRANCH   4   5
ENDBRANCH   3   4
ENDBRANCH   2   3
ENDBRANCH   1   2
BRANCH   1   8
ATOM      8  C   UNL     1      86.497  77.813  69.399  1.00  0.00     0.000 C 
BRANCH   8   9
ATOM      9  C   UNL     1      86.559  77.067  68.058  1.00  0.00     0.006 C 
BRANCH   9  10
ATOM     10  C   UNL     1      87.761  77.498  67.208  1.00  0.00     0.053 C 
BRANCH  10  11
ATOM     11  C   UNL     1      89.018  76.800  67.628  1.00  0.00     0.041 C 
ATOM     12  O   UNL     1      88.993  75.580  67.933  1.00  0.00    -0.550 OA
ATOM     13  O   UNL     1      90.212  77.507  67.712  1.00  0.00    -0.550 OA
ENDBRANCH  10  11
ENDBRANCH   9  10
ENDBRANCH   8   9
ENDBRANCH   1   8
TORSDOF 8
ENDMDL
MODEL 2
REMARK VINA RESULT:    -4.282      2.318      5.183
REMARK INTER + INTRA:          -6.886
REMARK INTER:                  -6.139
REMARK INTRA:                  -0.747
REMARK UNBOUND:                -0.602
REMARK SMILES O=C([O-])CCCCCCCC(=O)[O-]
REMARK SMILES IDX 7 1 6 2 5 3 4 4 2 5 1 6 3 7 8 8 9 9 10 10 11 11 12 12 13 13
REMARK H PARENT
REMARK Flexibility Score: inf
ROOT
ATOM      1  C   UNL     1      87.598  74.942  67.348  1.00  0.00     0.000 C 
ENDROOT
BRANCH   1   2
ATOM      2  C   UNL     1      88.613  76.076  67.531  1.00  0.00     0.000 C 
BRANCH   2   3
ATOM      3  C   UNL     1      87.932  77.447  67.438  1.00  0.00     0.006 C 
BRANCH   3   4
ATOM      4  C   UNL     1      86.494  77.382  67.960  1.00  0.00     0.053 C 
BRANCH   4   5
ATOM      5  C   UNL     1      86.351  78.205  69.201  1.00  0.00     0.041 C 
ATOM      6  O   UNL     1      85.641  79.245  69.192  1.00  0.00    -0.550 OA
ATOM      7  O   UNL     1      87.039  77.852  70.354  1.00  0.00    -0.550 OA
ENDBRANCH   4   5
ENDBRANCH   3   4
ENDBRANCH   2   3
ENDBRANCH   1   2
BRANCH   1   8
ATOM      8  C   UNL     1      87.835  73.821  68.366  1.00  0.00     0.000 C 
BRANCH   8   9
ATOM      9  C   UNL     1      87.704  74.346  69.803  1.00  0.00     0.006 C 
BRANCH   9  10
ATOM     10  C   UNL     1      86.242  74.433  70.260  1.00  0.00     0.053 C 
BRANCH  10  11
ATOM     11  C   UNL     1      86.127  74.475  71.753  1.00  0.00     0.041 C 
ATOM     12  O   UNL     1      85.086  74.053  72.320  1.00  0.00    -0.550 OA
ATOM     13  O   UNL     1      87.158  75.010  72.516  1.00  0.00    -0.550 OA
ENDBRANCH  10  11
ENDBRANCH   9  10
ENDBRANCH   8   9
ENDBRANCH   1   8
TORSDOF 8
ENDMDL
MODEL 3
REMARK VINA RESULT:    -4.272      1.631      2.110
REMARK INTER + INTRA:          -6.872
REMARK INTER:                  -6.132
REMARK INTRA:                  -0.740
REMARK UNBOUND:                -0.602
REMARK SMILES O=C([O-])CCCCCCCC(=O)[O-]
REMARK SMILES IDX 7 1 6 2 5 3 4 4 2 5 1 6 3 7 8 8 9 9 10 10 11 11 12 12 13 13
REMARK H PARENT
REMARK Flexibility Score: inf
ROOT
ATOM      1  C   UNL     1      87.064  77.288  69.629  1.00  0.00     0.000 C 
ENDROOT
BRANCH   1   2
ATOM      2  C   UNL     1      85.812  77.050  70.479  1.00  0.00     0.000 C 
BRANCH   2   3
ATOM      3  C   UNL     1      85.516  75.551  70.618  1.00  0.00     0.006 C 
BRANCH   3   4
ATOM      4  C   UNL     1      86.804  74.756  70.849  1.00  0.00     0.053 C 
BRANCH   4   5
ATOM      5  C   UNL     1      86.967  74.435  72.300  1.00  0.00     0.041 C 
ATOM      6  O   UNL     1      85.970  74.095  72.990  1.00  0.00    -0.550 OA
ATOM      7  O   UNL     1      88.211  74.557  72.905  1.00  0.00    -0.550 OA
ENDBRANCH   4   5
ENDBRANCH   3   4
ENDBRANCH   2   3
ENDBRANCH   1   2
BRANCH   1   8
ATOM      8  C   UNL     1      86.691  77.762  68.220  1.00  0.00     0.000 C 
BRANCH   8   9
ATOM      9  C   UNL     1      87.380  76.902  67.150  1.00  0.00     0.006 C 
BRANCH   9  10
ATOM     10  C   UNL     1      86.622  75.597  66.875  1.00  0.00     0.053 C 
BRANCH  10  11
ATOM     11  C   UNL     1      87.436  74.394  67.239  1.00  0.00     0.041 C 
ATOM     12  O   UNL     1      87.011  73.238  66.977  1.00  0.00    -0.550 OA
ATOM     13  O   UNL     1      88.650  74.547  67.897  1.00  0.00    -0.550 OA
ENDBRANCH  10  11
ENDBRANCH   9  10
ENDBRANCH   8   9
ENDBRANCH   1   8
TORSDOF 8
ENDMDL
MODEL 4
REMARK VINA RESULT:    -4.231      2.336      3.190
REMARK INTER + INTRA:          -6.813
REMARK INTER:                  -6.093
REMARK INTRA:                  -0.720
REMARK UNBOUND:                -0.602
REMARK SMILES O=C([O-])CCCCCCCC(=O)[O-]
REMARK SMILES IDX 7 1 6 2 5 3 4 4 2 5 1 6 3 7 8 8 9 9 10 10 11 11 12 12 13 13
REMARK H PARENT
REMARK Flexibility Score: inf
ROOT
ATOM      1  C   UNL     1      87.525  74.976  67.501  1.00  0.00     0.000 C 
ENDROOT
BRANCH   1   2
ATOM      2  C   UNL     1      88.121  73.847  68.349  1.00  0.00     0.000 C 
BRANCH   2   3
ATOM      3  C   UNL     1      87.913  74.111  69.845  1.00  0.00     0.006 C 
BRANCH   3   4
ATOM      4  C   UNL     1      86.447  74.437  70.147  1.00  0.00     0.053 C 
BRANCH   4   5
ATOM      5  C   UNL     1      86.225  74.530  71.623  1.00  0.00     0.041 C 
ATOM      6  O   UNL     1      85.182  74.049  72.138  1.00  0.00    -0.550 OA
ATOM      7  O   UNL     1      87.146  75.191  72.426  1.00  0.00    -0.550 OA
ENDBRANCH   4   5
ENDBRANCH   3   4
ENDBRANCH   2   3
ENDBRANCH   1   2
BRANCH   1   8
ATOM      8  C   UNL     1      88.544  76.102  67.288  1.00  0.00     0.000 C 
BRANCH   8   9
ATOM      9  C   UNL     1      87.854  77.474  67.276  1.00  0.00     0.006 C 
BRANCH   9  10
ATOM     10  C   UNL     1      86.450  77.424  67.894  1.00  0.00     0.053 C 
BRANCH  10  11
ATOM     11  C   UNL     1      86.376  78.203  69.171  1.00  0.00     0.041 C 
ATOM     12  O   UNL     1      87.032  77.831  70.179  1.00  0.00    -0.550 OA
ATOM     13  O   UNL     1      85.557  79.323  69.258  1.00  0.00    -0.550 OA
ENDBRANCH  10  11
ENDBRANCH   9  10
ENDBRANCH   8   9
ENDBRANCH   1   8
TORSDOF 8
ENDMDL
MODEL 5
REMARK VINA RESULT:    -4.213      1.004      5.010
REMARK INTER + INTRA:          -6.785
REMARK INTER:                  -6.262
REMARK INTRA:                  -0.524
REMARK UNBOUND:                -0.602
REMARK SMILES O=C([O-])CCCCCCCC(=O)[O-]
REMARK SMILES IDX 7 1 6 2 5 3 4 4 2 5 1 6 3 7 8 8 9 9 10 10 11 11 12 12 13 13
REMARK H PARENT
REMARK Flexibility Score: inf
ROOT
ATOM      1  C   UNL     1      85.682  75.762  70.581  1.00  0.00     0.000 C 
ENDROOT
BRANCH   1   2
ATOM      2  C   UNL     1      86.525  77.041  70.641  1.00  0.00     0.000 C 
BRANCH   2   3
ATOM      3  C   UNL     1      86.636  77.694  69.257  1.00  0.00     0.006 C 
BRANCH   3   4
ATOM      4  C   UNL     1      86.870  76.641  68.170  1.00  0.00     0.053 C 
BRANCH   4   5
ATOM      5  C   UNL     1      88.334  76.459  67.923  1.00  0.00     0.041 C 
ATOM      6  O   UNL     1      89.039  77.435  67.552  1.00  0.00    -0.550 OA
ATOM      7  O   UNL     1      88.912  75.203  68.054  1.00  0.00    -0.550 OA
ENDBRANCH   4   5
ENDBRANCH   3   4
ENDBRANCH   2   3
ENDBRANCH   1   2
BRANCH   1   8
ATOM      8  C   UNL     1      86.128  74.758  71.649  1.00  0.00     0.000 C 
BRANCH   8   9
ATOM      9  C   UNL     1      87.521  74.197  71.331  1.00  0.00     0.006 C 
BRANCH   9  10
ATOM     10  C   UNL     1      88.397  74.068  72.585  1.00  0.00     0.053 C 
BRANCH  10  11
ATOM     11  C   UNL     1      89.164  72.782  72.597  1.00  0.00     0.041 C 
ATOM     12  O   UNL     1      89.789  72.406  71.571  1.00  0.00    -0.550 OA
ATOM     13  O   UNL     1      89.163  71.982  73.734  1.00  0.00    -0.550 OA
ENDBRANCH  10  11
ENDBRANCH   9  10
ENDBRANCH   8   9
ENDBRANCH   1   8
TORSDOF 8
ENDMDL
MODEL 6
REMARK VINA RESULT:    -4.150      0.789      4.982
REMARK INTER + INTRA:          -6.694
REMARK INTER:                  -6.203
REMARK INTRA:                  -0.491
REMARK UNBOUND:                -0.602
REMARK SMILES O=C([O-])CCCCCCCC(=O)[O-]
REMARK SMILES IDX 7 1 6 2 5 3 4 4 2 5 1 6 3 7 8 8 9 9 10 10 11 11 12 12 13 13
REMARK H PARENT
REMARK Flexibility Score: inf
ROOT
ATOM      1  C   UNL     1      86.884  76.685  70.572  1.00  0.00     0.000 C 
ENDROOT
BRANCH   1   2
ATOM      2  C   UNL     1      86.672  77.564  69.334  1.00  0.00     0.000 C 
BRANCH   2   3
ATOM      3  C   UNL     1      86.298  76.715  68.112  1.00  0.00     0.006 C 
BRANCH   3   4
ATOM      4  C   UNL     1      87.179  77.066  66.909  1.00  0.00     0.053 C 
BRANCH   4   5
ATOM      5  C   UNL     1      88.617  76.801  67.219  1.00  0.00     0.041 C 
ATOM      6  O   UNL     1      88.977  75.666  67.631  1.00  0.00    -0.550 OA
ATOM      7  O   UNL     1      89.555  77.819  67.099  1.00  0.00    -0.550 OA
ENDBRANCH   4   5
ENDBRANCH   3   4
ENDBRANCH   2   3
ENDBRANCH   1   2
BRANCH   1   8
ATOM      8  C   UNL     1      85.753  75.661  70.720  1.00  0.00     0.000 C 
BRANCH   8   9
ATOM      9  C   UNL     1      86.163  74.522  71.666  1.00  0.00     0.006 C 
BRANCH   9  10
ATOM     10  C   UNL     1      87.414  74.868  72.484  1.00  0.00     0.053 C 
BRANCH  10  11
ATOM     11  C   UNL     1      88.417  73.755  72.463  1.00  0.00     0.041 C 
ATOM     12  O   UNL     1      88.960  73.371  73.531  1.00  0.00    -0.550 OA
ATOM     13  O   UNL     1      88.776  73.164  71.257  1.00  0.00    -0.550 OA
ENDBRANCH  10  11
ENDBRANCH   9  10
ENDBRANCH   8   9
ENDBRANCH   1   8
TORSDOF 8
ENDMDL
MODEL 7
REMARK VINA RESULT:    -4.028      1.930      2.258
REMARK INTER + INTRA:          -6.515
REMARK INTER:                  -5.900
REMARK INTRA:                  -0.614
REMARK UNBOUND:                -0.602
REMARK SMILES O=C([O-])CCCCCCCC(=O)[O-]
REMARK SMILES IDX 7 1 6 2 5 3 4 4 2 5 1 6 3 7 8 8 9 9 10 10 11 11 12 12 13 13
REMARK H PARENT
REMARK Flexibility Score: inf
ROOT
ATOM      1  C   UNL     1      86.429  75.996  70.838  1.00  0.00     0.000 C 
ENDROOT
BRANCH   1   2
ATOM      2  C   UNL     1      86.246  74.511  71.170  1.00  0.00     0.000 C 
BRANCH   2   3
ATOM      3  C   UNL     1      86.834  74.178  72.547  1.00  0.00     0.006 C 
BRANCH   3   4
ATOM      4  C   UNL     1      88.362  74.267  72.529  1.00  0.00     0.053 C 
BRANCH   4   5
ATOM      5  C   UNL     1      88.968  72.927  72.799  1.00  0.00     0.041 C 
ATOM      6  O   UNL     1      88.865  72.404  73.941  1.00  0.00    -0.550 OA
ATOM      7  O   UNL     1      89.689  72.275  71.807  1.00  0.00    -0.550 OA
ENDBRANCH   4   5
ENDBRANCH   3   4
ENDBRANCH   2   3
ENDBRANCH   1   2
BRANCH   1   8
ATOM      8  C   UNL     1      86.476  76.219  69.322  1.00  0.00     0.000 C 
BRANCH   8   9
ATOM      9  C   UNL     1      87.926  76.268  68.818  1.00  0.00     0.006 C 
BRANCH   9  10
ATOM     10  C   UNL     1      88.138  75.399  67.572  1.00  0.00     0.053 C 
BRANCH  10  11
ATOM     11  C   UNL     1      87.951  73.943  67.871  1.00  0.00     0.041 C 
ATOM     12  O   UNL     1      87.088  73.274  67.245  1.00  0.00    -0.550 OA
ATOM     13  O   UNL     1      88.709  73.333  68.864  1.00  0.00    -0.550 OA
ENDBRANCH  10  11
ENDBRANCH   9  10
ENDBRANCH   8   9
ENDBRANCH   1   8
TORSDOF 8
ENDMDL
MODEL 8
REMARK VINA RESULT:    -3.856     13.773     14.671
REMARK INTER + INTRA:          -6.262
REMARK INTER:                  -5.957
REMARK INTRA:                  -0.305
REMARK UNBOUND:                -0.602
REMARK SMILES O=C([O-])CCCCCCCC(=O)[O-]
REMARK SMILES IDX 7 1 6 2 5 3 4 4 2 5 1 6 3 7 8 8 9 9 10 10 11 11 12 12 13 13
REMARK H PARENT
REMARK Flexibility Score: inf
ROOT
ATOM      1  C   UNL     1      96.653  83.813  78.181  1.00  0.00     0.000 C 
ENDROOT
BRANCH   1   2
ATOM      2  C   UNL     1      96.239  82.538  78.924  1.00  0.00     0.000 C 
BRANCH   2   3
ATOM      3  C   UNL     1      97.154  82.278  80.127  1.00  0.00     0.006 C 
BRANCH   3   4
ATOM      4  C   UNL     1      98.601  82.051  79.678  1.00  0.00     0.053 C 
BRANCH   4   5
ATOM      5  C   UNL     1      99.547  82.328  80.802  1.00  0.00     0.041 C 
ATOM      6  O   UNL     1      99.203  82.098  81.991  1.00  0.00    -0.550 OA
ATOM      7  O   UNL     1     100.792  82.888  80.543  1.00  0.00    -0.550 OA
ENDBRANCH   4   5
ENDBRANCH   3   4
ENDBRANCH   2   3
ENDBRANCH   1   2
BRANCH   1   8
ATOM      8  C   UNL     1      95.431  84.670  77.833  1.00  0.00     0.000 C 
BRANCH   8   9
ATOM      9  C   UNL     1      94.128  83.888  78.059  1.00  0.00     0.006 C 
BRANCH   9  10
ATOM     10  C   UNL     1      93.144  84.048  76.893  1.00  0.00     0.053 C 
BRANCH  10  11
ATOM     11  C   UNL     1      91.778  83.545  77.244  1.00  0.00     0.041 C 
ATOM     12  O   UNL     1      91.600  82.880  78.298  1.00  0.00    -0.550 OA
ATOM     13  O   UNL     1      90.707  83.783  76.391  1.00  0.00    -0.550 OA
ENDBRANCH  10  11
ENDBRANCH   9  10
ENDBRANCH   8   9
ENDBRANCH   1   8
TORSDOF 8
ENDMDL
MODEL 9
REMARK VINA RESULT:    -3.739      1.883      2.530
REMARK INTER + INTRA:          -6.090
REMARK INTER:                  -5.660
REMARK INTRA:                  -0.430
REMARK UNBOUND:                -0.602
REMARK SMILES O=C([O-])CCCCCCCC(=O)[O-]
REMARK SMILES IDX 7 1 6 2 5 3 4 4 2 5 1 6 3 7 8 8 9 9 10 10 11 11 12 12 13 13
REMARK H PARENT
REMARK Flexibility Score: inf
ROOT
ATOM      1  C   UNL     1      87.999  73.844  69.052  1.00  0.00     0.000 C 
ENDROOT
BRANCH   1   2
ATOM      2  C   UNL     1      87.606  74.845  70.144  1.00  0.00     0.000 C 
BRANCH   2   3
ATOM      3  C   UNL     1      87.275  74.126  71.458  1.00  0.00     0.006 C 
BRANCH   3   4
ATOM      4  C   UNL     1      88.412  74.283  72.472  1.00  0.00     0.053 C 
BRANCH   4   5
ATOM      5  C   UNL     1      89.063  72.964  72.738  1.00  0.00     0.041 C 
ATOM      6  O   UNL     1      89.140  72.521  73.915  1.00  0.00    -0.550 OA
ATOM      7  O   UNL     1      89.630  72.244  71.694  1.00  0.00    -0.550 OA
ENDBRANCH   4   5
ENDBRANCH   3   4
ENDBRANCH   2   3
ENDBRANCH   1   2
BRANCH   1   8
ATOM      8  C   UNL     1      87.064  73.953  67.842  1.00  0.00     0.000 C 
BRANCH   8   9
ATOM      9  C   UNL     1      87.516  75.075  66.896  1.00  0.00     0.006 C 
BRANCH   9  10
ATOM     10  C   UNL     1      86.530  76.251  66.877  1.00  0.00     0.053 C 
BRANCH  10  11
ATOM     11  C   UNL     1      87.122  77.483  67.489  1.00  0.00     0.041 C 
ATOM     12  O   UNL     1      88.008  78.133  66.875  1.00  0.00    -0.550 OA
ATOM     13  O   UNL     1      86.718  77.896  68.753  1.00  0.00    -0.550 OA
ENDBRANCH  10  11
ENDBRANCH   9  10
ENDBRANCH   8   9
ENDBRANCH   1   8
TORSDOF 8
ENDMDL
