MODEL 1
REMARK VINA RESULT:    -3.535      0.000      0.000
REMARK INTER + INTRA:          -5.734
REMARK INTER:                  -5.085
REMARK INTRA:                  -0.649
REMARK UNBOUND:                -0.649
REMARK SMILES CCCCCCCCCO
REMARK SMILES IDX 6 1 5 2 4 3 3 4 2 5 1 6 7 7 8 8 9 9 10 10
REMARK H PARENT 10 11
REMARK Flexibility Score: inf
ROOT
ATOM      1  C   UNL     1      28.209   1.341  23.609  1.00  0.00     0.000 C 
ENDROOT
BRANCH   1   2
ATOM      2  C   UNL     1      29.062   0.221  22.993  1.00  0.00     0.000 C 
BRANCH   2   3
ATOM      3  C   UNL     1      29.282  -0.918  23.996  1.00  0.00    -0.000 C 
BRANCH   3   4
ATOM      4  C   UNL     1      30.764  -1.041  24.373  1.00  0.00    -0.000 C 
BRANCH   4   5
ATOM      5  C   UNL     1      31.622  -0.072  23.553  1.00  0.00    -0.003 C 
ATOM      6  C   UNL     1      32.751   0.513  24.397  1.00  0.00     0.004 C 
ENDBRANCH   4   5
ENDBRANCH   3   4
ENDBRANCH   2   3
ENDBRANCH   1   2
BRANCH   1   7
ATOM      7  C   UNL     1      28.987   2.656  23.790  1.00  0.00     0.002 C 
BRANCH   7   8
ATOM      8  C   UNL     1      29.655   2.831  25.166  1.00  0.00     0.028 C 
BRANCH   8   9
ATOM      9  C   UNL     1      29.615   4.278  25.673  1.00  0.00     0.156 C 
BRANCH   9  10
ATOM     10  O   UNL     1      29.031   5.111  24.710  1.00  0.00    -0.396 OA
ATOM     11  H   UNL     1      29.733   5.302  24.035  1.00  0.00     0.210 HD
ENDBRANCH   9  10
ENDBRANCH   8   9
ENDBRANCH   7   8
ENDBRANCH   1   7
TORSDOF 8
ENDMDL
MODEL 2
REMARK VINA RESULT:    -3.414      1.648      3.081
REMARK INTER + INTRA:          -5.560
REMARK INTER:                  -4.894
REMARK INTRA:                  -0.667
REMARK UNBOUND:                -0.649
REMARK SMILES CCCCCCCCCO
REMARK SMILES IDX 6 1 5 2 4 3 3 4 2 5 1 6 7 7 8 8 9 9 10 10
REMARK H PARENT 10 11
REMARK Flexibility Score: inf
ROOT
ATOM      1  C   UNL     1      29.770   1.361  22.823  1.00  0.00     0.000 C 
ENDROOT
BRANCH   1   2
ATOM      2  C   UNL     1      28.777   0.263  22.411  1.00  0.00     0.000 C 
BRANCH   2   3
ATOM      3  C   UNL     1      28.668  -0.814  23.497  1.00  0.00    -0.000 C 
BRANCH   3   4
ATOM      4  C   UNL     1      27.212  -1.002  23.943  1.00  0.00    -0.000 C 
BRANCH   4   5
ATOM      5  C   UNL     1      26.308   0.076  23.337  1.00  0.00    -0.003 C 
ATOM      6  C   UNL     1      25.748   0.996  24.417  1.00  0.00     0.004 C 
ENDBRANCH   4   5
ENDBRANCH   3   4
ENDBRANCH   2   3
ENDBRANCH   1   2
BRANCH   1   7
ATOM      7  C   UNL     1      29.085   2.578  23.470  1.00  0.00     0.002 C 
BRANCH   7   8
ATOM      8  C   UNL     1      29.213   2.656  25.001  1.00  0.00     0.028 C 
BRANCH   8   9
ATOM      9  C   UNL     1      29.577   4.058  25.503  1.00  0.00     0.156 C 
BRANCH   9  10
ATOM     10  O   UNL     1      29.057   5.030  24.637  1.00  0.00    -0.396 OA
ATOM     11  H   UNL     1      29.688   5.097  23.873  1.00  0.00     0.210 HD
ENDBRANCH   9  10
ENDBRANCH   8   9
ENDBRANCH   7   8
ENDBRANCH   1   7
TORSDOF 8
ENDMDL
MODEL 3
REMARK VINA RESULT:    -3.403      2.668      4.057
REMARK INTER + INTRA:          -5.545
REMARK INTER:                  -5.369
REMARK INTRA:                  -0.176
REMARK UNBOUND:                -0.649
REMARK SMILES CCCCCCCCCO
REMARK SMILES IDX 6 1 5 2 4 3 3 4 2 5 1 6 7 7 8 8 9 9 10 10
REMARK H PARENT 10 11
REMARK Flexibility Score: inf
ROOT
ATOM      1  C   UNL     1      29.487   0.206  23.375  1.00  0.00     0.000 C 
ENDROOT
BRANCH   1   2
ATOM      2  C   UNL     1      28.881   0.716  22.059  1.00  0.00     0.000 C 
BRANCH   2   3
ATOM      3  C   UNL     1      27.879  -0.294  21.487  1.00  0.00    -0.000 C 
BRANCH   3   4
ATOM      4  C   UNL     1      28.078  -0.474  19.977  1.00  0.00    -0.000 C 
BRANCH   4   5
ATOM      5  C   UNL     1      26.795  -0.138  19.209  1.00  0.00    -0.003 C 
ATOM      6  C   UNL     1      27.041  -0.128  17.703  1.00  0.00     0.004 C 
ENDBRANCH   4   5
ENDBRANCH   3   4
ENDBRANCH   2   3
ENDBRANCH   1   2
BRANCH   1   7
ATOM      7  C   UNL     1      29.631   1.311  24.437  1.00  0.00     0.002 C 
BRANCH   7   8
ATOM      8  C   UNL     1      29.308   2.732  23.942  1.00  0.00     0.028 C 
BRANCH   8   9
ATOM      9  C   UNL     1      29.402   3.789  25.049  1.00  0.00     0.156 C 
BRANCH   9  10
ATOM     10  O   UNL     1      28.953   5.028  24.572  1.00  0.00    -0.396 OA
ATOM     11  H   UNL     1      28.724   4.899  23.615  1.00  0.00     0.210 HD
ENDBRANCH   9  10
ENDBRANCH   8   9
ENDBRANCH   7   8
ENDBRANCH   1   7
TORSDOF 8
ENDMDL
MODEL 4
REMARK VINA RESULT:    -3.387      7.256      8.937
REMARK INTER + INTRA:          -5.521
REMARK INTER:                  -4.889
REMARK INTRA:                  -0.632
REMARK UNBOUND:                -0.649
REMARK SMILES CCCCCCCCCO
REMARK SMILES IDX 6 1 5 2 4 3 3 4 2 5 1 6 7 7 8 8 9 9 10 10
REMARK H PARENT 10 11
REMARK Flexibility Score: inf
ROOT
ATOM      1  C   UNL     1      26.418  -3.440  19.084  1.00  0.00     0.000 C 
ENDROOT
BRANCH   1   2
ATOM      2  C   UNL     1      27.179  -3.670  17.769  1.00  0.00     0.000 C 
BRANCH   2   3
ATOM      3  C   UNL     1      26.314  -4.434  16.760  1.00  0.00    -0.000 C 
BRANCH   3   4
ATOM      4  C   UNL     1      25.980  -3.559  15.545  1.00  0.00    -0.000 C 
BRANCH   4   5
ATOM      5  C   UNL     1      24.733  -2.707  15.807  1.00  0.00    -0.003 C 
ATOM      6  C   UNL     1      23.601  -3.552  16.384  1.00  0.00     0.004 C 
ENDBRANCH   4   5
ENDBRANCH   3   4
ENDBRANCH   2   3
ENDBRANCH   1   2
BRANCH   1   7
ATOM      7  C   UNL     1      26.584  -2.010  19.630  1.00  0.00     0.002 C 
BRANCH   7   8
ATOM      8  C   UNL     1      25.953  -0.907  18.762  1.00  0.00     0.028 C 
BRANCH   8   9
ATOM      9  C   UNL     1      26.988   0.057  18.169  1.00  0.00     0.156 C 
BRANCH   9  10
ATOM     10  O   UNL     1      27.090   1.205  18.966  1.00  0.00    -0.396 OA
ATOM     11  H   UNL     1      26.940   0.915  19.904  1.00  0.00     0.210 HD
ENDBRANCH   9  10
ENDBRANCH   8   9
ENDBRANCH   7   8
ENDBRANCH   1   7
TORSDOF 8
ENDMDL
MODEL 5
REMARK VINA RESULT:    -3.369      5.226      6.829
REMARK INTER + INTRA:          -5.496
REMARK INTER:                  -5.212
REMARK INTRA:                  -0.284
REMARK UNBOUND:                -0.649
REMARK SMILES CCCCCCCCCO
REMARK SMILES IDX 6 1 5 2 4 3 3 4 2 5 1 6 7 7 8 8 9 9 10 10
REMARK H PARENT 10 11
REMARK Flexibility Score: inf
ROOT
ATOM      1  C   UNL     1      26.611  -0.702  20.015  1.00  0.00     0.000 C 
ENDROOT
BRANCH   1   2
ATOM      2  C   UNL     1      27.135   0.293  18.967  1.00  0.00     0.000 C 
BRANCH   2   3
ATOM      3  C   UNL     1      26.985  -0.271  17.550  1.00  0.00    -0.000 C 
BRANCH   3   4
ATOM      4  C   UNL     1      25.861  -1.313  17.487  1.00  0.00    -0.000 C 
BRANCH   4   5
ATOM      5  C   UNL     1      26.156  -2.377  16.424  1.00  0.00    -0.003 C 
ATOM      6  C   UNL     1      24.865  -2.942  15.838  1.00  0.00     0.004 C 
ENDBRANCH   4   5
ENDBRANCH   3   4
ENDBRANCH   2   3
ENDBRANCH   1   2
BRANCH   1   7
ATOM      7  C   UNL     1      27.287  -0.538  21.388  1.00  0.00     0.002 C 
BRANCH   7   8
ATOM      8  C   UNL     1      28.630   0.213  21.365  1.00  0.00     0.028 C 
BRANCH   8   9
ATOM      9  C   UNL     1      28.868   1.058  22.622  1.00  0.00     0.156 C 
BRANCH   9  10
ATOM     10  O   UNL     1      28.982   2.412  22.278  1.00  0.00    -0.396 OA
ATOM     11  H   UNL     1      29.341   2.879  23.077  1.00  0.00     0.210 HD
ENDBRANCH   9  10
ENDBRANCH   8   9
ENDBRANCH   7   8
ENDBRANCH   1   7
TORSDOF 8
ENDMDL
MODEL 6
REMARK VINA RESULT:    -3.323      2.966      4.527
REMARK INTER + INTRA:          -5.430
REMARK INTER:                  -4.796
REMARK INTRA:                  -0.634
REMARK UNBOUND:                -0.649
REMARK SMILES CCCCCCCCCO
REMARK SMILES IDX 6 1 5 2 4 3 3 4 2 5 1 6 7 7 8 8 9 9 10 10
REMARK H PARENT 10 11
REMARK Flexibility Score: inf
ROOT
ATOM      1  C   UNL     1      28.150  -1.449  22.931  1.00  0.00     0.000 C 
ENDROOT
BRANCH   1   2
ATOM      2  C   UNL     1      29.661  -1.320  22.683  1.00  0.00     0.000 C 
BRANCH   2   3
ATOM      3  C   UNL     1      30.370  -0.729  23.907  1.00  0.00    -0.000 C 
BRANCH   3   4
ATOM      4  C   UNL     1      30.939   0.661  23.596  1.00  0.00    -0.000 C 
BRANCH   4   5
ATOM      5  C   UNL     1      30.032   1.763  24.155  1.00  0.00    -0.003 C 
ATOM      6  C   UNL     1      29.152   2.359  23.061  1.00  0.00     0.004 C 
ENDBRANCH   4   5
ENDBRANCH   3   4
ENDBRANCH   2   3
ENDBRANCH   1   2
BRANCH   1   7
ATOM      7  C   UNL     1      27.304  -0.723  21.870  1.00  0.00     0.002 C 
BRANCH   7   8
ATOM      8  C   UNL     1      28.099  -0.172  20.673  1.00  0.00     0.028 C 
BRANCH   8   9
ATOM      9  C   UNL     1      27.265  -0.081  19.389  1.00  0.00     0.156 C 
BRANCH   9  10
ATOM     10  O   UNL     1      27.128   1.258  18.997  1.00  0.00    -0.396 OA
ATOM     11  H   UNL     1      26.593   1.708  19.702  1.00  0.00     0.210 HD
ENDBRANCH   9  10
ENDBRANCH   8   9
ENDBRANCH   7   8
ENDBRANCH   1   7
TORSDOF 8
ENDMDL
MODEL 7
REMARK VINA RESULT:    -3.309      4.370      5.911
REMARK INTER + INTRA:          -5.409
REMARK INTER:                  -5.079
REMARK INTRA:                  -0.330
REMARK UNBOUND:                -0.649
REMARK SMILES CCCCCCCCCO
REMARK SMILES IDX 6 1 5 2 4 3 3 4 2 5 1 6 7 7 8 8 9 9 10 10
REMARK H PARENT 10 11
REMARK Flexibility Score: inf
ROOT
ATOM      1  C   UNL     1      27.338  -0.813  21.306  1.00  0.00     0.000 C 
ENDROOT
BRANCH   1   2
ATOM      2  C   UNL     1      26.378  -0.577  20.130  1.00  0.00     0.000 C 
BRANCH   2   3
ATOM      3  C   UNL     1      27.076   0.177  18.992  1.00  0.00    -0.000 C 
BRANCH   3   4
ATOM      4  C   UNL     1      26.655  -0.375  17.625  1.00  0.00    -0.000 C 
BRANCH   4   5
ATOM      5  C   UNL     1      26.642  -1.907  17.631  1.00  0.00    -0.003 C 
ATOM      6  C   UNL     1      25.958  -2.457  16.383  1.00  0.00     0.004 C 
ENDBRANCH   4   5
ENDBRANCH   3   4
ENDBRANCH   2   3
ENDBRANCH   1   2
BRANCH   1   7
ATOM      7  C   UNL     1      28.547   0.141  21.294  1.00  0.00     0.002 C 
BRANCH   7   8
ATOM      8  C   UNL     1      29.041   0.579  22.683  1.00  0.00     0.028 C 
BRANCH   8   9
ATOM      9  C   UNL     1      29.178   2.100  22.821  1.00  0.00     0.156 C 
BRANCH   9  10
ATOM     10  O   UNL     1      28.016   2.639  23.390  1.00  0.00    -0.396 OA
ATOM     11  H   UNL     1      28.272   2.988  24.284  1.00  0.00     0.210 HD
ENDBRANCH   9  10
ENDBRANCH   8   9
ENDBRANCH   7   8
ENDBRANCH   1   7
TORSDOF 8
ENDMDL
MODEL 8
REMARK VINA RESULT:    -3.266      1.711      3.105
REMARK INTER + INTRA:          -5.347
REMARK INTER:                  -4.999
REMARK INTRA:                  -0.348
REMARK UNBOUND:                -0.649
REMARK SMILES CCCCCCCCCO
REMARK SMILES IDX 6 1 5 2 4 3 3 4 2 5 1 6 7 7 8 8 9 9 10 10
REMARK H PARENT 10 11
REMARK Flexibility Score: inf
ROOT
ATOM      1  C   UNL     1      30.378   1.123  23.996  1.00  0.00     0.000 C 
ENDROOT
BRANCH   1   2
ATOM      2  C   UNL     1      29.530  -0.069  23.525  1.00  0.00     0.000 C 
BRANCH   2   3
ATOM      3  C   UNL     1      28.067   0.342  23.323  1.00  0.00    -0.000 C 
BRANCH   3   4
ATOM      4  C   UNL     1      27.471  -0.333  22.082  1.00  0.00    -0.000 C 
BRANCH   4   5
ATOM      5  C   UNL     1      28.300  -0.018  20.833  1.00  0.00    -0.003 C 
ATOM      6  C   UNL     1      27.528  -0.354  19.560  1.00  0.00     0.004 C 
ENDBRANCH   4   5
ENDBRANCH   3   4
ENDBRANCH   2   3
ENDBRANCH   1   2
BRANCH   1   7
ATOM      7  C   UNL     1      29.540   2.385  24.266  1.00  0.00     0.002 C 
BRANCH   7   8
ATOM      8  C   UNL     1      29.704   2.984  25.674  1.00  0.00     0.028 C 
BRANCH   8   9
ATOM      9  C   UNL     1      29.695   4.517  25.680  1.00  0.00     0.156 C 
BRANCH   9  10
ATOM     10  O   UNL     1      28.975   5.000  24.578  1.00  0.00    -0.396 OA
ATOM     11  H   UNL     1      29.467   4.708  23.767  1.00  0.00     0.210 HD
ENDBRANCH   9  10
ENDBRANCH   8   9
ENDBRANCH   7   8
ENDBRANCH   1   7
TORSDOF 8
ENDMDL
MODEL 9
REMARK VINA RESULT:    -3.146      8.004      9.608
REMARK INTER + INTRA:          -5.175
REMARK INTER:                  -4.811
REMARK INTRA:                  -0.365
REMARK UNBOUND:                -0.649
REMARK SMILES CCCCCCCCCO
REMARK SMILES IDX 6 1 5 2 4 3 3 4 2 5 1 6 7 7 8 8 9 9 10 10
REMARK H PARENT 10 11
REMARK Flexibility Score: inf
ROOT
ATOM      1  C   UNL     1      26.337  -2.434  17.038  1.00  0.00     0.000 C 
ENDROOT
BRANCH   1   2
ATOM      2  C   UNL     1      25.768  -2.846  15.671  1.00  0.00     0.000 C 
BRANCH   2   3
ATOM      3  C   UNL     1      25.241  -4.286  15.707  1.00  0.00    -0.000 C 
BRANCH   3   4
ATOM      4  C   UNL     1      24.483  -4.563  17.011  1.00  0.00    -0.000 C 
BRANCH   4   5
ATOM      5  C   UNL     1      23.021  -4.926  16.730  1.00  0.00    -0.003 C 
ATOM      6  C   UNL     1      22.213  -3.693  16.337  1.00  0.00     0.004 C 
ENDBRANCH   4   5
ENDBRANCH   3   4
ENDBRANCH   2   3
ENDBRANCH   1   2
BRANCH   1   7
ATOM      7  C   UNL     1      25.855  -1.045  17.494  1.00  0.00     0.002 C 
BRANCH   7   8
ATOM      8  C   UNL     1      26.974  -0.070  17.899  1.00  0.00     0.028 C 
BRANCH   8   9
ATOM      9  C   UNL     1      27.387  -0.207  19.369  1.00  0.00     0.156 C 
BRANCH   9  10
ATOM     10  O   UNL     1      26.332   0.185  20.205  1.00  0.00    -0.396 OA
ATOM     11  H   UNL     1      25.551  -0.375  19.959  1.00  0.00     0.210 HD
ENDBRANCH   9  10
ENDBRANCH   8   9
ENDBRANCH   7   8
ENDBRANCH   1   7
TORSDOF 8
ENDMDL
