MODEL 1
REMARK VINA RESULT:    -2.871      0.000      0.000
REMARK INTER + INTRA:          -3.372
REMARK INTER:                  -3.123
REMARK INTRA:                  -0.249
REMARK UNBOUND:                -0.249
REMARK SMILES O=C([O-])c1ccccc1O
REMARK SMILES IDX 4 1 9 2 5 3 8 4 6 5 7 6 2 7 1 8 3 9 10 10
REMARK H PARENT 10 11
REMARK Flexibility Score: inf
ROOT
ATOM      1  C   UNL     1      -4.211  -1.112   1.795  1.00  0.00     0.039 A 
ATOM      2  C   UNL     1      -4.895  -2.242   2.313  1.00  0.00     0.124 A 
ATOM      3  C   UNL     1      -4.245  -0.871   0.409  1.00  0.00     0.014 A 
ATOM      4  C   UNL     1      -5.536  -3.125   1.433  1.00  0.00     0.047 A 
ATOM      5  C   UNL     1      -4.906  -1.751  -0.451  1.00  0.00     0.001 A 
ATOM      6  C   UNL     1      -5.541  -2.882   0.060  1.00  0.00     0.004 A 
ENDROOT
BRANCH   1   7
ATOM      7  C   UNL     1      -3.429  -0.196   2.655  1.00  0.00     0.075 C 
ATOM      8  O   UNL     1      -3.925   0.241   3.727  1.00  0.00    -0.545 OA
ATOM      9  O   UNL     1      -2.171   0.247   2.265  1.00  0.00    -0.545 OA
ENDBRANCH   1   7
BRANCH   2  10
ATOM     10  O   UNL     1      -4.995  -2.499   3.681  1.00  0.00    -0.507 OA
ATOM     11  H   UNL     1      -4.985  -1.775   4.386  1.00  0.00     0.293 HD
ENDBRANCH   2  10
TORSDOF 2
ENDMDL
MODEL 2
REMARK VINA RESULT:    -2.328      2.085      3.381
REMARK INTER + INTRA:          -2.782
REMARK INTER:                  -2.592
REMARK INTRA:                  -0.189
REMARK UNBOUND:                -0.249
REMARK SMILES O=C([O-])c1ccccc1O
REMARK SMILES IDX 4 1 9 2 5 3 8 4 6 5 7 6 2 7 1 8 3 9 10 10
REMARK H PARENT 10 11
REMARK Flexibility Score: inf
ROOT
ATOM      1  C   UNL     1      -4.401  -1.569   1.354  1.00  0.00     0.039 A 
ATOM      2  C   UNL     1      -4.638  -1.981   2.691  1.00  0.00     0.124 A 
ATOM      3  C   UNL     1      -3.565  -0.461   1.120  1.00  0.00     0.014 A 
ATOM      4  C   UNL     1      -4.090  -1.244   3.749  1.00  0.00     0.047 A 
ATOM      5  C   UNL     1      -3.010   0.249   2.186  1.00  0.00     0.001 A 
ATOM      6  C   UNL     1      -3.280  -0.135   3.499  1.00  0.00     0.004 A 
ENDROOT
BRANCH   1   7
ATOM      7  C   UNL     1      -5.032  -2.239   0.195  1.00  0.00     0.075 C 
ATOM      8  O   UNL     1      -5.908  -3.125   0.378  1.00  0.00    -0.545 OA
ATOM      9  O   UNL     1      -4.623  -1.954  -1.102  1.00  0.00    -0.545 OA
ENDBRANCH   1   7
BRANCH   2  10
ATOM     10  O   UNL     1      -5.373  -3.125   3.007  1.00  0.00    -0.507 OA
ATOM     11  H   UNL     1      -5.444  -3.927   2.396  1.00  0.00     0.293 HD
ENDBRANCH   2  10
TORSDOF 2
ENDMDL
MODEL 3
REMARK VINA RESULT:    -1.721      1.021      2.503
REMARK INTER + INTRA:          -2.121
REMARK INTER:                  -1.881
REMARK INTRA:                  -0.240
REMARK UNBOUND:                -0.249
REMARK SMILES O=C([O-])c1ccccc1O
REMARK SMILES IDX 4 1 9 2 5 3 8 4 6 5 7 6 2 7 1 8 3 9 10 10
REMARK H PARENT 10 11
REMARK Flexibility Score: inf
ROOT
ATOM      1  C   UNL     1      -4.715  -2.009   1.652  1.00  0.00     0.039 A 
ATOM      2  C   UNL     1      -3.960  -1.220   0.746  1.00  0.00     0.124 A 
ATOM      3  C   UNL     1      -5.602  -2.973   1.140  1.00  0.00     0.014 A 
ATOM      4  C   UNL     1      -4.156  -1.372  -0.633  1.00  0.00     0.047 A 
ATOM      5  C   UNL     1      -5.770  -3.125  -0.238  1.00  0.00     0.001 A 
ATOM      6  C   UNL     1      -5.056  -2.319  -1.123  1.00  0.00     0.004 A 
ENDROOT
BRANCH   1   7
ATOM      7  C   UNL     1      -4.632  -1.828   3.119  1.00  0.00     0.075 C 
ATOM      8  O   UNL     1      -4.989  -2.758   3.890  1.00  0.00    -0.545 OA
ATOM      9  O   UNL     1      -4.229  -0.617   3.665  1.00  0.00    -0.545 OA
ENDBRANCH   1   7
BRANCH   2  10
ATOM     10  O   UNL     1      -2.988  -0.311   1.169  1.00  0.00    -0.507 OA
ATOM     11  H   UNL     1      -2.090  -0.207   0.717  1.00  0.00     0.293 HD
ENDBRANCH   2  10
TORSDOF 2
ENDMDL
MODEL 4
REMARK VINA RESULT:    -1.004      2.121      3.995
REMARK INTER + INTRA:          -1.341
REMARK INTER:                  -1.100
REMARK INTRA:                  -0.241
REMARK UNBOUND:                -0.249
REMARK SMILES O=C([O-])c1ccccc1O
REMARK SMILES IDX 4 1 9 2 5 3 8 4 6 5 7 6 2 7 1 8 3 9 10 10
REMARK H PARENT 10 11
REMARK Flexibility Score: inf
ROOT
ATOM      1  C   UNL     1      -4.596  -1.765   1.445  1.00  0.00     0.039 A 
ATOM      2  C   UNL     1      -3.538  -0.901   1.061  1.00  0.00     0.124 A 
ATOM      3  C   UNL     1      -5.008  -1.781   2.790  1.00  0.00     0.014 A 
ATOM      4  C   UNL     1      -2.887  -0.130   2.033  1.00  0.00     0.047 A 
ATOM      5  C   UNL     1      -4.361  -0.990   3.743  1.00  0.00     0.001 A 
ATOM      6  C   UNL     1      -3.295  -0.174   3.366  1.00  0.00     0.004 A 
ENDROOT
BRANCH   1   7
ATOM      7  C   UNL     1      -5.258  -2.681   0.490  1.00  0.00     0.075 C 
ATOM      8  O   UNL     1      -6.410  -3.125   0.736  1.00  0.00    -0.545 OA
ATOM      9  O   UNL     1      -4.597  -3.118  -0.652  1.00  0.00    -0.545 OA
ENDBRANCH   1   7
BRANCH   2  10
ATOM     10  O   UNL     1      -3.133  -0.752  -0.267  1.00  0.00    -0.507 OA
ATOM     11  H   UNL     1      -2.404  -0.116  -0.558  1.00  0.00     0.293 HD
ENDBRANCH   2  10
TORSDOF 2
ENDMDL
MODEL 5
REMARK VINA RESULT:    -0.874      1.771      2.563
REMARK INTER + INTRA:          -1.199
REMARK INTER:                  -0.973
REMARK INTRA:                  -0.226
REMARK UNBOUND:                -0.249
REMARK SMILES O=C([O-])c1ccccc1O
REMARK SMILES IDX 4 1 9 2 5 3 8 4 6 5 7 6 2 7 1 8 3 9 10 10
REMARK H PARENT 10 11
REMARK Flexibility Score: inf
ROOT
ATOM      1  C   UNL     1      -3.235  -0.773   2.705  1.00  0.00     0.039 A 
ATOM      2  C   UNL     1      -3.560  -1.000   1.343  1.00  0.00     0.124 A 
ATOM      3  C   UNL     1      -3.963  -1.451   3.701  1.00  0.00     0.014 A 
ATOM      4  C   UNL     1      -4.632  -1.842   1.018  1.00  0.00     0.047 A 
ATOM      5  C   UNL     1      -5.015  -2.303   3.358  1.00  0.00     0.001 A 
ATOM      6  C   UNL     1      -5.355  -2.490   2.019  1.00  0.00     0.004 A 
ENDROOT
BRANCH   1   7
ATOM      7  C   UNL     1      -2.184   0.182   3.121  1.00  0.00     0.075 C 
ATOM      8  O   UNL     1      -2.231   0.714   4.262  1.00  0.00    -0.545 OA
ATOM      9  O   UNL     1      -1.175   0.556   2.244  1.00  0.00    -0.545 OA
ENDBRANCH   1   7
BRANCH   2  10
ATOM     10  O   UNL     1      -2.826  -0.444   0.292  1.00  0.00    -0.507 OA
ATOM     11  H   UNL     1      -1.963   0.063   0.425  1.00  0.00     0.293 HD
ENDBRANCH   2  10
TORSDOF 2
ENDMDL
MODEL 6
REMARK VINA RESULT:    -0.025      1.957      3.603
REMARK INTER + INTRA:          -0.277
REMARK INTER:                  -0.195
REMARK INTRA:                  -0.081
REMARK UNBOUND:                -0.249
REMARK SMILES O=C([O-])c1ccccc1O
REMARK SMILES IDX 4 1 9 2 5 3 8 4 6 5 7 6 2 7 1 8 3 9 10 10
REMARK H PARENT 10 11
REMARK Flexibility Score: inf
ROOT
ATOM      1  C   UNL     1      -3.653  -1.042   1.867  1.00  0.00     0.039 A 
ATOM      2  C   UNL     1      -3.994  -0.984   3.243  1.00  0.00     0.124 A 
ATOM      3  C   UNL     1      -2.493  -0.379   1.425  1.00  0.00     0.014 A 
ATOM      4  C   UNL     1      -3.210  -0.222   4.119  1.00  0.00     0.047 A 
ATOM      5  C   UNL     1      -1.712   0.360   2.316  1.00  0.00     0.001 A 
ATOM      6  C   UNL     1      -2.075   0.447   3.658  1.00  0.00     0.004 A 
ENDROOT
BRANCH   1   7
ATOM      7  C   UNL     1      -4.493  -1.743   0.871  1.00  0.00     0.075 C 
ATOM      8  O   UNL     1      -5.328  -1.098   0.184  1.00  0.00    -0.545 OA
ATOM      9  O   UNL     1      -4.424  -3.123   0.727  1.00  0.00    -0.545 OA
ENDBRANCH   1   7
BRANCH   2  10
ATOM     10  O   UNL     1      -5.070  -1.693   3.782  1.00  0.00    -0.507 OA
ATOM     11  H   UNL     1      -5.329  -2.623   3.483  1.00  0.00     0.293 HD
ENDBRANCH   2  10
TORSDOF 2
ENDMDL
