MODEL 1
REMARK VINA RESULT:    -5.141      0.000      0.000
REMARK INTER + INTRA:          -5.941
REMARK INTER:                  -5.893
REMARK INTRA:                  -0.049
REMARK UNBOUND:                -0.049
REMARK SMILES O=C([O-])c1cc(O)c(O)c(O)c1
REMARK SMILES IDX 4 1 5 2 12 3 6 4 10 5 8 6 2 7 1 8 3 9 7 10 11 12 9 14
REMARK H PARENT 7 11 11 13 9 15
REMARK Flexibility Score: inf
ROOT
ATOM      1  C   UNL     1     169.502 151.063 148.462  1.00  0.00     0.005 A 
ATOM      2  C   UNL     1     169.574 152.390 148.913  1.00  0.00     0.060 A 
ATOM      3  C   UNL     1     168.245 150.450 148.348  1.00  0.00     0.060 A 
ATOM      4  C   UNL     1     168.409 153.094 149.243  1.00  0.00     0.162 A 
ATOM      5  C   UNL     1     167.073 151.141 148.676  1.00  0.00     0.162 A 
ATOM      6  C   UNL     1     167.154 152.481 149.129  1.00  0.00     0.200 A 
ENDROOT
BRANCH   1   7
ATOM      7  C   UNL     1     170.731 150.318 148.112  1.00  0.00     0.072 C 
ATOM      8  O   UNL     1     170.890 149.126 148.488  1.00  0.00    -0.545 OA
ATOM      9  O   UNL     1     171.732 150.923 147.359  1.00  0.00    -0.545 OA
ENDBRANCH   1   7
BRANCH   4  10
ATOM     10  O   UNL     1     168.491 154.413 149.690  1.00  0.00    -0.504 OA
ATOM     11  H   UNL     1     167.847 154.780 150.380  1.00  0.00     0.293 HD
ENDBRANCH   4  10
BRANCH   5  12
ATOM     12  O   UNL     1     165.859 150.465 148.537  1.00  0.00    -0.504 OA
ATOM     13  H   UNL     1     165.741 149.476 148.699  1.00  0.00     0.293 HD
ENDBRANCH   5  12
BRANCH   6  14
ATOM     14  O   UNL     1     166.025 153.227 149.472  1.00  0.00    -0.502 OA
ATOM     15  H   UNL     1     165.735 154.067 148.992  1.00  0.00     0.293 HD
ENDBRANCH   6  14
TORSDOF 4
ENDMDL
MODEL 2
REMARK VINA RESULT:    -5.083      0.838      2.658
REMARK INTER + INTRA:          -5.874
REMARK INTER:                  -5.824
REMARK INTRA:                  -0.050
REMARK UNBOUND:                -0.049
REMARK SMILES O=C([O-])c1cc(O)c(O)c(O)c1
REMARK SMILES IDX 4 1 5 2 12 3 6 4 10 5 8 6 2 7 1 8 3 9 7 10 11 12 9 14
REMARK H PARENT 7 11 11 13 9 15
REMARK Flexibility Score: inf
ROOT
ATOM      1  C   UNL     1     169.361 151.309 147.689  1.00  0.00     0.005 A 
ATOM      2  C   UNL     1     168.130 150.635 147.737  1.00  0.00     0.060 A 
ATOM      3  C   UNL     1     169.474 152.564 148.308  1.00  0.00     0.060 A 
ATOM      4  C   UNL     1     167.032 151.205 148.393  1.00  0.00     0.162 A 
ATOM      5  C   UNL     1     168.384 153.145 148.966  1.00  0.00     0.162 A 
ATOM      6  C   UNL     1     167.147 152.459 149.009  1.00  0.00     0.200 A 
ENDROOT
BRANCH   1   7
ATOM      7  C   UNL     1     170.523 150.709 146.998  1.00  0.00     0.072 C 
ATOM      8  O   UNL     1     171.696 150.947 147.389  1.00  0.00    -0.545 OA
ATOM      9  O   UNL     1     170.337 149.869 145.904  1.00  0.00    -0.545 OA
ENDBRANCH   1   7
BRANCH   4  10
ATOM     10  O   UNL     1     165.813 150.529 148.435  1.00  0.00    -0.504 OA
ATOM     11  H   UNL     1     165.004 150.860 147.923  1.00  0.00     0.293 HD
ENDBRANCH   4  10
BRANCH   5  12
ATOM     12  O   UNL     1     168.574 154.396 149.557  1.00  0.00    -0.504 OA
ATOM     13  H   UNL     1     168.015 155.211 149.348  1.00  0.00     0.293 HD
ENDBRANCH   5  12
BRANCH   6  14
ATOM     14  O   UNL     1     166.020 152.981 149.649  1.00  0.00    -0.502 OA
ATOM     15  H   UNL     1     166.058 153.610 150.439  1.00  0.00     0.293 HD
ENDBRANCH   6  14
TORSDOF 4
ENDMDL
MODEL 3
REMARK VINA RESULT:    -4.974      1.657      2.664
REMARK INTER + INTRA:          -5.749
REMARK INTER:                  -5.700
REMARK INTRA:                  -0.049
REMARK UNBOUND:                -0.049
REMARK SMILES O=C([O-])c1cc(O)c(O)c(O)c1
REMARK SMILES IDX 4 1 5 2 12 3 6 4 10 5 8 6 2 7 1 8 3 9 7 10 11 12 9 14
REMARK H PARENT 7 11 11 13 9 15
REMARK Flexibility Score: inf
ROOT
ATOM      1  C   UNL     1     168.034 150.919 147.385  1.00  0.00     0.005 A 
ATOM      2  C   UNL     1     169.238 151.640 147.370  1.00  0.00     0.060 A 
ATOM      3  C   UNL     1     166.963 151.398 148.156  1.00  0.00     0.060 A 
ATOM      4  C   UNL     1     169.370 152.821 148.114  1.00  0.00     0.162 A 
ATOM      5  C   UNL     1     167.082 152.575 148.904  1.00  0.00     0.162 A 
ATOM      6  C   UNL     1     168.300 153.296 148.884  1.00  0.00     0.200 A 
ENDROOT
BRANCH   1   7
ATOM      7  C   UNL     1     167.892 149.673 146.600  1.00  0.00     0.072 C 
ATOM      8  O   UNL     1     166.826 149.425 145.977  1.00  0.00    -0.545 OA
ATOM      9  O   UNL     1     168.936 148.756 146.537  1.00  0.00    -0.545 OA
ENDBRANCH   1   7
BRANCH   4  10
ATOM     10  O   UNL     1     170.571 153.530 148.093  1.00  0.00    -0.504 OA
ATOM     11  H   UNL     1     171.064 153.763 148.946  1.00  0.00     0.293 HD
ENDBRANCH   4  10
BRANCH   5  12
ATOM     12  O   UNL     1     165.974 152.988 149.647  1.00  0.00    -0.504 OA
ATOM     13  H   UNL     1     165.022 152.951 149.312  1.00  0.00     0.293 HD
ENDBRANCH   5  12
BRANCH   6  14
ATOM     14  O   UNL     1     168.486 154.477 149.606  1.00  0.00    -0.502 OA
ATOM     15  H   UNL     1     169.374 154.948 149.703  1.00  0.00     0.293 HD
ENDBRANCH   6  14
TORSDOF 4
ENDMDL
MODEL 4
REMARK VINA RESULT:    -4.959     10.484     11.249
REMARK INTER + INTRA:          -5.732
REMARK INTER:                  -5.687
REMARK INTRA:                  -0.046
REMARK UNBOUND:                -0.049
REMARK SMILES O=C([O-])c1cc(O)c(O)c(O)c1
REMARK SMILES IDX 4 1 5 2 12 3 6 4 10 5 8 6 2 7 1 8 3 9 7 10 11 12 9 14
REMARK H PARENT 7 11 11 13 9 15
REMARK Flexibility Score: inf
ROOT
ATOM      1  C   UNL     1     172.818 145.913 156.795  1.00  0.00     0.005 A 
ATOM      2  C   UNL     1     171.816 145.071 157.301  1.00  0.00     0.060 A 
ATOM      3  C   UNL     1     172.930 147.218 157.300  1.00  0.00     0.060 A 
ATOM      4  C   UNL     1     170.941 145.524 158.296  1.00  0.00     0.162 A 
ATOM      5  C   UNL     1     172.061 147.684 158.294  1.00  0.00     0.162 A 
ATOM      6  C   UNL     1     171.054 146.827 158.799  1.00  0.00     0.200 A 
ENDROOT
BRANCH   1   7
ATOM      7  C   UNL     1     173.745 145.437 155.744  1.00  0.00     0.072 C 
ATOM      8  O   UNL     1     173.323 145.169 154.589  1.00  0.00    -0.545 OA
ATOM      9  O   UNL     1     175.100 145.278 156.018  1.00  0.00    -0.545 OA
ENDBRANCH   1   7
BRANCH   4  10
ATOM     10  O   UNL     1     169.948 144.679 158.793  1.00  0.00    -0.504 OA
ATOM     11  H   UNL     1     170.161 143.745 159.119  1.00  0.00     0.293 HD
ENDBRANCH   4  10
BRANCH   5  12
ATOM     12  O   UNL     1     172.234 148.994 158.746  1.00  0.00    -0.504 OA
ATOM     13  H   UNL     1     172.808 149.682 158.281  1.00  0.00     0.293 HD
ENDBRANCH   5  12
BRANCH   6  14
ATOM     14  O   UNL     1     170.155 147.228 159.790  1.00  0.00    -0.502 OA
ATOM     15  H   UNL     1     169.628 148.090 159.762  1.00  0.00     0.293 HD
ENDBRANCH   6  14
TORSDOF 4
ENDMDL
MODEL 5
REMARK VINA RESULT:    -4.958      1.501      3.500
REMARK INTER + INTRA:          -5.731
REMARK INTER:                  -5.685
REMARK INTRA:                  -0.046
REMARK UNBOUND:                -0.049
REMARK SMILES O=C([O-])c1cc(O)c(O)c(O)c1
REMARK SMILES IDX 4 1 5 2 12 3 6 4 10 5 8 6 2 7 1 8 3 9 7 10 11 12 9 14
REMARK H PARENT 7 11 11 13 9 15
REMARK Flexibility Score: inf
ROOT
ATOM      1  C   UNL     1     167.344 150.563 148.514  1.00  0.00     0.005 A 
ATOM      2  C   UNL     1     166.736 151.827 148.557  1.00  0.00     0.060 A 
ATOM      3  C   UNL     1     168.685 150.439 148.907  1.00  0.00     0.060 A 
ATOM      4  C   UNL     1     167.456 152.949 148.986  1.00  0.00     0.162 A 
ATOM      5  C   UNL     1     169.417 151.552 149.336  1.00  0.00     0.162 A 
ATOM      6  C   UNL     1     168.796 152.824 149.377  1.00  0.00     0.200 A 
ENDROOT
BRANCH   1   7
ATOM      7  C   UNL     1     166.584 149.376 148.063  1.00  0.00     0.072 C 
ATOM      8  O   UNL     1     166.871 148.804 146.978  1.00  0.00    -0.545 OA
ATOM      9  O   UNL     1     165.541 148.871 148.833  1.00  0.00    -0.545 OA
ENDBRANCH   1   7
BRANCH   4  10
ATOM     10  O   UNL     1     166.844 154.202 149.024  1.00  0.00    -0.504 OA
ATOM     11  H   UNL     1     167.216 154.958 149.586  1.00  0.00     0.293 HD
ENDBRANCH   4  10
BRANCH   5  12
ATOM     12  O   UNL     1     170.748 151.351 149.711  1.00  0.00    -0.504 OA
ATOM     13  H   UNL     1     171.487 152.019 149.551  1.00  0.00     0.293 HD
ENDBRANCH   5  12
BRANCH   6  14
ATOM     14  O   UNL     1     169.468 153.975 149.795  1.00  0.00    -0.502 OA
ATOM     15  H   UNL     1     170.199 154.428 149.264  1.00  0.00     0.293 HD
ENDBRANCH   6  14
TORSDOF 4
ENDMDL
MODEL 6
REMARK VINA RESULT:    -4.945      1.699      3.156
REMARK INTER + INTRA:          -5.716
REMARK INTER:                  -5.665
REMARK INTRA:                  -0.050
REMARK UNBOUND:                -0.049
REMARK SMILES O=C([O-])c1cc(O)c(O)c(O)c1
REMARK SMILES IDX 4 1 5 2 12 3 6 4 10 5 8 6 2 7 1 8 3 9 7 10 11 12 9 14
REMARK H PARENT 7 11 11 13 9 15
REMARK Flexibility Score: inf
ROOT
ATOM      1  C   UNL     1     168.232 150.935 147.278  1.00  0.00     0.005 A 
ATOM      2  C   UNL     1     167.163 151.367 148.078  1.00  0.00     0.060 A 
ATOM      3  C   UNL     1     169.403 151.709 147.231  1.00  0.00     0.060 A 
ATOM      4  C   UNL     1     167.262 152.552 148.819  1.00  0.00     0.162 A 
ATOM      5  C   UNL     1     169.515 152.894 147.966  1.00  0.00     0.162 A 
ATOM      6  C   UNL     1     168.431 153.323 148.771  1.00  0.00     0.200 A 
ENDROOT
BRANCH   1   7
ATOM      7  C   UNL     1     168.131 149.684 146.495  1.00  0.00     0.072 C 
ATOM      8  O   UNL     1     167.019 149.291 146.053  1.00  0.00    -0.545 OA
ATOM      9  O   UNL     1     169.265 148.922 146.233  1.00  0.00    -0.545 OA
ENDBRANCH   1   7
BRANCH   4  10
ATOM     10  O   UNL     1     166.194 152.973 149.611  1.00  0.00    -0.504 OA
ATOM     11  H   UNL     1     165.315 153.268 149.204  1.00  0.00     0.293 HD
ENDBRANCH   4  10
BRANCH   5  12
ATOM     12  O   UNL     1     170.710 153.610 147.868  1.00  0.00    -0.504 OA
ATOM     13  H   UNL     1     171.621 153.181 147.793  1.00  0.00     0.293 HD
ENDBRANCH   5  12
BRANCH   6  14
ATOM     14  O   UNL     1     168.477 154.495 149.528  1.00  0.00    -0.502 OA
ATOM     15  H   UNL     1     169.191 154.699 150.213  1.00  0.00     0.293 HD
ENDBRANCH   6  14
TORSDOF 4
ENDMDL
MODEL 7
REMARK VINA RESULT:    -4.932      1.546      3.504
REMARK INTER + INTRA:          -5.701
REMARK INTER:                  -5.655
REMARK INTRA:                  -0.045
REMARK UNBOUND:                -0.049
REMARK SMILES O=C([O-])c1cc(O)c(O)c(O)c1
REMARK SMILES IDX 4 1 5 2 12 3 6 4 10 5 8 6 2 7 1 8 3 9 7 10 11 12 9 14
REMARK H PARENT 7 11 11 13 9 15
REMARK Flexibility Score: inf
ROOT
ATOM      1  C   UNL     1     167.354 150.584 148.536  1.00  0.00     0.005 A 
ATOM      2  C   UNL     1     168.687 150.450 148.957  1.00  0.00     0.060 A 
ATOM      3  C   UNL     1     166.763 151.857 148.543  1.00  0.00     0.060 A 
ATOM      4  C   UNL     1     169.416 151.570 149.377  1.00  0.00     0.162 A 
ATOM      5  C   UNL     1     167.480 152.984 148.962  1.00  0.00     0.162 A 
ATOM      6  C   UNL     1     168.824 152.840 149.384  1.00  0.00     0.200 A 
ENDROOT
BRANCH   1   7
ATOM      7  C   UNL     1     166.582 149.403 148.091  1.00  0.00     0.072 C 
ATOM      8  O   UNL     1     166.873 148.812 147.018  1.00  0.00    -0.545 OA
ATOM      9  O   UNL     1     165.520 148.926 148.854  1.00  0.00    -0.545 OA
ENDBRANCH   1   7
BRANCH   4  10
ATOM     10  O   UNL     1     170.740 151.427 149.793  1.00  0.00    -0.504 OA
ATOM     11  H   UNL     1     170.975 150.975 150.669  1.00  0.00     0.293 HD
ENDBRANCH   4  10
BRANCH   5  12
ATOM     12  O   UNL     1     166.824 154.216 148.941  1.00  0.00    -0.504 OA
ATOM     13  H   UNL     1     166.580 154.741 149.769  1.00  0.00     0.293 HD
ENDBRANCH   5  12
BRANCH   6  14
ATOM     14  O   UNL     1     169.596 153.922 149.813  1.00  0.00    -0.502 OA
ATOM     15  H   UNL     1     170.351 154.326 149.277  1.00  0.00     0.293 HD
ENDBRANCH   6  14
TORSDOF 4
ENDMDL
MODEL 8
REMARK VINA RESULT:    -4.928     10.653     11.003
REMARK INTER + INTRA:          -5.697
REMARK INTER:                  -5.647
REMARK INTRA:                  -0.050
REMARK UNBOUND:                -0.049
REMARK SMILES O=C([O-])c1cc(O)c(O)c(O)c1
REMARK SMILES IDX 4 1 5 2 12 3 6 4 10 5 8 6 2 7 1 8 3 9 7 10 11 12 9 14
REMARK H PARENT 7 11 11 13 9 15
REMARK Flexibility Score: inf
ROOT
ATOM      1  C   UNL     1     172.866 146.128 156.951  1.00  0.00     0.005 A 
ATOM      2  C   UNL     1     172.937 147.426 157.481  1.00  0.00     0.060 A 
ATOM      3  C   UNL     1     171.852 145.266 157.398  1.00  0.00     0.060 A 
ATOM      4  C   UNL     1     172.011 147.856 158.439  1.00  0.00     0.162 A 
ATOM      5  C   UNL     1     170.921 145.682 158.356  1.00  0.00     0.162 A 
ATOM      6  C   UNL     1     171.000 146.993 158.884  1.00  0.00     0.200 A 
ENDROOT
BRANCH   1   7
ATOM      7  C   UNL     1     173.843 145.672 155.938  1.00  0.00     0.072 C 
ATOM      8  O   UNL     1     175.020 146.120 155.933  1.00  0.00    -0.545 OA
ATOM      9  O   UNL     1     173.475 144.739 154.974  1.00  0.00    -0.545 OA
ENDBRANCH   1   7
BRANCH   4  10
ATOM     10  O   UNL     1     172.090 149.147 158.960  1.00  0.00    -0.504 OA
ATOM     11  H   UNL     1     172.107 149.962 158.358  1.00  0.00     0.293 HD
ENDBRANCH   4  10
BRANCH   5  12
ATOM     12  O   UNL     1     169.942 144.768 158.751  1.00  0.00    -0.504 OA
ATOM     13  H   UNL     1     168.983 145.015 158.946  1.00  0.00     0.293 HD
ENDBRANCH   5  12
BRANCH   6  14
ATOM     14  O   UNL     1     170.103 147.472 159.842  1.00  0.00    -0.502 OA
ATOM     15  H   UNL     1     169.570 146.881 160.464  1.00  0.00     0.293 HD
ENDBRANCH   6  14
TORSDOF 4
ENDMDL
MODEL 9
REMARK VINA RESULT:    -4.831      1.800      4.073
REMARK INTER + INTRA:          -5.585
REMARK INTER:                  -5.533
REMARK INTRA:                  -0.053
REMARK UNBOUND:                -0.049
REMARK SMILES O=C([O-])c1cc(O)c(O)c(O)c1
REMARK SMILES IDX 4 1 5 2 12 3 6 4 10 5 8 6 2 7 1 8 3 9 7 10 11 12 9 14
REMARK H PARENT 7 11 11 13 9 15
REMARK Flexibility Score: inf
ROOT
ATOM      1  C   UNL     1     167.812 151.714 147.529  1.00  0.00     0.005 A 
ATOM      2  C   UNL     1     168.781 150.722 147.747  1.00  0.00     0.060 A 
ATOM      3  C   UNL     1     167.872 152.900 148.278  1.00  0.00     0.060 A 
ATOM      4  C   UNL     1     169.793 150.912 148.697  1.00  0.00     0.162 A 
ATOM      5  C   UNL     1     168.877 153.102 149.231  1.00  0.00     0.162 A 
ATOM      6  C   UNL     1     169.850 152.096 149.444  1.00  0.00     0.200 A 
ENDROOT
BRANCH   1   7
ATOM      7  C   UNL     1     166.743 151.516 146.526  1.00  0.00     0.072 C 
ATOM      8  O   UNL     1     166.664 150.441 145.875  1.00  0.00    -0.545 OA
ATOM      9  O   UNL     1     165.807 152.517 146.286  1.00  0.00    -0.545 OA
ENDBRANCH   1   7
BRANCH   4  10
ATOM     10  O   UNL     1     170.750 149.920 148.908  1.00  0.00    -0.504 OA
ATOM     11  H   UNL     1     170.661 148.999 148.495  1.00  0.00     0.293 HD
ENDBRANCH   4  10
BRANCH   5  12
ATOM     12  O   UNL     1     168.871 154.307 149.936  1.00  0.00    -0.504 OA
ATOM     13  H   UNL     1     169.644 154.640 150.493  1.00  0.00     0.293 HD
ENDBRANCH   5  12
BRANCH   6  14
ATOM     14  O   UNL     1     170.879 152.233 150.379  1.00  0.00    -0.502 OA
ATOM     15  H   UNL     1     171.558 152.982 150.368  1.00  0.00     0.293 HD
ENDBRANCH   6  14
TORSDOF 4
ENDMDL
