MODEL 1
REMARK VINA RESULT:    -4.006      0.000      0.000
REMARK INTER + INTRA:          -9.416
REMARK INTER:                  -7.754
REMARK INTRA:                  -1.662
REMARK UNBOUND:                -1.662
REMARK SMILES CCCCCCCCCCCCCCCCCC(=O)[O-]
REMARK SMILES IDX 10 1 11 2 12 3 13 4 14 5 15 6 16 7 17 8 18 9 19 10 20 11
REMARK SMILES IDX 9 12 8 13 7 14 6 15 5 16 4 17 3 18 2 19 1 20
REMARK H PARENT
REMARK Flexibility Score: inf
ROOT
ATOM      1  C   UNL     1      42.812  28.330   2.282  1.00  0.00     0.000 C 
ENDROOT
BRANCH   1   2
ATOM      2  C   UNL     1      43.596  29.642   2.454  1.00  0.00     0.000 C 
BRANCH   2   3
ATOM      3  C   UNL     1      44.468  29.972   1.230  1.00  0.00     0.000 C 
BRANCH   3   4
ATOM      4  C   UNL     1      45.959  30.097   1.579  1.00  0.00     0.000 C 
BRANCH   4   5
ATOM      5  C   UNL     1      46.832  29.477   0.477  1.00  0.00     0.000 C 
BRANCH   5   6
ATOM      6  C   UNL     1      46.047  28.524  -0.437  1.00  0.00     0.000 C 
BRANCH   6   7
ATOM      7  C   UNL     1      46.548  28.547  -1.889  1.00  0.00     0.006 C 
BRANCH   7   8
ATOM      8  C   UNL     1      45.881  27.446  -2.717  1.00  0.00     0.053 C 
BRANCH   8   9
ATOM      9  C   UNL     1      45.465  27.974  -4.053  1.00  0.00     0.041 C 
ATOM     10  O   UNL     1      44.556  27.401  -4.708  1.00  0.00    -0.550 OA
ATOM     11  O   UNL     1      46.045  29.134  -4.553  1.00  0.00    -0.550 OA
ENDBRANCH   8   9
ENDBRANCH   7   8
ENDBRANCH   6   7
ENDBRANCH   5   6
ENDBRANCH   4   5
ENDBRANCH   3   4
ENDBRANCH   2   3
ENDBRANCH   1   2
BRANCH   1  12
ATOM     12  C   UNL     1      43.719  27.142   1.923  1.00  0.00     0.000 C 
BRANCH  12  13
ATOM     13  C   UNL     1      44.344  26.475   3.158  1.00  0.00    -0.000 C 
BRANCH  13  14
ATOM     14  C   UNL     1      45.830  26.841   3.285  1.00  0.00    -0.000 C 
BRANCH  14  15
ATOM     15  C   UNL     1      46.176  27.478   4.643  1.00  0.00    -0.000 C 
BRANCH  15  16
ATOM     16  C   UNL     1      46.763  26.509   5.689  1.00  0.00    -0.000 C 
BRANCH  16  17
ATOM     17  C   UNL     1      46.240  26.705   7.123  1.00  0.00    -0.000 C 
BRANCH  17  18
ATOM     18  C   UNL     1      46.076  28.187   7.499  1.00  0.00    -0.000 C 
BRANCH  18  19
ATOM     19  C   UNL     1      45.305  28.378   8.814  1.00  0.00    -0.003 C 
ATOM     20  C   UNL     1      45.245  27.102   9.653  1.00  0.00     0.004 C 
ENDBRANCH  18  19
ENDBRANCH  17  18
ENDBRANCH  16  17
ENDBRANCH  15  16
ENDBRANCH  14  15
ENDBRANCH  13  14
ENDBRANCH  12  13
ENDBRANCH   1  12
TORSDOF 16
ENDMDL
MODEL 2
REMARK VINA RESULT:    -3.827      4.771      9.499
REMARK INTER + INTRA:          -9.069
REMARK INTER:                  -8.066
REMARK INTRA:                  -1.003
REMARK UNBOUND:                -1.662
REMARK SMILES CCCCCCCCCCCCCCCCCC(=O)[O-]
REMARK SMILES IDX 10 1 11 2 12 3 13 4 14 5 15 6 16 7 17 8 18 9 19 10 20 11
REMARK SMILES IDX 9 12 8 13 7 14 6 15 5 16 4 17 3 18 2 19 1 20
REMARK H PARENT
REMARK Flexibility Score: inf
ROOT
ATOM      1  C   UNL     1      44.398  29.277   2.180  1.00  0.00     0.000 C 
ENDROOT
BRANCH   1   2
ATOM      2  C   UNL     1      43.553  28.003   2.005  1.00  0.00     0.000 C 
BRANCH   2   3
ATOM      3  C   UNL     1      44.078  26.826   2.844  1.00  0.00     0.000 C 
BRANCH   3   4
ATOM      4  C   UNL     1      45.584  26.925   3.129  1.00  0.00     0.000 C 
BRANCH   4   5
ATOM      5  C   UNL     1      45.918  26.344   4.512  1.00  0.00     0.000 C 
BRANCH   5   6
ATOM      6  C   UNL     1      46.266  27.429   5.543  1.00  0.00     0.000 C 
BRANCH   6   7
ATOM      7  C   UNL     1      46.414  26.869   6.966  1.00  0.00     0.006 C 
BRANCH   7   8
ATOM      8  C   UNL     1      45.873  27.858   8.003  1.00  0.00     0.053 C 
BRANCH   8   9
ATOM      9  C   UNL     1      45.692  27.182   9.325  1.00  0.00     0.041 C 
ATOM     10  O   UNL     1      45.123  26.061   9.393  1.00  0.00    -0.550 OA
ATOM     11  O   UNL     1      46.200  27.767  10.479  1.00  0.00    -0.550 OA
ENDBRANCH   8   9
ENDBRANCH   7   8
ENDBRANCH   6   7
ENDBRANCH   5   6
ENDBRANCH   4   5
ENDBRANCH   3   4
ENDBRANCH   2   3
ENDBRANCH   1   2
BRANCH   1  12
ATOM     12  C   UNL     1      44.805  29.905   0.838  1.00  0.00     0.000 C 
BRANCH  12  13
ATOM     13  C   UNL     1      46.249  29.571   0.437  1.00  0.00    -0.000 C 
BRANCH  13  14
ATOM     14  C   UNL     1      46.295  28.318  -0.450  1.00  0.00    -0.000 C 
BRANCH  14  15
ATOM     15  C   UNL     1      46.066  28.630  -1.940  1.00  0.00    -0.000 C 
BRANCH  15  16
ATOM     16  C   UNL     1      46.059  27.401  -2.872  1.00  0.00    -0.000 C 
BRANCH  16  17
ATOM     17  C   UNL     1      45.885  27.719  -4.368  1.00  0.00    -0.000 C 
BRANCH  17  18
ATOM     18  C   UNL     1      44.607  28.523  -4.660  1.00  0.00    -0.000 C 
BRANCH  18  19
ATOM     19  C   UNL     1      43.632  27.765  -5.574  1.00  0.00    -0.003 C 
ATOM     20  C   UNL     1      42.255  28.425  -5.645  1.00  0.00     0.004 C 
ENDBRANCH  18  19
ENDBRANCH  17  18
ENDBRANCH  16  17
ENDBRANCH  15  16
ENDBRANCH  14  15
ENDBRANCH  13  14
ENDBRANCH  12  13
ENDBRANCH   1  12
TORSDOF 16
ENDMDL
MODEL 3
REMARK VINA RESULT:    -3.789      1.147      1.774
REMARK INTER + INTRA:          -8.994
REMARK INTER:                  -7.757
REMARK INTRA:                  -1.237
REMARK UNBOUND:                -1.662
REMARK SMILES CCCCCCCCCCCCCCCCCC(=O)[O-]
REMARK SMILES IDX 10 1 11 2 12 3 13 4 14 5 15 6 16 7 17 8 18 9 19 10 20 11
REMARK SMILES IDX 9 12 8 13 7 14 6 15 5 16 4 17 3 18 2 19 1 20
REMARK H PARENT
REMARK Flexibility Score: inf
ROOT
ATOM      1  C   UNL     1      44.112  27.237   1.974  1.00  0.00     0.000 C 
ENDROOT
BRANCH   1   2
ATOM      2  C   UNL     1      44.056  28.770   1.853  1.00  0.00     0.000 C 
BRANCH   2   3
ATOM      3  C   UNL     1      45.178  29.333   0.964  1.00  0.00     0.000 C 
BRANCH   3   4
ATOM      4  C   UNL     1      45.870  28.249   0.123  1.00  0.00     0.000 C 
BRANCH   4   5
ATOM      5  C   UNL     1      46.217  28.781  -1.276  1.00  0.00     0.000 C 
BRANCH   5   6
ATOM      6  C   UNL     1      46.017  27.728  -2.378  1.00  0.00     0.000 C 
BRANCH   6   7
ATOM      7  C   UNL     1      45.546  28.340  -3.705  1.00  0.00     0.006 C 
BRANCH   7   8
ATOM      8  C   UNL     1      45.256  27.249  -4.740  1.00  0.00     0.053 C 
BRANCH   8   9
ATOM      9  C   UNL     1      44.186  27.695  -5.686  1.00  0.00     0.041 C 
ATOM     10  O   UNL     1      43.012  27.256  -5.569  1.00  0.00    -0.550 OA
ATOM     11  O   UNL     1      44.474  28.639  -6.665  1.00  0.00    -0.550 OA
ENDBRANCH   8   9
ENDBRANCH   7   8
ENDBRANCH   6   7
ENDBRANCH   5   6
ENDBRANCH   4   5
ENDBRANCH   3   4
ENDBRANCH   2   3
ENDBRANCH   1   2
BRANCH   1  12
ATOM     12  C   UNL     1      44.573  26.771   3.364  1.00  0.00     0.000 C 
BRANCH  12  13
ATOM     13  C   UNL     1      46.077  26.463   3.421  1.00  0.00    -0.000 C 
BRANCH  13  14
ATOM     14  C   UNL     1      46.864  27.672   3.947  1.00  0.00    -0.000 C 
BRANCH  14  15
ATOM     15  C   UNL     1      46.438  28.095   5.364  1.00  0.00    -0.000 C 
BRANCH  15  16
ATOM     16  C   UNL     1      47.028  27.243   6.506  1.00  0.00    -0.000 C 
BRANCH  16  17
ATOM     17  C   UNL     1      45.992  26.481   7.351  1.00  0.00    -0.000 C 
BRANCH  17  18
ATOM     18  C   UNL     1      46.335  26.476   8.850  1.00  0.00    -0.000 C 
BRANCH  18  19
ATOM     19  C   UNL     1      45.254  27.159   9.702  1.00  0.00    -0.003 C 
ATOM     20  C   UNL     1      45.044  28.625   9.326  1.00  0.00     0.004 C 
ENDBRANCH  18  19
ENDBRANCH  17  18
ENDBRANCH  16  17
ENDBRANCH  15  16
ENDBRANCH  14  15
ENDBRANCH  13  14
ENDBRANCH  12  13
ENDBRANCH   1  12
TORSDOF 16
ENDMDL
MODEL 4
REMARK VINA RESULT:    -3.770      1.478      2.447
REMARK INTER + INTRA:          -8.958
REMARK INTER:                  -7.951
REMARK INTRA:                  -1.007
REMARK UNBOUND:                -1.662
REMARK SMILES CCCCCCCCCCCCCCCCCC(=O)[O-]
REMARK SMILES IDX 10 1 11 2 12 3 13 4 14 5 15 6 16 7 17 8 18 9 19 10 20 11
REMARK SMILES IDX 9 12 8 13 7 14 6 15 5 16 4 17 3 18 2 19 1 20
REMARK H PARENT
REMARK Flexibility Score: inf
ROOT
ATOM      1  C   UNL     1      44.316  27.513   1.477  1.00  0.00     0.000 C 
ENDROOT
BRANCH   1   2
ATOM      2  C   UNL     1      45.212  28.693   1.063  1.00  0.00     0.000 C 
BRANCH   2   3
ATOM      3  C   UNL     1      46.310  28.280   0.068  1.00  0.00     0.000 C 
BRANCH   3   4
ATOM      4  C   UNL     1      46.163  28.966  -1.298  1.00  0.00     0.000 C 
BRANCH   4   5
ATOM      5  C   UNL     1      45.975  27.927  -2.415  1.00  0.00     0.000 C 
BRANCH   5   6
ATOM      6  C   UNL     1      45.941  28.560  -3.815  1.00  0.00     0.000 C 
BRANCH   6   7
ATOM      7  C   UNL     1      44.720  29.467  -4.026  1.00  0.00     0.006 C 
BRANCH   7   8
ATOM      8  C   UNL     1      44.159  29.310  -5.443  1.00  0.00     0.053 C 
BRANCH   8   9
ATOM      9  C   UNL     1      43.044  28.314  -5.458  1.00  0.00     0.041 C 
ATOM     10  O   UNL     1      43.294  27.080  -5.459  1.00  0.00    -0.550 OA
ATOM     11  O   UNL     1      41.724  28.748  -5.417  1.00  0.00    -0.550 OA
ENDBRANCH   8   9
ENDBRANCH   7   8
ENDBRANCH   6   7
ENDBRANCH   5   6
ENDBRANCH   4   5
ENDBRANCH   3   4
ENDBRANCH   2   3
ENDBRANCH   1   2
BRANCH   1  12
ATOM     12  C   UNL     1      44.247  27.331   3.002  1.00  0.00     0.000 C 
BRANCH  12  13
ATOM     13  C   UNL     1      44.938  26.045   3.480  1.00  0.00    -0.000 C 
BRANCH  13  14
ATOM     14  C   UNL     1      46.030  26.361   4.512  1.00  0.00    -0.000 C 
BRANCH  14  15
ATOM     15  C   UNL     1      46.236  27.872   4.723  1.00  0.00    -0.000 C 
BRANCH  15  16
ATOM     16  C   UNL     1      46.441  28.306   6.189  1.00  0.00    -0.000 C 
BRANCH  16  17
ATOM     17  C   UNL     1      46.087  27.239   7.239  1.00  0.00    -0.000 C 
BRANCH  17  18
ATOM     18  C   UNL     1      45.739  27.845   8.609  1.00  0.00    -0.000 C 
BRANCH  18  19
ATOM     19  C   UNL     1      45.236  29.293   8.500  1.00  0.00    -0.003 C 
ATOM     20  C   UNL     1      44.739  29.846   9.835  1.00  0.00     0.004 C 
ENDBRANCH  18  19
ENDBRANCH  17  18
ENDBRANCH  16  17
ENDBRANCH  15  16
ENDBRANCH  14  15
ENDBRANCH  13  14
ENDBRANCH  12  13
ENDBRANCH   1  12
TORSDOF 16
ENDMDL
MODEL 5
REMARK VINA RESULT:    -3.732      1.620      2.697
REMARK INTER + INTRA:          -8.885
REMARK INTER:                  -8.139
REMARK INTRA:                  -0.747
REMARK UNBOUND:                -1.662
REMARK SMILES CCCCCCCCCCCCCCCCCC(=O)[O-]
REMARK SMILES IDX 10 1 11 2 12 3 13 4 14 5 15 6 16 7 17 8 18 9 19 10 20 11
REMARK SMILES IDX 9 12 8 13 7 14 6 15 5 16 4 17 3 18 2 19 1 20
REMARK H PARENT
REMARK Flexibility Score: inf
ROOT
ATOM      1  C   UNL     1      44.707  28.757   1.445  1.00  0.00     0.000 C 
ENDROOT
BRANCH   1   2
ATOM      2  C   UNL     1      45.621  29.536   0.484  1.00  0.00     0.000 C 
BRANCH   2   3
ATOM      3  C   UNL     1      46.374  28.615  -0.492  1.00  0.00     0.000 C 
BRANCH   3   4
ATOM      4  C   UNL     1      46.288  29.096  -1.948  1.00  0.00     0.000 C 
BRANCH   4   5
ATOM      5  C   UNL     1      45.957  27.929  -2.891  1.00  0.00     0.000 C 
BRANCH   5   6
ATOM      6  C   UNL     1      45.246  28.386  -4.175  1.00  0.00     0.000 C 
BRANCH   6   7
ATOM      7  C   UNL     1      44.505  27.241  -4.882  1.00  0.00     0.006 C 
BRANCH   7   8
ATOM      8  C   UNL     1      44.002  27.683  -6.259  1.00  0.00     0.053 C 
BRANCH   8   9
ATOM      9  C   UNL     1      42.805  28.570  -6.120  1.00  0.00     0.041 C 
ATOM     10  O   UNL     1      42.678  29.585  -6.853  1.00  0.00    -0.550 OA
ATOM     11  O   UNL     1      41.801  28.245  -5.214  1.00  0.00    -0.550 OA
ENDBRANCH   8   9
ENDBRANCH   7   8
ENDBRANCH   6   7
ENDBRANCH   5   6
ENDBRANCH   4   5
ENDBRANCH   3   4
ENDBRANCH   2   3
ENDBRANCH   1   2
BRANCH   1  12
ATOM     12  C   UNL     1      45.420  27.562   2.100  1.00  0.00     0.000 C 
BRANCH  12  13
ATOM     13  C   UNL     1      44.499  26.753   3.025  1.00  0.00    -0.000 C 
BRANCH  13  14
ATOM     14  C   UNL     1      45.311  26.022   4.104  1.00  0.00    -0.000 C 
BRANCH  14  15
ATOM     15  C   UNL     1      46.187  26.971   4.941  1.00  0.00    -0.000 C 
BRANCH  15  16
ATOM     16  C   UNL     1      46.677  26.394   6.285  1.00  0.00    -0.000 C 
BRANCH  16  17
ATOM     17  C   UNL     1      47.021  27.444   7.357  1.00  0.00    -0.000 C 
BRANCH  17  18
ATOM     18  C   UNL     1      45.991  28.583   7.425  1.00  0.00    -0.000 C 
BRANCH  18  19
ATOM     19  C   UNL     1      45.257  28.631   8.774  1.00  0.00    -0.003 C 
ATOM     20  C   UNL     1      45.317  27.302   9.526  1.00  0.00     0.004 C 
ENDBRANCH  18  19
ENDBRANCH  17  18
ENDBRANCH  16  17
ENDBRANCH  15  16
ENDBRANCH  14  15
ENDBRANCH  13  14
ENDBRANCH  12  13
ENDBRANCH   1  12
TORSDOF 16
ENDMDL
MODEL 6
REMARK VINA RESULT:    -3.723      4.588      9.072
REMARK INTER + INTRA:          -8.867
REMARK INTER:                  -7.605
REMARK INTRA:                  -1.263
REMARK UNBOUND:                -1.662
REMARK SMILES CCCCCCCCCCCCCCCCCC(=O)[O-]
REMARK SMILES IDX 10 1 11 2 12 3 13 4 14 5 15 6 16 7 17 8 18 9 19 10 20 11
REMARK SMILES IDX 9 12 8 13 7 14 6 15 5 16 4 17 3 18 2 19 1 20
REMARK H PARENT
REMARK Flexibility Score: inf
ROOT
ATOM      1  C   UNL     1      43.133  27.878   2.261  1.00  0.00     0.000 C 
ENDROOT
BRANCH   1   2
ATOM      2  C   UNL     1      44.312  26.890   2.268  1.00  0.00     0.000 C 
BRANCH   2   3
ATOM      3  C   UNL     1      44.566  26.285   3.659  1.00  0.00     0.000 C 
BRANCH   3   4
ATOM      4  C   UNL     1      46.050  25.978   3.911  1.00  0.00     0.000 C 
BRANCH   4   5
ATOM      5  C   UNL     1      46.820  27.258   4.274  1.00  0.00     0.000 C 
BRANCH   5   6
ATOM      6  C   UNL     1      46.353  27.874   5.603  1.00  0.00     0.000 C 
BRANCH   6   7
ATOM      7  C   UNL     1      46.288  26.846   6.742  1.00  0.00     0.006 C 
BRANCH   7   8
ATOM      8  C   UNL     1      46.708  27.476   8.074  1.00  0.00     0.053 C 
BRANCH   8   9
ATOM      9  C   UNL     1      45.617  27.334   9.087  1.00  0.00     0.041 C 
ATOM     10  O   UNL     1      44.911  28.328   9.403  1.00  0.00    -0.550 OA
ATOM     11  O   UNL     1      45.343  26.091   9.644  1.00  0.00    -0.550 OA
ENDBRANCH   8   9
ENDBRANCH   7   8
ENDBRANCH   6   7
ENDBRANCH   5   6
ENDBRANCH   4   5
ENDBRANCH   3   4
ENDBRANCH   2   3
ENDBRANCH   1   2
BRANCH   1  12
ATOM     12  C   UNL     1      43.591  29.345   2.252  1.00  0.00     0.000 C 
BRANCH  12  13
ATOM     13  C   UNL     1      45.079  29.502   1.904  1.00  0.00    -0.000 C 
BRANCH  13  14
ATOM     14  C   UNL     1      45.261  29.834   0.416  1.00  0.00    -0.000 C 
BRANCH  14  15
ATOM     15  C   UNL     1      46.107  28.788  -0.332  1.00  0.00    -0.000 C 
BRANCH  15  16
ATOM     16  C   UNL     1      46.053  28.882  -1.871  1.00  0.00    -0.000 C 
BRANCH  16  17
ATOM     17  C   UNL     1      46.137  27.533  -2.608  1.00  0.00    -0.000 C 
BRANCH  17  18
ATOM     18  C   UNL     1      45.519  27.586  -4.015  1.00  0.00    -0.000 C 
BRANCH  18  19
ATOM     19  C   UNL     1      44.856  28.939  -4.315  1.00  0.00    -0.003 C 
ATOM     20  C   UNL     1      43.919  28.882  -5.522  1.00  0.00     0.004 C 
ENDBRANCH  18  19
ENDBRANCH  17  18
ENDBRANCH  16  17
ENDBRANCH  15  16
ENDBRANCH  14  15
ENDBRANCH  13  14
ENDBRANCH  12  13
ENDBRANCH   1  12
TORSDOF 16
ENDMDL
MODEL 7
REMARK VINA RESULT:    -3.032      2.017      4.001
REMARK INTER + INTRA:          -7.531
REMARK INTER:                  -6.557
REMARK INTRA:                  -0.973
REMARK UNBOUND:                -1.662
REMARK SMILES CCCCCCCCCCCCCCCCCC(=O)[O-]
REMARK SMILES IDX 10 1 11 2 12 3 13 4 14 5 15 6 16 7 17 8 18 9 19 10 20 11
REMARK SMILES IDX 9 12 8 13 7 14 6 15 5 16 4 17 3 18 2 19 1 20
REMARK H PARENT
REMARK Flexibility Score: inf
ROOT
ATOM      1  C   UNL     1      45.380  29.288   0.748  1.00  0.00     0.000 C 
ENDROOT
BRANCH   1   2
ATOM      2  C   UNL     1      45.971  29.741  -0.599  1.00  0.00     0.000 C 
BRANCH   2   3
ATOM      3  C   UNL     1      47.103  28.820  -1.086  1.00  0.00     0.000 C 
BRANCH   3   4
ATOM      4  C   UNL     1      46.691  27.959  -2.290  1.00  0.00     0.000 C 
BRANCH   4   5
ATOM      5  C   UNL     1      45.853  28.776  -3.286  1.00  0.00     0.000 C 
BRANCH   5   6
ATOM      6  C   UNL     1      46.283  28.555  -4.745  1.00  0.00     0.000 C 
BRANCH   6   7
ATOM      7  C   UNL     1      45.255  29.087  -5.754  1.00  0.00     0.006 C 
BRANCH   7   8
ATOM      8  C   UNL     1      44.074  29.747  -5.036  1.00  0.00     0.053 C 
BRANCH   8   9
ATOM      9  C   UNL     1      42.809  28.997  -5.310  1.00  0.00     0.041 C 
ATOM     10  O   UNL     1      41.707  29.604  -5.350  1.00  0.00    -0.550 OA
ATOM     11  O   UNL     1      42.853  27.633  -5.575  1.00  0.00    -0.550 OA
ENDBRANCH   8   9
ENDBRANCH   7   8
ENDBRANCH   6   7
ENDBRANCH   5   6
ENDBRANCH   4   5
ENDBRANCH   3   4
ENDBRANCH   2   3
ENDBRANCH   1   2
BRANCH   1  12
ATOM     12  C   UNL     1      44.162  30.125   1.169  1.00  0.00     0.000 C 
BRANCH  12  13
ATOM     13  C   UNL     1      43.708  29.834   2.607  1.00  0.00    -0.000 C 
BRANCH  13  14
ATOM     14  C   UNL     1      42.363  29.094   2.618  1.00  0.00    -0.000 C 
BRANCH  14  15
ATOM     15  C   UNL     1      42.519  27.566   2.528  1.00  0.00    -0.000 C 
BRANCH  15  16
ATOM     16  C   UNL     1      43.967  27.065   2.351  1.00  0.00    -0.000 C 
BRANCH  16  17
ATOM     17  C   UNL     1      44.516  26.234   3.524  1.00  0.00    -0.000 C 
BRANCH  17  18
ATOM     18  C   UNL     1      46.046  26.319   3.648  1.00  0.00    -0.000 C 
BRANCH  18  19
ATOM     19  C   UNL     1      46.541  27.761   3.844  1.00  0.00    -0.003 C 
ATOM     20  C   UNL     1      46.036  28.386   5.144  1.00  0.00     0.004 C 
ENDBRANCH  18  19
ENDBRANCH  17  18
ENDBRANCH  16  17
ENDBRANCH  15  16
ENDBRANCH  14  15
ENDBRANCH  13  14
ENDBRANCH  12  13
ENDBRANCH   1  12
TORSDOF 16
ENDMDL
MODEL 8
REMARK VINA RESULT:    -2.990      3.912      9.306
REMARK INTER + INTRA:          -7.449
REMARK INTER:                  -6.292
REMARK INTRA:                  -1.157
REMARK UNBOUND:                -1.662
REMARK SMILES CCCCCCCCCCCCCCCCCC(=O)[O-]
REMARK SMILES IDX 10 1 11 2 12 3 13 4 14 5 15 6 16 7 17 8 18 9 19 10 20 11
REMARK SMILES IDX 9 12 8 13 7 14 6 15 5 16 4 17 3 18 2 19 1 20
REMARK H PARENT
REMARK Flexibility Score: inf
ROOT
ATOM      1  C   UNL     1      46.530  29.270  -0.149  1.00  0.00     0.000 C 
ENDROOT
BRANCH   1   2
ATOM      2  C   UNL     1      45.562  28.416   0.688  1.00  0.00     0.000 C 
BRANCH   2   3
ATOM      3  C   UNL     1      45.087  29.139   1.959  1.00  0.00     0.000 C 
BRANCH   3   4
ATOM      4  C   UNL     1      44.310  28.216   2.912  1.00  0.00     0.000 C 
BRANCH   4   5
ATOM      5  C   UNL     1      44.776  26.759   2.764  1.00  0.00     0.000 C 
BRANCH   5   6
ATOM      6  C   UNL     1      46.039  26.454   3.585  1.00  0.00     0.000 C 
BRANCH   6   7
ATOM      7  C   UNL     1      45.756  26.342   5.090  1.00  0.00     0.006 C 
BRANCH   7   8
ATOM      8  C   UNL     1      46.819  27.084   5.905  1.00  0.00     0.053 C 
BRANCH   8   9
ATOM      9  C   UNL     1      46.315  28.429   6.322  1.00  0.00     0.041 C 
ATOM     10  O   UNL     1      45.783  28.585   7.452  1.00  0.00    -0.550 OA
ATOM     11  O   UNL     1      46.482  29.524   5.482  1.00  0.00    -0.550 OA
ENDBRANCH   8   9
ENDBRANCH   7   8
ENDBRANCH   6   7
ENDBRANCH   5   6
ENDBRANCH   4   5
ENDBRANCH   3   4
ENDBRANCH   2   3
ENDBRANCH   1   2
BRANCH   1  12
ATOM     12  C   UNL     1      46.984  28.560  -1.435  1.00  0.00     0.000 C 
BRANCH  12  13
ATOM     13  C   UNL     1      45.964  28.687  -2.577  1.00  0.00    -0.000 C 
BRANCH  13  14
ATOM     14  C   UNL     1      46.640  28.479  -3.940  1.00  0.00    -0.000 C 
BRANCH  14  15
ATOM     15  C   UNL     1      46.058  27.289  -4.722  1.00  0.00    -0.000 C 
BRANCH  15  16
ATOM     16  C   UNL     1      44.533  27.097  -4.584  1.00  0.00    -0.000 C 
BRANCH  16  17
ATOM     17  C   UNL     1      43.716  27.449  -5.839  1.00  0.00    -0.000 C 
BRANCH  17  18
ATOM     18  C   UNL     1      42.451  28.260  -5.517  1.00  0.00    -0.000 C 
BRANCH  18  19
ATOM     19  C   UNL     1      42.662  29.773  -5.690  1.00  0.00    -0.003 C 
ATOM     20  C   UNL     1      43.930  30.105  -6.476  1.00  0.00     0.004 C 
ENDBRANCH  18  19
ENDBRANCH  17  18
ENDBRANCH  16  17
ENDBRANCH  15  16
ENDBRANCH  14  15
ENDBRANCH  13  14
ENDBRANCH  12  13
ENDBRANCH   1  12
TORSDOF 16
ENDMDL
MODEL 9
REMARK VINA RESULT:    -2.924      5.556     10.185
REMARK INTER + INTRA:          -7.321
REMARK INTER:                  -6.466
REMARK INTRA:                  -0.855
REMARK UNBOUND:                -1.662
REMARK SMILES CCCCCCCCCCCCCCCCCC(=O)[O-]
REMARK SMILES IDX 10 1 11 2 12 3 13 4 14 5 15 6 16 7 17 8 18 9 19 10 20 11
REMARK SMILES IDX 9 12 8 13 7 14 6 15 5 16 4 17 3 18 2 19 1 20
REMARK H PARENT
REMARK Flexibility Score: inf
ROOT
ATOM      1  C   UNL     1      46.840  25.841   3.909  1.00  0.00     0.000 C 
ENDROOT
BRANCH   1   2
ATOM      2  C   UNL     1      45.630  26.283   4.750  1.00  0.00     0.000 C 
BRANCH   2   3
ATOM      3  C   UNL     1      46.025  26.708   6.174  1.00  0.00     0.000 C 
BRANCH   3   4
ATOM      4  C   UNL     1      46.338  28.209   6.281  1.00  0.00     0.000 C 
BRANCH   4   5
ATOM      5  C   UNL     1      46.050  28.728   7.699  1.00  0.00     0.000 C 
BRANCH   5   6
ATOM      6  C   UNL     1      45.656  27.607   8.673  1.00  0.00     0.000 C 
BRANCH   6   7
ATOM      7  C   UNL     1      46.809  27.194   9.599  1.00  0.00     0.006 C 
BRANCH   7   8
ATOM      8  C   UNL     1      46.833  25.676   9.800  1.00  0.00     0.053 C 
BRANCH   8   9
ATOM      9  C   UNL     1      46.913  25.341  11.256  1.00  0.00     0.041 C 
ATOM     10  O   UNL     1      46.837  24.144  11.637  1.00  0.00    -0.550 OA
ATOM     11  O   UNL     1      47.123  26.349  12.189  1.00  0.00    -0.550 OA
ENDBRANCH   8   9
ENDBRANCH   7   8
ENDBRANCH   6   7
ENDBRANCH   5   6
ENDBRANCH   4   5
ENDBRANCH   3   4
ENDBRANCH   2   3
ENDBRANCH   1   2
BRANCH   1  12
ATOM     12  C   UNL     1      47.118  26.787   2.730  1.00  0.00     0.000 C 
BRANCH  12  13
ATOM     13  C   UNL     1      45.872  27.570   2.289  1.00  0.00    -0.000 C 
BRANCH  13  14
ATOM     14  C   UNL     1      46.262  28.786   1.437  1.00  0.00    -0.000 C 
BRANCH  14  15
ATOM     15  C   UNL     1      45.648  28.753   0.026  1.00  0.00    -0.000 C 
BRANCH  15  16
ATOM     16  C   UNL     1      46.590  29.206  -1.108  1.00  0.00    -0.000 C 
BRANCH  16  17
ATOM     17  C   UNL     1      45.885  29.617  -2.413  1.00  0.00    -0.000 C 
BRANCH  17  18
ATOM     18  C   UNL     1      46.402  28.844  -3.638  1.00  0.00    -0.000 C 
BRANCH  18  19
ATOM     19  C   UNL     1      45.515  27.640  -3.989  1.00  0.00    -0.003 C 
ATOM     20  C   UNL     1      45.578  27.273  -5.472  1.00  0.00     0.004 C 
ENDBRANCH  18  19
ENDBRANCH  17  18
ENDBRANCH  16  17
ENDBRANCH  15  16
ENDBRANCH  14  15
ENDBRANCH  13  14
ENDBRANCH  12  13
ENDBRANCH   1  12
TORSDOF 16
ENDMDL
