MODEL 1
REMARK VINA RESULT:    -2.724      0.000      0.000
REMARK INTER + INTRA:          -2.724
REMARK INTER:                  -2.724
REMARK INTRA:                   0.000
REMARK UNBOUND:                 0.000
REMARK SMILES CC(=O)[O-]
REMARK SMILES IDX 1 1 2 2 3 3 4 4
REMARK H PARENT
REMARK Flexibility Score: inf
ROOT
ATOM      1  C   UNL     1      26.505   8.073  32.020  1.00  0.00     0.063 C 
ATOM      2  C   UNL     1      26.880   9.494  32.278  1.00  0.00     0.038 C 
ATOM      3  O   UNL     1      27.605   9.785  33.265  1.00  0.00    -0.550 OA
ATOM      4  O   UNL     1      26.475  10.491  31.401  1.00  0.00    -0.550 OA
ENDROOT
TORSDOF 0
ENDMDL
MODEL 2
REMARK VINA RESULT:    -2.720      0.123      1.625
REMARK INTER + INTRA:          -2.720
REMARK INTER:                  -2.720
REMARK INTRA:                   0.000
REMARK UNBOUND:                 0.000
REMARK SMILES CC(=O)[O-]
REMARK SMILES IDX 1 1 2 2 3 3 4 4
REMARK H PARENT
REMARK Flexibility Score: inf
ROOT
ATOM      1  C   UNL     1      26.493   8.097  31.831  1.00  0.00     0.063 C 
ATOM      2  C   UNL     1      26.853   9.511  32.140  1.00  0.00     0.038 C 
ATOM      3  O   UNL     1      26.446  10.443  31.398  1.00  0.00    -0.550 OA
ATOM      4  O   UNL     1      27.593   9.808  33.277  1.00  0.00    -0.550 OA
ENDROOT
TORSDOF 0
ENDMDL
MODEL 3
REMARK VINA RESULT:    -2.695      2.212      2.756
REMARK INTER + INTRA:          -2.695
REMARK INTER:                  -2.695
REMARK INTRA:                   0.000
REMARK UNBOUND:                 0.000
REMARK SMILES CC(=O)[O-]
REMARK SMILES IDX 1 1 2 2 3 3 4 4
REMARK H PARENT
REMARK Flexibility Score: inf
ROOT
ATOM      1  C   UNL     1      26.450   8.472  32.184  1.00  0.00     0.063 C 
ATOM      2  C   UNL     1      27.474   7.572  32.790  1.00  0.00     0.038 C 
ATOM      3  O   UNL     1      27.214   6.354  32.972  1.00  0.00    -0.550 OA
ATOM      4  O   UNL     1      28.734   8.065  33.103  1.00  0.00    -0.550 OA
ENDROOT
TORSDOF 0
ENDMDL
MODEL 4
REMARK VINA RESULT:    -2.605      1.465      2.103
REMARK INTER + INTRA:          -2.605
REMARK INTER:                  -2.605
REMARK INTRA:                   0.000
REMARK UNBOUND:                 0.000
REMARK SMILES CC(=O)[O-]
REMARK SMILES IDX 1 1 2 2 3 3 4 4
REMARK H PARENT
REMARK Flexibility Score: inf
ROOT
ATOM      1  C   UNL     1      27.264   6.793  32.824  1.00  0.00     0.063 C 
ATOM      2  C   UNL     1      27.053   8.270  32.847  1.00  0.00     0.038 C 
ATOM      3  O   UNL     1      26.020   8.767  32.328  1.00  0.00    -0.550 OA
ATOM      4  O   UNL     1      27.968   9.094  33.489  1.00  0.00    -0.550 OA
ENDROOT
TORSDOF 0
ENDMDL
MODEL 5
REMARK VINA RESULT:    -2.473      2.225      2.914
REMARK INTER + INTRA:          -2.473
REMARK INTER:                  -2.473
REMARK INTRA:                   0.000
REMARK UNBOUND:                 0.000
REMARK SMILES CC(=O)[O-]
REMARK SMILES IDX 1 1 2 2 3 3 4 4
REMARK H PARENT
REMARK Flexibility Score: inf
ROOT
ATOM      1  C   UNL     1      27.592   8.975  33.108  1.00  0.00     0.063 C 
ATOM      2  C   UNL     1      26.979   7.767  32.486  1.00  0.00     0.038 C 
ATOM      3  O   UNL     1      26.316   7.873  31.421  1.00  0.00    -0.550 OA
ATOM      4  O   UNL     1      27.184   6.514  33.049  1.00  0.00    -0.550 OA
ENDROOT
TORSDOF 0
ENDMDL
MODEL 6
REMARK VINA RESULT:    -2.286      4.787      5.283
REMARK INTER + INTRA:          -2.286
REMARK INTER:                  -2.286
REMARK INTRA:                   0.000
REMARK UNBOUND:                 0.000
REMARK SMILES CC(=O)[O-]
REMARK SMILES IDX 1 1 2 2 3 3 4 4
REMARK H PARENT
REMARK Flexibility Score: inf
ROOT
ATOM      1  C   UNL     1      27.636   5.846  32.529  1.00  0.00     0.063 C 
ATOM      2  C   UNL     1      28.463   4.830  31.815  1.00  0.00     0.038 C 
ATOM      3  O   UNL     1      27.918   3.813  31.312  1.00  0.00    -0.550 OA
ATOM      4  O   UNL     1      29.827   5.032  31.654  1.00  0.00    -0.550 OA
ENDROOT
TORSDOF 0
ENDMDL
MODEL 7
REMARK VINA RESULT:    -2.255      4.894      5.355
REMARK INTER + INTRA:          -2.255
REMARK INTER:                  -2.255
REMARK INTRA:                   0.000
REMARK UNBOUND:                 0.000
REMARK SMILES CC(=O)[O-]
REMARK SMILES IDX 1 1 2 2 3 3 4 4
REMARK H PARENT
REMARK Flexibility Score: inf
ROOT
ATOM      1  C   UNL     1      27.554  12.864  35.786  1.00  0.00     0.063 C 
ATOM      2  C   UNL     1      28.485  11.893  36.432  1.00  0.00     0.038 C 
ATOM      3  O   UNL     1      29.101  12.214  37.482  1.00  0.00    -0.550 OA
ATOM      4  O   UNL     1      28.632  10.616  35.907  1.00  0.00    -0.550 OA
ENDROOT
TORSDOF 0
ENDMDL
MODEL 8
REMARK VINA RESULT:    -2.203      5.839      6.155
REMARK INTER + INTRA:          -2.203
REMARK INTER:                  -2.203
REMARK INTRA:                   0.000
REMARK UNBOUND:                 0.000
REMARK SMILES CC(=O)[O-]
REMARK SMILES IDX 1 1 2 2 3 3 4 4
REMARK H PARENT
REMARK Flexibility Score: inf
ROOT
ATOM      1  C   UNL     1      30.393   8.961  35.171  1.00  0.00     0.063 C 
ATOM      2  C   UNL     1      31.831   8.927  35.565  1.00  0.00     0.038 C 
ATOM      3  O   UNL     1      32.526   7.905  35.329  1.00  0.00    -0.550 OA
ATOM      4  O   UNL     1      32.420  10.044  36.143  1.00  0.00    -0.550 OA
ENDROOT
TORSDOF 0
ENDMDL
MODEL 9
REMARK VINA RESULT:    -2.183      4.751      5.391
REMARK INTER + INTRA:          -2.183
REMARK INTER:                  -2.183
REMARK INTRA:                   0.000
REMARK UNBOUND:                 0.000
REMARK SMILES CC(=O)[O-]
REMARK SMILES IDX 1 1 2 2 3 3 4 4
REMARK H PARENT
REMARK Flexibility Score: inf
ROOT
ATOM      1  C   UNL     1      29.117  12.432  37.414  1.00  0.00     0.063 C 
ATOM      2  C   UNL     1      28.419  11.791  36.262  1.00  0.00     0.038 C 
ATOM      3  O   UNL     1      27.584  12.446  35.586  1.00  0.00    -0.550 OA
ATOM      4  O   UNL     1      28.729  10.486  35.900  1.00  0.00    -0.550 OA
ENDROOT
TORSDOF 0
ENDMDL
