MODEL 1
REMARK VINA RESULT:    -2.244      0.000      0.000
REMARK INTER + INTRA:          -2.723
REMARK INTER:                  -2.506
REMARK INTRA:                  -0.217
REMARK UNBOUND:                -0.217
REMARK SMILES CC(C)c1ccc(C(=O)[O-])cc1
REMARK SMILES IDX 7 1 6 2 11 3 5 4 12 5 4 6 8 7 9 8 10 9 2 10 1 11 3 12
REMARK H PARENT
REMARK Flexibility Score: inf
ROOT
ATOM      1  C   UNL     1      -5.495  35.384  20.490  1.00  0.00    -0.003 A 
ATOM      2  C   UNL     1      -5.810  34.409  21.450  1.00  0.00     0.010 A 
ATOM      3  C   UNL     1      -5.375  36.724  20.896  1.00  0.00     0.010 A 
ATOM      4  C   UNL     1      -6.002  34.764  22.788  1.00  0.00     0.004 A 
ATOM      5  C   UNL     1      -5.566  37.081  22.234  1.00  0.00     0.004 A 
ATOM      6  C   UNL     1      -5.883  36.104  23.196  1.00  0.00    -0.045 A 
ENDROOT
BRANCH   1   7
ATOM      7  C   UNL     1      -5.293  35.002  19.075  1.00  0.00     0.071 C 
ATOM      8  O   UNL     1      -6.040  34.147  18.530  1.00  0.00    -0.545 OA
ATOM      9  O   UNL     1      -4.277  35.583  18.326  1.00  0.00    -0.545 OA
ENDBRANCH   1   7
BRANCH   6  10
ATOM     10  C   UNL     1      -6.093  36.476  24.652  1.00  0.00     0.013 C 
ATOM     11  C   UNL     1      -5.025  37.467  25.127  1.00  0.00     0.012 C 
ATOM     12  C   UNL     1      -6.124  35.228  25.542  1.00  0.00     0.012 C 
ENDBRANCH   6  10
TORSDOF 2
ENDMDL
MODEL 2
REMARK VINA RESULT:    -1.818      3.039      5.043
REMARK INTER + INTRA:          -2.247
REMARK INTER:                  -2.028
REMARK INTRA:                  -0.219
REMARK UNBOUND:                -0.217
REMARK SMILES CC(C)c1ccc(C(=O)[O-])cc1
REMARK SMILES IDX 7 1 6 2 11 3 5 4 12 5 4 6 8 7 9 8 10 9 2 10 1 11 3 12
REMARK H PARENT
REMARK Flexibility Score: inf
ROOT
ATOM      1  C   UNL     1      -5.753  36.073  23.366  1.00  0.00    -0.003 A 
ATOM      2  C   UNL     1      -6.125  34.820  22.851  1.00  0.00     0.010 A 
ATOM      3  C   UNL     1      -5.382  37.092  22.474  1.00  0.00     0.010 A 
ATOM      4  C   UNL     1      -6.125  34.590  21.472  1.00  0.00     0.004 A 
ATOM      5  C   UNL     1      -5.381  36.863  21.094  1.00  0.00     0.004 A 
ATOM      6  C   UNL     1      -5.752  35.607  20.578  1.00  0.00    -0.045 A 
ENDROOT
BRANCH   1   7
ATOM      7  C   UNL     1      -5.756  36.311  24.826  1.00  0.00     0.071 C 
ATOM      8  O   UNL     1      -6.121  35.406  25.622  1.00  0.00    -0.545 OA
ATOM      9  O   UNL     1      -5.352  37.537  25.341  1.00  0.00    -0.545 OA
ENDBRANCH   1   7
BRANCH   6  10
ATOM     10  C   UNL     1      -5.756  35.344  19.084  1.00  0.00     0.013 C 
ATOM     11  C   UNL     1      -6.111  33.884  18.782  1.00  0.00     0.012 C 
ATOM     12  C   UNL     1      -4.414  35.728  18.451  1.00  0.00     0.012 C 
ENDBRANCH   6  10
TORSDOF 2
ENDMDL
MODEL 3
REMARK VINA RESULT:    -1.768      3.067      5.233
REMARK INTER + INTRA:          -2.192
REMARK INTER:                  -1.975
REMARK INTRA:                  -0.217
REMARK UNBOUND:                -0.217
REMARK SMILES CC(C)c1ccc(C(=O)[O-])cc1
REMARK SMILES IDX 7 1 6 2 11 3 5 4 12 5 4 6 8 7 9 8 10 9 2 10 1 11 3 12
REMARK H PARENT
REMARK Flexibility Score: inf
ROOT
ATOM      1  C   UNL     1      -5.779  35.798  23.472  1.00  0.00    -0.003 A 
ATOM      2  C   UNL     1      -5.593  36.903  22.626  1.00  0.00     0.010 A 
ATOM      3  C   UNL     1      -5.993  34.533  22.900  1.00  0.00     0.010 A 
ATOM      4  C   UNL     1      -5.620  36.748  21.237  1.00  0.00     0.004 A 
ATOM      5  C   UNL     1      -6.020  34.376  21.511  1.00  0.00     0.004 A 
ATOM      6  C   UNL     1      -5.834  35.483  20.663  1.00  0.00    -0.045 A 
ENDROOT
BRANCH   1   7
ATOM      7  C   UNL     1      -5.750  35.968  24.941  1.00  0.00     0.071 C 
ATOM      8  O   UNL     1      -6.125  35.037  25.702  1.00  0.00    -0.545 OA
ATOM      9  O   UNL     1      -5.307  37.159  25.504  1.00  0.00    -0.545 OA
ENDBRANCH   1   7
BRANCH   6  10
ATOM     10  C   UNL     1      -5.860  35.329  19.154  1.00  0.00     0.013 C 
ATOM     11  C   UNL     1      -6.124  33.873  18.753  1.00  0.00     0.012 C 
ATOM     12  C   UNL     1      -4.564  35.849  18.523  1.00  0.00     0.012 C 
ENDBRANCH   6  10
TORSDOF 2
ENDMDL
MODEL 4
REMARK VINA RESULT:    -1.197      3.043      5.033
REMARK INTER + INTRA:          -1.553
REMARK INTER:                  -1.340
REMARK INTRA:                  -0.213
REMARK UNBOUND:                -0.217
REMARK SMILES CC(C)c1ccc(C(=O)[O-])cc1
REMARK SMILES IDX 7 1 6 2 11 3 5 4 12 5 4 6 8 7 9 8 10 9 2 10 1 11 3 12
REMARK H PARENT
REMARK Flexibility Score: inf
ROOT
ATOM      1  C   UNL     1      -5.462  35.786  23.338  1.00  0.00    -0.003 A 
ATOM      2  C   UNL     1      -5.010  34.542  22.869  1.00  0.00     0.010 A 
ATOM      3  C   UNL     1      -5.643  36.833  22.420  1.00  0.00     0.010 A 
ATOM      4  C   UNL     1      -4.743  34.348  21.510  1.00  0.00     0.004 A 
ATOM      5  C   UNL     1      -5.377  36.641  21.061  1.00  0.00     0.004 A 
ATOM      6  C   UNL     1      -4.922  35.395  20.590  1.00  0.00    -0.045 A 
ENDROOT
BRANCH   1   7
ATOM      7  C   UNL     1      -5.743  35.985  24.776  1.00  0.00     0.071 C 
ATOM      8  O   UNL     1      -5.641  37.127  25.297  1.00  0.00    -0.545 OA
ATOM      9  O   UNL     1      -6.125  34.913  25.575  1.00  0.00    -0.545 OA
ENDBRANCH   1   7
BRANCH   6  10
ATOM     10  C   UNL     1      -4.629  35.172  19.119  1.00  0.00     0.013 C 
ATOM     11  C   UNL     1      -4.680  36.491  18.340  1.00  0.00     0.012 C 
ATOM     12  C   UNL     1      -5.587  34.138  18.516  1.00  0.00     0.012 C 
ENDBRANCH   6  10
TORSDOF 2
ENDMDL
MODEL 5
REMARK VINA RESULT:    -1.026      3.357      5.123
REMARK INTER + INTRA:          -1.363
REMARK INTER:                  -1.148
REMARK INTRA:                  -0.216
REMARK UNBOUND:                -0.217
REMARK SMILES CC(C)c1ccc(C(=O)[O-])cc1
REMARK SMILES IDX 7 1 6 2 11 3 5 4 12 5 4 6 8 7 9 8 10 9 2 10 1 11 3 12
REMARK H PARENT
REMARK Flexibility Score: inf
ROOT
ATOM      1  C   UNL     1      -5.321  38.250  21.641  1.00  0.00    -0.003 A 
ATOM      2  C   UNL     1      -5.503  36.955  22.153  1.00  0.00     0.010 A 
ATOM      3  C   UNL     1      -4.974  38.403  20.288  1.00  0.00     0.010 A 
ATOM      4  C   UNL     1      -5.340  35.835  21.331  1.00  0.00     0.004 A 
ATOM      5  C   UNL     1      -4.811  37.285  19.465  1.00  0.00     0.004 A 
ATOM      6  C   UNL     1      -4.992  35.987  19.978  1.00  0.00    -0.045 A 
ENDROOT
BRANCH   1   7
ATOM      7  C   UNL     1      -5.494  39.430  22.515  1.00  0.00     0.071 C 
ATOM      8  O   UNL     1      -5.675  40.574  22.019  1.00  0.00    -0.545 OA
ATOM      9  O   UNL     1      -5.462  39.294  23.898  1.00  0.00    -0.545 OA
ENDBRANCH   1   7
BRANCH   6  10
ATOM     10  C   UNL     1      -4.819  34.764  19.097  1.00  0.00     0.013 C 
ATOM     11  C   UNL     1      -4.334  35.157  17.697  1.00  0.00     0.012 C 
ATOM     12  C   UNL     1      -6.115  33.948  19.024  1.00  0.00     0.012 C 
ENDBRANCH   6  10
TORSDOF 2
ENDMDL
MODEL 6
REMARK VINA RESULT:    -0.772      3.180      5.232
REMARK INTER + INTRA:          -1.079
REMARK INTER:                  -0.864
REMARK INTRA:                  -0.215
REMARK UNBOUND:                -0.217
REMARK SMILES CC(C)c1ccc(C(=O)[O-])cc1
REMARK SMILES IDX 7 1 6 2 11 3 5 4 12 5 4 6 8 7 9 8 10 9 2 10 1 11 3 12
REMARK H PARENT
REMARK Flexibility Score: inf
ROOT
ATOM      1  C   UNL     1      -5.421  37.589  21.695  1.00  0.00    -0.003 A 
ATOM      2  C   UNL     1      -5.113  37.933  20.368  1.00  0.00     0.010 A 
ATOM      3  C   UNL     1      -5.529  36.231  22.037  1.00  0.00     0.010 A 
ATOM      4  C   UNL     1      -4.918  36.940  19.403  1.00  0.00     0.004 A 
ATOM      5  C   UNL     1      -5.335  35.238  21.073  1.00  0.00     0.004 A 
ATOM      6  C   UNL     1      -5.028  35.581  19.744  1.00  0.00    -0.045 A 
ENDROOT
BRANCH   1   7
ATOM      7  C   UNL     1      -5.626  38.644  22.711  1.00  0.00     0.071 C 
ATOM      8  O   UNL     1      -5.691  38.350  23.935  1.00  0.00    -0.545 OA
ATOM      9  O   UNL     1      -5.748  39.975  22.331  1.00  0.00    -0.545 OA
ENDBRANCH   1   7
BRANCH   6  10
ATOM     10  C   UNL     1      -4.813  34.514  18.687  1.00  0.00     0.013 C 
ATOM     11  C   UNL     1      -4.186  35.110  17.421  1.00  0.00     0.012 C 
ATOM     12  C   UNL     1      -6.123  33.786  18.364  1.00  0.00     0.012 C 
ENDBRANCH   6  10
TORSDOF 2
ENDMDL
MODEL 7
REMARK VINA RESULT:     0.055      2.802      4.249
REMARK INTER + INTRA:          -0.155
REMARK INTER:                   0.066
REMARK INTRA:                  -0.221
REMARK UNBOUND:                -0.217
REMARK SMILES CC(C)c1ccc(C(=O)[O-])cc1
REMARK SMILES IDX 7 1 6 2 11 3 5 4 12 5 4 6 8 7 9 8 10 9 2 10 1 11 3 12
REMARK H PARENT
REMARK Flexibility Score: inf
ROOT
ATOM      1  C   UNL     1      -5.907  34.828  23.248  1.00  0.00    -0.003 A 
ATOM      2  C   UNL     1      -5.715  34.858  21.857  1.00  0.00     0.010 A 
ATOM      3  C   UNL     1      -6.031  36.042  23.943  1.00  0.00     0.010 A 
ATOM      4  C   UNL     1      -5.648  36.076  21.174  1.00  0.00     0.004 A 
ATOM      5  C   UNL     1      -5.964  37.261  23.262  1.00  0.00     0.004 A 
ATOM      6  C   UNL     1      -5.771  37.292  21.868  1.00  0.00    -0.045 A 
ENDROOT
BRANCH   1   7
ATOM      7  C   UNL     1      -5.977  33.536  23.964  1.00  0.00     0.071 C 
ATOM      8  O   UNL     1      -5.901  32.448  23.333  1.00  0.00    -0.545 OA
ATOM      9  O   UNL     1      -6.125  33.503  25.346  1.00  0.00    -0.545 OA
ENDBRANCH   1   7
BRANCH   6  10
ATOM     10  C   UNL     1      -5.697  38.607  21.116  1.00  0.00     0.013 C 
ATOM     11  C   UNL     1      -4.828  38.476  19.860  1.00  0.00     0.012 C 
ATOM     12  C   UNL     1      -5.191  39.735  22.022  1.00  0.00     0.012 C 
ENDBRANCH   6  10
TORSDOF 2
ENDMDL
MODEL 8
REMARK VINA RESULT:     0.600      1.388      2.593
REMARK INTER + INTRA:           0.453
REMARK INTER:                   0.674
REMARK INTRA:                  -0.221
REMARK UNBOUND:                -0.217
REMARK SMILES CC(C)c1ccc(C(=O)[O-])cc1
REMARK SMILES IDX 7 1 6 2 11 3 5 4 12 5 4 6 8 7 9 8 10 9 2 10 1 11 3 12
REMARK H PARENT
REMARK Flexibility Score: inf
ROOT
ATOM      1  C   UNL     1      -4.802  35.549  18.837  1.00  0.00    -0.003 A 
ATOM      2  C   UNL     1      -4.730  36.938  19.031  1.00  0.00     0.010 A 
ATOM      3  C   UNL     1      -5.309  34.743  19.871  1.00  0.00     0.010 A 
ATOM      4  C   UNL     1      -5.155  37.511  20.234  1.00  0.00     0.004 A 
ATOM      5  C   UNL     1      -5.734  35.315  21.074  1.00  0.00     0.004 A 
ATOM      6  C   UNL     1      -5.661  36.706  21.269  1.00  0.00    -0.045 A 
ENDROOT
BRANCH   1   7
ATOM      7  C   UNL     1      -4.351  34.948  17.563  1.00  0.00     0.071 C 
ATOM      8  O   UNL     1      -3.973  35.679  16.609  1.00  0.00    -0.545 OA
ATOM      9  O   UNL     1      -4.336  33.568  17.400  1.00  0.00    -0.545 OA
ENDBRANCH   1   7
BRANCH   6  10
ATOM     10  C   UNL     1      -6.119  37.341  22.569  1.00  0.00     0.013 C 
ATOM     11  C   UNL     1      -5.499  38.731  22.753  1.00  0.00     0.012 C 
ATOM     12  C   UNL     1      -5.808  36.435  23.766  1.00  0.00     0.012 C 
ENDBRANCH   6  10
TORSDOF 2
ENDMDL
