MODEL 1
REMARK VINA RESULT:    -4.383      0.000      0.000
REMARK INTER + INTRA:         -10.071
REMARK INTER:                  -8.227
REMARK INTRA:                  -1.844
REMARK UNBOUND:                -1.844
REMARK SMILES O=C([O-])CCCCCCCCCCCCCCC(=O)[O-]
REMARK SMILES IDX 10 1 9 2 8 3 7 4 6 5 5 6 4 7 2 8 1 9 3 10 11 11 12 12 13 13
REMARK SMILES IDX 14 14 15 15 16 16 17 17 18 18 19 19 20 20
REMARK H PARENT
REMARK Flexibility Score: inf
ROOT
ATOM      1  C   UNL     1     175.046 171.174 150.122  1.00  0.00     0.000 C 
ENDROOT
BRANCH   1   2
ATOM      2  C   UNL     1     175.650 169.785 150.383  1.00  0.00     0.000 C 
BRANCH   2   3
ATOM      3  C   UNL     1     174.658 168.890 151.140  1.00  0.00     0.000 C 
BRANCH   3   4
ATOM      4  C   UNL     1     174.451 167.520 150.470  1.00  0.00     0.000 C 
BRANCH   4   5
ATOM      5  C   UNL     1     174.524 167.529 148.932  1.00  0.00     0.000 C 
BRANCH   5   6
ATOM      6  C   UNL     1     173.137 167.561 148.267  1.00  0.00     0.006 C 
BRANCH   6   7
ATOM      7  C   UNL     1     172.016 167.841 149.277  1.00  0.00     0.053 C 
BRANCH   7   8
ATOM      8  C   UNL     1     170.851 166.919 149.083  1.00  0.00     0.041 C 
ATOM      9  O   UNL     1     170.617 166.007 149.919  1.00  0.00    -0.550 OA
ATOM     10  O   UNL     1     170.038 167.052 147.965  1.00  0.00    -0.550 OA
ENDBRANCH   7   8
ENDBRANCH   6   7
ENDBRANCH   5   6
ENDBRANCH   4   5
ENDBRANCH   3   4
ENDBRANCH   2   3
ENDBRANCH   1   2
BRANCH   1  11
ATOM     11  C   UNL     1     173.510 171.166 150.144  1.00  0.00     0.000 C 
BRANCH  11  12
ATOM     12  C   UNL     1     172.906 172.563 149.938  1.00  0.00     0.000 C 
BRANCH  12  13
ATOM     13  C   UNL     1     173.956 173.655 150.175  1.00  0.00     0.000 C 
BRANCH  13  14
ATOM     14  C   UNL     1     173.863 174.208 151.604  1.00  0.00     0.000 C 
BRANCH  14  15
ATOM     15  C   UNL     1     175.228 174.271 152.309  1.00  0.00     0.000 C 
BRANCH  15  16
ATOM     16  C   UNL     1     175.367 173.271 153.478  1.00  0.00     0.006 C 
BRANCH  16  17
ATOM     17  C   UNL     1     174.171 172.314 153.604  1.00  0.00     0.053 C 
BRANCH  17  18
ATOM     18  C   UNL     1     174.530 171.080 154.376  1.00  0.00     0.041 C 
ATOM     19  O   UNL     1     175.600 170.465 154.129  1.00  0.00    -0.550 OA
ATOM     20  O   UNL     1     173.692 170.625 155.386  1.00  0.00    -0.550 OA
ENDBRANCH  17  18
ENDBRANCH  16  17
ENDBRANCH  15  16
ENDBRANCH  14  15
ENDBRANCH  13  14
ENDBRANCH  12  13
ENDBRANCH  11  12
ENDBRANCH   1  11
TORSDOF 15
ENDMDL
MODEL 2
REMARK VINA RESULT:    -4.335      1.332      1.806
REMARK INTER + INTRA:          -9.980
REMARK INTER:                  -8.350
REMARK INTRA:                  -1.630
REMARK UNBOUND:                -1.844
REMARK SMILES O=C([O-])CCCCCCCCCCCCCCC(=O)[O-]
REMARK SMILES IDX 10 1 9 2 8 3 7 4 6 5 5 6 4 7 2 8 1 9 3 10 11 11 12 12 13 13
REMARK SMILES IDX 14 14 15 15 16 16 17 17 18 18 19 19 20 20
REMARK H PARENT
REMARK Flexibility Score: inf
ROOT
ATOM      1  C   UNL     1     173.585 171.025 150.560  1.00  0.00     0.000 C 
ENDROOT
BRANCH   1   2
ATOM      2  C   UNL     1     175.059 170.983 150.127  1.00  0.00     0.000 C 
BRANCH   2   3
ATOM      3  C   UNL     1     175.591 169.543 150.133  1.00  0.00     0.000 C 
BRANCH   3   4
ATOM      4  C   UNL     1     174.714 168.580 150.952  1.00  0.00     0.000 C 
BRANCH   4   5
ATOM      5  C   UNL     1     174.332 167.274 150.233  1.00  0.00     0.000 C 
BRANCH   5   6
ATOM      6  C   UNL     1     173.784 167.508 148.815  1.00  0.00     0.006 C 
BRANCH   6   7
ATOM      7  C   UNL     1     172.395 168.162 148.832  1.00  0.00     0.053 C 
BRANCH   7   8
ATOM      8  C   UNL     1     171.300 167.140 148.779  1.00  0.00     0.041 C 
ATOM      9  O   UNL     1     170.426 167.193 147.875  1.00  0.00    -0.550 OA
ATOM     10  O   UNL     1     171.233 166.143 149.744  1.00  0.00    -0.550 OA
ENDBRANCH   7   8
ENDBRANCH   6   7
ENDBRANCH   5   6
ENDBRANCH   4   5
ENDBRANCH   3   4
ENDBRANCH   2   3
ENDBRANCH   1   2
BRANCH   1  11
ATOM     11  C   UNL     1     172.758 172.037 149.751  1.00  0.00     0.000 C 
BRANCH  11  12
ATOM     12  C   UNL     1     173.311 173.466 149.848  1.00  0.00     0.000 C 
BRANCH  12  13
ATOM     13  C   UNL     1     172.520 174.293 150.869  1.00  0.00     0.000 C 
BRANCH  13  14
ATOM     14  C   UNL     1     173.189 174.248 152.250  1.00  0.00     0.000 C 
BRANCH  14  15
ATOM     15  C   UNL     1     174.718 174.115 152.168  1.00  0.00     0.000 C 
BRANCH  15  16
ATOM     16  C   UNL     1     175.357 173.535 153.450  1.00  0.00     0.006 C 
BRANCH  16  17
ATOM     17  C   UNL     1     174.377 172.709 154.297  1.00  0.00     0.053 C 
BRANCH  17  18
ATOM     18  C   UNL     1     174.163 173.322 155.648  1.00  0.00     0.041 C 
ATOM     19  O   UNL     1     174.455 172.678 156.690  1.00  0.00    -0.550 OA
ATOM     20  O   UNL     1     173.664 174.614 155.754  1.00  0.00    -0.550 OA
ENDBRANCH  17  18
ENDBRANCH  16  17
ENDBRANCH  15  16
ENDBRANCH  14  15
ENDBRANCH  13  14
ENDBRANCH  12  13
ENDBRANCH  11  12
ENDBRANCH   1  11
TORSDOF 15
ENDMDL
MODEL 3
REMARK VINA RESULT:    -4.308      2.283      6.145
REMARK INTER + INTRA:          -9.929
REMARK INTER:                  -8.265
REMARK INTRA:                  -1.665
REMARK UNBOUND:                -1.844
REMARK SMILES O=C([O-])CCCCCCCCCCCCCCC(=O)[O-]
REMARK SMILES IDX 10 1 9 2 8 3 7 4 6 5 5 6 4 7 2 8 1 9 3 10 11 11 12 12 13 13
REMARK SMILES IDX 14 14 15 15 16 16 17 17 18 18 19 19 20 20
REMARK H PARENT
REMARK Flexibility Score: inf
ROOT
ATOM      1  C   UNL     1     173.348 172.857 150.129  1.00  0.00     0.000 C 
ENDROOT
BRANCH   1   2
ATOM      2  C   UNL     1     174.628 173.603 149.721  1.00  0.00     0.000 C 
BRANCH   2   3
ATOM      3  C   UNL     1     175.147 174.472 150.876  1.00  0.00     0.000 C 
BRANCH   3   4
ATOM      4  C   UNL     1     174.571 174.062 152.244  1.00  0.00     0.000 C 
BRANCH   4   5
ATOM      5  C   UNL     1     175.610 173.901 153.368  1.00  0.00     0.000 C 
BRANCH   5   6
ATOM      6  C   UNL     1     175.295 172.728 154.312  1.00  0.00     0.006 C 
BRANCH   6   7
ATOM      7  C   UNL     1     174.469 171.634 153.621  1.00  0.00     0.053 C 
BRANCH   7   8
ATOM      8  C   UNL     1     174.719 170.285 154.224  1.00  0.00     0.041 C 
ATOM      9  O   UNL     1     175.891 169.924 154.505  1.00  0.00    -0.550 OA
ATOM     10  O   UNL     1     173.658 169.419 154.452  1.00  0.00    -0.550 OA
ENDBRANCH   7   8
ENDBRANCH   6   7
ENDBRANCH   5   6
ENDBRANCH   4   5
ENDBRANCH   3   4
ENDBRANCH   2   3
ENDBRANCH   1   2
BRANCH   1  11
ATOM     11  C   UNL     1     173.502 171.330 150.049  1.00  0.00     0.000 C 
BRANCH  11  12
ATOM     12  C   UNL     1     174.958 170.871 150.215  1.00  0.00     0.000 C 
BRANCH  12  13
ATOM     13  C   UNL     1     175.078 169.352 150.044  1.00  0.00     0.000 C 
BRANCH  13  14
ATOM     14  C   UNL     1     173.721 168.728 149.690  1.00  0.00     0.000 C 
BRANCH  14  15
ATOM     15  C   UNL     1     173.849 167.304 149.125  1.00  0.00     0.000 C 
BRANCH  15  16
ATOM     16  C   UNL     1     174.551 166.318 150.086  1.00  0.00     0.006 C 
BRANCH  16  17
ATOM     17  C   UNL     1     173.689 165.936 151.299  1.00  0.00     0.053 C 
BRANCH  17  18
ATOM     18  C   UNL     1     174.466 166.026 152.578  1.00  0.00     0.041 C 
ATOM     19  O   UNL     1     174.277 165.186 153.496  1.00  0.00    -0.550 OA
ATOM     20  O   UNL     1     175.415 167.026 152.745  1.00  0.00    -0.550 OA
ENDBRANCH  17  18
ENDBRANCH  16  17
ENDBRANCH  15  16
ENDBRANCH  14  15
ENDBRANCH  13  14
ENDBRANCH  12  13
ENDBRANCH  11  12
ENDBRANCH   1  11
TORSDOF 15
ENDMDL
MODEL 4
REMARK VINA RESULT:    -4.259      2.359      2.813
REMARK INTER + INTRA:          -9.838
REMARK INTER:                  -8.081
REMARK INTRA:                  -1.757
REMARK UNBOUND:                -1.844
REMARK SMILES O=C([O-])CCCCCCCCCCCCCCC(=O)[O-]
REMARK SMILES IDX 10 1 9 2 8 3 7 4 6 5 5 6 4 7 2 8 1 9 3 10 11 11 12 12 13 13
REMARK SMILES IDX 14 14 15 15 16 16 17 17 18 18 19 19 20 20
REMARK H PARENT
REMARK Flexibility Score: inf
ROOT
ATOM      1  C   UNL     1     173.516 171.436 150.324  1.00  0.00     0.000 C 
ENDROOT
BRANCH   1   2
ATOM      2  C   UNL     1     175.022 171.216 150.116  1.00  0.00     0.000 C 
BRANCH   2   3
ATOM      3  C   UNL     1     175.391 169.737 150.303  1.00  0.00     0.000 C 
BRANCH   3   4
ATOM      4  C   UNL     1     174.224 168.782 149.992  1.00  0.00     0.000 C 
BRANCH   4   5
ATOM      5  C   UNL     1     174.618 167.488 149.256  1.00  0.00     0.000 C 
BRANCH   5   6
ATOM      6  C   UNL     1     174.464 166.232 150.130  1.00  0.00     0.006 C 
BRANCH   6   7
ATOM      7  C   UNL     1     173.680 166.514 151.418  1.00  0.00     0.053 C 
BRANCH   7   8
ATOM      8  C   UNL     1     174.530 166.326 152.638  1.00  0.00     0.041 C 
ATOM      9  O   UNL     1     174.379 165.310 153.366  1.00  0.00    -0.550 OA
ATOM     10  O   UNL     1     175.471 167.287 152.984  1.00  0.00    -0.550 OA
ENDBRANCH   7   8
ENDBRANCH   6   7
ENDBRANCH   5   6
ENDBRANCH   4   5
ENDBRANCH   3   4
ENDBRANCH   2   3
ENDBRANCH   1   2
BRANCH   1  11
ATOM     11  C   UNL     1     173.033 172.787 149.773  1.00  0.00     0.000 C 
BRANCH  11  12
ATOM     12  C   UNL     1     173.959 173.950 150.157  1.00  0.00     0.000 C 
BRANCH  12  13
ATOM     13  C   UNL     1     173.884 174.236 151.662  1.00  0.00     0.000 C 
BRANCH  13  14
ATOM     14  C   UNL     1     175.284 174.245 152.291  1.00  0.00     0.000 C 
BRANCH  14  15
ATOM     15  C   UNL     1     175.311 173.619 153.695  1.00  0.00     0.000 C 
BRANCH  15  16
ATOM     16  C   UNL     1     174.247 172.517 153.901  1.00  0.00     0.006 C 
BRANCH  16  17
ATOM     17  C   UNL     1     174.841 171.100 153.940  1.00  0.00     0.053 C 
BRANCH  17  18
ATOM     18  C   UNL     1     175.025 170.618 155.347  1.00  0.00     0.041 C 
ATOM     19  O   UNL     1     175.312 169.413 155.573  1.00  0.00    -0.550 OA
ATOM     20  O   UNL     1     174.903 171.507 156.408  1.00  0.00    -0.550 OA
ENDBRANCH  17  18
ENDBRANCH  16  17
ENDBRANCH  15  16
ENDBRANCH  14  15
ENDBRANCH  13  14
ENDBRANCH  12  13
ENDBRANCH  11  12
ENDBRANCH   1  11
TORSDOF 15
ENDMDL
MODEL 5
REMARK VINA RESULT:    -4.257      1.061      6.901
REMARK INTER + INTRA:          -9.835
REMARK INTER:                  -8.149
REMARK INTRA:                  -1.686
REMARK UNBOUND:                -1.844
REMARK SMILES O=C([O-])CCCCCCCCCCCCCCC(=O)[O-]
REMARK SMILES IDX 10 1 9 2 8 3 7 4 6 5 5 6 4 7 2 8 1 9 3 10 11 11 12 12 13 13
REMARK SMILES IDX 14 14 15 15 16 16 17 17 18 18 19 19 20 20
REMARK H PARENT
REMARK Flexibility Score: inf
ROOT
ATOM      1  C   UNL     1     172.824 171.599 149.893  1.00  0.00     0.000 C 
ENDROOT
BRANCH   1   2
ATOM      2  C   UNL     1     172.882 173.111 150.163  1.00  0.00     0.000 C 
BRANCH   2   3
ATOM      3  C   UNL     1     174.199 173.709 149.647  1.00  0.00     0.000 C 
BRANCH   3   4
ATOM      4  C   UNL     1     175.142 174.154 150.779  1.00  0.00     0.000 C 
BRANCH   4   5
ATOM      5  C   UNL     1     174.527 174.126 152.190  1.00  0.00     0.000 C 
BRANCH   5   6
ATOM      6  C   UNL     1     175.503 173.604 153.259  1.00  0.00     0.006 C 
BRANCH   6   7
ATOM      7  C   UNL     1     174.784 173.213 154.558  1.00  0.00     0.053 C 
BRANCH   7   8
ATOM      8  C   UNL     1     175.173 171.840 155.015  1.00  0.00     0.041 C 
ATOM      9  O   UNL     1     175.572 170.983 154.184  1.00  0.00    -0.550 OA
ATOM     10  O   UNL     1     175.070 171.500 156.358  1.00  0.00    -0.550 OA
ENDBRANCH   7   8
ENDBRANCH   6   7
ENDBRANCH   5   6
ENDBRANCH   4   5
ENDBRANCH   3   4
ENDBRANCH   2   3
ENDBRANCH   1   2
BRANCH   1  11
ATOM     11  C   UNL     1     173.556 170.777 150.966  1.00  0.00     0.000 C 
BRANCH  11  12
ATOM     12  C   UNL     1     174.982 170.392 150.547  1.00  0.00     0.000 C 
BRANCH  12  13
ATOM     13  C   UNL     1     175.425 169.094 151.233  1.00  0.00     0.000 C 
BRANCH  13  14
ATOM     14  C   UNL     1     174.587 167.902 150.750  1.00  0.00     0.000 C 
BRANCH  14  15
ATOM     15  C   UNL     1     174.664 167.695 149.229  1.00  0.00     0.000 C 
BRANCH  15  16
ATOM     16  C   UNL     1     173.283 167.542 148.554  1.00  0.00     0.006 C 
BRANCH  16  17
ATOM     17  C   UNL     1     172.266 166.781 149.420  1.00  0.00     0.053 C 
BRANCH  17  18
ATOM     18  C   UNL     1     170.900 167.393 149.333  1.00  0.00     0.041 C 
ATOM     19  O   UNL     1     169.929 166.720 148.899  1.00  0.00    -0.550 OA
ATOM     20  O   UNL     1     170.697 168.700 149.757  1.00  0.00    -0.550 OA
ENDBRANCH  17  18
ENDBRANCH  16  17
ENDBRANCH  15  16
ENDBRANCH  14  15
ENDBRANCH  13  14
ENDBRANCH  12  13
ENDBRANCH  11  12
ENDBRANCH   1  11
TORSDOF 15
ENDMDL
MODEL 6
REMARK VINA RESULT:    -4.214      2.781      5.244
REMARK INTER + INTRA:          -9.753
REMARK INTER:                  -7.325
REMARK INTRA:                  -2.428
REMARK UNBOUND:                -1.844
REMARK SMILES O=C([O-])CCCCCCCCCCCCCCC(=O)[O-]
REMARK SMILES IDX 10 1 9 2 8 3 7 4 6 5 5 6 4 7 2 8 1 9 3 10 11 11 12 12 13 13
REMARK SMILES IDX 14 14 15 15 16 16 17 17 18 18 19 19 20 20
REMARK H PARENT
REMARK Flexibility Score: inf
ROOT
ATOM      1  C   UNL     1     174.326 174.234 152.103  1.00  0.00     0.000 C 
ENDROOT
BRANCH   1   2
ATOM      2  C   UNL     1     175.189 173.803 153.298  1.00  0.00     0.000 C 
BRANCH   2   3
ATOM      3  C   UNL     1     175.016 172.305 153.588  1.00  0.00     0.000 C 
BRANCH   3   4
ATOM      4  C   UNL     1     173.731 171.989 154.373  1.00  0.00     0.000 C 
BRANCH   4   5
ATOM      5  C   UNL     1     172.901 170.815 153.822  1.00  0.00     0.000 C 
BRANCH   5   6
ATOM      6  C   UNL     1     171.622 171.273 153.100  1.00  0.00     0.006 C 
BRANCH   6   7
ATOM      7  C   UNL     1     171.232 172.711 153.469  1.00  0.00     0.053 C 
BRANCH   7   8
ATOM      8  C   UNL     1     169.846 172.782 154.034  1.00  0.00     0.041 C 
ATOM      9  O   UNL     1     169.015 173.609 153.575  1.00  0.00    -0.550 OA
ATOM     10  O   UNL     1     169.480 171.950 155.084  1.00  0.00    -0.550 OA
ENDBRANCH   7   8
ENDBRANCH   6   7
ENDBRANCH   5   6
ENDBRANCH   4   5
ENDBRANCH   3   4
ENDBRANCH   2   3
ENDBRANCH   1   2
BRANCH   1  11
ATOM     11  C   UNL     1     175.133 174.351 150.800  1.00  0.00     0.000 C 
BRANCH  11  12
ATOM     12  C   UNL     1     174.548 173.501 149.662  1.00  0.00     0.000 C 
BRANCH  12  13
ATOM     13  C   UNL     1     173.303 172.738 150.130  1.00  0.00     0.000 C 
BRANCH  13  14
ATOM     14  C   UNL     1     173.563 171.226 150.162  1.00  0.00     0.000 C 
BRANCH  14  15
ATOM     15  C   UNL     1     175.059 170.876 150.094  1.00  0.00     0.000 C 
BRANCH  15  16
ATOM     16  C   UNL     1     175.350 169.368 150.265  1.00  0.00     0.006 C 
BRANCH  16  17
ATOM     17  C   UNL     1     174.470 168.697 151.331  1.00  0.00     0.053 C 
BRANCH  17  18
ATOM     18  C   UNL     1     175.293 168.107 152.435  1.00  0.00     0.041 C 
ATOM     19  O   UNL     1     176.125 168.819 153.057  1.00  0.00    -0.550 OA
ATOM     20  O   UNL     1     175.123 166.775 152.793  1.00  0.00    -0.550 OA
ENDBRANCH  17  18
ENDBRANCH  16  17
ENDBRANCH  15  16
ENDBRANCH  14  15
ENDBRANCH  13  14
ENDBRANCH  12  13
ENDBRANCH  11  12
ENDBRANCH   1  11
TORSDOF 15
ENDMDL
MODEL 7
REMARK VINA RESULT:    -4.210      3.149      4.931
REMARK INTER + INTRA:          -9.745
REMARK INTER:                  -7.435
REMARK INTRA:                  -2.310
REMARK UNBOUND:                -1.844
REMARK SMILES O=C([O-])CCCCCCCCCCCCCCC(=O)[O-]
REMARK SMILES IDX 10 1 9 2 8 3 7 4 6 5 5 6 4 7 2 8 1 9 3 10 11 11 12 12 13 13
REMARK SMILES IDX 14 14 15 15 16 16 17 17 18 18 19 19 20 20
REMARK H PARENT
REMARK Flexibility Score: inf
ROOT
ATOM      1  C   UNL     1     175.034 174.178 150.749  1.00  0.00     0.000 C 
ENDROOT
BRANCH   1   2
ATOM      2  C   UNL     1     174.413 173.194 149.745  1.00  0.00     0.000 C 
BRANCH   2   3
ATOM      3  C   UNL     1     174.707 171.742 150.148  1.00  0.00     0.000 C 
BRANCH   3   4
ATOM      4  C   UNL     1     173.465 171.000 150.675  1.00  0.00     0.000 C 
BRANCH   4   5
ATOM      5  C   UNL     1     172.116 171.639 150.300  1.00  0.00     0.000 C 
BRANCH   5   6
ATOM      6  C   UNL     1     171.346 172.172 151.521  1.00  0.00     0.006 C 
BRANCH   6   7
ATOM      7  C   UNL     1     170.510 173.414 151.182  1.00  0.00     0.053 C 
BRANCH   7   8
ATOM      8  C   UNL     1     169.333 173.558 152.098  1.00  0.00     0.041 C 
ATOM      9  O   UNL     1     168.797 174.684 152.269  1.00  0.00    -0.550 OA
ATOM     10  O   UNL     1     168.844 172.452 152.780  1.00  0.00    -0.550 OA
ENDBRANCH   7   8
ENDBRANCH   6   7
ENDBRANCH   5   6
ENDBRANCH   4   5
ENDBRANCH   3   4
ENDBRANCH   2   3
ENDBRANCH   1   2
BRANCH   1  11
ATOM     11  C   UNL     1     174.247 174.257 152.066  1.00  0.00     0.000 C 
BRANCH  11  12
ATOM     12  C   UNL     1     175.119 173.964 153.296  1.00  0.00     0.000 C 
BRANCH  12  13
ATOM     13  C   UNL     1     174.925 172.521 153.777  1.00  0.00     0.000 C 
BRANCH  13  14
ATOM     14  C   UNL     1     173.619 172.375 154.569  1.00  0.00     0.000 C 
BRANCH  14  15
ATOM     15  C   UNL     1     173.160 170.913 154.698  1.00  0.00     0.000 C 
BRANCH  15  16
ATOM     16  C   UNL     1     174.296 169.888 154.484  1.00  0.00     0.006 C 
BRANCH  16  17
ATOM     17  C   UNL     1     173.889 168.710 153.585  1.00  0.00     0.053 C 
BRANCH  17  18
ATOM     18  C   UNL     1     175.071 168.126 152.872  1.00  0.00     0.041 C 
ATOM     19  O   UNL     1     175.194 166.878 152.764  1.00  0.00    -0.550 OA
ATOM     20  O   UNL     1     176.024 168.963 152.305  1.00  0.00    -0.550 OA
ENDBRANCH  17  18
ENDBRANCH  16  17
ENDBRANCH  15  16
ENDBRANCH  14  15
ENDBRANCH  13  14
ENDBRANCH  12  13
ENDBRANCH  11  12
ENDBRANCH   1  11
TORSDOF 15
ENDMDL
MODEL 8
REMARK VINA RESULT:    -4.180      2.541      4.214
REMARK INTER + INTRA:          -9.690
REMARK INTER:                  -7.641
REMARK INTRA:                  -2.049
REMARK UNBOUND:                -1.844
REMARK SMILES O=C([O-])CCCCCCCCCCCCCCC(=O)[O-]
REMARK SMILES IDX 10 1 9 2 8 3 7 4 6 5 5 6 4 7 2 8 1 9 3 10 11 11 12 12 13 13
REMARK SMILES IDX 14 14 15 15 16 16 17 17 18 18 19 19 20 20
REMARK H PARENT
REMARK Flexibility Score: inf
ROOT
ATOM      1  C   UNL     1     173.598 168.677 149.820  1.00  0.00     0.000 C 
ENDROOT
BRANCH   1   2
ATOM      2  C   UNL     1     173.652 167.231 149.302  1.00  0.00     0.000 C 
BRANCH   2   3
ATOM      3  C   UNL     1     174.594 166.376 150.161  1.00  0.00     0.000 C 
BRANCH   3   4
ATOM      4  C   UNL     1     173.901 165.774 151.397  1.00  0.00     0.000 C 
BRANCH   4   5
ATOM      5  C   UNL     1     174.550 166.131 152.747  1.00  0.00     0.000 C 
BRANCH   5   6
ATOM      6  C   UNL     1     174.120 167.512 153.272  1.00  0.00     0.006 C 
BRANCH   6   7
ATOM      7  C   UNL     1     175.322 168.421 153.564  1.00  0.00     0.053 C 
BRANCH   7   8
ATOM      8  C   UNL     1     174.892 169.767 154.063  1.00  0.00     0.041 C 
ATOM      9  O   UNL     1     175.739 170.567 154.540  1.00  0.00    -0.550 OA
ATOM     10  O   UNL     1     173.551 170.127 154.023  1.00  0.00    -0.550 OA
ENDBRANCH   7   8
ENDBRANCH   6   7
ENDBRANCH   5   6
ENDBRANCH   4   5
ENDBRANCH   3   4
ENDBRANCH   2   3
ENDBRANCH   1   2
BRANCH   1  11
ATOM     11  C   UNL     1     174.994 169.287 150.019  1.00  0.00     0.000 C 
BRANCH  11  12
ATOM     12  C   UNL     1     174.942 170.736 150.525  1.00  0.00     0.000 C 
BRANCH  12  13
ATOM     13  C   UNL     1     173.516 171.294 150.446  1.00  0.00     0.000 C 
BRANCH  13  14
ATOM     14  C   UNL     1     173.527 172.789 150.102  1.00  0.00     0.000 C 
BRANCH  14  15
ATOM     15  C   UNL     1     174.908 173.436 150.301  1.00  0.00     0.000 C 
BRANCH  15  16
ATOM     16  C   UNL     1     174.977 174.383 151.519  1.00  0.00     0.006 C 
BRANCH  16  17
ATOM     17  C   UNL     1     175.220 173.648 152.847  1.00  0.00     0.053 C 
BRANCH  17  18
ATOM     18  C   UNL     1     174.059 173.801 153.783  1.00  0.00     0.041 C 
ATOM     19  O   UNL     1     172.981 174.311 153.379  1.00  0.00    -0.550 OA
ATOM     20  O   UNL     1     174.162 173.358 155.095  1.00  0.00    -0.550 OA
ENDBRANCH  17  18
ENDBRANCH  16  17
ENDBRANCH  15  16
ENDBRANCH  14  15
ENDBRANCH  13  14
ENDBRANCH  12  13
ENDBRANCH  11  12
ENDBRANCH   1  11
TORSDOF 15
ENDMDL
MODEL 9
REMARK VINA RESULT:    -4.169      2.753      5.990
REMARK INTER + INTRA:          -9.669
REMARK INTER:                  -7.551
REMARK INTRA:                  -2.118
REMARK UNBOUND:                -1.844
REMARK SMILES O=C([O-])CCCCCCCCCCCCCCC(=O)[O-]
REMARK SMILES IDX 10 1 9 2 8 3 7 4 6 5 5 6 4 7 2 8 1 9 3 10 11 11 12 12 13 13
REMARK SMILES IDX 14 14 15 15 16 16 17 17 18 18 19 19 20 20
REMARK H PARENT
REMARK Flexibility Score: inf
ROOT
ATOM      1  C   UNL     1     174.995 173.794 150.578  1.00  0.00     0.000 C 
ENDROOT
BRANCH   1   2
ATOM      2  C   UNL     1     174.695 174.386 151.964  1.00  0.00     0.000 C 
BRANCH   2   3
ATOM      3  C   UNL     1     175.381 173.569 153.068  1.00  0.00     0.000 C 
BRANCH   3   4
ATOM      4  C   UNL     1     174.538 172.372 153.543  1.00  0.00     0.000 C 
BRANCH   4   5
ATOM      5  C   UNL     1     173.170 172.735 154.147  1.00  0.00     0.000 C 
BRANCH   5   6
ATOM      6  C   UNL     1     171.991 172.335 153.245  1.00  0.00     0.006 C 
BRANCH   6   7
ATOM      7  C   UNL     1     170.909 173.423 153.189  1.00  0.00     0.053 C 
BRANCH   7   8
ATOM      8  C   UNL     1     170.792 174.020 151.819  1.00  0.00     0.041 C 
ATOM      9  O   UNL     1     170.337 173.335 150.865  1.00  0.00    -0.550 OA
ATOM     10  O   UNL     1     171.210 175.325 151.592  1.00  0.00    -0.550 OA
ENDBRANCH   7   8
ENDBRANCH   6   7
ENDBRANCH   5   6
ENDBRANCH   4   5
ENDBRANCH   3   4
ENDBRANCH   2   3
ENDBRANCH   1   2
BRANCH   1  11
ATOM     11  C   UNL     1     173.747 173.207 149.901  1.00  0.00     0.000 C 
BRANCH  11  12
ATOM     12  C   UNL     1     173.659 171.681 150.042  1.00  0.00     0.000 C 
BRANCH  12  13
ATOM     13  C   UNL     1     175.055 171.057 150.151  1.00  0.00     0.000 C 
BRANCH  13  14
ATOM     14  C   UNL     1     174.989 169.666 150.796  1.00  0.00     0.000 C 
BRANCH  14  15
ATOM     15  C   UNL     1     173.621 168.989 150.614  1.00  0.00     0.000 C 
BRANCH  15  16
ATOM     16  C   UNL     1     173.592 167.951 149.470  1.00  0.00     0.006 C 
BRANCH  16  17
ATOM     17  C   UNL     1     174.597 166.805 149.664  1.00  0.00     0.053 C 
BRANCH  17  18
ATOM     18  C   UNL     1     174.277 165.990 150.880  1.00  0.00     0.041 C 
ATOM     19  O   UNL     1     173.314 165.179 150.866  1.00  0.00    -0.550 OA
ATOM     20  O   UNL     1     175.060 166.109 152.022  1.00  0.00    -0.550 OA
ENDBRANCH  17  18
ENDBRANCH  16  17
ENDBRANCH  15  16
ENDBRANCH  14  15
ENDBRANCH  13  14
ENDBRANCH  12  13
ENDBRANCH  11  12
ENDBRANCH   1  11
TORSDOF 15
ENDMDL
