MODEL 1
REMARK VINA RESULT:    -5.584      0.000      0.000
REMARK INTER + INTRA:          -9.872
REMARK INTER:                  -8.684
REMARK INTRA:                  -1.187
REMARK UNBOUND:                -1.187
REMARK SMILES C=C(C)[C@H]1CC=C2C(=CC[C@]3(C)[C@@H]([C@H](CCC=C(C)C)C(=O)[O-])[C@@H](O)C[C@]23C)[C@]1(C)CCC(=O)[O-]
REMARK SMILES IDX 29 1 8 2 4 3 30 4 7 5 9 6 5 7 27 8 6 9 10 10 11 11 26 12
REMARK SMILES IDX 28 13 13 14 12 15 24 16 31 17 32 18 33 19 34 20 35 21 2 22
REMARK SMILES IDX 1 23 3 24 14 25 21 26 22 27 23 28 15 29 16 30 17 31 18 32
REMARK SMILES IDX 19 33 20 34 25 35
REMARK H PARENT 25 36
REMARK Flexibility Score: inf
ROOT
ATOM      1  C   UNL     1      92.004 111.709 107.067  1.00  0.00    -0.000 C 
ATOM      2  C   UNL     1      93.545 111.870 107.046  1.00  0.00    -0.042 C 
ATOM      3  C   UNL     1      91.645 110.172 106.899  1.00  0.00     0.028 C 
ATOM      4  C   UNL     1      91.437 112.547 105.889  1.00  0.00     0.017 C 
ATOM      5  C   UNL     1      94.452 110.692 106.918  1.00  0.00    -0.042 C 
ATOM      6  C   UNL     1      94.124 113.078 107.120  1.00  0.00    -0.022 C 
ATOM      7  C   UNL     1      92.572 109.482 105.878  1.00  0.00     0.036 C 
ATOM      8  C   UNL     1      95.803 110.728 107.651  1.00  0.00     0.001 C 
ATOM      9  C   UNL     1      93.980 109.556 106.377  1.00  0.00    -0.022 C 
ATOM     10  C   UNL     1      95.593 113.219 106.880  1.00  0.00     0.035 C 
ATOM     11  C   UNL     1      96.415 112.208 107.738  1.00  0.00    -0.014 C 
ATOM     12  C   UNL     1      96.888 109.907 106.911  1.00  0.00     0.044 C 
ATOM     13  C   UNL     1      95.544 110.053 109.031  1.00  0.00     0.017 C 
ATOM     14  C   UNL     1      97.858 112.079 107.118  1.00  0.00     0.034 C 
ATOM     15  C   UNL     1      96.446 112.756 109.196  1.00  0.00     0.013 C 
ATOM     16  C   UNL     1      98.215 110.592 107.208  1.00  0.00     0.119 C 
ENDROOT
BRANCH   1  17
ATOM     17  C   UNL     1      91.483 112.233 108.458  1.00  0.00     0.018 C 
BRANCH  17  18
ATOM     18  C   UNL     1      90.839 113.637 108.486  1.00  0.00     0.053 C 
BRANCH  18  19
ATOM     19  C   UNL     1      91.551 114.574 109.418  1.00  0.00     0.041 C 
ATOM     20  O   UNL     1      91.054 115.699 109.689  1.00  0.00    -0.550 OA
ATOM     21  O   UNL     1      92.746 114.191 110.016  1.00  0.00    -0.550 OA
ENDBRANCH  18  19
ENDBRANCH  17  18
ENDBRANCH   1  17
BRANCH   3  22
ATOM     22  C   UNL     1      90.176 109.846 106.614  1.00  0.00    -0.076 C 
ATOM     23  C   UNL     1      89.859 108.734 105.927  1.00  0.00     0.008 C 
ATOM     24  C   UNL     1      89.054 110.774 107.013  1.00  0.00     0.039 C 
ENDBRANCH   3  22
BRANCH  14  25
ATOM     25  C   UNL     1      98.945 113.139 107.538  1.00  0.00     0.042 C 
BRANCH  25  26
ATOM     26  C   UNL     1     100.382 112.668 107.480  1.00  0.00     0.045 C 
ATOM     27  O   UNL     1     100.975 112.589 106.372  1.00  0.00    -0.550 OA
ATOM     28  O   UNL     1     101.057 112.276 108.630  1.00  0.00    -0.550 OA
ENDBRANCH  25  26
BRANCH  25  29
ATOM     29  C   UNL     1      98.782 114.526 106.854  1.00  0.00     0.014 C 
BRANCH  29  30
ATOM     30  C   UNL     1      98.713 115.734 107.802  1.00  0.00     0.028 C 
BRANCH  30  31
ATOM     31  C   UNL     1      98.234 116.957 107.055  1.00  0.00    -0.028 C 
ATOM     32  C   UNL     1      98.144 118.197 107.586  1.00  0.00    -0.080 C 
ATOM     33  C   UNL     1      97.691 119.328 106.698  1.00  0.00     0.039 C 
ATOM     34  C   UNL     1      98.485 118.479 109.030  1.00  0.00     0.039 C 
ENDBRANCH  30  31
ENDBRANCH  29  30
ENDBRANCH  25  29
ENDBRANCH  14  25
BRANCH  16  35
ATOM     35  O   UNL     1      98.652 110.241 108.494  1.00  0.00    -0.393 OA
ATOM     36  H   UNL     1      97.920 109.718 108.913  1.00  0.00     0.210 HD
ENDBRANCH  16  35
TORSDOF 10
ENDMDL
MODEL 2
REMARK VINA RESULT:    -4.952      3.062      5.476
REMARK INTER + INTRA:          -8.889
REMARK INTER:                  -7.341
REMARK INTRA:                  -1.548
REMARK UNBOUND:                -1.187
REMARK SMILES C=C(C)[C@H]1CC=C2C(=CC[C@]3(C)[C@@H]([C@H](CCC=C(C)C)C(=O)[O-])[C@@H](O)C[C@]23C)[C@]1(C)CCC(=O)[O-]
REMARK SMILES IDX 29 1 8 2 4 3 30 4 7 5 9 6 5 7 27 8 6 9 10 10 11 11 26 12
REMARK SMILES IDX 28 13 13 14 12 15 24 16 31 17 32 18 33 19 34 20 35 21 2 22
REMARK SMILES IDX 1 23 3 24 14 25 21 26 22 27 23 28 15 29 16 30 17 31 18 32
REMARK SMILES IDX 19 33 20 34 25 35
REMARK H PARENT 25 36
REMARK Flexibility Score: inf
ROOT
ATOM      1  C   UNL     1      93.759 110.938 107.830  1.00  0.00    -0.000 C 
ATOM      2  C   UNL     1      95.183 111.338 108.288  1.00  0.00    -0.042 C 
ATOM      3  C   UNL     1      93.403 111.730 106.502  1.00  0.00     0.028 C 
ATOM      4  C   UNL     1      92.784 111.309 108.980  1.00  0.00     0.017 C 
ATOM      5  C   UNL     1      96.014 112.300 107.506  1.00  0.00    -0.042 C 
ATOM      6  C   UNL     1      95.719 110.851 109.419  1.00  0.00    -0.022 C 
ATOM      7  C   UNL     1      93.918 113.183 106.555  1.00  0.00     0.036 C 
ATOM      8  C   UNL     1      97.536 112.092 107.474  1.00  0.00     0.001 C 
ATOM      9  C   UNL     1      95.408 113.163 106.673  1.00  0.00    -0.022 C 
ATOM     10  C   UNL     1      96.998 111.418 109.944  1.00  0.00     0.035 C 
ATOM     11  C   UNL     1      98.100 111.469 108.840  1.00  0.00    -0.014 C 
ATOM     12  C   UNL     1      98.303 113.429 107.316  1.00  0.00     0.044 C 
ATOM     13  C   UNL     1      97.810 111.226 106.208  1.00  0.00     0.017 C 
ATOM     14  C   UNL     1      99.226 112.472 109.300  1.00  0.00     0.034 C 
ATOM     15  C   UNL     1      98.640 110.020 108.658  1.00  0.00     0.013 C 
ATOM     16  C   UNL     1      99.630 113.245 108.041  1.00  0.00     0.119 C 
ENDROOT
BRANCH   1  17
ATOM     17  C   UNL     1      93.761 109.388 107.546  1.00  0.00     0.018 C 
BRANCH  17  18
ATOM     18  C   UNL     1      94.542 108.900 106.306  1.00  0.00     0.053 C 
BRANCH  18  19
ATOM     19  C   UNL     1      95.439 107.736 106.616  1.00  0.00     0.041 C 
ATOM     20  O   UNL     1      95.418 106.707 105.891  1.00  0.00    -0.550 OA
ATOM     21  O   UNL     1      96.325 107.803 107.685  1.00  0.00    -0.550 OA
ENDBRANCH  18  19
ENDBRANCH  17  18
ENDBRANCH   1  17
BRANCH   3  22
ATOM     22  C   UNL     1      91.939 111.683 106.055  1.00  0.00    -0.076 C 
ATOM     23  C   UNL     1      91.257 112.828 105.876  1.00  0.00     0.008 C 
ATOM     24  C   UNL     1      91.195 110.382 105.875  1.00  0.00     0.039 C 
ENDBRANCH   3  22
BRANCH  14  25
ATOM     25  C   UNL     1     100.363 111.929 110.246  1.00  0.00     0.042 C 
BRANCH  25  26
ATOM     26  C   UNL     1     101.777 112.069 109.723  1.00  0.00     0.045 C 
ATOM     27  O   UNL     1     102.326 113.202 109.685  1.00  0.00    -0.550 OA
ATOM     28  O   UNL     1     102.476 110.969 109.240  1.00  0.00    -0.550 OA
ENDBRANCH  25  26
BRANCH  25  29
ATOM     29  C   UNL     1     100.259 112.422 111.717  1.00  0.00     0.014 C 
BRANCH  29  30
ATOM     30  C   UNL     1      99.284 111.642 112.614  1.00  0.00     0.028 C 
BRANCH  30  31
ATOM     31  C   UNL     1      99.402 112.112 114.046  1.00  0.00    -0.028 C 
ATOM     32  C   UNL     1      99.351 111.304 115.128  1.00  0.00    -0.080 C 
ATOM     33  C   UNL     1      99.532 111.918 116.493  1.00  0.00     0.039 C 
ATOM     34  C   UNL     1      99.123 109.816 115.009  1.00  0.00     0.039 C 
ENDBRANCH  30  31
ENDBRANCH  29  30
ENDBRANCH  25  29
ENDBRANCH  14  25
BRANCH  16  35
ATOM     35  O   UNL     1     100.510 112.504 107.238  1.00  0.00    -0.393 OA
ATOM     36  H   UNL     1     100.271 112.699 106.294  1.00  0.00     0.210 HD
ENDBRANCH  16  35
TORSDOF 10
ENDMDL
MODEL 3
REMARK VINA RESULT:    -4.296      2.267      3.126
REMARK INTER + INTRA:          -7.868
REMARK INTER:                  -8.074
REMARK INTRA:                   0.206
REMARK UNBOUND:                -1.187
REMARK SMILES C=C(C)[C@H]1CC=C2C(=CC[C@]3(C)[C@@H]([C@H](CCC=C(C)C)C(=O)[O-])[C@@H](O)C[C@]23C)[C@]1(C)CCC(=O)[O-]
REMARK SMILES IDX 29 1 8 2 4 3 30 4 7 5 9 6 5 7 27 8 6 9 10 10 11 11 26 12
REMARK SMILES IDX 28 13 13 14 12 15 24 16 31 17 32 18 33 19 34 20 35 21 2 22
REMARK SMILES IDX 1 23 3 24 14 25 21 26 22 27 23 28 15 29 16 30 17 31 18 32
REMARK SMILES IDX 19 33 20 34 25 35
REMARK H PARENT 25 36
REMARK Flexibility Score: inf
ROOT
ATOM      1  C   UNL     1      92.148 112.014 107.243  1.00  0.00    -0.000 C 
ATOM      2  C   UNL     1      93.681 111.795 107.228  1.00  0.00    -0.042 C 
ATOM      3  C   UNL     1      91.427 110.630 106.953  1.00  0.00     0.028 C 
ATOM      4  C   UNL     1      91.820 113.056 106.138  1.00  0.00     0.017 C 
ATOM      5  C   UNL     1      94.276 110.446 107.001  1.00  0.00    -0.042 C 
ATOM      6  C   UNL     1      94.536 112.817 107.396  1.00  0.00    -0.022 C 
ATOM      7  C   UNL     1      92.175 109.818 105.875  1.00  0.00     0.036 C 
ATOM      8  C   UNL     1      95.583 110.094 107.729  1.00  0.00     0.001 C 
ATOM      9  C   UNL     1      93.550 109.506 106.373  1.00  0.00    -0.022 C 
ATOM     10  C   UNL     1      95.998 112.614 107.162  1.00  0.00     0.035 C 
ATOM     11  C   UNL     1      96.536 111.367 107.932  1.00  0.00    -0.014 C 
ATOM     12  C   UNL     1      96.447 109.094 106.920  1.00  0.00     0.044 C 
ATOM     13  C   UNL     1      95.147 109.395 109.051  1.00  0.00     0.017 C 
ATOM     14  C   UNL     1      97.914 110.940 107.297  1.00  0.00     0.034 C 
ATOM     15  C   UNL     1      96.677 111.775 109.429  1.00  0.00     0.013 C 
ATOM     16  C   UNL     1      97.896 109.409 107.266  1.00  0.00     0.119 C 
ENDROOT
BRANCH   1  17
ATOM     17  C   UNL     1      91.748 112.537 108.674  1.00  0.00     0.018 C 
BRANCH  17  18
ATOM     18  C   UNL     1      91.506 114.056 108.827  1.00  0.00     0.053 C 
BRANCH  18  19
ATOM     19  C   UNL     1      92.268 114.643 109.979  1.00  0.00     0.041 C 
ATOM     20  O   UNL     1      93.192 113.987 110.530  1.00  0.00    -0.550 OA
ATOM     21  O   UNL     1      91.985 115.930 110.421  1.00  0.00    -0.550 OA
ENDBRANCH  18  19
ENDBRANCH  17  18
ENDBRANCH   1  17
BRANCH   3  22
ATOM     22  C   UNL     1      89.928 110.695 106.649  1.00  0.00    -0.076 C 
ATOM     23  C   UNL     1      89.445 111.683 105.876  1.00  0.00     0.008 C 
ATOM     24  C   UNL     1      88.942 109.724 107.252  1.00  0.00     0.039 C 
ENDBRANCH   3  22
BRANCH  14  25
ATOM     25  C   UNL     1      99.219 111.667 107.796  1.00  0.00     0.042 C 
BRANCH  25  26
ATOM     26  C   UNL     1      99.731 112.784 106.912  1.00  0.00     0.045 C 
ATOM     27  O   UNL     1     100.570 112.536 106.006  1.00  0.00    -0.550 OA
ATOM     28  O   UNL     1      99.323 114.098 107.107  1.00  0.00    -0.550 OA
ENDBRANCH  25  26
BRANCH  25  29
ATOM     29  C   UNL     1      99.173 112.108 109.287  1.00  0.00     0.014 C 
BRANCH  29  30
ATOM     30  C   UNL     1     100.301 111.564 110.179  1.00  0.00     0.028 C 
BRANCH  30  31
ATOM     31  C   UNL     1     100.499 112.463 111.378  1.00  0.00    -0.028 C 
ATOM     32  C   UNL     1      99.760 112.412 112.508  1.00  0.00    -0.080 C 
ATOM     33  C   UNL     1     100.111 113.346 113.639  1.00  0.00     0.039 C 
ATOM     34  C   UNL     1      98.606 111.452 112.671  1.00  0.00     0.039 C 
ENDBRANCH  30  31
ENDBRANCH  29  30
ENDBRANCH  25  29
ENDBRANCH  14  25
BRANCH  16  35
ATOM     35  O   UNL     1      98.216 108.861 108.517  1.00  0.00    -0.393 OA
ATOM     36  H   UNL     1      97.548 109.214 109.163  1.00  0.00     0.210 HD
ENDBRANCH  16  35
TORSDOF 10
ENDMDL
