MODEL 1
REMARK VINA RESULT:    -3.754      0.000      0.000
REMARK INTER + INTRA:          -4.866
REMARK INTER:                  -4.631
REMARK INTRA:                  -0.235
REMARK UNBOUND:                -0.235
REMARK SMILES CCCCC=CC(C)=O
REMARK SMILES IDX 4 1 3 2 2 3 1 4 5 5 6 6 7 7 9 8 8 9
REMARK H PARENT
REMARK Flexibility Score: inf
ROOT
ATOM      1  C   UNL     1      20.578  25.237  28.691  1.00  0.00     0.027 C 
ENDROOT
BRANCH   1   2
ATOM      2  C   UNL     1      19.546  25.572  27.607  1.00  0.00     0.004 C 
BRANCH   2   3
ATOM      3  C   UNL     1      18.435  26.469  28.165  1.00  0.00    -0.003 C 
ATOM      4  C   UNL     1      18.601  27.911  27.693  1.00  0.00     0.004 C 
ENDBRANCH   2   3
ENDBRANCH   1   2
BRANCH   1   5
ATOM      5  C   UNL     1      21.968  25.590  28.247  1.00  0.00    -0.023 C 
ATOM      6  C   UNL     1      22.526  26.765  28.563  1.00  0.00     0.042 C 
BRANCH   6   7
ATOM      7  C   UNL     1      23.884  27.136  28.127  1.00  0.00     0.152 C 
ATOM      8  O   UNL     1      24.900  26.655  28.697  1.00  0.00    -0.295 OA
ATOM      9  C   UNL     1      24.060  28.096  26.995  1.00  0.00     0.093 C 
ENDBRANCH   6   7
ENDBRANCH   1   5
TORSDOF 4
ENDMDL
MODEL 2
REMARK VINA RESULT:    -3.665      1.416      2.205
REMARK INTER + INTRA:          -4.757
REMARK INTER:                  -4.553
REMARK INTRA:                  -0.204
REMARK UNBOUND:                -0.235
REMARK SMILES CCCCC=CC(C)=O
REMARK SMILES IDX 4 1 3 2 2 3 1 4 5 5 6 6 7 7 9 8 8 9
REMARK H PARENT
REMARK Flexibility Score: inf
ROOT
ATOM      1  C   UNL     1      20.713  27.209  28.560  1.00  0.00     0.027 C 
ENDROOT
BRANCH   1   2
ATOM      2  C   UNL     1      19.970  25.935  28.142  1.00  0.00     0.004 C 
BRANCH   2   3
ATOM      3  C   UNL     1      20.955  24.808  27.811  1.00  0.00    -0.003 C 
ATOM      4  C   UNL     1      20.684  24.228  26.426  1.00  0.00     0.004 C 
ENDBRANCH   2   3
ENDBRANCH   1   2
BRANCH   1   5
ATOM      5  C   UNL     1      22.200  26.994  28.569  1.00  0.00    -0.023 C 
ATOM      6  C   UNL     1      23.054  28.021  28.637  1.00  0.00     0.042 C 
BRANCH   6   7
ATOM      7  C   UNL     1      24.516  27.833  28.634  1.00  0.00     0.152 C 
ATOM      8  O   UNL     1      25.019  26.677  28.648  1.00  0.00    -0.295 OA
ATOM      9  C   UNL     1      25.415  29.026  28.616  1.00  0.00     0.093 C 
ENDBRANCH   6   7
ENDBRANCH   1   5
TORSDOF 4
ENDMDL
MODEL 3
REMARK VINA RESULT:    -3.634      2.997      4.319
REMARK INTER + INTRA:          -4.718
REMARK INTER:                  -4.470
REMARK INTRA:                  -0.249
REMARK UNBOUND:                -0.235
REMARK SMILES CCCCC=CC(C)=O
REMARK SMILES IDX 4 1 3 2 2 3 1 4 5 5 6 6 7 7 9 8 8 9
REMARK H PARENT
REMARK Flexibility Score: inf
ROOT
ATOM      1  C   UNL     1      19.653  26.514  28.506  1.00  0.00     0.027 C 
ENDROOT
BRANCH   1   2
ATOM      2  C   UNL     1      21.025  26.470  29.190  1.00  0.00     0.004 C 
BRANCH   2   3
ATOM      3  C   UNL     1      21.690  27.850  29.173  1.00  0.00    -0.003 C 
ATOM      4  C   UNL     1      22.851  27.891  28.183  1.00  0.00     0.004 C 
ENDBRANCH   2   3
ENDBRANCH   1   2
BRANCH   1   5
ATOM      5  C   UNL     1      19.488  25.371  27.544  1.00  0.00    -0.023 C 
ATOM      6  C   UNL     1      20.539  24.817  26.931  1.00  0.00     0.042 C 
BRANCH   6   7
ATOM      7  C   UNL     1      20.398  23.705  25.974  1.00  0.00     0.152 C 
ATOM      8  O   UNL     1      19.563  22.781  26.176  1.00  0.00    -0.295 OA
ATOM      9  C   UNL     1      21.255  23.667  24.751  1.00  0.00     0.093 C 
ENDBRANCH   6   7
ENDBRANCH   1   5
TORSDOF 4
ENDMDL
MODEL 4
REMARK VINA RESULT:    -3.627      2.625      3.888
REMARK INTER + INTRA:          -4.710
REMARK INTER:                  -4.444
REMARK INTRA:                  -0.266
REMARK UNBOUND:                -0.235
REMARK SMILES CCCCC=CC(C)=O
REMARK SMILES IDX 4 1 3 2 2 3 1 4 5 5 6 6 7 7 9 8 8 9
REMARK H PARENT
REMARK Flexibility Score: inf
ROOT
ATOM      1  C   UNL     1      17.419  26.361  27.734  1.00  0.00     0.027 C 
ENDROOT
BRANCH   1   2
ATOM      2  C   UNL     1      16.437  25.321  28.288  1.00  0.00     0.004 C 
BRANCH   2   3
ATOM      3  C   UNL     1      15.467  24.847  27.199  1.00  0.00    -0.003 C 
ATOM      4  C   UNL     1      15.958  23.557  26.547  1.00  0.00     0.004 C 
ENDBRANCH   2   3
ENDBRANCH   1   2
BRANCH   1   5
ATOM      5  C   UNL     1      18.839  25.991  28.051  1.00  0.00    -0.023 C 
ATOM      6  C   UNL     1      19.537  25.162  27.267  1.00  0.00     0.042 C 
BRANCH   6   7
ATOM      7  C   UNL     1      20.927  24.775  27.567  1.00  0.00     0.152 C 
ATOM      8  O   UNL     1      21.393  23.674  27.166  1.00  0.00    -0.295 OA
ATOM      9  C   UNL     1      21.797  25.697  28.359  1.00  0.00     0.093 C 
ENDBRANCH   6   7
ENDBRANCH   1   5
TORSDOF 4
ENDMDL
MODEL 5
REMARK VINA RESULT:    -3.596      7.287      8.290
REMARK INTER + INTRA:          -4.672
REMARK INTER:                  -4.397
REMARK INTRA:                  -0.275
REMARK UNBOUND:                -0.235
REMARK SMILES CCCCC=CC(C)=O
REMARK SMILES IDX 4 1 3 2 2 3 1 4 5 5 6 6 7 7 9 8 8 9
REMARK H PARENT
REMARK Flexibility Score: inf
ROOT
ATOM      1  C   UNL     1      15.287  20.272  28.937  1.00  0.00     0.027 C 
ENDROOT
BRANCH   1   2
ATOM      2  C   UNL     1      15.673  20.676  30.365  1.00  0.00     0.004 C 
BRANCH   2   3
ATOM      3  C   UNL     1      14.925  21.942  30.798  1.00  0.00    -0.003 C 
ATOM      4  C   UNL     1      15.863  22.925  31.495  1.00  0.00     0.004 C 
ENDBRANCH   2   3
ENDBRANCH   1   2
BRANCH   1   5
ATOM      5  C   UNL     1      15.053  21.479  28.075  1.00  0.00    -0.023 C 
ATOM      6  C   UNL     1      15.816  21.733  27.006  1.00  0.00     0.042 C 
BRANCH   6   7
ATOM      7  C   UNL     1      15.611  22.918  26.154  1.00  0.00     0.152 C 
ATOM      8  O   UNL     1      15.531  22.807  24.900  1.00  0.00    -0.295 OA
ATOM      9  C   UNL     1      15.500  24.270  26.781  1.00  0.00     0.093 C 
ENDBRANCH   6   7
ENDBRANCH   1   5
TORSDOF 4
ENDMDL
MODEL 6
REMARK VINA RESULT:    -3.585      4.042      6.062
REMARK INTER + INTRA:          -4.659
REMARK INTER:                  -4.420
REMARK INTRA:                  -0.239
REMARK UNBOUND:                -0.235
REMARK SMILES CCCCC=CC(C)=O
REMARK SMILES IDX 4 1 3 2 2 3 1 4 5 5 6 6 7 7 9 8 8 9
REMARK H PARENT
REMARK Flexibility Score: inf
ROOT
ATOM      1  C   UNL     1      18.279  31.741  29.676  1.00  0.00     0.027 C 
ENDROOT
BRANCH   1   2
ATOM      2  C   UNL     1      17.541  32.719  28.755  1.00  0.00     0.004 C 
BRANCH   2   3
ATOM      3  C   UNL     1      16.145  33.039  29.301  1.00  0.00    -0.003 C 
ATOM      4  C   UNL     1      15.520  31.817  29.969  1.00  0.00     0.004 C 
ENDBRANCH   2   3
ENDBRANCH   1   2
BRANCH   1   5
ATOM      5  C   UNL     1      18.879  30.606  28.896  1.00  0.00    -0.023 C 
ATOM      6  C   UNL     1      18.372  29.369  28.961  1.00  0.00     0.042 C 
BRANCH   6   7
ATOM      7  C   UNL     1      18.952  28.239  28.214  1.00  0.00     0.152 C 
ATOM      8  O   UNL     1      20.200  28.056  28.185  1.00  0.00    -0.295 OA
ATOM      9  C   UNL     1      18.054  27.297  27.480  1.00  0.00     0.093 C 
ENDBRANCH   6   7
ENDBRANCH   1   5
TORSDOF 4
ENDMDL
MODEL 7
REMARK VINA RESULT:    -3.484      6.558      8.181
REMARK INTER + INTRA:          -4.534
REMARK INTER:                  -4.322
REMARK INTRA:                  -0.212
REMARK UNBOUND:                -0.235
REMARK SMILES CCCCC=CC(C)=O
REMARK SMILES IDX 4 1 3 2 2 3 1 4 5 5 6 6 7 7 9 8 8 9
REMARK H PARENT
REMARK Flexibility Score: inf
ROOT
ATOM      1  C   UNL     1      15.682  32.332  30.081  1.00  0.00     0.027 C 
ENDROOT
BRANCH   1   2
ATOM      2  C   UNL     1      16.459  33.006  28.944  1.00  0.00     0.004 C 
BRANCH   2   3
ATOM      3  C   UNL     1      17.946  32.636  29.002  1.00  0.00    -0.003 C 
ATOM      4  C   UNL     1      18.795  33.828  29.437  1.00  0.00     0.004 C 
ENDBRANCH   2   3
ENDBRANCH   1   2
BRANCH   1   5
ATOM      5  C   UNL     1      15.977  30.861  30.145  1.00  0.00    -0.023 C 
ATOM      6  C   UNL     1      15.162  29.960  29.586  1.00  0.00     0.042 C 
BRANCH   6   7
ATOM      7  C   UNL     1      15.426  28.511  29.648  1.00  0.00     0.152 C 
ATOM      8  O   UNL     1      14.770  27.703  28.936  1.00  0.00    -0.295 OA
ATOM      9  C   UNL     1      16.483  27.991  30.568  1.00  0.00     0.093 C 
ENDBRANCH   6   7
ENDBRANCH   1   5
TORSDOF 4
ENDMDL
MODEL 8
REMARK VINA RESULT:    -3.473      4.775      6.485
REMARK INTER + INTRA:          -4.520
REMARK INTER:                  -4.276
REMARK INTRA:                  -0.244
REMARK UNBOUND:                -0.235
REMARK SMILES CCCCC=CC(C)=O
REMARK SMILES IDX 4 1 3 2 2 3 1 4 5 5 6 6 7 7 9 8 8 9
REMARK H PARENT
REMARK Flexibility Score: inf
ROOT
ATOM      1  C   UNL     1      18.040  28.981  29.540  1.00  0.00     0.027 C 
ENDROOT
BRANCH   1   2
ATOM      2  C   UNL     1      18.831  28.718  28.254  1.00  0.00     0.004 C 
BRANCH   2   3
ATOM      3  C   UNL     1      18.249  27.526  27.485  1.00  0.00    -0.003 C 
ATOM      4  C   UNL     1      17.121  26.862  28.270  1.00  0.00     0.004 C 
ENDBRANCH   2   3
ENDBRANCH   1   2
BRANCH   1   5
ATOM      5  C   UNL     1      17.497  30.381  29.569  1.00  0.00    -0.023 C 
ATOM      6  C   UNL     1      18.144  31.393  28.979  1.00  0.00     0.042 C 
BRANCH   6   7
ATOM      7  C   UNL     1      17.636  32.777  29.007  1.00  0.00     0.152 C 
ATOM      8  O   UNL     1      18.406  33.752  28.793  1.00  0.00    -0.295 OA
ATOM      9  C   UNL     1      16.191  33.029  29.295  1.00  0.00     0.093 C 
ENDBRANCH   6   7
ENDBRANCH   1   5
TORSDOF 4
ENDMDL
MODEL 9
REMARK VINA RESULT:    -3.437      4.294      6.042
REMARK INTER + INTRA:          -4.475
REMARK INTER:                  -4.305
REMARK INTRA:                  -0.170
REMARK UNBOUND:                -0.235
REMARK SMILES CCCCC=CC(C)=O
REMARK SMILES IDX 4 1 3 2 2 3 1 4 5 5 6 6 7 7 9 8 8 9
REMARK H PARENT
REMARK Flexibility Score: inf
ROOT
ATOM      1  C   UNL     1      19.037  30.366  28.994  1.00  0.00     0.027 C 
ENDROOT
BRANCH   1   2
ATOM      2  C   UNL     1      17.698  30.995  29.398  1.00  0.00     0.004 C 
BRANCH   2   3
ATOM      3  C   UNL     1      17.581  32.427  28.864  1.00  0.00    -0.003 C 
ATOM      4  C   UNL     1      16.244  33.053  29.253  1.00  0.00     0.004 C 
ENDBRANCH   2   3
ENDBRANCH   1   2
BRANCH   1   5
ATOM      5  C   UNL     1      18.835  29.040  28.319  1.00  0.00    -0.023 C 
ATOM      6  C   UNL     1      17.775  28.271  28.595  1.00  0.00     0.042 C 
BRANCH   6   7
ATOM      7  C   UNL     1      17.564  26.960  27.954  1.00  0.00     0.152 C 
ATOM      8  O   UNL     1      16.403  26.563  27.663  1.00  0.00    -0.295 OA
ATOM      9  C   UNL     1      18.739  26.089  27.647  1.00  0.00     0.093 C 
ENDBRANCH   6   7
ENDBRANCH   1   5
TORSDOF 4
ENDMDL
