MODEL 1
REMARK VINA RESULT:    -0.690      0.000      0.000
REMARK INTER + INTRA:          -0.921
REMARK INTER:                  -0.831
REMARK INTRA:                  -0.090
REMARK UNBOUND:                -0.090
REMARK SMILES Oc1cc(O)c2c(c1)O[C@H](c1ccc(O)c(O)c1)[C@H](O)C2
REMARK SMILES IDX 21 1 19 2 10 3 9 4 7 5 8 6 2 7 3 8 4 9 6 10 20 11 11 13
REMARK SMILES IDX 18 14 12 15 16 16 13 17 14 18 17 19 15 21 5 23 1 25
REMARK H PARENT 20 12 17 20 15 22 5 24 1 26
REMARK Flexibility Score: inf
ROOT
ATOM      1  C   UNL     1      23.941  -6.196 -19.916  1.00  0.00     0.079 C 
ATOM      2  C   UNL     1      24.270  -4.813 -19.327  1.00  0.00     0.164 C 
ATOM      3  C   UNL     1      25.796  -4.607 -19.329  1.00  0.00     0.232 C 
ATOM      4  O   UNL     1      26.429  -5.651 -18.588  1.00  0.00    -0.482 OA
ATOM      5  C   UNL     1      25.992  -6.979 -18.660  1.00  0.00     0.131 A 
ATOM      6  C   UNL     1      26.765  -7.980 -18.067  1.00  0.00     0.093 A 
ATOM      7  C   UNL     1      26.361  -9.318 -18.137  1.00  0.00     0.122 A 
ATOM      8  C   UNL     1      25.184  -9.653 -18.811  1.00  0.00     0.092 A 
ATOM      9  C   UNL     1      24.397  -8.662 -19.412  1.00  0.00     0.126 A 
ATOM     10  C   UNL     1      24.779  -7.304 -19.306  1.00  0.00     0.039 A 
ENDROOT
BRANCH   2  11
ATOM     11  O   UNL     1      23.764  -4.739 -18.017  1.00  0.00    -0.389 OA
ATOM     12  H   UNL     1      22.818  -5.034 -18.054  1.00  0.00     0.211 HD
ENDBRANCH   2  11
BRANCH   3  13
ATOM     13  C   UNL     1      26.178  -3.253 -18.773  1.00  0.00    -0.001 A 
ATOM     14  C   UNL     1      26.432  -2.186 -19.648  1.00  0.00     0.057 A 
ATOM     15  C   UNL     1      26.216  -3.023 -17.388  1.00  0.00     0.012 A 
ATOM     16  C   UNL     1      26.750  -0.913 -19.159  1.00  0.00     0.157 A 
ATOM     17  C   UNL     1      26.536  -1.758 -16.891  1.00  0.00     0.050 A 
ATOM     18  C   UNL     1      26.807  -0.697 -17.762  1.00  0.00     0.157 A 
BRANCH  16  19
ATOM     19  O   UNL     1      26.994   0.100 -20.088  1.00  0.00    -0.504 OA
ATOM     20  H   UNL     1      26.713   0.059 -21.058  1.00  0.00     0.293 HD
ENDBRANCH  16  19
BRANCH  18  21
ATOM     21  O   UNL     1      27.123   0.542 -17.201  1.00  0.00    -0.504 OA
ATOM     22  H   UNL     1      26.569   1.376 -17.330  1.00  0.00     0.293 HD
ENDBRANCH  18  21
ENDBRANCH   3  13
BRANCH   9  23
ATOM     23  O   UNL     1      23.256  -9.064 -20.110  1.00  0.00    -0.507 OA
ATOM     24  H   UNL     1      22.594  -9.737 -19.751  1.00  0.00     0.293 HD
ENDBRANCH   9  23
BRANCH   7  25
ATOM     25  O   UNL     1      27.124 -10.322 -17.546  1.00  0.00    -0.508 OA
ATOM     26  H   UNL     1      27.262 -10.362 -16.543  1.00  0.00     0.293 HD
ENDBRANCH   7  25
TORSDOF 6
ENDMDL
