MODEL 1
REMARK VINA RESULT:    -3.029      0.000      0.000
REMARK INTER + INTRA:          -3.872
REMARK INTER:                  -3.649
REMARK INTRA:                  -0.223
REMARK UNBOUND:                -0.223
REMARK SMILES OCC(O)CO
REMARK SMILES IDX 3 1 5 2 6 3 2 5 1 6 4 8
REMARK H PARENT 6 4 1 7 4 9
REMARK Flexibility Score: inf
ROOT
ATOM      1  C   UNL     1      35.909 106.897  75.807  1.00  0.00     0.165 C 
ENDROOT
BRANCH   1   2
ATOM      2  C   UNL     1      36.601 107.194  74.463  1.00  0.00     0.190 C 
BRANCH   2   3
ATOM      3  O   UNL     1      37.287 108.418  74.501  1.00  0.00    -0.394 OA
ATOM      4  H   UNL     1      38.098 108.311  73.940  1.00  0.00     0.210 HD
ENDBRANCH   2   3
ENDBRANCH   1   2
BRANCH   1   5
ATOM      5  C   UNL     1      36.657 107.511  77.006  1.00  0.00     0.190 C 
BRANCH   5   6
ATOM      6  O   UNL     1      36.238 108.830  77.236  1.00  0.00    -0.394 OA
ATOM      7  H   UNL     1      36.970 109.420  76.918  1.00  0.00     0.210 HD
ENDBRANCH   5   6
ENDBRANCH   1   5
BRANCH   1   8
ATOM      8  O   UNL     1      34.570 107.324  75.782  1.00  0.00    -0.388 OA
ATOM      9  H   UNL     1      33.997 106.542  75.997  1.00  0.00     0.211 HD
ENDBRANCH   1   8
TORSDOF 5
ENDMDL
MODEL 2
REMARK VINA RESULT:    -3.013      1.016      2.766
REMARK INTER + INTRA:          -3.853
REMARK INTER:                  -3.851
REMARK INTRA:                  -0.002
REMARK UNBOUND:                -0.223
REMARK SMILES OCC(O)CO
REMARK SMILES IDX 3 1 5 2 6 3 2 5 1 6 4 8
REMARK H PARENT 6 4 1 7 4 9
REMARK Flexibility Score: inf
ROOT
ATOM      1  C   UNL     1      35.744 107.144  76.145  1.00  0.00     0.165 C 
ENDROOT
BRANCH   1   2
ATOM      2  C   UNL     1      34.252 106.793  75.993  1.00  0.00     0.190 C 
BRANCH   2   3
ATOM      3  O   UNL     1      33.455 107.567  76.851  1.00  0.00    -0.394 OA
ATOM      4  H   UNL     1      32.671 107.010  77.097  1.00  0.00     0.210 HD
ENDBRANCH   2   3
ENDBRANCH   1   2
BRANCH   1   5
ATOM      5  C   UNL     1      36.477 107.212  74.792  1.00  0.00     0.190 C 
BRANCH   5   6
ATOM      6  O   UNL     1      37.429 108.243  74.788  1.00  0.00    -0.394 OA
ATOM      7  H   UNL     1      36.924 109.095  74.727  1.00  0.00     0.210 HD
ENDBRANCH   5   6
ENDBRANCH   1   5
BRANCH   1   8
ATOM      8  O   UNL     1      35.902 108.345  76.859  1.00  0.00    -0.388 OA
ATOM      9  H   UNL     1      35.092 108.899  76.706  1.00  0.00     0.211 HD
ENDBRANCH   1   8
TORSDOF 5
ENDMDL
MODEL 3
REMARK VINA RESULT:    -3.003      1.511      2.057
REMARK INTER + INTRA:          -3.840
REMARK INTER:                  -3.655
REMARK INTRA:                  -0.185
REMARK UNBOUND:                -0.223
REMARK SMILES OCC(O)CO
REMARK SMILES IDX 3 1 5 2 6 3 2 5 1 6 4 8
REMARK H PARENT 6 4 1 7 4 9
REMARK Flexibility Score: inf
ROOT
ATOM      1  C   UNL     1      36.056 106.789  75.032  1.00  0.00     0.165 C 
ENDROOT
BRANCH   1   2
ATOM      2  C   UNL     1      36.058 106.276  73.579  1.00  0.00     0.190 C 
BRANCH   2   3
ATOM      3  O   UNL     1      37.363 106.033  73.125  1.00  0.00    -0.394 OA
ATOM      4  H   UNL     1      37.659 105.181  73.539  1.00  0.00     0.210 HD
ENDBRANCH   2   3
ENDBRANCH   1   2
BRANCH   1   5
ATOM      5  C   UNL     1      37.012 107.980  75.240  1.00  0.00     0.190 C 
BRANCH   5   6
ATOM      6  O   UNL     1      37.321 108.593  74.016  1.00  0.00    -0.394 OA
ATOM      7  H   UNL     1      38.228 108.984  74.116  1.00  0.00     0.210 HD
ENDBRANCH   5   6
ENDBRANCH   1   5
BRANCH   1   8
ATOM      8  O   UNL     1      34.752 107.117  75.441  1.00  0.00    -0.388 OA
ATOM      9  H   UNL     1      34.554 106.604  76.267  1.00  0.00     0.211 HD
ENDBRANCH   1   8
TORSDOF 5
ENDMDL
MODEL 4
REMARK VINA RESULT:    -2.951      1.425      2.172
REMARK INTER + INTRA:          -3.778
REMARK INTER:                  -3.776
REMARK INTRA:                  -0.003
REMARK UNBOUND:                -0.223
REMARK SMILES OCC(O)CO
REMARK SMILES IDX 3 1 5 2 6 3 2 5 1 6 4 8
REMARK H PARENT 6 4 1 7 4 9
REMARK Flexibility Score: inf
ROOT
ATOM      1  C   UNL     1      36.579 107.726  74.433  1.00  0.00     0.165 C 
ENDROOT
BRANCH   1   2
ATOM      2  C   UNL     1      36.572 106.313  73.819  1.00  0.00     0.190 C 
BRANCH   2   3
ATOM      3  O   UNL     1      37.433 106.232  72.713  1.00  0.00    -0.394 OA
ATOM      4  H   UNL     1      38.284 105.837  73.039  1.00  0.00     0.210 HD
ENDBRANCH   2   3
ENDBRANCH   1   2
BRANCH   1   5
ATOM      5  C   UNL     1      36.950 107.721  75.929  1.00  0.00     0.190 C 
BRANCH   5   6
ATOM      6  O   UNL     1      35.903 108.238  76.706  1.00  0.00    -0.394 OA
ATOM      7  H   UNL     1      35.727 109.155  76.371  1.00  0.00     0.210 HD
ENDBRANCH   5   6
ENDBRANCH   1   5
BRANCH   1   8
ATOM      8  O   UNL     1      37.433 108.578  73.710  1.00  0.00    -0.388 OA
ATOM      9  H   UNL     1      37.008 108.761  72.831  1.00  0.00     0.211 HD
ENDBRANCH   1   8
TORSDOF 5
ENDMDL
MODEL 5
REMARK VINA RESULT:    -2.949      0.632      2.605
REMARK INTER + INTRA:          -3.775
REMARK INTER:                  -3.553
REMARK INTRA:                  -0.223
REMARK UNBOUND:                -0.223
REMARK SMILES OCC(O)CO
REMARK SMILES IDX 3 1 5 2 6 3 2 5 1 6 4 8
REMARK H PARENT 6 4 1 7 4 9
REMARK Flexibility Score: inf
ROOT
ATOM      1  C   UNL     1      36.849 107.205  75.571  1.00  0.00     0.165 C 
ENDROOT
BRANCH   1   2
ATOM      2  C   UNL     1      36.721 107.566  77.064  1.00  0.00     0.190 C 
BRANCH   2   3
ATOM      3  O   UNL     1      36.260 108.881  77.234  1.00  0.00    -0.394 OA
ATOM      4  H   UNL     1      35.425 108.964  76.704  1.00  0.00     0.210 HD
ENDBRANCH   2   3
ENDBRANCH   1   2
BRANCH   1   5
ATOM      5  C   UNL     1      35.509 106.760  74.953  1.00  0.00     0.190 C 
BRANCH   5   6
ATOM      6  O   UNL     1      34.426 107.248  75.700  1.00  0.00    -0.394 OA
ATOM      7  H   UNL     1      34.170 108.117  75.293  1.00  0.00     0.210 HD
ENDBRANCH   5   6
ENDBRANCH   1   5
BRANCH   1   8
ATOM      8  O   UNL     1      37.402 108.276  74.847  1.00  0.00    -0.388 OA
ATOM      9  H   UNL     1      36.658 108.873  74.572  1.00  0.00     0.211 HD
ENDBRANCH   1   8
TORSDOF 5
ENDMDL
MODEL 6
REMARK VINA RESULT:    -2.942     16.536     17.200
REMARK INTER + INTRA:          -3.767
REMARK INTER:                  -3.575
REMARK INTRA:                  -0.192
REMARK UNBOUND:                -0.223
REMARK SMILES OCC(O)CO
REMARK SMILES IDX 3 1 5 2 6 3 2 5 1 6 4 8
REMARK H PARENT 6 4 1 7 4 9
REMARK Flexibility Score: inf
ROOT
ATOM      1  C   UNL     1      48.364 102.773  64.761  1.00  0.00     0.165 C 
ENDROOT
BRANCH   1   2
ATOM      2  C   UNL     1      48.257 102.802  63.224  1.00  0.00     0.190 C 
BRANCH   2   3
ATOM      3  O   UNL     1      47.856 104.065  62.764  1.00  0.00    -0.394 OA
ATOM      4  H   UNL     1      48.578 104.398  62.170  1.00  0.00     0.210 HD
ENDBRANCH   2   3
ENDBRANCH   1   2
BRANCH   1   5
ATOM      5  C   UNL     1      49.591 103.546  65.283  1.00  0.00     0.190 C 
BRANCH   5   6
ATOM      6  O   UNL     1      49.306 104.915  65.404  1.00  0.00    -0.394 OA
ATOM      7  H   UNL     1      48.382 104.982  65.759  1.00  0.00     0.210 HD
ENDBRANCH   5   6
ENDBRANCH   1   5
BRANCH   1   8
ATOM      8  O   UNL     1      47.183 103.254  65.351  1.00  0.00    -0.388 OA
ATOM      9  H   UNL     1      46.785 103.923  64.735  1.00  0.00     0.211 HD
ENDBRANCH   1   8
TORSDOF 5
ENDMDL
MODEL 7
REMARK VINA RESULT:    -2.942      1.367      2.013
REMARK INTER + INTRA:          -3.767
REMARK INTER:                  -3.748
REMARK INTRA:                  -0.018
REMARK UNBOUND:                -0.223
REMARK SMILES OCC(O)CO
REMARK SMILES IDX 3 1 5 2 6 3 2 5 1 6 4 8
REMARK H PARENT 6 4 1 7 4 9
REMARK Flexibility Score: inf
ROOT
ATOM      1  C   UNL     1      36.190 106.548  75.064  1.00  0.00     0.165 C 
ENDROOT
BRANCH   1   2
ATOM      2  C   UNL     1      36.920 107.882  75.308  1.00  0.00     0.190 C 
BRANCH   2   3
ATOM      3  O   UNL     1      37.290 108.491  74.098  1.00  0.00    -0.394 OA
ATOM      4  H   UNL     1      36.843 107.983  73.372  1.00  0.00     0.210 HD
ENDBRANCH   2   3
ENDBRANCH   1   2
BRANCH   1   5
ATOM      5  C   UNL     1      34.680 106.638  75.360  1.00  0.00     0.190 C 
BRANCH   5   6
ATOM      6  O   UNL     1      34.430 107.504  76.435  1.00  0.00    -0.394 OA
ATOM      7  H   UNL     1      33.538 107.908  76.273  1.00  0.00     0.210 HD
ENDBRANCH   5   6
ENDBRANCH   1   5
BRANCH   1   8
ATOM      8  O   UNL     1      36.416 106.089  73.755  1.00  0.00    -0.388 OA
ATOM      9  H   UNL     1      36.621 105.119  73.803  1.00  0.00     0.211 HD
ENDBRANCH   1   8
TORSDOF 5
ENDMDL
MODEL 8
REMARK VINA RESULT:    -2.934     16.448     17.499
REMARK INTER + INTRA:          -3.758
REMARK INTER:                  -3.550
REMARK INTRA:                  -0.208
REMARK UNBOUND:                -0.223
REMARK SMILES OCC(O)CO
REMARK SMILES IDX 3 1 5 2 6 3 2 5 1 6 4 8
REMARK H PARENT 6 4 1 7 4 9
REMARK Flexibility Score: inf
ROOT
ATOM      1  C   UNL     1      49.420 103.730  64.602  1.00  0.00     0.165 C 
ENDROOT
BRANCH   1   2
ATOM      2  C   UNL     1      48.418 102.671  65.101  1.00  0.00     0.190 C 
BRANCH   2   3
ATOM      3  O   UNL     1      47.163 103.240  65.367  1.00  0.00    -0.394 OA
ATOM      4  H   UNL     1      46.692 102.623  65.986  1.00  0.00     0.210 HD
ENDBRANCH   2   3
ENDBRANCH   1   2
BRANCH   1   5
ATOM      5  C   UNL     1      49.205 104.095  63.120  1.00  0.00     0.190 C 
BRANCH   5   6
ATOM      6  O   UNL     1      47.863 103.919  62.750  1.00  0.00    -0.394 OA
ATOM      7  H   UNL     1      47.604 103.008  63.046  1.00  0.00     0.210 HD
ENDBRANCH   5   6
ENDBRANCH   1   5
BRANCH   1   8
ATOM      8  O   UNL     1      49.374 104.878  65.412  1.00  0.00    -0.388 OA
ATOM      9  H   UNL     1      49.224 105.661  64.820  1.00  0.00     0.211 HD
ENDBRANCH   1   8
TORSDOF 5
ENDMDL
MODEL 9
REMARK VINA RESULT:    -2.910      8.682      9.644
REMARK INTER + INTRA:          -3.729
REMARK INTER:                  -3.507
REMARK INTRA:                  -0.222
REMARK UNBOUND:                -0.223
REMARK SMILES OCC(O)CO
REMARK SMILES IDX 3 1 5 2 6 3 2 5 1 6 4 8
REMARK H PARENT 6 4 1 7 4 9
REMARK Flexibility Score: inf
ROOT
ATOM      1  C   UNL     1      33.337 100.462  70.598  1.00  0.00     0.165 C 
ENDROOT
BRANCH   1   2
ATOM      2  C   UNL     1      32.140 100.002  69.742  1.00  0.00     0.190 C 
BRANCH   2   3
ATOM      3  O   UNL     1      31.163  99.372  70.528  1.00  0.00    -0.394 OA
ATOM      4  H   UNL     1      30.419 100.020  70.636  1.00  0.00     0.210 HD
ENDBRANCH   2   3
ENDBRANCH   1   2
BRANCH   1   5
ATOM      5  C   UNL     1      33.035 101.744  71.397  1.00  0.00     0.190 C 
BRANCH   5   6
ATOM      6  O   UNL     1      32.098 101.493  72.411  1.00  0.00    -0.394 OA
ATOM      7  H   UNL     1      32.584 101.571  73.273  1.00  0.00     0.210 HD
ENDBRANCH   5   6
ENDBRANCH   1   5
BRANCH   1   8
ATOM      8  O   UNL     1      33.763  99.429  71.451  1.00  0.00    -0.388 OA
ATOM      9  H   UNL     1      33.298  98.596  71.178  1.00  0.00     0.211 HD
ENDBRANCH   1   8
TORSDOF 5
ENDMDL
