MODEL 1
REMARK VINA RESULT:    -6.662      0.000      0.000
REMARK INTER + INTRA:          -7.334
REMARK INTER:                  -7.247
REMARK INTRA:                  -0.088
REMARK UNBOUND:                -0.088
REMARK SMILES CC1(C)CC[C@@]2(C(=O)[O-])CC[C@@]3(C)C(=CC[C@@H]4[C@@]5(C)CC[C@H](O)C(C)(C)[C@H]5CC[C@@]43C)[C@H]2C1
REMARK SMILES IDX 6 1 5 2 10 3 32 4 4 5 11 6 14 7 33 8 2 9 12 10 15 11 1 12
REMARK SMILES IDX 3 13 13 14 30 15 16 16 17 17 29 18 31 19 18 20 28 21 27 22
REMARK SMILES IDX 20 23 19 24 24 25 21 26 22 27 25 28 26 29 7 30 8 31 9 32
REMARK SMILES IDX 23 33
REMARK H PARENT 23 34
REMARK Flexibility Score: inf
ROOT
ATOM      1  C   UNL     1      70.772  53.719  18.591  1.00  0.00     0.017 C 
ATOM      2  C   UNL     1      71.605  53.233  17.372  1.00  0.00     0.014 C 
ATOM      3  C   UNL     1      71.691  53.958  19.816  1.00  0.00     0.014 C 
ATOM      4  C   UNL     1      70.022  55.045  18.253  1.00  0.00     0.028 C 
ATOM      5  C   UNL     1      72.502  54.314  16.754  1.00  0.00     0.007 C 
ATOM      6  C   UNL     1      70.883  54.309  21.073  1.00  0.00     0.013 C 
ATOM      7  C   UNL     1      69.348  55.667  19.476  1.00  0.00    -0.064 C 
ATOM      8  C   UNL     1      70.928  56.111  17.585  1.00  0.00     0.015 C 
ATOM      9  C   UNL     1      71.721  55.591  16.361  1.00  0.00    -0.035 C 
ATOM     10  C   UNL     1      69.905  55.530  20.906  1.00  0.00    -0.006 C 
ATOM     11  C   UNL     1      68.264  56.451  19.270  1.00  0.00    -0.027 C 
ATOM     12  C   UNL     1      70.780  55.323  15.164  1.00  0.00     0.011 C 
ATOM     13  C   UNL     1      72.735  56.673  15.932  1.00  0.00     0.011 C 
ATOM     14  C   UNL     1      70.765  56.799  21.171  1.00  0.00     0.017 C 
ATOM     15  C   UNL     1      68.642  55.400  21.893  1.00  0.00    -0.020 C 
ATOM     16  C   UNL     1      67.651  57.301  20.355  1.00  0.00     0.032 C 
ATOM     17  C   UNL     1      67.684  56.673  21.790  1.00  0.00     0.006 C 
ATOM     18  C   UNL     1      69.064  55.133  23.360  1.00  0.00     0.008 C 
ATOM     19  C   UNL     1      67.780  54.141  21.469  1.00  0.00     0.012 C 
ATOM     20  C   UNL     1      67.602  57.739  23.010  1.00  0.00    -0.025 C 
ATOM     21  C   UNL     1      67.975  55.541  24.359  1.00  0.00     0.005 C 
ATOM     22  C   UNL     1      67.896  57.081  24.449  1.00  0.00     0.003 C 
ATOM     23  C   UNL     1      66.167  58.371  22.917  1.00  0.00     0.010 C 
ATOM     24  C   UNL     1      68.617  58.909  22.836  1.00  0.00     0.012 C 
ATOM     25  C   UNL     1      67.094  57.649  25.726  1.00  0.00    -0.006 C 
ATOM     26  C   UNL     1      65.713  59.125  24.151  1.00  0.00     0.033 C 
ATOM     27  C   UNL     1      65.676  58.165  25.341  1.00  0.00     0.120 C 
ATOM     28  C   UNL     1      66.895  56.572  26.832  1.00  0.00     0.014 C 
ATOM     29  C   UNL     1      67.917  58.783  26.409  1.00  0.00     0.014 C 
ENDROOT
BRANCH   1  30
ATOM     30  C   UNL     1      69.782  52.598  18.897  1.00  0.00     0.048 C 
ATOM     31  O   UNL     1      70.130  51.625  19.619  1.00  0.00    -0.550 OA
ATOM     32  O   UNL     1      68.519  52.577  18.313  1.00  0.00    -0.550 OA
ENDBRANCH   1  30
BRANCH  27  33
ATOM     33  O   UNL     1      65.009  58.750  26.437  1.00  0.00    -0.393 OA
ATOM     34  H   UNL     1      64.252  58.162  26.696  1.00  0.00     0.210 HD
ENDBRANCH  27  33
TORSDOF 2
ENDMDL
MODEL 2
REMARK VINA RESULT:    -6.343      1.035      1.118
REMARK INTER + INTRA:          -6.986
REMARK INTER:                  -6.923
REMARK INTRA:                  -0.064
REMARK UNBOUND:                -0.088
REMARK SMILES CC1(C)CC[C@@]2(C(=O)[O-])CC[C@@]3(C)C(=CC[C@@H]4[C@@]5(C)CC[C@H](O)C(C)(C)[C@H]5CC[C@@]43C)[C@H]2C1
REMARK SMILES IDX 6 1 5 2 10 3 32 4 4 5 11 6 14 7 33 8 2 9 12 10 15 11 1 12
REMARK SMILES IDX 3 13 13 14 30 15 16 16 17 17 29 18 31 19 18 20 28 21 27 22
REMARK SMILES IDX 20 23 19 24 24 25 21 26 22 27 25 28 26 29 7 30 8 31 9 32
REMARK SMILES IDX 23 33
REMARK H PARENT 23 34
REMARK Flexibility Score: inf
ROOT
ATOM      1  C   UNL     1      70.860  54.066  17.721  1.00  0.00     0.017 C 
ATOM      2  C   UNL     1      71.603  53.887  16.367  1.00  0.00     0.014 C 
ATOM      3  C   UNL     1      71.860  53.992  18.902  1.00  0.00     0.014 C 
ATOM      4  C   UNL     1      70.121  55.440  17.767  1.00  0.00     0.028 C 
ATOM      5  C   UNL     1      72.483  55.081  15.972  1.00  0.00     0.007 C 
ATOM      6  C   UNL     1      71.142  54.032  20.258  1.00  0.00     0.013 C 
ATOM      7  C   UNL     1      69.540  55.749  19.147  1.00  0.00    -0.064 C 
ATOM      8  C   UNL     1      71.007  56.631  17.319  1.00  0.00     0.015 C 
ATOM      9  C   UNL     1      71.709  56.420  15.955  1.00  0.00    -0.035 C 
ATOM     10  C   UNL     1      70.183  55.264  20.460  1.00  0.00    -0.006 C 
ATOM     11  C   UNL     1      68.464  56.567  19.211  1.00  0.00    -0.027 C 
ATOM     12  C   UNL     1      70.687  56.459  14.794  1.00  0.00     0.011 C 
ATOM     13  C   UNL     1      72.718  57.567  15.734  1.00  0.00     0.011 C 
ATOM     14  C   UNL     1      71.088  56.423  20.967  1.00  0.00     0.017 C 
ATOM     15  C   UNL     1      68.983  54.905  21.468  1.00  0.00    -0.020 C 
ATOM     16  C   UNL     1      67.941  57.131  20.509  1.00  0.00     0.032 C 
ATOM     17  C   UNL     1      68.050  56.171  21.742  1.00  0.00     0.006 C 
ATOM     18  C   UNL     1      69.491  54.285  22.794  1.00  0.00     0.008 C 
ATOM     19  C   UNL     1      68.067  53.793  20.810  1.00  0.00     0.012 C 
ATOM     20  C   UNL     1      68.071  56.908  23.187  1.00  0.00    -0.025 C 
ATOM     21  C   UNL     1      68.478  54.444  23.933  1.00  0.00     0.005 C 
ATOM     22  C   UNL     1      68.440  55.916  24.400  1.00  0.00     0.003 C 
ATOM     23  C   UNL     1      66.647  57.553  23.347  1.00  0.00     0.010 C 
ATOM     24  C   UNL     1      69.100  58.078  23.236  1.00  0.00     0.012 C 
ATOM     25  C   UNL     1      67.734  56.160  25.828  1.00  0.00    -0.006 C 
ATOM     26  C   UNL     1      66.290  57.986  24.756  1.00  0.00     0.033 C 
ATOM     27  C   UNL     1      66.307  56.765  25.677  1.00  0.00     0.120 C 
ATOM     28  C   UNL     1      67.581  54.848  26.649  1.00  0.00     0.014 C 
ATOM     29  C   UNL     1      68.625  57.088  26.710  1.00  0.00     0.014 C 
ENDROOT
BRANCH   1  30
ATOM     30  C   UNL     1      69.866  52.912  17.811  1.00  0.00     0.048 C 
ATOM     31  O   UNL     1      70.220  51.808  18.306  1.00  0.00    -0.550 OA
ATOM     32  O   UNL     1      68.590  53.019  17.266  1.00  0.00    -0.550 OA
ENDBRANCH   1  30
BRANCH  27  33
ATOM     33  O   UNL     1      65.725  57.069  26.924  1.00  0.00    -0.393 OA
ATOM     34  H   UNL     1      65.571  56.221  27.416  1.00  0.00     0.210 HD
ENDBRANCH  27  33
TORSDOF 2
ENDMDL
MODEL 3
REMARK VINA RESULT:    -6.213      2.543      8.040
REMARK INTER + INTRA:          -6.846
REMARK INTER:                  -6.742
REMARK INTRA:                  -0.104
REMARK UNBOUND:                -0.088
REMARK SMILES CC1(C)CC[C@@]2(C(=O)[O-])CC[C@@]3(C)C(=CC[C@@H]4[C@@]5(C)CC[C@H](O)C(C)(C)[C@H]5CC[C@@]43C)[C@H]2C1
REMARK SMILES IDX 6 1 5 2 10 3 32 4 4 5 11 6 14 7 33 8 2 9 12 10 15 11 1 12
REMARK SMILES IDX 3 13 13 14 30 15 16 16 17 17 29 18 31 19 18 20 28 21 27 22
REMARK SMILES IDX 20 23 19 24 24 25 21 26 22 27 25 28 26 29 7 30 8 31 9 32
REMARK SMILES IDX 23 33
REMARK H PARENT 23 34
REMARK Flexibility Score: inf
ROOT
ATOM      1  C   UNL     1      69.619  53.657  21.818  1.00  0.00     0.017 C 
ATOM      2  C   UNL     1      69.113  53.199  23.214  1.00  0.00     0.014 C 
ATOM      3  C   UNL     1      68.443  53.731  20.811  1.00  0.00     0.014 C 
ATOM      4  C   UNL     1      70.298  55.060  21.909  1.00  0.00     0.028 C 
ATOM      5  C   UNL     1      68.272  54.250  23.951  1.00  0.00     0.007 C 
ATOM      6  C   UNL     1      68.929  54.050  19.391  1.00  0.00     0.013 C 
ATOM      7  C   UNL     1      70.636  55.640  20.536  1.00  0.00    -0.064 C 
ATOM      8  C   UNL     1      69.459  56.098  22.698  1.00  0.00     0.015 C 
ATOM      9  C   UNL     1      68.996  55.609  24.093  1.00  0.00    -0.035 C 
ATOM     10  C   UNL     1      69.803  55.353  19.272  1.00  0.00    -0.006 C 
ATOM     11  C   UNL     1      71.660  56.520  20.456  1.00  0.00    -0.027 C 
ATOM     12  C   UNL     1      70.191  55.506  25.069  1.00  0.00     0.011 C 
ATOM     13  C   UNL     1      68.000  56.637  24.672  1.00  0.00     0.011 C 
ATOM     14  C   UNL     1      68.792  56.527  19.130  1.00  0.00     0.017 C 
ATOM     15  C   UNL     1      70.834  55.249  18.042  1.00  0.00    -0.020 C 
ATOM     16  C   UNL     1      71.947  57.333  19.218  1.00  0.00     0.032 C 
ATOM     17  C   UNL     1      71.669  56.598  17.862  1.00  0.00     0.006 C 
ATOM     18  C   UNL     1      70.136  54.842  16.719  1.00  0.00     0.008 C 
ATOM     19  C   UNL     1      71.879  54.097  18.337  1.00  0.00     0.012 C 
ATOM     20  C   UNL     1      71.390  57.574  16.596  1.00  0.00    -0.025 C 
ATOM     21  C   UNL     1      70.945  55.258  15.486  1.00  0.00     0.005 C 
ATOM     22  C   UNL     1      70.860  56.789  15.295  1.00  0.00     0.003 C 
ATOM     23  C   UNL     1      72.747  58.322  16.339  1.00  0.00     0.010 C 
ATOM     24  C   UNL     1      70.331  58.670  16.922  1.00  0.00     0.012 C 
ATOM     25  C   UNL     1      71.316  57.321  13.844  1.00  0.00    -0.006 C 
ATOM     26  C   UNL     1      72.857  59.015  14.994  1.00  0.00     0.033 C 
ATOM     27  C   UNL     1      72.728  57.975  13.881  1.00  0.00     0.120 C 
ATOM     28  C   UNL     1      71.374  56.184  12.783  1.00  0.00     0.014 C 
ATOM     29  C   UNL     1      70.264  58.333  13.294  1.00  0.00     0.014 C 
ENDROOT
BRANCH   1  30
ATOM     30  C   UNL     1      70.621  52.598  21.366  1.00  0.00     0.048 C 
ATOM     31  O   UNL     1      70.216  51.512  20.872  1.00  0.00    -0.550 OA
ATOM     32  O   UNL     1      71.986  52.765  21.577  1.00  0.00    -0.550 OA
ENDBRANCH   1  30
BRANCH  27  33
ATOM     33  O   UNL     1      73.090  58.527  12.635  1.00  0.00    -0.393 OA
ATOM     34  H   UNL     1      72.936  59.508  12.668  1.00  0.00     0.210 HD
ENDBRANCH  27  33
TORSDOF 2
ENDMDL
MODEL 4
REMARK VINA RESULT:    -5.992      2.934      7.993
REMARK INTER + INTRA:          -6.605
REMARK INTER:                  -6.561
REMARK INTRA:                  -0.044
REMARK UNBOUND:                -0.088
REMARK SMILES CC1(C)CC[C@@]2(C(=O)[O-])CC[C@@]3(C)C(=CC[C@@H]4[C@@]5(C)CC[C@H](O)C(C)(C)[C@H]5CC[C@@]43C)[C@H]2C1
REMARK SMILES IDX 6 1 5 2 10 3 32 4 4 5 11 6 14 7 33 8 2 9 12 10 15 11 1 12
REMARK SMILES IDX 3 13 13 14 30 15 16 16 17 17 29 18 31 19 18 20 28 21 27 22
REMARK SMILES IDX 20 23 19 24 24 25 21 26 22 27 25 28 26 29 7 30 8 31 9 32
REMARK SMILES IDX 23 33
REMARK H PARENT 23 34
REMARK Flexibility Score: inf
ROOT
ATOM      1  C   UNL     1      69.236  54.294  22.312  1.00  0.00     0.017 C 
ATOM      2  C   UNL     1      69.151  53.695  23.743  1.00  0.00     0.014 C 
ATOM      3  C   UNL     1      70.054  55.611  22.322  1.00  0.00     0.014 C 
ATOM      4  C   UNL     1      69.911  53.285  21.330  1.00  0.00     0.028 C 
ATOM      5  C   UNL     1      70.475  53.115  24.260  1.00  0.00     0.007 C 
ATOM      6  C   UNL     1      70.044  56.297  20.949  1.00  0.00     0.013 C 
ATOM      7  C   UNL     1      70.196  53.900  19.960  1.00  0.00    -0.064 C 
ATOM      8  C   UNL     1      71.223  52.671  21.885  1.00  0.00     0.015 C 
ATOM      9  C   UNL     1      71.086  52.065  23.304  1.00  0.00    -0.035 C 
ATOM     10  C   UNL     1      70.526  55.391  19.757  1.00  0.00    -0.006 C 
ATOM     11  C   UNL     1      70.251  53.068  18.894  1.00  0.00    -0.027 C 
ATOM     12  C   UNL     1      70.234  50.773  23.275  1.00  0.00     0.011 C 
ATOM     13  C   UNL     1      72.492  51.692  23.819  1.00  0.00     0.011 C 
ATOM     14  C   UNL     1      72.077  55.504  19.741  1.00  0.00     0.017 C 
ATOM     15  C   UNL     1      69.841  55.841  18.373  1.00  0.00    -0.020 C 
ATOM     16  C   UNL     1      70.746  53.508  17.537  1.00  0.00     0.032 C 
ATOM     17  C   UNL     1      70.384  54.980  17.143  1.00  0.00     0.006 C 
ATOM     18  C   UNL     1      69.993  57.360  18.105  1.00  0.00     0.008 C 
ATOM     19  C   UNL     1      68.280  55.585  18.459  1.00  0.00     0.012 C 
ATOM     20  C   UNL     1      71.358  55.655  16.036  1.00  0.00    -0.025 C 
ATOM     21  C   UNL     1      69.854  57.702  16.617  1.00  0.00     0.005 C 
ATOM     22  C   UNL     1      71.111  57.235  15.851  1.00  0.00     0.003 C 
ATOM     23  C   UNL     1      71.109  54.847  14.712  1.00  0.00     0.010 C 
ATOM     24  C   UNL     1      72.865  55.475  16.392  1.00  0.00     0.012 C 
ATOM     25  C   UNL     1      71.287  57.869  14.380  1.00  0.00    -0.006 C 
ATOM     26  C   UNL     1      71.624  55.506  13.447  1.00  0.00     0.033 C 
ATOM     27  C   UNL     1      70.922  56.852  13.260  1.00  0.00     0.120 C 
ATOM     28  C   UNL     1      70.392  59.122  14.160  1.00  0.00     0.014 C 
ATOM     29  C   UNL     1      72.749  58.378  14.193  1.00  0.00     0.014 C 
ENDROOT
BRANCH   1  30
ATOM     30  C   UNL     1      67.798  54.581  21.890  1.00  0.00     0.048 C 
ATOM     31  O   UNL     1      67.148  55.509  22.444  1.00  0.00    -0.550 OA
ATOM     32  O   UNL     1      67.146  53.772  20.964  1.00  0.00    -0.550 OA
ENDBRANCH   1  30
BRANCH  27  33
ATOM     33  O   UNL     1      71.166  57.370  11.972  1.00  0.00    -0.393 OA
ATOM     34  H   UNL     1      70.916  58.331  11.966  1.00  0.00     0.210 HD
ENDBRANCH  27  33
TORSDOF 2
ENDMDL
MODEL 5
REMARK VINA RESULT:    -5.771      2.041      8.160
REMARK INTER + INTRA:          -6.364
REMARK INTER:                  -6.300
REMARK INTRA:                  -0.064
REMARK UNBOUND:                -0.088
REMARK SMILES CC1(C)CC[C@@]2(C(=O)[O-])CC[C@@]3(C)C(=CC[C@@H]4[C@@]5(C)CC[C@H](O)C(C)(C)[C@H]5CC[C@@]43C)[C@H]2C1
REMARK SMILES IDX 6 1 5 2 10 3 32 4 4 5 11 6 14 7 33 8 2 9 12 10 15 11 1 12
REMARK SMILES IDX 3 13 13 14 30 15 16 16 17 17 29 18 31 19 18 20 28 21 27 22
REMARK SMILES IDX 20 23 19 24 24 25 21 26 22 27 25 28 26 29 7 30 8 31 9 32
REMARK SMILES IDX 23 33
REMARK H PARENT 23 34
REMARK Flexibility Score: inf
ROOT
ATOM      1  C   UNL     1      67.666  57.274  24.059  1.00  0.00     0.017 C 
ATOM      2  C   UNL     1      67.302  57.421  25.563  1.00  0.00     0.014 C 
ATOM      3  C   UNL     1      68.541  58.464  23.592  1.00  0.00     0.014 C 
ATOM      4  C   UNL     1      68.442  55.943  23.807  1.00  0.00     0.028 C 
ATOM      5  C   UNL     1      68.483  57.200  26.518  1.00  0.00     0.007 C 
ATOM      6  C   UNL     1      68.805  58.417  22.081  1.00  0.00     0.013 C 
ATOM      7  C   UNL     1      68.992  55.844  22.384  1.00  0.00    -0.064 C 
ATOM      8  C   UNL     1      69.602  55.709  24.809  1.00  0.00     0.015 C 
ATOM      9  C   UNL     1      69.191  55.843  26.296  1.00  0.00    -0.035 C 
ATOM     10  C   UNL     1      69.434  57.070  21.564  1.00  0.00    -0.006 C 
ATOM     11  C   UNL     1      69.183  54.609  21.866  1.00  0.00    -0.027 C 
ATOM     12  C   UNL     1      68.286  54.665  26.729  1.00  0.00     0.011 C 
ATOM     13  C   UNL     1      70.464  55.805  27.167  1.00  0.00     0.011 C 
ATOM     14  C   UNL     1      70.969  57.214  21.772  1.00  0.00     0.017 C 
ATOM     15  C   UNL     1      69.022  56.789  20.035  1.00  0.00    -0.020 C 
ATOM     16  C   UNL     1      69.927  54.369  20.574  1.00  0.00     0.032 C 
ATOM     17  C   UNL     1      69.720  55.466  19.476  1.00  0.00     0.006 C 
ATOM     18  C   UNL     1      69.303  58.003  19.115  1.00  0.00     0.008 C 
ATOM     19  C   UNL     1      67.459  56.553  19.953  1.00  0.00     0.012 C 
ATOM     20  C   UNL     1      70.906  55.568  18.373  1.00  0.00    -0.025 C 
ATOM     21  C   UNL     1      69.440  57.595  17.643  1.00  0.00     0.005 C 
ATOM     22  C   UNL     1      70.782  56.862  17.425  1.00  0.00     0.003 C 
ATOM     23  C   UNL     1      70.844  54.221  17.567  1.00  0.00     0.010 C 
ATOM     24  C   UNL     1      72.317  55.628  19.033  1.00  0.00     0.012 C 
ATOM     25  C   UNL     1      71.244  56.729  15.887  1.00  0.00    -0.006 C 
ATOM     26  C   UNL     1      71.604  54.219  16.255  1.00  0.00     0.033 C 
ATOM     27  C   UNL     1      71.020  55.291  15.334  1.00  0.00     0.120 C 
ATOM     28  C   UNL     1      70.471  57.698  14.946  1.00  0.00     0.014 C 
ATOM     29  C   UNL     1      72.742  57.137  15.744  1.00  0.00     0.014 C 
ENDROOT
BRANCH   1  30
ATOM     30  C   UNL     1      66.339  57.279  23.304  1.00  0.00     0.048 C 
ATOM     31  O   UNL     1      65.675  58.345  23.197  1.00  0.00    -0.550 OA
ATOM     32  O   UNL     1      65.792  56.100  22.806  1.00  0.00    -0.550 OA
ENDBRANCH   1  30
BRANCH  27  33
ATOM     33  O   UNL     1      71.511  55.145  14.020  1.00  0.00    -0.393 OA
ATOM     34  H   UNL     1      70.742  55.160  13.393  1.00  0.00     0.210 HD
ENDBRANCH  27  33
TORSDOF 2
ENDMDL
MODEL 6
REMARK VINA RESULT:    -5.464      4.031      5.850
REMARK INTER + INTRA:          -6.031
REMARK INTER:                  -6.423
REMARK INTRA:                   0.392
REMARK UNBOUND:                -0.088
REMARK SMILES CC1(C)CC[C@@]2(C(=O)[O-])CC[C@@]3(C)C(=CC[C@@H]4[C@@]5(C)CC[C@H](O)C(C)(C)[C@H]5CC[C@@]43C)[C@H]2C1
REMARK SMILES IDX 6 1 5 2 10 3 32 4 4 5 11 6 14 7 33 8 2 9 12 10 15 11 1 12
REMARK SMILES IDX 3 13 13 14 30 15 16 16 17 17 29 18 31 19 18 20 28 21 27 22
REMARK SMILES IDX 20 23 19 24 24 25 21 26 22 27 25 28 26 29 7 30 8 31 9 32
REMARK SMILES IDX 23 33
REMARK H PARENT 23 34
REMARK Flexibility Score: inf
ROOT
ATOM      1  C   UNL     1      72.921  57.588  16.300  1.00  0.00     0.017 C 
ATOM      2  C   UNL     1      73.180  58.607  15.156  1.00  0.00     0.014 C 
ATOM      3  C   UNL     1      72.298  58.297  17.529  1.00  0.00     0.014 C 
ATOM      4  C   UNL     1      71.956  56.457  15.823  1.00  0.00     0.028 C 
ATOM      5  C   UNL     1      71.904  59.124  14.476  1.00  0.00     0.007 C 
ATOM      6  C   UNL     1      72.155  57.344  18.723  1.00  0.00     0.013 C 
ATOM      7  C   UNL     1      71.515  55.541  16.965  1.00  0.00    -0.064 C 
ATOM      8  C   UNL     1      70.695  56.991  15.096  1.00  0.00     0.015 C 
ATOM      9  C   UNL     1      71.000  57.985  13.948  1.00  0.00    -0.035 C 
ATOM     10  C   UNL     1      71.353  56.024  18.419  1.00  0.00    -0.006 C 
ATOM     11  C   UNL     1      71.162  54.272  16.657  1.00  0.00    -0.027 C 
ATOM     12  C   UNL     1      71.656  57.262  12.748  1.00  0.00     0.011 C 
ATOM     13  C   UNL     1      69.671  58.601  13.460  1.00  0.00     0.011 C 
ATOM     14  C   UNL     1      69.852  56.391  18.601  1.00  0.00     0.017 C 
ATOM     15  C   UNL     1      71.835  54.821  19.372  1.00  0.00    -0.020 C 
ATOM     16  C   UNL     1      70.496  53.344  17.643  1.00  0.00     0.032 C 
ATOM     17  C   UNL     1      70.973  53.500  19.127  1.00  0.00     0.006 C 
ATOM     18  C   UNL     1      71.838  55.220  20.870  1.00  0.00     0.008 C 
ATOM     19  C   UNL     1      73.338  54.460  19.031  1.00  0.00     0.012 C 
ATOM     20  C   UNL     1      69.915  52.992  20.247  1.00  0.00    -0.025 C 
ATOM     21  C   UNL     1      71.755  53.999  21.793  1.00  0.00     0.005 C 
ATOM     22  C   UNL     1      70.331  53.402  21.747  1.00  0.00     0.003 C 
ATOM     23  C   UNL     1      69.816  51.436  20.052  1.00  0.00     0.010 C 
ATOM     24  C   UNL     1      68.485  53.563  20.006  1.00  0.00     0.012 C 
ATOM     25  C   UNL     1      69.981  52.380  22.943  1.00  0.00    -0.006 C 
ATOM     26  C   UNL     1      69.176  50.681  21.201  1.00  0.00     0.033 C 
ATOM     27  C   UNL     1      70.005  50.898  22.468  1.00  0.00     0.120 C 
ATOM     28  C   UNL     1      70.980  52.489  24.131  1.00  0.00     0.014 C 
ATOM     29  C   UNL     1      68.589  52.732  23.552  1.00  0.00     0.014 C 
ENDROOT
BRANCH   1  30
ATOM     30  C   UNL     1      74.286  57.015  16.669  1.00  0.00     0.048 C 
ATOM     31  O   UNL     1      74.475  55.768  16.656  1.00  0.00    -0.550 OA
ATOM     32  O   UNL     1      75.314  57.839  17.117  1.00  0.00    -0.550 OA
ENDBRANCH   1  30
BRANCH  27  33
ATOM     33  O   UNL     1      69.605  50.008  23.487  1.00  0.00    -0.393 OA
ATOM     34  H   UNL     1      68.923  50.459  24.049  1.00  0.00     0.210 HD
ENDBRANCH  27  33
TORSDOF 2
ENDMDL
MODEL 7
REMARK VINA RESULT:    -5.444      2.586      3.731
REMARK INTER + INTRA:          -6.009
REMARK INTER:                  -5.908
REMARK INTRA:                  -0.101
REMARK UNBOUND:                -0.088
REMARK SMILES CC1(C)CC[C@@]2(C(=O)[O-])CC[C@@]3(C)C(=CC[C@@H]4[C@@]5(C)CC[C@H](O)C(C)(C)[C@H]5CC[C@@]43C)[C@H]2C1
REMARK SMILES IDX 6 1 5 2 10 3 32 4 4 5 11 6 14 7 33 8 2 9 12 10 15 11 1 12
REMARK SMILES IDX 3 13 13 14 30 15 16 16 17 17 29 18 31 19 18 20 28 21 27 22
REMARK SMILES IDX 20 23 19 24 24 25 21 26 22 27 25 28 26 29 7 30 8 31 9 32
REMARK SMILES IDX 23 33
REMARK H PARENT 23 34
REMARK Flexibility Score: inf
ROOT
ATOM      1  C   UNL     1      73.342  56.242  18.099  1.00  0.00     0.017 C 
ATOM      2  C   UNL     1      73.788  56.512  16.635  1.00  0.00     0.014 C 
ATOM      3  C   UNL     1      73.362  57.554  18.923  1.00  0.00     0.014 C 
ATOM      4  C   UNL     1      71.901  55.642  18.135  1.00  0.00     0.028 C 
ATOM      5  C   UNL     1      72.766  57.298  15.802  1.00  0.00     0.007 C 
ATOM      6  C   UNL     1      73.055  57.299  20.406  1.00  0.00     0.013 C 
ATOM      7  C   UNL     1      71.342  55.542  19.554  1.00  0.00    -0.064 C 
ATOM      8  C   UNL     1      70.890  56.418  17.252  1.00  0.00     0.015 C 
ATOM      9  C   UNL     1      71.365  56.643  15.795  1.00  0.00    -0.035 C 
ATOM     10  C   UNL     1      71.709  56.531  20.676  1.00  0.00    -0.006 C 
ATOM     11  C   UNL     1      70.408  54.594  19.799  1.00  0.00    -0.027 C 
ATOM     12  C   UNL     1      71.374  55.315  15.003  1.00  0.00     0.011 C 
ATOM     13  C   UNL     1      70.379  57.604  15.096  1.00  0.00     0.011 C 
ATOM     14  C   UNL     1      70.598  57.620  20.690  1.00  0.00     0.017 C 
ATOM     15  C   UNL     1      71.789  55.685  22.042  1.00  0.00    -0.020 C 
ATOM     16  C   UNL     1      69.615  54.538  21.082  1.00  0.00     0.032 C 
ATOM     17  C   UNL     1      70.401  54.967  22.368  1.00  0.00     0.006 C 
ATOM     18  C   UNL     1      72.271  56.542  23.240  1.00  0.00     0.008 C 
ATOM     19  C   UNL     1      72.872  54.542  21.881  1.00  0.00     0.012 C 
ATOM     20  C   UNL     1      69.478  55.484  23.598  1.00  0.00    -0.025 C 
ATOM     21  C   UNL     1      71.844  55.947  24.586  1.00  0.00     0.005 C 
ATOM     22  C   UNL     1      70.327  56.150  24.792  1.00  0.00     0.003 C 
ATOM     23  C   UNL     1      68.663  54.225  24.066  1.00  0.00     0.010 C 
ATOM     24  C   UNL     1      68.434  56.548  23.142  1.00  0.00     0.012 C 
ATOM     25  C   UNL     1      69.811  55.942  26.304  1.00  0.00    -0.006 C 
ATOM     26  C   UNL     1      68.002  54.354  25.425  1.00  0.00     0.033 C 
ATOM     27  C   UNL     1      69.078  54.581  26.487  1.00  0.00     0.120 C 
ATOM     28  C   UNL     1      70.971  55.971  27.340  1.00  0.00     0.014 C 
ATOM     29  C   UNL     1      68.874  57.120  26.713  1.00  0.00     0.014 C 
ENDROOT
BRANCH   1  30
ATOM     30  C   UNL     1      74.355  55.255  18.672  1.00  0.00     0.048 C 
ATOM     31  O   UNL     1      75.464  55.667  19.109  1.00  0.00    -0.550 OA
ATOM     32  O   UNL     1      74.121  53.884  18.636  1.00  0.00    -0.550 OA
ENDBRANCH   1  30
BRANCH  27  33
ATOM     33  O   UNL     1      68.541  54.437  27.783  1.00  0.00    -0.393 OA
ATOM     34  H   UNL     1      68.875  53.586  28.170  1.00  0.00     0.210 HD
ENDBRANCH  27  33
TORSDOF 2
ENDMDL
MODEL 8
REMARK VINA RESULT:    -5.391      2.903      8.320
REMARK INTER + INTRA:          -5.952
REMARK INTER:                  -5.848
REMARK INTRA:                  -0.104
REMARK UNBOUND:                -0.088
REMARK SMILES CC1(C)CC[C@@]2(C(=O)[O-])CC[C@@]3(C)C(=CC[C@@H]4[C@@]5(C)CC[C@H](O)C(C)(C)[C@H]5CC[C@@]43C)[C@H]2C1
REMARK SMILES IDX 6 1 5 2 10 3 32 4 4 5 11 6 14 7 33 8 2 9 12 10 15 11 1 12
REMARK SMILES IDX 3 13 13 14 30 15 16 16 17 17 29 18 31 19 18 20 28 21 27 22
REMARK SMILES IDX 20 23 19 24 24 25 21 26 22 27 25 28 26 29 7 30 8 31 9 32
REMARK SMILES IDX 23 33
REMARK H PARENT 23 34
REMARK Flexibility Score: inf
ROOT
ATOM      1  C   UNL     1      69.067  55.618  25.625  1.00  0.00     0.017 C 
ATOM      2  C   UNL     1      67.988  55.741  26.737  1.00  0.00     0.014 C 
ATOM      3  C   UNL     1      68.643  54.564  24.571  1.00  0.00     0.014 C 
ATOM      4  C   UNL     1      69.284  56.990  24.913  1.00  0.00     0.028 C 
ATOM      5  C   UNL     1      66.689  56.416  26.278  1.00  0.00     0.007 C 
ATOM      6  C   UNL     1      69.747  54.323  23.533  1.00  0.00     0.013 C 
ATOM      7  C   UNL     1      70.189  56.878  23.686  1.00  0.00    -0.064 C 
ATOM      8  C   UNL     1      67.961  57.683  24.497  1.00  0.00     0.015 C 
ATOM      9  C   UNL     1      66.924  57.806  25.642  1.00  0.00    -0.035 C 
ATOM     10  C   UNL     1      70.257  55.619  22.801  1.00  0.00    -0.006 C 
ATOM     11  C   UNL     1      70.887  57.976  23.313  1.00  0.00    -0.027 C 
ATOM     12  C   UNL     1      67.387  58.833  26.701  1.00  0.00     0.011 C 
ATOM     13  C   UNL     1      65.590  58.306  25.049  1.00  0.00     0.011 C 
ATOM     14  C   UNL     1      69.272  55.852  21.619  1.00  0.00     0.017 C 
ATOM     15  C   UNL     1      71.787  55.455  22.332  1.00  0.00    -0.020 C 
ATOM     16  C   UNL     1      71.629  58.068  22.003  1.00  0.00     0.032 C 
ATOM     17  C   UNL     1      72.290  56.733  21.518  1.00  0.00     0.006 C 
ATOM     18  C   UNL     1      72.021  54.150  21.529  1.00  0.00     0.008 C 
ATOM     19  C   UNL     1      72.712  55.331  23.611  1.00  0.00     0.012 C 
ATOM     20  C   UNL     1      72.553  56.636  19.920  1.00  0.00    -0.025 C 
ATOM     21  C   UNL     1      73.266  54.235  20.638  1.00  0.00     0.005 C 
ATOM     22  C   UNL     1      72.990  55.164  19.436  1.00  0.00     0.003 C 
ATOM     23  C   UNL     1      73.646  57.722  19.611  1.00  0.00     0.010 C 
ATOM     24  C   UNL     1      71.291  57.025  19.092  1.00  0.00     0.012 C 
ATOM     25  C   UNL     1      74.042  55.040  18.222  1.00  0.00    -0.006 C 
ATOM     26  C   UNL     1      74.325  57.587  18.262  1.00  0.00     0.033 C 
ATOM     27  C   UNL     1      75.039  56.236  18.191  1.00  0.00     0.120 C 
ATOM     28  C   UNL     1      74.898  53.744  18.306  1.00  0.00     0.014 C 
ATOM     29  C   UNL     1      73.280  54.935  16.866  1.00  0.00     0.014 C 
ENDROOT
BRANCH   1  30
ATOM     30  C   UNL     1      70.344  55.164  26.327  1.00  0.00     0.048 C 
ATOM     31  O   UNL     1      70.499  53.951  26.639  1.00  0.00    -0.550 OA
ATOM     32  O   UNL     1      71.313  56.081  26.721  1.00  0.00    -0.550 OA
ENDBRANCH   1  30
BRANCH  27  33
ATOM     33  O   UNL     1      75.899  56.181  17.075  1.00  0.00    -0.393 OA
ATOM     34  H   UNL     1      76.376  55.311  17.088  1.00  0.00     0.210 HD
ENDBRANCH  27  33
TORSDOF 2
ENDMDL
MODEL 9
REMARK VINA RESULT:    -5.339      3.439      7.669
REMARK INTER + INTRA:          -5.895
REMARK INTER:                  -5.802
REMARK INTRA:                  -0.093
REMARK UNBOUND:                -0.088
REMARK SMILES CC1(C)CC[C@@]2(C(=O)[O-])CC[C@@]3(C)C(=CC[C@@H]4[C@@]5(C)CC[C@H](O)C(C)(C)[C@H]5CC[C@@]43C)[C@H]2C1
REMARK SMILES IDX 6 1 5 2 10 3 32 4 4 5 11 6 14 7 33 8 2 9 12 10 15 11 1 12
REMARK SMILES IDX 3 13 13 14 30 15 16 16 17 17 29 18 31 19 18 20 28 21 27 22
REMARK SMILES IDX 20 23 19 24 24 25 21 26 22 27 25 28 26 29 7 30 8 31 9 32
REMARK SMILES IDX 23 33
REMARK H PARENT 23 34
REMARK Flexibility Score: inf
ROOT
ATOM      1  C   UNL     1      71.267  57.455  25.561  1.00  0.00     0.017 C 
ATOM      2  C   UNL     1      72.180  58.384  26.408  1.00  0.00     0.014 C 
ATOM      3  C   UNL     1      70.988  58.085  24.174  1.00  0.00     0.014 C 
ATOM      4  C   UNL     1      71.937  56.059  25.359  1.00  0.00     0.028 C 
ATOM      5  C   UNL     1      73.632  58.457  25.915  1.00  0.00     0.007 C 
ATOM      6  C   UNL     1      69.982  57.256  23.364  1.00  0.00     0.013 C 
ATOM      7  C   UNL     1      71.171  55.178  24.372  1.00  0.00    -0.064 C 
ATOM      8  C   UNL     1      73.418  56.147  24.907  1.00  0.00     0.015 C 
ATOM      9  C   UNL     1      74.296  57.065  25.793  1.00  0.00    -0.035 C 
ATOM     10  C   UNL     1      70.372  55.742  23.182  1.00  0.00    -0.006 C 
ATOM     11  C   UNL     1      71.286  53.836  24.503  1.00  0.00    -0.027 C 
ATOM     12  C   UNL     1      74.529  56.434  27.185  1.00  0.00     0.011 C 
ATOM     13  C   UNL     1      75.672  57.237  25.115  1.00  0.00     0.011 C 
ATOM     14  C   UNL     1      71.319  55.697  21.949  1.00  0.00     0.017 C 
ATOM     15  C   UNL     1      69.063  54.823  23.015  1.00  0.00    -0.020 C 
ATOM     16  C   UNL     1      70.775  52.865  23.467  1.00  0.00     0.032 C 
ATOM     17  C   UNL     1      69.451  53.297  22.749  1.00  0.00     0.006 C 
ATOM     18  C   UNL     1      68.103  55.356  21.922  1.00  0.00     0.008 C 
ATOM     19  C   UNL     1      68.229  54.858  24.360  1.00  0.00     0.012 C 
ATOM     20  C   UNL     1      69.212  52.632  21.289  1.00  0.00    -0.025 C 
ATOM     21  C   UNL     1      67.179  54.260  21.379  1.00  0.00     0.005 C 
ATOM     22  C   UNL     1      67.983  53.291  20.484  1.00  0.00     0.003 C 
ATOM     23  C   UNL     1      69.003  51.098  21.557  1.00  0.00     0.010 C 
ATOM     24  C   UNL     1      70.467  52.759  20.373  1.00  0.00     0.012 C 
ATOM     25  C   UNL     1      67.092  52.340  19.537  1.00  0.00    -0.006 C 
ATOM     26  C   UNL     1      68.406  50.317  20.403  1.00  0.00     0.033 C 
ATOM     27  C   UNL     1      67.022  50.881  20.077  1.00  0.00     0.120 C 
ATOM     28  C   UNL     1      65.626  52.840  19.400  1.00  0.00     0.014 C 
ATOM     29  C   UNL     1      67.661  52.353  18.085  1.00  0.00     0.014 C 
ENDROOT
BRANCH   1  30
ATOM     30  C   UNL     1      69.963  57.322  26.342  1.00  0.00     0.048 C 
ATOM     31  O   UNL     1      69.129  58.268  26.348  1.00  0.00    -0.550 OA
ATOM     32  O   UNL     1      69.710  56.207  27.135  1.00  0.00    -0.550 OA
ENDBRANCH   1  30
BRANCH  27  33
ATOM     33  O   UNL     1      66.325  50.024  19.201  1.00  0.00    -0.393 OA
ATOM     34  H   UNL     1      65.351  50.173  19.324  1.00  0.00     0.210 HD
ENDBRANCH  27  33
TORSDOF 2
ENDMDL
