MODEL 1
REMARK VINA RESULT:    -3.561      0.000      0.000
REMARK INTER + INTRA:          -5.308
REMARK INTER:                  -4.914
REMARK INTRA:                  -0.394
REMARK UNBOUND:                -0.394
REMARK SMILES CCCCCCCCO
REMARK SMILES IDX 5 1 4 2 3 3 2 4 1 5 6 6 7 7 8 8 9 9
REMARK H PARENT 9 10
REMARK Flexibility Score: inf
ROOT
ATOM      1  C   UNL     1       7.325  12.878  13.078  1.00  0.00     0.000 C 
ENDROOT
BRANCH   1   2
ATOM      2  C   UNL     1       5.972  12.152  13.096  1.00  0.00    -0.000 C 
BRANCH   2   3
ATOM      3  C   UNL     1       4.782  13.113  12.940  1.00  0.00    -0.000 C 
BRANCH   3   4
ATOM      4  C   UNL     1       3.713  12.579  11.976  1.00  0.00    -0.003 C 
ATOM      5  C   UNL     1       4.346  12.054  10.690  1.00  0.00     0.004 C 
ENDBRANCH   3   4
ENDBRANCH   2   3
ENDBRANCH   1   2
BRANCH   1   6
ATOM      6  C   UNL     1       8.214  12.353  11.945  1.00  0.00     0.002 C 
BRANCH   6   7
ATOM      7  C   UNL     1       7.802  10.934  11.533  1.00  0.00     0.028 C 
BRANCH   7   8
ATOM      8  C   UNL     1       8.487  10.497  10.235  1.00  0.00     0.156 C 
BRANCH   8   9
ATOM      9  O   UNL     1       9.117   9.255  10.394  1.00  0.00    -0.396 OA
ATOM     10  H   UNL     1       9.153   8.836   9.493  1.00  0.00     0.210 HD
ENDBRANCH   8   9
ENDBRANCH   7   8
ENDBRANCH   6   7
ENDBRANCH   1   6
TORSDOF 7
ENDMDL
MODEL 2
REMARK VINA RESULT:    -3.463      2.270      4.048
REMARK INTER + INTRA:          -5.173
REMARK INTER:                  -4.686
REMARK INTRA:                  -0.486
REMARK UNBOUND:                -0.394
REMARK SMILES CCCCCCCCO
REMARK SMILES IDX 5 1 4 2 3 3 2 4 1 5 6 6 7 7 8 8 9 9
REMARK H PARENT 9 10
REMARK Flexibility Score: inf
ROOT
ATOM      1  C   UNL     1       4.830  12.691  14.451  1.00  0.00     0.000 C 
ENDROOT
BRANCH   1   2
ATOM      2  C   UNL     1       5.533  13.839  13.711  1.00  0.00    -0.000 C 
BRANCH   2   3
ATOM      3  C   UNL     1       7.051  13.628  13.595  1.00  0.00    -0.000 C 
BRANCH   3   4
ATOM      4  C   UNL     1       7.437  12.143  13.521  1.00  0.00    -0.003 C 
ATOM      5  C   UNL     1       7.723  11.721  12.082  1.00  0.00     0.004 C 
ENDBRANCH   3   4
ENDBRANCH   2   3
ENDBRANCH   1   2
BRANCH   1   6
ATOM      6  C   UNL     1       3.710  12.091  13.594  1.00  0.00     0.002 C 
BRANCH   6   7
ATOM      7  C   UNL     1       3.668  12.743  12.206  1.00  0.00     0.028 C 
BRANCH   7   8
ATOM      8  C   UNL     1       4.032  11.749  11.099  1.00  0.00     0.156 C 
BRANCH   8   9
ATOM      9  O   UNL     1       4.229  12.409   9.878  1.00  0.00    -0.396 OA
ATOM     10  H   UNL     1       4.253  11.706   9.176  1.00  0.00     0.210 HD
ENDBRANCH   8   9
ENDBRANCH   7   8
ENDBRANCH   6   7
ENDBRANCH   1   6
TORSDOF 7
ENDMDL
MODEL 3
REMARK VINA RESULT:    -3.422      2.112      2.876
REMARK INTER + INTRA:          -5.116
REMARK INTER:                  -4.589
REMARK INTRA:                  -0.527
REMARK UNBOUND:                -0.394
REMARK SMILES CCCCCCCCO
REMARK SMILES IDX 5 1 4 2 3 3 2 4 1 5 6 6 7 7 8 8 9 9
REMARK H PARENT 9 10
REMARK Flexibility Score: inf
ROOT
ATOM      1  C   UNL     1       4.717  12.893  14.380  1.00  0.00     0.000 C 
ENDROOT
BRANCH   1   2
ATOM      2  C   UNL     1       3.972  12.050  13.333  1.00  0.00    -0.000 C 
BRANCH   2   3
ATOM      3  C   UNL     1       3.771  12.798  12.006  1.00  0.00    -0.000 C 
BRANCH   3   4
ATOM      4  C   UNL     1       4.343  12.033  10.804  1.00  0.00    -0.003 C 
ATOM      5  C   UNL     1       5.247  10.891  11.259  1.00  0.00     0.004 C 
ENDBRANCH   3   4
ENDBRANCH   2   3
ENDBRANCH   1   2
BRANCH   1   6
ATOM      6  C   UNL     1       5.586  13.961  13.707  1.00  0.00     0.002 C 
BRANCH   6   7
ATOM      7  C   UNL     1       7.074  13.723  13.996  1.00  0.00     0.028 C 
BRANCH   7   8
ATOM      8  C   UNL     1       7.798  13.112  12.792  1.00  0.00     0.156 C 
BRANCH   8   9
ATOM      9  O   UNL     1       8.234  11.810  13.077  1.00  0.00    -0.396 OA
ATOM     10  H   UNL     1       8.833  11.541  12.331  1.00  0.00     0.210 HD
ENDBRANCH   8   9
ENDBRANCH   7   8
ENDBRANCH   6   7
ENDBRANCH   1   6
TORSDOF 7
ENDMDL
MODEL 4
REMARK VINA RESULT:    -3.366      3.151      4.850
REMARK INTER + INTRA:          -5.039
REMARK INTER:                  -4.672
REMARK INTRA:                  -0.367
REMARK UNBOUND:                -0.394
REMARK SMILES CCCCCCCCO
REMARK SMILES IDX 5 1 4 2 3 3 2 4 1 5 6 6 7 7 8 8 9 9
REMARK H PARENT 9 10
REMARK Flexibility Score: inf
ROOT
ATOM      1  C   UNL     1       5.021  13.585  15.044  1.00  0.00     0.000 C 
ENDROOT
BRANCH   1   2
ATOM      2  C   UNL     1       5.846  14.417  16.037  1.00  0.00    -0.000 C 
BRANCH   2   3
ATOM      3  C   UNL     1       6.985  15.193  15.357  1.00  0.00    -0.000 C 
BRANCH   3   4
ATOM      4  C   UNL     1       8.374  14.699  15.784  1.00  0.00    -0.003 C 
ATOM      5  C   UNL     1       8.765  13.434  15.025  1.00  0.00     0.004 C 
ENDBRANCH   3   4
ENDBRANCH   2   3
ENDBRANCH   1   2
BRANCH   1   6
ATOM      6  C   UNL     1       5.372  13.952  13.597  1.00  0.00     0.002 C 
BRANCH   6   7
ATOM      7  C   UNL     1       5.190  12.749  12.663  1.00  0.00     0.028 C 
BRANCH   7   8
ATOM      8  C   UNL     1       3.823  12.766  11.973  1.00  0.00     0.156 C 
BRANCH   8   9
ATOM      9  O   UNL     1       3.955  12.553  10.593  1.00  0.00    -0.396 OA
ATOM     10  H   UNL     1       4.812  12.068  10.461  1.00  0.00     0.210 HD
ENDBRANCH   8   9
ENDBRANCH   7   8
ENDBRANCH   6   7
ENDBRANCH   1   6
TORSDOF 7
ENDMDL
MODEL 5
REMARK VINA RESULT:    -3.360      4.398      5.616
REMARK INTER + INTRA:          -5.031
REMARK INTER:                  -4.529
REMARK INTRA:                  -0.501
REMARK UNBOUND:                -0.394
REMARK SMILES CCCCCCCCO
REMARK SMILES IDX 5 1 4 2 3 3 2 4 1 5 6 6 7 7 8 8 9 9
REMARK H PARENT 9 10
REMARK Flexibility Score: inf
ROOT
ATOM      1  C   UNL     1       7.799  14.257  14.648  1.00  0.00     0.000 C 
ENDROOT
BRANCH   1   2
ATOM      2  C   UNL     1       6.972  13.429  13.652  1.00  0.00    -0.000 C 
BRANCH   2   3
ATOM      3  C   UNL     1       5.502  13.872  13.591  1.00  0.00    -0.000 C 
BRANCH   3   4
ATOM      4  C   UNL     1       4.529  12.742  13.954  1.00  0.00    -0.003 C 
ATOM      5  C   UNL     1       5.231  11.648  14.755  1.00  0.00     0.004 C 
ENDBRANCH   3   4
ENDBRANCH   2   3
ENDBRANCH   1   2
BRANCH   1   6
ATOM      6  C   UNL     1       6.900  15.205  15.451  1.00  0.00     0.002 C 
BRANCH   6   7
ATOM      7  C   UNL     1       6.884  14.821  16.937  1.00  0.00     0.028 C 
BRANCH   7   8
ATOM      8  C   UNL     1       5.500  14.344  17.386  1.00  0.00     0.156 C 
BRANCH   8   9
ATOM      9  O   UNL     1       4.652  15.432  17.639  1.00  0.00    -0.396 OA
ATOM     10  H   UNL     1       3.743  15.056  17.786  1.00  0.00     0.210 HD
ENDBRANCH   8   9
ENDBRANCH   7   8
ENDBRANCH   6   7
ENDBRANCH   1   6
TORSDOF 7
ENDMDL
MODEL 6
REMARK VINA RESULT:    -3.353      1.379      2.387
REMARK INTER + INTRA:          -5.021
REMARK INTER:                  -4.803
REMARK INTRA:                  -0.218
REMARK UNBOUND:                -0.394
REMARK SMILES CCCCCCCCO
REMARK SMILES IDX 5 1 4 2 3 3 2 4 1 5 6 6 7 7 8 8 9 9
REMARK H PARENT 9 10
REMARK Flexibility Score: inf
ROOT
ATOM      1  C   UNL     1       5.450  10.818  11.720  1.00  0.00     0.000 C 
ENDROOT
BRANCH   1   2
ATOM      2  C   UNL     1       4.538  11.819  10.997  1.00  0.00    -0.000 C 
BRANCH   2   3
ATOM      3  C   UNL     1       3.847  12.797  11.961  1.00  0.00    -0.000 C 
BRANCH   3   4
ATOM      4  C   UNL     1       4.474  12.784  13.363  1.00  0.00    -0.003 C 
ATOM      5  C   UNL     1       5.339  14.022  13.589  1.00  0.00     0.004 C 
ENDBRANCH   3   4
ENDBRANCH   2   3
ENDBRANCH   1   2
BRANCH   1   6
ATOM      6  C   UNL     1       5.949   9.735  10.757  1.00  0.00     0.002 C 
BRANCH   6   7
ATOM      7  C   UNL     1       7.089  10.263   9.876  1.00  0.00     0.028 C 
BRANCH   7   8
ATOM      8  C   UNL     1       8.432  10.244  10.611  1.00  0.00     0.156 C 
BRANCH   8   9
ATOM      9  O   UNL     1       9.144   9.071  10.324  1.00  0.00    -0.396 OA
ATOM     10  H   UNL     1      10.024   9.154  10.778  1.00  0.00     0.210 HD
ENDBRANCH   8   9
ENDBRANCH   7   8
ENDBRANCH   6   7
ENDBRANCH   1   6
TORSDOF 7
ENDMDL
MODEL 7
REMARK VINA RESULT:    -3.352      5.042      6.758
REMARK INTER + INTRA:          -5.019
REMARK INTER:                  -4.617
REMARK INTRA:                  -0.402
REMARK UNBOUND:                -0.394
REMARK SMILES CCCCCCCCO
REMARK SMILES IDX 5 1 4 2 3 3 2 4 1 5 6 6 7 7 8 8 9 9
REMARK H PARENT 9 10
REMARK Flexibility Score: inf
ROOT
ATOM      1  C   UNL     1       7.049  15.135  15.154  1.00  0.00     0.000 C 
ENDROOT
BRANCH   1   2
ATOM      2  C   UNL     1       8.461  14.732  14.704  1.00  0.00    -0.000 C 
BRANCH   2   3
ATOM      3  C   UNL     1       8.812  13.284  15.082  1.00  0.00    -0.000 C 
BRANCH   3   4
ATOM      4  C   UNL     1       9.402  13.167  16.494  1.00  0.00    -0.003 C 
ATOM      5  C   UNL     1      10.330  14.340  16.800  1.00  0.00     0.004 C 
ENDBRANCH   3   4
ENDBRANCH   2   3
ENDBRANCH   1   2
BRANCH   1   6
ATOM      6  C   UNL     1       6.020  14.073  14.747  1.00  0.00     0.002 C 
BRANCH   6   7
ATOM      7  C   UNL     1       5.023  13.809  15.883  1.00  0.00     0.028 C 
BRANCH   7   8
ATOM      8  C   UNL     1       5.522  14.366  17.220  1.00  0.00     0.156 C 
BRANCH   8   9
ATOM      9  O   UNL     1       4.643  15.339  17.717  1.00  0.00    -0.396 OA
ATOM     10  H   UNL     1       3.822  15.293  17.157  1.00  0.00     0.210 HD
ENDBRANCH   8   9
ENDBRANCH   7   8
ENDBRANCH   6   7
ENDBRANCH   1   6
TORSDOF 7
ENDMDL
MODEL 8
REMARK VINA RESULT:    -3.349      4.356      5.329
REMARK INTER + INTRA:          -5.016
REMARK INTER:                  -4.701
REMARK INTRA:                  -0.315
REMARK UNBOUND:                -0.394
REMARK SMILES CCCCCCCCO
REMARK SMILES IDX 5 1 4 2 3 3 2 4 1 5 6 6 7 7 8 8 9 9
REMARK H PARENT 9 10
REMARK Flexibility Score: inf
ROOT
ATOM      1  C   UNL     1       5.466  13.908  14.170  1.00  0.00     0.000 C 
ENDROOT
BRANCH   1   2
ATOM      2  C   UNL     1       4.456  12.860  14.661  1.00  0.00    -0.000 C 
BRANCH   2   3
ATOM      3  C   UNL     1       3.817  12.068  13.509  1.00  0.00    -0.000 C 
BRANCH   3   4
ATOM      4  C   UNL     1       3.740  12.878  12.206  1.00  0.00    -0.003 C 
ATOM      5  C   UNL     1       4.305  12.083  11.031  1.00  0.00     0.004 C 
ENDBRANCH   3   4
ENDBRANCH   2   3
ENDBRANCH   1   2
BRANCH   1   6
ATOM      6  C   UNL     1       6.532  14.184  15.237  1.00  0.00     0.002 C 
BRANCH   6   7
ATOM      7  C   UNL     1       6.085  13.663  16.610  1.00  0.00     0.028 C 
BRANCH   7   8
ATOM      8  C   UNL     1       5.962  14.795  17.635  1.00  0.00     0.156 C 
BRANCH   8   9
ATOM      9  O   UNL     1       4.662  15.320  17.648  1.00  0.00    -0.396 OA
ATOM     10  H   UNL     1       4.169  14.841  18.365  1.00  0.00     0.210 HD
ENDBRANCH   8   9
ENDBRANCH   7   8
ENDBRANCH   6   7
ENDBRANCH   1   6
TORSDOF 7
ENDMDL
MODEL 9
REMARK VINA RESULT:    -3.343      3.511      4.472
REMARK INTER + INTRA:          -5.007
REMARK INTER:                  -4.593
REMARK INTRA:                  -0.414
REMARK UNBOUND:                -0.394
REMARK SMILES CCCCCCCCO
REMARK SMILES IDX 5 1 4 2 3 3 2 4 1 5 6 6 7 7 8 8 9 9
REMARK H PARENT 9 10
REMARK Flexibility Score: inf
ROOT
ATOM      1  C   UNL     1       4.619  12.742  14.512  1.00  0.00     0.000 C 
ENDROOT
BRANCH   1   2
ATOM      2  C   UNL     1       3.772  12.125  13.389  1.00  0.00    -0.000 C 
BRANCH   2   3
ATOM      3  C   UNL     1       3.825  12.944  12.089  1.00  0.00    -0.000 C 
BRANCH   3   4
ATOM      4  C   UNL     1       4.308  12.117  10.889  1.00  0.00    -0.003 C 
ATOM      5  C   UNL     1       5.694  11.531  11.147  1.00  0.00     0.004 C 
ENDBRANCH   3   4
ENDBRANCH   2   3
ENDBRANCH   1   2
BRANCH   1   6
ATOM      6  C   UNL     1       5.404  13.956  14.003  1.00  0.00     0.002 C 
BRANCH   6   7
ATOM      7  C   UNL     1       6.868  13.895  14.458  1.00  0.00     0.028 C 
BRANCH   7   8
ATOM      8  C   UNL     1       7.299  15.186  15.162  1.00  0.00     0.156 C 
BRANCH   8   9
ATOM      9  O   UNL     1       6.568  15.381  16.342  1.00  0.00    -0.396 OA
ATOM     10  H   UNL     1       6.369  16.354  16.395  1.00  0.00     0.210 HD
ENDBRANCH   8   9
ENDBRANCH   7   8
ENDBRANCH   6   7
ENDBRANCH   1   6
TORSDOF 7
ENDMDL
