MODEL 1
REMARK VINA RESULT:    -3.811      0.000      0.000
REMARK INTER + INTRA:          -5.152
REMARK INTER:                  -4.702
REMARK INTRA:                  -0.450
REMARK UNBOUND:                -0.450
REMARK SMILES C=CC[C@H](C)C(=O)CC
REMARK SMILES IDX 4 1 5 2 6 3 7 4 8 5 9 6 3 7 2 8 1 9
REMARK H PARENT
REMARK Flexibility Score: inf
ROOT
ATOM      1  C   UNL     1      11.037 -18.458  20.480  1.00  0.00     0.057 C 
ATOM      2  C   UNL     1      11.199 -17.520  21.681  1.00  0.00     0.016 C 
ENDROOT
BRANCH   1   3
ATOM      3  C   UNL     1      11.987 -19.636  20.587  1.00  0.00     0.135 C 
ATOM      4  O   UNL     1      13.191 -19.434  20.526  1.00  0.00    -0.299 OA
BRANCH   3   5
ATOM      5  C   UNL     1      11.495 -21.047  20.793  1.00  0.00     0.072 C 
ATOM      6  C   UNL     1       9.976 -21.116  20.682  1.00  0.00     0.012 C 
ENDBRANCH   3   5
ENDBRANCH   1   3
BRANCH   1   7
ATOM      7  C   UNL     1      11.216 -17.689  19.153  1.00  0.00     0.038 C 
BRANCH   7   8
ATOM      8  C   UNL     1      10.064 -17.907  18.208  1.00  0.00    -0.034 C 
ATOM      9  C   UNL     1       9.970 -19.004  17.452  1.00  0.00     0.004 C 
ENDBRANCH   7   8
ENDBRANCH   1   7
TORSDOF 4
ENDMDL
MODEL 2
REMARK VINA RESULT:    -3.795      1.435      1.996
REMARK INTER + INTRA:          -5.132
REMARK INTER:                  -4.745
REMARK INTRA:                  -0.387
REMARK UNBOUND:                -0.450
REMARK SMILES C=CC[C@H](C)C(=O)CC
REMARK SMILES IDX 4 1 5 2 6 3 7 4 8 5 9 6 3 7 2 8 1 9
REMARK H PARENT
REMARK Flexibility Score: inf
ROOT
ATOM      1  C   UNL     1      11.083 -17.772  19.436  1.00  0.00     0.057 C 
ATOM      2  C   UNL     1      12.527 -17.892  18.935  1.00  0.00     0.016 C 
ENDROOT
BRANCH   1   3
ATOM      3  C   UNL     1      10.817 -18.769  20.548  1.00  0.00     0.135 C 
ATOM      4  O   UNL     1       9.710 -18.800  21.064  1.00  0.00    -0.299 OA
BRANCH   3   5
ATOM      5  C   UNL     1      11.867 -19.745  21.018  1.00  0.00     0.072 C 
ATOM      6  C   UNL     1      11.411 -21.184  20.801  1.00  0.00     0.012 C 
ENDBRANCH   3   5
ENDBRANCH   1   3
BRANCH   1   7
ATOM      7  C   UNL     1      10.082 -17.923  18.271  1.00  0.00     0.038 C 
BRANCH   7   8
ATOM      8  C   UNL     1      10.119 -19.301  17.663  1.00  0.00    -0.034 C 
ATOM      9  C   UNL     1      10.412 -19.495  16.374  1.00  0.00     0.004 C 
ENDBRANCH   7   8
ENDBRANCH   1   7
TORSDOF 4
ENDMDL
MODEL 3
REMARK VINA RESULT:    -3.747      1.949      2.640
REMARK INTER + INTRA:          -5.074
REMARK INTER:                  -4.805
REMARK INTRA:                  -0.269
REMARK UNBOUND:                -0.450
REMARK SMILES C=CC[C@H](C)C(=O)CC
REMARK SMILES IDX 4 1 5 2 6 3 7 4 8 5 9 6 3 7 2 8 1 9
REMARK H PARENT
REMARK Flexibility Score: inf
ROOT
ATOM      1  C   UNL     1       9.892 -18.232  19.719  1.00  0.00     0.057 C 
ATOM      2  C   UNL     1       8.854 -17.498  20.575  1.00  0.00     0.016 C 
ENDROOT
BRANCH   1   3
ATOM      3  C   UNL     1      11.299 -17.884  20.166  1.00  0.00     0.135 C 
ATOM      4  O   UNL     1      11.519 -17.718  21.357  1.00  0.00    -0.299 OA
BRANCH   3   5
ATOM      5  C   UNL     1      12.444 -17.762  19.191  1.00  0.00     0.072 C 
ATOM      6  C   UNL     1      13.714 -18.386  19.761  1.00  0.00     0.012 C 
ENDBRANCH   3   5
ENDBRANCH   1   3
BRANCH   1   7
ATOM      7  C   UNL     1       9.673 -17.940  18.219  1.00  0.00     0.038 C 
BRANCH   7   8
ATOM      8  C   UNL     1       9.575 -19.201  17.401  1.00  0.00    -0.034 C 
ATOM      9  C   UNL     1      10.437 -19.473  16.417  1.00  0.00     0.004 C 
ENDBRANCH   7   8
ENDBRANCH   1   7
TORSDOF 4
ENDMDL
MODEL 4
REMARK VINA RESULT:    -3.734      1.693      2.879
REMARK INTER + INTRA:          -5.057
REMARK INTER:                  -4.661
REMARK INTRA:                  -0.396
REMARK UNBOUND:                -0.450
REMARK SMILES C=CC[C@H](C)C(=O)CC
REMARK SMILES IDX 4 1 5 2 6 3 7 4 8 5 9 6 3 7 2 8 1 9
REMARK H PARENT
REMARK Flexibility Score: inf
ROOT
ATOM      1  C   UNL     1      10.963 -18.494  18.984  1.00  0.00     0.057 C 
ATOM      2  C   UNL     1       9.888 -17.826  18.119  1.00  0.00     0.016 C 
ENDROOT
BRANCH   1   3
ATOM      3  C   UNL     1      10.352 -19.081  20.242  1.00  0.00     0.135 C 
ATOM      4  O   UNL     1       9.967 -18.326  21.121  1.00  0.00    -0.299 OA
BRANCH   3   5
ATOM      5  C   UNL     1      10.179 -20.568  20.430  1.00  0.00     0.072 C 
ATOM      6  C   UNL     1      11.496 -21.223  20.834  1.00  0.00     0.012 C 
ENDBRANCH   3   5
ENDBRANCH   1   3
BRANCH   1   7
ATOM      7  C   UNL     1      12.105 -17.505  19.302  1.00  0.00     0.038 C 
BRANCH   7   8
ATOM      8  C   UNL     1      13.464 -18.142  19.173  1.00  0.00    -0.034 C 
ATOM      9  C   UNL     1      14.105 -18.656  20.226  1.00  0.00     0.004 C 
ENDBRANCH   7   8
ENDBRANCH   1   7
TORSDOF 4
ENDMDL
MODEL 5
REMARK VINA RESULT:    -3.698      1.535      3.387
REMARK INTER + INTRA:          -5.013
REMARK INTER:                  -4.634
REMARK INTRA:                  -0.379
REMARK UNBOUND:                -0.450
REMARK SMILES C=CC[C@H](C)C(=O)CC
REMARK SMILES IDX 4 1 5 2 6 3 7 4 8 5 9 6 3 7 2 8 1 9
REMARK H PARENT
REMARK Flexibility Score: inf
ROOT
ATOM      1  C   UNL     1      10.227 -18.517  19.423  1.00  0.00     0.057 C 
ATOM      2  C   UNL     1       9.850 -17.802  18.120  1.00  0.00     0.016 C 
ENDROOT
BRANCH   1   3
ATOM      3  C   UNL     1      11.516 -17.953  19.990  1.00  0.00     0.135 C 
ATOM      4  O   UNL     1      11.509 -17.471  21.113  1.00  0.00    -0.299 OA
BRANCH   3   5
ATOM      5  C   UNL     1      12.815 -17.992  19.223  1.00  0.00     0.072 C 
ATOM      6  C   UNL     1      13.929 -18.601  20.069  1.00  0.00     0.012 C 
ENDBRANCH   3   5
ENDBRANCH   1   3
BRANCH   1   7
ATOM      7  C   UNL     1      10.309 -20.043  19.208  1.00  0.00     0.038 C 
BRANCH   7   8
ATOM      8  C   UNL     1      10.137 -20.810  20.493  1.00  0.00    -0.034 C 
ATOM      9  C   UNL     1      11.184 -21.271  21.184  1.00  0.00     0.004 C 
ENDBRANCH   7   8
ENDBRANCH   1   7
TORSDOF 4
ENDMDL
MODEL 6
REMARK VINA RESULT:    -3.657      1.573      3.480
REMARK INTER + INTRA:          -4.963
REMARK INTER:                  -4.578
REMARK INTRA:                  -0.384
REMARK UNBOUND:                -0.450
REMARK SMILES C=CC[C@H](C)C(=O)CC
REMARK SMILES IDX 4 1 5 2 6 3 7 4 8 5 9 6 3 7 2 8 1 9
REMARK H PARENT
REMARK Flexibility Score: inf
ROOT
ATOM      1  C   UNL     1      11.719 -18.859  19.478  1.00  0.00     0.057 C 
ATOM      2  C   UNL     1      12.912 -17.939  19.195  1.00  0.00     0.016 C 
ENDROOT
BRANCH   1   3
ATOM      3  C   UNL     1      10.416 -18.088  19.396  1.00  0.00     0.135 C 
ATOM      4  O   UNL     1      10.000 -17.519  20.395  1.00  0.00    -0.299 OA
BRANCH   3   5
ATOM      5  C   UNL     1       9.628 -17.976  18.114  1.00  0.00     0.072 C 
ATOM      6  C   UNL     1       9.850 -19.199  17.231  1.00  0.00     0.012 C 
ENDBRANCH   3   5
ENDBRANCH   1   3
BRANCH   1   7
ATOM      7  C   UNL     1      11.885 -19.573  20.836  1.00  0.00     0.038 C 
BRANCH   7   8
ATOM      8  C   UNL     1      11.380 -20.992  20.800  1.00  0.00    -0.034 C 
ATOM      9  C   UNL     1      10.085 -21.283  20.948  1.00  0.00     0.004 C 
ENDBRANCH   7   8
ENDBRANCH   1   7
TORSDOF 4
ENDMDL
MODEL 7
REMARK VINA RESULT:    -3.605      1.668      2.438
REMARK INTER + INTRA:          -4.898
REMARK INTER:                  -4.505
REMARK INTRA:                  -0.394
REMARK UNBOUND:                -0.450
REMARK SMILES C=CC[C@H](C)C(=O)CC
REMARK SMILES IDX 4 1 5 2 6 3 7 4 8 5 9 6 3 7 2 8 1 9
REMARK H PARENT
REMARK Flexibility Score: inf
ROOT
ATOM      1  C   UNL     1      11.968 -17.829  19.363  1.00  0.00     0.057 C 
ATOM      2  C   UNL     1      13.439 -17.943  18.947  1.00  0.00     0.016 C 
ENDROOT
BRANCH   1   3
ATOM      3  C   UNL     1      11.769 -18.343  20.777  1.00  0.00     0.135 C 
ATOM      4  O   UNL     1      12.012 -19.515  21.021  1.00  0.00    -0.299 OA
BRANCH   3   5
ATOM      5  C   UNL     1      11.307 -17.446  21.898  1.00  0.00     0.072 C 
ATOM      6  C   UNL     1       9.784 -17.420  21.983  1.00  0.00     0.012 C 
ENDBRANCH   3   5
ENDBRANCH   1   3
BRANCH   1   7
ATOM      7  C   UNL     1      11.054 -18.551  18.351  1.00  0.00     0.038 C 
BRANCH   7   8
ATOM      8  C   UNL     1       9.778 -17.792  18.094  1.00  0.00    -0.034 C 
ATOM      9  C   UNL     1       8.603 -18.202  18.581  1.00  0.00     0.004 C 
ENDBRANCH   7   8
ENDBRANCH   1   7
TORSDOF 4
ENDMDL
MODEL 8
REMARK VINA RESULT:    -3.576      2.054      3.343
REMARK INTER + INTRA:          -4.863
REMARK INTER:                  -4.470
REMARK INTRA:                  -0.393
REMARK UNBOUND:                -0.450
REMARK SMILES C=CC[C@H](C)C(=O)CC
REMARK SMILES IDX 4 1 5 2 6 3 7 4 8 5 9 6 3 7 2 8 1 9
REMARK H PARENT
REMARK Flexibility Score: inf
ROOT
ATOM      1  C   UNL     1      10.998 -17.807  20.503  1.00  0.00     0.057 C 
ATOM      2  C   UNL     1      10.526 -17.538  21.936  1.00  0.00     0.016 C 
ENDROOT
BRANCH   1   3
ATOM      3  C   UNL     1       9.814 -17.983  19.571  1.00  0.00     0.135 C 
ATOM      4  O   UNL     1       8.710 -18.193  20.049  1.00  0.00    -0.299 OA
BRANCH   3   5
ATOM      5  C   UNL     1       9.951 -17.879  18.072  1.00  0.00     0.072 C 
ATOM      6  C   UNL     1       9.836 -19.252  17.418  1.00  0.00     0.012 C 
ENDBRANCH   3   5
ENDBRANCH   1   3
BRANCH   1   7
ATOM      7  C   UNL     1      11.954 -19.019  20.458  1.00  0.00     0.038 C 
BRANCH   7   8
ATOM      8  C   UNL     1      13.354 -18.626  20.061  1.00  0.00    -0.034 C 
ATOM      9  C   UNL     1      13.603 -17.938  18.944  1.00  0.00     0.004 C 
ENDBRANCH   7   8
ENDBRANCH   1   7
TORSDOF 4
ENDMDL
MODEL 9
REMARK VINA RESULT:    -3.514      1.125      3.208
REMARK INTER + INTRA:          -4.786
REMARK INTER:                  -4.375
REMARK INTRA:                  -0.411
REMARK UNBOUND:                -0.450
REMARK SMILES C=CC[C@H](C)C(=O)CC
REMARK SMILES IDX 4 1 5 2 6 3 7 4 8 5 9 6 3 7 2 8 1 9
REMARK H PARENT
REMARK Flexibility Score: inf
ROOT
ATOM      1  C   UNL     1      11.168 -17.980  20.848  1.00  0.00     0.057 C 
ATOM      2  C   UNL     1       9.677 -17.911  21.198  1.00  0.00     0.016 C 
ENDROOT
BRANCH   1   3
ATOM      3  C   UNL     1      11.372 -17.898  19.347  1.00  0.00     0.135 C 
ATOM      4  O   UNL     1      12.509 -17.914  18.901  1.00  0.00    -0.299 OA
BRANCH   3   5
ATOM      5  C   UNL     1      10.213 -17.825  18.384  1.00  0.00     0.072 C 
ATOM      6  C   UNL     1      10.112 -19.101  17.555  1.00  0.00     0.012 C 
ENDBRANCH   3   5
ENDBRANCH   1   3
BRANCH   1   7
ATOM      7  C   UNL     1      11.816 -19.245  21.451  1.00  0.00     0.038 C 
BRANCH   7   8
ATOM      8  C   UNL     1      11.251 -20.511  20.862  1.00  0.00    -0.034 C 
ATOM      9  C   UNL     1      10.749 -21.483  21.630  1.00  0.00     0.004 C 
ENDBRANCH   7   8
ENDBRANCH   1   7
TORSDOF 4
ENDMDL
