MODEL 1
REMARK VINA RESULT:     5.933      0.000      0.000
REMARK INTER + INTRA:           9.692
REMARK INTER:                  10.095
REMARK INTRA:                  -0.402
REMARK UNBOUND:                -0.402
REMARK SMILES CCCCCCCCCCCCCC(=O)[O-]
REMARK SMILES IDX 8 1 9 2 10 3 11 4 12 5 13 6 14 7 15 8 16 9 7 10 6 11 5 12
REMARK SMILES IDX 4 13 3 14 2 15 1 16
REMARK H PARENT
REMARK Flexibility Score: inf
ROOT
ATOM      1  C   UNL     1      27.862  44.334   3.217  1.00  0.00     0.000 C 
ENDROOT
BRANCH   1   2
ATOM      2  C   UNL     1      29.319  44.777   3.021  1.00  0.00     0.000 C 
BRANCH   2   3
ATOM      3  C   UNL     1      29.740  44.788   1.542  1.00  0.00     0.000 C 
BRANCH   3   4
ATOM      4  C   UNL     1      29.745  43.381   0.918  1.00  0.00     0.000 C 
BRANCH   4   5
ATOM      5  C   UNL     1      30.508  43.329  -0.414  1.00  0.00     0.006 C 
BRANCH   5   6
ATOM      6  C   UNL     1      30.075  42.149  -1.295  1.00  0.00     0.053 C 
BRANCH   6   7
ATOM      7  C   UNL     1      29.325  42.641  -2.492  1.00  0.00     0.041 C 
ATOM      8  O   UNL     1      29.416  43.846  -2.846  1.00  0.00    -0.550 OA
ATOM      9  O   UNL     1      28.561  41.759  -3.245  1.00  0.00    -0.550 OA
ENDBRANCH   6   7
ENDBRANCH   5   6
ENDBRANCH   4   5
ENDBRANCH   3   4
ENDBRANCH   2   3
ENDBRANCH   1   2
BRANCH   1  10
ATOM     10  C   UNL     1      27.352  44.724   4.610  1.00  0.00     0.000 C 
BRANCH  10  11
ATOM     11  C   UNL     1      26.252  43.762   5.083  1.00  0.00    -0.000 C 
BRANCH  11  12
ATOM     12  C   UNL     1      25.385  43.239   3.927  1.00  0.00    -0.000 C 
BRANCH  12  13
ATOM     13  C   UNL     1      24.535  42.024   4.327  1.00  0.00    -0.000 C 
BRANCH  13  14
ATOM     14  C   UNL     1      23.045  42.383   4.359  1.00  0.00    -0.000 C 
BRANCH  14  15
ATOM     15  C   UNL     1      22.523  42.700   2.954  1.00  0.00    -0.003 C 
ATOM     16  C   UNL     1      23.095  41.734   1.921  1.00  0.00     0.004 C 
ENDBRANCH  14  15
ENDBRANCH  13  14
ENDBRANCH  12  13
ENDBRANCH  11  12
ENDBRANCH  10  11
ENDBRANCH   1  10
TORSDOF 12
ENDMDL
MODEL 2
REMARK VINA RESULT:     6.214     13.535     14.688
REMARK INTER + INTRA:          10.172
REMARK INTER:                  10.658
REMARK INTRA:                  -0.486
REMARK UNBOUND:                -0.402
REMARK SMILES CCCCCCCCCCCCCC(=O)[O-]
REMARK SMILES IDX 8 1 9 2 10 3 11 4 12 5 13 6 14 7 15 8 16 9 7 10 6 11 5 12
REMARK SMILES IDX 4 13 3 14 2 15 1 16
REMARK H PARENT
REMARK Flexibility Score: inf
ROOT
ATOM      1  C   UNL     1      26.297  31.245  -3.350  1.00  0.00     0.000 C 
ENDROOT
BRANCH   1   2
ATOM      2  C   UNL     1      26.838  30.605  -4.637  1.00  0.00     0.000 C 
BRANCH   2   3
ATOM      3  C   UNL     1      25.907  30.821  -5.841  1.00  0.00     0.000 C 
BRANCH   3   4
ATOM      4  C   UNL     1      26.573  31.633  -6.967  1.00  0.00     0.000 C 
BRANCH   4   5
ATOM      5  C   UNL     1      25.594  31.992  -8.095  1.00  0.00     0.006 C 
BRANCH   5   6
ATOM      6  C   UNL     1      24.286  32.598  -7.569  1.00  0.00     0.053 C 
BRANCH   6   7
ATOM      7  C   UNL     1      23.133  31.696  -7.876  1.00  0.00     0.041 C 
ATOM      8  O   UNL     1      21.970  32.166  -7.976  1.00  0.00    -0.550 OA
ATOM      9  O   UNL     1      23.350  30.342  -8.099  1.00  0.00    -0.550 OA
ENDBRANCH   6   7
ENDBRANCH   5   6
ENDBRANCH   4   5
ENDBRANCH   3   4
ENDBRANCH   2   3
ENDBRANCH   1   2
BRANCH   1  10
ATOM     10  C   UNL     1      27.215  30.943  -2.159  1.00  0.00     0.000 C 
BRANCH  10  11
ATOM     11  C   UNL     1      26.695  29.743  -1.354  1.00  0.00    -0.000 C 
BRANCH  11  12
ATOM     12  C   UNL     1      26.145  30.147   0.023  1.00  0.00    -0.000 C 
BRANCH  12  13
ATOM     13  C   UNL     1      27.010  29.631   1.182  1.00  0.00    -0.000 C 
BRANCH  13  14
ATOM     14  C   UNL     1      27.498  28.203   0.910  1.00  0.00    -0.000 C 
BRANCH  14  15
ATOM     15  C   UNL     1      28.739  27.875   1.748  1.00  0.00    -0.003 C 
ATOM     16  C   UNL     1      28.604  28.415   3.168  1.00  0.00     0.004 C 
ENDBRANCH  14  15
ENDBRANCH  13  14
ENDBRANCH  12  13
ENDBRANCH  11  12
ENDBRANCH  10  11
ENDBRANCH   1  10
TORSDOF 12
ENDMDL
MODEL 3
REMARK VINA RESULT:     6.870      3.450      6.952
REMARK INTER + INTRA:          11.287
REMARK INTER:                  11.706
REMARK INTRA:                  -0.419
REMARK UNBOUND:                -0.402
REMARK SMILES CCCCCCCCCCCCCC(=O)[O-]
REMARK SMILES IDX 8 1 9 2 10 3 11 4 12 5 13 6 14 7 15 8 16 9 7 10 6 11 5 12
REMARK SMILES IDX 4 13 3 14 2 15 1 16
REMARK H PARENT
REMARK Flexibility Score: inf
ROOT
ATOM      1  C   UNL     1      28.921  44.389   3.521  1.00  0.00     0.000 C 
ENDROOT
BRANCH   1   2
ATOM      2  C   UNL     1      27.419  44.698   3.611  1.00  0.00     0.000 C 
BRANCH   2   3
ATOM      3  C   UNL     1      26.775  44.137   4.889  1.00  0.00     0.000 C 
BRANCH   3   4
ATOM      4  C   UNL     1      25.597  43.191   4.591  1.00  0.00     0.000 C 
BRANCH   4   5
ATOM      5  C   UNL     1      25.245  43.140   3.096  1.00  0.00     0.006 C 
BRANCH   5   6
ATOM      6  C   UNL     1      24.131  42.131   2.787  1.00  0.00     0.053 C 
BRANCH   6   7
ATOM      7  C   UNL     1      22.850  42.554   3.434  1.00  0.00     0.041 C 
ATOM      8  O   UNL     1      22.617  42.254   4.634  1.00  0.00    -0.550 OA
ATOM      9  O   UNL     1      21.934  43.321   2.727  1.00  0.00    -0.550 OA
ENDBRANCH   6   7
ENDBRANCH   5   6
ENDBRANCH   4   5
ENDBRANCH   3   4
ENDBRANCH   2   3
ENDBRANCH   1   2
BRANCH   1  10
ATOM     10  C   UNL     1      29.464  44.706   2.123  1.00  0.00     0.000 C 
BRANCH  10  11
ATOM     11  C   UNL     1      29.369  43.479   1.204  1.00  0.00    -0.000 C 
BRANCH  11  12
ATOM     12  C   UNL     1      30.489  43.437   0.153  1.00  0.00    -0.000 C 
BRANCH  12  13
ATOM     13  C   UNL     1      30.181  42.473  -1.002  1.00  0.00    -0.000 C 
BRANCH  13  14
ATOM     14  C   UNL     1      29.828  43.243  -2.281  1.00  0.00    -0.000 C 
BRANCH  14  15
ATOM     15  C   UNL     1      29.295  42.298  -3.363  1.00  0.00    -0.003 C 
ATOM     16  C   UNL     1      28.124  41.470  -2.846  1.00  0.00     0.004 C 
ENDBRANCH  14  15
ENDBRANCH  13  14
ENDBRANCH  12  13
ENDBRANCH  11  12
ENDBRANCH  10  11
ENDBRANCH   1  10
TORSDOF 12
ENDMDL
MODEL 4
REMARK VINA RESULT:     6.953      3.661      6.461
REMARK INTER + INTRA:          11.428
REMARK INTER:                  11.874
REMARK INTRA:                  -0.446
REMARK UNBOUND:                -0.402
REMARK SMILES CCCCCCCCCCCCCC(=O)[O-]
REMARK SMILES IDX 8 1 9 2 10 3 11 4 12 5 13 6 14 7 15 8 16 9 7 10 6 11 5 12
REMARK SMILES IDX 4 13 3 14 2 15 1 16
REMARK H PARENT
REMARK Flexibility Score: inf
ROOT
ATOM      1  C   UNL     1      27.755  43.945   4.437  1.00  0.00     0.000 C 
ENDROOT
BRANCH   1   2
ATOM      2  C   UNL     1      26.402  43.569   3.817  1.00  0.00     0.000 C 
BRANCH   2   3
ATOM      3  C   UNL     1      25.324  43.287   4.876  1.00  0.00     0.000 C 
BRANCH   3   4
ATOM      4  C   UNL     1      24.493  42.031   4.555  1.00  0.00     0.000 C 
BRANCH   4   5
ATOM      5  C   UNL     1      22.981  42.280   4.664  1.00  0.00     0.006 C 
BRANCH   5   6
ATOM      6  C   UNL     1      22.370  42.786   3.350  1.00  0.00     0.053 C 
BRANCH   6   7
ATOM      7  C   UNL     1      23.023  42.117   2.181  1.00  0.00     0.041 C 
ATOM      8  O   UNL     1      22.458  41.147   1.610  1.00  0.00    -0.550 OA
ATOM      9  O   UNL     1      24.232  42.594   1.693  1.00  0.00    -0.550 OA
ENDBRANCH   6   7
ENDBRANCH   5   6
ENDBRANCH   4   5
ENDBRANCH   3   4
ENDBRANCH   2   3
ENDBRANCH   1   2
BRANCH   1  10
ATOM     10  C   UNL     1      28.492  44.970   3.566  1.00  0.00     0.000 C 
BRANCH  10  11
ATOM     11  C   UNL     1      28.630  46.315   4.295  1.00  0.00    -0.000 C 
BRANCH  11  12
ATOM     12  C   UNL     1      27.394  46.661   5.139  1.00  0.00    -0.000 C 
BRANCH  12  13
ATOM     13  C   UNL     1      27.683  47.732   6.201  1.00  0.00    -0.000 C 
BRANCH  13  14
ATOM     14  C   UNL     1      26.957  47.413   7.514  1.00  0.00    -0.000 C 
BRANCH  14  15
ATOM     15  C   UNL     1      25.972  46.252   7.331  1.00  0.00    -0.003 C 
ATOM     16  C   UNL     1      24.589  46.613   7.864  1.00  0.00     0.004 C 
ENDBRANCH  14  15
ENDBRANCH  13  14
ENDBRANCH  12  13
ENDBRANCH  11  12
ENDBRANCH  10  11
ENDBRANCH   1  10
TORSDOF 12
ENDMDL
MODEL 5
REMARK VINA RESULT:     7.221     12.933     14.393
REMARK INTER + INTRA:          11.884
REMARK INTER:                  12.367
REMARK INTRA:                  -0.483
REMARK UNBOUND:                -0.402
REMARK SMILES CCCCCCCCCCCCCC(=O)[O-]
REMARK SMILES IDX 8 1 9 2 10 3 11 4 12 5 13 6 14 7 15 8 16 9 7 10 6 11 5 12
REMARK SMILES IDX 4 13 3 14 2 15 1 16
REMARK H PARENT
REMARK Flexibility Score: inf
ROOT
ATOM      1  C   UNL     1      26.803  30.317  -4.899  1.00  0.00     0.000 C 
ENDROOT
BRANCH   1   2
ATOM      2  C   UNL     1      26.080  30.278  -6.253  1.00  0.00     0.000 C 
BRANCH   2   3
ATOM      3  C   UNL     1      24.608  30.710  -6.151  1.00  0.00     0.000 C 
BRANCH   3   4
ATOM      4  C   UNL     1      23.890  30.689  -7.512  1.00  0.00     0.000 C 
BRANCH   4   5
ATOM      5  C   UNL     1      23.580  32.099  -8.037  1.00  0.00     0.006 C 
BRANCH   5   6
ATOM      6  C   UNL     1      24.750  33.073  -7.837  1.00  0.00     0.053 C 
BRANCH   6   7
ATOM      7  C   UNL     1      24.285  34.486  -7.995  1.00  0.00     0.041 C 
ATOM      8  O   UNL     1      25.121  35.418  -8.124  1.00  0.00    -0.550 OA
ATOM      9  O   UNL     1      22.926  34.769  -8.048  1.00  0.00    -0.550 OA
ENDBRANCH   6   7
ENDBRANCH   5   6
ENDBRANCH   4   5
ENDBRANCH   3   4
ENDBRANCH   2   3
ENDBRANCH   1   2
BRANCH   1  10
ATOM     10  C   UNL     1      26.170  31.360  -3.969  1.00  0.00     0.000 C 
BRANCH  10  11
ATOM     11  C   UNL     1      26.938  31.453  -2.642  1.00  0.00    -0.000 C 
BRANCH  11  12
ATOM     12  C   UNL     1      26.311  30.593  -1.533  1.00  0.00    -0.000 C 
BRANCH  12  13
ATOM     13  C   UNL     1      27.361  29.971  -0.601  1.00  0.00    -0.000 C 
BRANCH  13  14
ATOM     14  C   UNL     1      26.769  29.697   0.787  1.00  0.00    -0.000 C 
BRANCH  14  15
ATOM     15  C   UNL     1      27.111  28.281   1.262  1.00  0.00    -0.003 C 
ATOM     16  C   UNL     1      28.537  28.207   1.798  1.00  0.00     0.004 C 
ENDBRANCH  14  15
ENDBRANCH  13  14
ENDBRANCH  12  13
ENDBRANCH  11  12
ENDBRANCH  10  11
ENDBRANCH   1  10
TORSDOF 12
ENDMDL
MODEL 6
REMARK VINA RESULT:     7.579      4.824      7.341
REMARK INTER + INTRA:          12.494
REMARK INTER:                  13.171
REMARK INTRA:                  -0.677
REMARK UNBOUND:                -0.402
REMARK SMILES CCCCCCCCCCCCCC(=O)[O-]
REMARK SMILES IDX 8 1 9 2 10 3 11 4 12 5 13 6 14 7 15 8 16 9 7 10 6 11 5 12
REMARK SMILES IDX 4 13 3 14 2 15 1 16
REMARK H PARENT
REMARK Flexibility Score: inf
ROOT
ATOM      1  C   UNL     1      25.814  43.555   3.989  1.00  0.00     0.000 C 
ENDROOT
BRANCH   1   2
ATOM      2  C   UNL     1      24.983  43.016   2.815  1.00  0.00     0.000 C 
BRANCH   2   3
ATOM      3  C   UNL     1      23.870  42.058   3.268  1.00  0.00     0.000 C 
BRANCH   3   4
ATOM      4  C   UNL     1      23.981  41.685   4.758  1.00  0.00     0.000 C 
BRANCH   4   5
ATOM      5  C   UNL     1      24.765  40.383   4.983  1.00  0.00     0.006 C 
BRANCH   5   6
ATOM      6  C   UNL     1      24.710  39.907   6.441  1.00  0.00     0.053 C 
BRANCH   6   7
ATOM      7  C   UNL     1      25.646  38.759   6.651  1.00  0.00     0.041 C 
ATOM      8  O   UNL     1      26.393  38.728   7.663  1.00  0.00    -0.550 OA
ATOM      9  O   UNL     1      25.659  37.700   5.752  1.00  0.00    -0.550 OA
ENDBRANCH   6   7
ENDBRANCH   5   6
ENDBRANCH   4   5
ENDBRANCH   3   4
ENDBRANCH   2   3
ENDBRANCH   1   2
BRANCH   1  10
ATOM     10  C   UNL     1      27.267  43.803   3.566  1.00  0.00     0.000 C 
BRANCH  10  11
ATOM     11  C   UNL     1      27.770  45.156   4.090  1.00  0.00    -0.000 C 
BRANCH  11  12
ATOM     12  C   UNL     1      27.100  45.566   5.411  1.00  0.00    -0.000 C 
BRANCH  12  13
ATOM     13  C   UNL     1      27.455  46.999   5.835  1.00  0.00    -0.000 C 
BRANCH  13  14
ATOM     14  C   UNL     1      26.844  47.334   7.201  1.00  0.00    -0.000 C 
BRANCH  14  15
ATOM     15  C   UNL     1      25.836  46.263   7.632  1.00  0.00    -0.003 C 
ATOM     16  C   UNL     1      24.482  46.882   7.966  1.00  0.00     0.004 C 
ENDBRANCH  14  15
ENDBRANCH  13  14
ENDBRANCH  12  13
ENDBRANCH  11  12
ENDBRANCH  10  11
ENDBRANCH   1  10
TORSDOF 12
ENDMDL
MODEL 7
REMARK VINA RESULT:     7.607     13.280     15.289
REMARK INTER + INTRA:          12.541
REMARK INTER:                  12.896
REMARK INTRA:                  -0.355
REMARK UNBOUND:                -0.402
REMARK SMILES CCCCCCCCCCCCCC(=O)[O-]
REMARK SMILES IDX 8 1 9 2 10 3 11 4 12 5 13 6 14 7 15 8 16 9 7 10 6 11 5 12
REMARK SMILES IDX 4 13 3 14 2 15 1 16
REMARK H PARENT
REMARK Flexibility Score: inf
ROOT
ATOM      1  C   UNL     1      26.228  32.087  -3.289  1.00  0.00     0.000 C 
ENDROOT
BRANCH   1   2
ATOM      2  C   UNL     1      26.079  31.458  -1.895  1.00  0.00     0.000 C 
BRANCH   2   3
ATOM      3  C   UNL     1      27.190  30.443  -1.582  1.00  0.00     0.000 C 
BRANCH   3   4
ATOM      4  C   UNL     1      26.703  29.289  -0.688  1.00  0.00     0.000 C 
BRANCH   4   5
ATOM      5  C   UNL     1      26.923  29.568   0.807  1.00  0.00     0.006 C 
BRANCH   5   6
ATOM      6  C   UNL     1      27.122  28.283   1.623  1.00  0.00     0.053 C 
BRANCH   6   7
ATOM      7  C   UNL     1      28.557  28.133   2.017  1.00  0.00     0.041 C 
ATOM      8  O   UNL     1      28.863  27.875   3.211  1.00  0.00    -0.550 OA
ATOM      9  O   UNL     1      29.556  28.231   1.057  1.00  0.00    -0.550 OA
ENDBRANCH   6   7
ENDBRANCH   5   6
ENDBRANCH   4   5
ENDBRANCH   3   4
ENDBRANCH   2   3
ENDBRANCH   1   2
BRANCH   1  10
ATOM     10  C   UNL     1      26.385  31.005  -4.365  1.00  0.00     0.000 C 
BRANCH  10  11
ATOM     11  C   UNL     1      25.366  31.203  -5.497  1.00  0.00    -0.000 C 
BRANCH  11  12
ATOM     12  C   UNL     1      25.985  31.021  -6.891  1.00  0.00    -0.000 C 
BRANCH  12  13
ATOM     13  C   UNL     1      25.717  32.214  -7.819  1.00  0.00    -0.000 C 
BRANCH  13  14
ATOM     14  C   UNL     1      24.211  32.448  -7.991  1.00  0.00    -0.000 C 
BRANCH  14  15
ATOM     15  C   UNL     1      23.458  31.120  -8.123  1.00  0.00    -0.003 C 
ATOM     16  C   UNL     1      22.129  31.162  -7.376  1.00  0.00     0.004 C 
ENDBRANCH  14  15
ENDBRANCH  13  14
ENDBRANCH  12  13
ENDBRANCH  11  12
ENDBRANCH  10  11
ENDBRANCH   1  10
TORSDOF 12
ENDMDL
MODEL 8
REMARK VINA RESULT:     7.651     13.269     15.076
REMARK INTER + INTRA:          12.616
REMARK INTER:                  12.867
REMARK INTRA:                  -0.251
REMARK UNBOUND:                -0.402
REMARK SMILES CCCCCCCCCCCCCC(=O)[O-]
REMARK SMILES IDX 8 1 9 2 10 3 11 4 12 5 13 6 14 7 15 8 16 9 7 10 6 11 5 12
REMARK SMILES IDX 4 13 3 14 2 15 1 16
REMARK H PARENT
REMARK Flexibility Score: inf
ROOT
ATOM      1  C   UNL     1      26.108  31.372  -3.702  1.00  0.00     0.000 C 
ENDROOT
BRANCH   1   2
ATOM      2  C   UNL     1      26.646  30.377  -2.662  1.00  0.00     0.000 C 
BRANCH   2   3
ATOM      3  C   UNL     1      26.891  31.029  -1.292  1.00  0.00     0.000 C 
BRANCH   3   4
ATOM      4  C   UNL     1      27.594  30.081  -0.304  1.00  0.00     0.000 C 
BRANCH   4   5
ATOM      5  C   UNL     1      26.619  29.451   0.704  1.00  0.00     0.006 C 
BRANCH   5   6
ATOM      6  C   UNL     1      27.073  28.062   1.173  1.00  0.00     0.053 C 
BRANCH   6   7
ATOM      7  C   UNL     1      28.377  28.158   1.900  1.00  0.00     0.041 C 
ATOM      8  O   UNL     1      29.462  28.114   1.264  1.00  0.00    -0.550 OA
ATOM      9  O   UNL     1      28.393  28.343   3.277  1.00  0.00    -0.550 OA
ENDBRANCH   6   7
ENDBRANCH   5   6
ENDBRANCH   4   5
ENDBRANCH   3   4
ENDBRANCH   2   3
ENDBRANCH   1   2
BRANCH   1  10
ATOM     10  C   UNL     1      26.428  30.903  -5.127  1.00  0.00     0.000 C 
BRANCH  10  11
ATOM     11  C   UNL     1      25.171  30.927  -6.009  1.00  0.00    -0.000 C 
BRANCH  11  12
ATOM     12  C   UNL     1      25.492  31.164  -7.493  1.00  0.00    -0.000 C 
BRANCH  12  13
ATOM     13  C   UNL     1      24.609  32.250  -8.125  1.00  0.00    -0.000 C 
BRANCH  13  14
ATOM     14  C   UNL     1      24.690  33.556  -7.327  1.00  0.00    -0.000 C 
BRANCH  14  15
ATOM     15  C   UNL     1      24.106  34.727  -8.125  1.00  0.00    -0.003 C 
ATOM     16  C   UNL     1      24.956  35.983  -7.965  1.00  0.00     0.004 C 
ENDBRANCH  14  15
ENDBRANCH  13  14
ENDBRANCH  12  13
ENDBRANCH  11  12
ENDBRANCH  10  11
ENDBRANCH   1  10
TORSDOF 12
ENDMDL
MODEL 9
REMARK VINA RESULT:     8.236      5.111      6.837
REMARK INTER + INTRA:          13.611
REMARK INTER:                  14.064
REMARK INTRA:                  -0.454
REMARK UNBOUND:                -0.402
REMARK SMILES CCCCCCCCCCCCCC(=O)[O-]
REMARK SMILES IDX 8 1 9 2 10 3 11 4 12 5 13 6 14 7 15 8 16 9 7 10 6 11 5 12
REMARK SMILES IDX 4 13 3 14 2 15 1 16
REMARK H PARENT
REMARK Flexibility Score: inf
ROOT
ATOM      1  C   UNL     1      24.824  43.060   2.484  1.00  0.00     0.000 C 
ENDROOT
BRANCH   1   2
ATOM      2  C   UNL     1      25.802  43.242   3.654  1.00  0.00     0.000 C 
BRANCH   2   3
ATOM      3  C   UNL     1      27.029  44.087   3.273  1.00  0.00     0.000 C 
BRANCH   3   4
ATOM      4  C   UNL     1      27.835  44.546   4.501  1.00  0.00     0.000 C 
BRANCH   4   5
ATOM      5  C   UNL     1      27.181  45.731   5.227  1.00  0.00     0.006 C 
BRANCH   5   6
ATOM      6  C   UNL     1      26.460  45.308   6.514  1.00  0.00     0.053 C 
BRANCH   6   7
ATOM      7  C   UNL     1      26.100  46.510   7.329  1.00  0.00     0.041 C 
ATOM      8  O   UNL     1      26.971  47.381   7.592  1.00  0.00    -0.550 OA
ATOM      9  O   UNL     1      24.793  46.693   7.760  1.00  0.00    -0.550 OA
ENDBRANCH   6   7
ENDBRANCH   5   6
ENDBRANCH   4   5
ENDBRANCH   3   4
ENDBRANCH   2   3
ENDBRANCH   1   2
BRANCH   1  10
ATOM     10  C   UNL     1      23.681  42.111   2.867  1.00  0.00     0.000 C 
BRANCH  10  11
ATOM     11  C   UNL     1      23.039  42.530   4.197  1.00  0.00    -0.000 C 
BRANCH  11  12
ATOM     12  C   UNL     1      23.152  41.444   5.278  1.00  0.00    -0.000 C 
BRANCH  12  13
ATOM     13  C   UNL     1      24.453  40.634   5.172  1.00  0.00    -0.000 C 
BRANCH  13  14
ATOM     14  C   UNL     1      24.701  39.823   6.449  1.00  0.00    -0.000 C 
BRANCH  14  15
ATOM     15  C   UNL     1      25.607  38.619   6.170  1.00  0.00    -0.003 C 
ATOM     16  C   UNL     1      26.630  38.428   7.284  1.00  0.00     0.004 C 
ENDBRANCH  14  15
ENDBRANCH  13  14
ENDBRANCH  12  13
ENDBRANCH  11  12
ENDBRANCH  10  11
ENDBRANCH   1  10
TORSDOF 12
ENDMDL
