MODEL 1
REMARK VINA RESULT:    -4.756      0.000      0.000
REMARK INTER + INTRA:         -10.784
REMARK INTER:                  -8.648
REMARK INTRA:                  -2.136
REMARK UNBOUND:                -2.136
REMARK SMILES CCCCCCCCCCCCCCCC(=O)[O-]
REMARK SMILES IDX 9 1 10 2 11 3 12 4 13 5 14 6 15 7 16 8 17 9 18 10 8 11 7 12
REMARK SMILES IDX 6 13 5 14 4 15 3 16 2 17 1 18
REMARK H PARENT
REMARK Flexibility Score: inf
ROOT
ATOM      1  C   UNL     1      22.861   9.013   9.859  1.00  0.00     0.000 C 
ENDROOT
BRANCH   1   2
ATOM      2  C   UNL     1      23.364   7.567  10.028  1.00  0.00     0.000 C 
BRANCH   2   3
ATOM      3  C   UNL     1      24.864   7.461  10.366  1.00  0.00     0.000 C 
BRANCH   3   4
ATOM      4  C   UNL     1      25.159   6.586  11.605  1.00  0.00     0.000 C 
BRANCH   4   5
ATOM      5  C   UNL     1      23.985   6.490  12.600  1.00  0.00     0.000 C 
BRANCH   5   6
ATOM      6  C   UNL     1      24.140   7.392  13.844  1.00  0.00     0.006 C 
BRANCH   6   7
ATOM      7  C   UNL     1      23.309   8.683  13.772  1.00  0.00     0.053 C 
BRANCH   7   8
ATOM      8  C   UNL     1      24.180   9.902  13.728  1.00  0.00     0.041 C 
ATOM      9  O   UNL     1      24.157  10.735  14.672  1.00  0.00    -0.550 OA
ATOM     10  O   UNL     1      25.005  10.126  12.632  1.00  0.00    -0.550 OA
ENDBRANCH   7   8
ENDBRANCH   6   7
ENDBRANCH   5   6
ENDBRANCH   4   5
ENDBRANCH   3   4
ENDBRANCH   2   3
ENDBRANCH   1   2
BRANCH   1  11
ATOM     11  C   UNL     1      21.371   9.167  10.200  1.00  0.00     0.000 C 
BRANCH  11  12
ATOM     12  C   UNL     1      20.918   8.076  11.182  1.00  0.00    -0.000 C 
BRANCH  12  13
ATOM     13  C   UNL     1      19.390   7.924  11.234  1.00  0.00    -0.000 C 
BRANCH  13  14
ATOM     14  C   UNL     1      18.933   6.476  10.984  1.00  0.00    -0.000 C 
BRANCH  14  15
ATOM     15  C   UNL     1      19.616   5.845   9.762  1.00  0.00    -0.000 C 
BRANCH  15  16
ATOM     16  C   UNL     1      18.985   6.299   8.434  1.00  0.00    -0.000 C 
BRANCH  16  17
ATOM     17  C   UNL     1      19.932   7.181   7.605  1.00  0.00    -0.003 C 
ATOM     18  C   UNL     1      19.223   8.379   6.975  1.00  0.00     0.004 C 
ENDBRANCH  16  17
ENDBRANCH  15  16
ENDBRANCH  14  15
ENDBRANCH  13  14
ENDBRANCH  12  13
ENDBRANCH  11  12
ENDBRANCH   1  11
TORSDOF 14
ENDMDL
MODEL 2
REMARK VINA RESULT:    -4.634      1.555      2.862
REMARK INTER + INTRA:         -10.563
REMARK INTER:                  -8.878
REMARK INTRA:                  -1.685
REMARK UNBOUND:                -2.136
REMARK SMILES CCCCCCCCCCCCCCCC(=O)[O-]
REMARK SMILES IDX 9 1 10 2 11 3 12 4 13 5 14 6 15 7 16 8 17 9 18 10 8 11 7 12
REMARK SMILES IDX 6 13 5 14 4 15 3 16 2 17 1 18
REMARK H PARENT
REMARK Flexibility Score: inf
ROOT
ATOM      1  C   UNL     1      23.316   7.540  13.236  1.00  0.00     0.000 C 
ENDROOT
BRANCH   1   2
ATOM      2  C   UNL     1      24.065   6.328  13.820  1.00  0.00     0.000 C 
BRANCH   2   3
ATOM      3  C   UNL     1      24.607   5.353  12.756  1.00  0.00     0.000 C 
BRANCH   3   4
ATOM      4  C   UNL     1      25.932   5.818  12.111  1.00  0.00     0.000 C 
BRANCH   4   5
ATOM      5  C   UNL     1      25.820   6.142  10.608  1.00  0.00     0.000 C 
BRANCH   5   6
ATOM      6  C   UNL     1      25.615   7.642  10.302  1.00  0.00     0.006 C 
BRANCH   6   7
ATOM      7  C   UNL     1      24.342   7.934   9.491  1.00  0.00     0.053 C 
BRANCH   7   8
ATOM      8  C   UNL     1      23.778   9.285   9.811  1.00  0.00     0.041 C 
ATOM      9  O   UNL     1      24.250   9.962  10.763  1.00  0.00    -0.550 OA
ATOM     10  O   UNL     1      22.718   9.789   9.068  1.00  0.00    -0.550 OA
ENDBRANCH   7   8
ENDBRANCH   6   7
ENDBRANCH   5   6
ENDBRANCH   4   5
ENDBRANCH   3   4
ENDBRANCH   2   3
ENDBRANCH   1   2
BRANCH   1  11
ATOM     11  C   UNL     1      22.168   7.134  12.299  1.00  0.00     0.000 C 
BRANCH  11  12
ATOM     12  C   UNL     1      21.227   8.321  12.042  1.00  0.00    -0.000 C 
BRANCH  12  13
ATOM     13  C   UNL     1      19.986   7.925  11.226  1.00  0.00    -0.000 C 
BRANCH  13  14
ATOM     14  C   UNL     1      19.818   6.400  11.110  1.00  0.00    -0.000 C 
BRANCH  14  15
ATOM     15  C   UNL     1      19.584   5.942   9.662  1.00  0.00    -0.000 C 
BRANCH  15  16
ATOM     16  C   UNL     1      20.214   6.897   8.633  1.00  0.00    -0.000 C 
BRANCH  16  17
ATOM     17  C   UNL     1      19.350   7.054   7.372  1.00  0.00    -0.003 C 
ATOM     18  C   UNL     1      19.289   8.497   6.875  1.00  0.00     0.004 C 
ENDBRANCH  16  17
ENDBRANCH  15  16
ENDBRANCH  14  15
ENDBRANCH  13  14
ENDBRANCH  12  13
ENDBRANCH  11  12
ENDBRANCH   1  11
TORSDOF 14
ENDMDL
MODEL 3
REMARK VINA RESULT:    -4.602      2.257      2.739
REMARK INTER + INTRA:         -10.504
REMARK INTER:                  -8.449
REMARK INTRA:                  -2.055
REMARK UNBOUND:                -2.136
REMARK SMILES CCCCCCCCCCCCCCCC(=O)[O-]
REMARK SMILES IDX 9 1 10 2 11 3 12 4 13 5 14 6 15 7 16 8 17 9 18 10 8 11 7 12
REMARK SMILES IDX 6 13 5 14 4 15 3 16 2 17 1 18
REMARK H PARENT
REMARK Flexibility Score: inf
ROOT
ATOM      1  C   UNL     1      22.726   8.145   9.856  1.00  0.00     0.000 C 
ENDROOT
BRANCH   1   2
ATOM      2  C   UNL     1      24.158   8.667  10.078  1.00  0.00     0.000 C 
BRANCH   2   3
ATOM      3  C   UNL     1      24.240   9.907  10.989  1.00  0.00     0.000 C 
BRANCH   3   4
ATOM      4  C   UNL     1      25.017   9.661  12.301  1.00  0.00     0.000 C 
BRANCH   4   5
ATOM      5  C   UNL     1      25.262   8.171  12.617  1.00  0.00     0.000 C 
BRANCH   5   6
ATOM      6  C   UNL     1      24.171   7.529  13.502  1.00  0.00     0.006 C 
BRANCH   6   7
ATOM      7  C   UNL     1      23.692   6.161  12.989  1.00  0.00     0.053 C 
BRANCH   7   8
ATOM      8  C   UNL     1      24.163   5.044  13.869  1.00  0.00     0.041 C 
ATOM      9  O   UNL     1      23.458   4.011  14.018  1.00  0.00    -0.550 OA
ATOM     10  O   UNL     1      25.375   5.151  14.540  1.00  0.00    -0.550 OA
ENDBRANCH   7   8
ENDBRANCH   6   7
ENDBRANCH   5   6
ENDBRANCH   4   5
ENDBRANCH   3   4
ENDBRANCH   2   3
ENDBRANCH   1   2
BRANCH   1  11
ATOM     11  C   UNL     1      21.655   9.093  10.418  1.00  0.00     0.000 C 
BRANCH  11  12
ATOM     12  C   UNL     1      20.908   8.439  11.590  1.00  0.00    -0.000 C 
BRANCH  12  13
ATOM     13  C   UNL     1      20.677   6.935  11.380  1.00  0.00    -0.000 C 
BRANCH  13  14
ATOM     14  C   UNL     1      19.235   6.613  10.952  1.00  0.00    -0.000 C 
BRANCH  14  15
ATOM     15  C   UNL     1      19.174   5.800   9.650  1.00  0.00    -0.000 C 
BRANCH  15  16
ATOM     16  C   UNL     1      19.937   6.475   8.497  1.00  0.00    -0.000 C 
BRANCH  16  17
ATOM     17  C   UNL     1      19.118   7.585   7.821  1.00  0.00    -0.003 C 
ATOM     18  C   UNL     1      19.945   8.417   6.842  1.00  0.00     0.004 C 
ENDBRANCH  16  17
ENDBRANCH  15  16
ENDBRANCH  14  15
ENDBRANCH  13  14
ENDBRANCH  12  13
ENDBRANCH  11  12
ENDBRANCH   1  11
TORSDOF 14
ENDMDL
MODEL 4
REMARK VINA RESULT:    -4.545      1.476      2.123
REMARK INTER + INTRA:         -10.401
REMARK INTER:                  -8.748
REMARK INTRA:                  -1.653
REMARK UNBOUND:                -2.136
REMARK SMILES CCCCCCCCCCCCCCCC(=O)[O-]
REMARK SMILES IDX 9 1 10 2 11 3 12 4 13 5 14 6 15 7 16 8 17 9 18 10 8 11 7 12
REMARK SMILES IDX 6 13 5 14 4 15 3 16 2 17 1 18
REMARK H PARENT
REMARK Flexibility Score: inf
ROOT
ATOM      1  C   UNL     1      21.704   9.170  10.006  1.00  0.00     0.000 C 
ENDROOT
BRANCH   1   2
ATOM      2  C   UNL     1      23.113   9.521   9.491  1.00  0.00     0.000 C 
BRANCH   2   3
ATOM      3  C   UNL     1      24.199   8.503   9.892  1.00  0.00     0.000 C 
BRANCH   3   4
ATOM      4  C   UNL     1      25.379   9.131  10.665  1.00  0.00     0.000 C 
BRANCH   4   5
ATOM      5  C   UNL     1      25.012  10.410  11.444  1.00  0.00     0.000 C 
BRANCH   5   6
ATOM      6  C   UNL     1      25.155  10.277  12.976  1.00  0.00     0.006 C 
BRANCH   6   7
ATOM      7  C   UNL     1      25.448   8.841  13.442  1.00  0.00     0.053 C 
BRANCH   7   8
ATOM      8  C   UNL     1      24.216   8.166  13.964  1.00  0.00     0.041 C 
ATOM      9  O   UNL     1      24.025   6.939  13.751  1.00  0.00    -0.550 OA
ATOM     10  O   UNL     1      23.270   8.898  14.670  1.00  0.00    -0.550 OA
ENDBRANCH   7   8
ENDBRANCH   6   7
ENDBRANCH   5   6
ENDBRANCH   4   5
ENDBRANCH   3   4
ENDBRANCH   2   3
ENDBRANCH   1   2
BRANCH   1  11
ATOM     11  C   UNL     1      21.697   8.767  11.488  1.00  0.00     0.000 C 
BRANCH  11  12
ATOM     12  C   UNL     1      21.129   7.351  11.668  1.00  0.00    -0.000 C 
BRANCH  12  13
ATOM     13  C   UNL     1      19.664   7.239  11.219  1.00  0.00    -0.000 C 
BRANCH  13  14
ATOM     14  C   UNL     1      19.287   5.811  10.789  1.00  0.00    -0.000 C 
BRANCH  14  15
ATOM     15  C   UNL     1      19.045   5.695   9.276  1.00  0.00    -0.000 C 
BRANCH  15  16
ATOM     16  C   UNL     1      19.938   6.648   8.463  1.00  0.00    -0.000 C 
BRANCH  16  17
ATOM     17  C   UNL     1      19.140   7.463   7.432  1.00  0.00    -0.003 C 
ATOM     18  C   UNL     1      19.974   8.560   6.774  1.00  0.00     0.004 C 
ENDBRANCH  16  17
ENDBRANCH  15  16
ENDBRANCH  14  15
ENDBRANCH  13  14
ENDBRANCH  12  13
ENDBRANCH  11  12
ENDBRANCH   1  11
TORSDOF 14
ENDMDL
MODEL 5
REMARK VINA RESULT:    -4.535      2.726      6.009
REMARK INTER + INTRA:         -10.383
REMARK INTER:                  -8.452
REMARK INTRA:                  -1.931
REMARK UNBOUND:                -2.136
REMARK SMILES CCCCCCCCCCCCCCCC(=O)[O-]
REMARK SMILES IDX 9 1 10 2 11 3 12 4 13 5 14 6 15 7 16 8 17 9 18 10 8 11 7 12
REMARK SMILES IDX 6 13 5 14 4 15 3 16 2 17 1 18
REMARK H PARENT
REMARK Flexibility Score: inf
ROOT
ATOM      1  C   UNL     1      22.689   8.165  13.089  1.00  0.00     0.000 C 
ENDROOT
BRANCH   1   2
ATOM      2  C   UNL     1      21.796   7.339  12.145  1.00  0.00     0.000 C 
BRANCH   2   3
ATOM      3  C   UNL     1      20.700   8.163  11.439  1.00  0.00     0.000 C 
BRANCH   3   4
ATOM      4  C   UNL     1      19.331   7.449  11.382  1.00  0.00     0.000 C 
BRANCH   4   5
ATOM      5  C   UNL     1      19.374   6.059  10.717  1.00  0.00     0.000 C 
BRANCH   5   6
ATOM      6  C   UNL     1      20.023   6.052   9.316  1.00  0.00     0.006 C 
BRANCH   6   7
ATOM      7  C   UNL     1      19.096   6.579   8.208  1.00  0.00     0.053 C 
BRANCH   7   8
ATOM      8  C   UNL     1      19.626   7.840   7.596  1.00  0.00     0.041 C 
ATOM      9  O   UNL     1      20.637   8.409   8.087  1.00  0.00    -0.550 OA
ATOM     10  O   UNL     1      18.990   8.397   6.493  1.00  0.00    -0.550 OA
ENDBRANCH   7   8
ENDBRANCH   6   7
ENDBRANCH   5   6
ENDBRANCH   4   5
ENDBRANCH   3   4
ENDBRANCH   2   3
ENDBRANCH   1   2
BRANCH   1  11
ATOM     11  C   UNL     1      23.927   7.390  13.565  1.00  0.00     0.000 C 
BRANCH  11  12
ATOM     12  C   UNL     1      23.777   5.889  13.275  1.00  0.00    -0.000 C 
BRANCH  12  13
ATOM     13  C   UNL     1      25.038   5.279  12.641  1.00  0.00    -0.000 C 
BRANCH  13  14
ATOM     14  C   UNL     1      25.857   6.312  11.848  1.00  0.00    -0.000 C 
BRANCH  14  15
ATOM     15  C   UNL     1      25.750   6.109  10.329  1.00  0.00    -0.000 C 
BRANCH  15  16
ATOM     16  C   UNL     1      24.671   7.000   9.690  1.00  0.00    -0.000 C 
BRANCH  16  17
ATOM     17  C   UNL     1      24.858   8.486  10.035  1.00  0.00    -0.003 C 
ATOM     18  C   UNL     1      23.638   9.333   9.673  1.00  0.00     0.004 C 
ENDBRANCH  16  17
ENDBRANCH  15  16
ENDBRANCH  14  15
ENDBRANCH  13  14
ENDBRANCH  12  13
ENDBRANCH  11  12
ENDBRANCH   1  11
TORSDOF 14
ENDMDL
MODEL 6
REMARK VINA RESULT:    -4.432      2.856      6.260
REMARK INTER + INTRA:         -10.195
REMARK INTER:                  -7.978
REMARK INTRA:                  -2.217
REMARK UNBOUND:                -2.136
REMARK SMILES CCCCCCCCCCCCCCCC(=O)[O-]
REMARK SMILES IDX 9 1 10 2 11 3 12 4 13 5 14 6 15 7 16 8 17 9 18 10 8 11 7 12
REMARK SMILES IDX 6 13 5 14 4 15 3 16 2 17 1 18
REMARK H PARENT
REMARK Flexibility Score: inf
ROOT
ATOM      1  C   UNL     1      23.017   8.234  10.193  1.00  0.00     0.000 C 
ENDROOT
BRANCH   1   2
ATOM      2  C   UNL     1      21.926   9.175  10.738  1.00  0.00     0.000 C 
BRANCH   2   3
ATOM      3  C   UNL     1      20.904   8.482  11.661  1.00  0.00     0.000 C 
BRANCH   3   4
ATOM      4  C   UNL     1      20.791   6.959  11.425  1.00  0.00     0.000 C 
BRANCH   4   5
ATOM      5  C   UNL     1      19.363   6.477  11.101  1.00  0.00     0.000 C 
BRANCH   5   6
ATOM      6  C   UNL     1      19.212   5.863   9.692  1.00  0.00     0.006 C 
BRANCH   6   7
ATOM      7  C   UNL     1      20.193   6.445   8.661  1.00  0.00     0.053 C 
BRANCH   7   8
ATOM      8  C   UNL     1      19.581   7.575   7.890  1.00  0.00     0.041 C 
ATOM      9  O   UNL     1      19.352   7.454   6.658  1.00  0.00    -0.550 OA
ATOM     10  O   UNL     1      19.281   8.770   8.531  1.00  0.00    -0.550 OA
ENDBRANCH   7   8
ENDBRANCH   6   7
ENDBRANCH   5   6
ENDBRANCH   4   5
ENDBRANCH   3   4
ENDBRANCH   2   3
ENDBRANCH   1   2
BRANCH   1  11
ATOM     11  C   UNL     1      24.402   8.897  10.143  1.00  0.00     0.000 C 
BRANCH  11  12
ATOM     12  C   UNL     1      24.506  10.026  11.179  1.00  0.00    -0.000 C 
BRANCH  12  13
ATOM     13  C   UNL     1      25.203   9.579  12.474  1.00  0.00    -0.000 C 
BRANCH  13  14
ATOM     14  C   UNL     1      24.330   9.805  13.721  1.00  0.00    -0.000 C 
BRANCH  14  15
ATOM     15  C   UNL     1      23.581   8.535  14.155  1.00  0.00    -0.000 C 
BRANCH  15  16
ATOM     16  C   UNL     1      24.439   7.266  14.006  1.00  0.00    -0.000 C 
BRANCH  16  17
ATOM     17  C   UNL     1      23.735   6.176  13.183  1.00  0.00    -0.003 C 
ATOM     18  C   UNL     1      24.164   4.765  13.584  1.00  0.00     0.004 C 
ENDBRANCH  16  17
ENDBRANCH  15  16
ENDBRANCH  14  15
ENDBRANCH  13  14
ENDBRANCH  12  13
ENDBRANCH  11  12
ENDBRANCH   1  11
TORSDOF 14
ENDMDL
MODEL 7
REMARK VINA RESULT:    -4.354      2.076      3.493
REMARK INTER + INTRA:         -10.054
REMARK INTER:                  -8.435
REMARK INTRA:                  -1.620
REMARK UNBOUND:                -2.136
REMARK SMILES CCCCCCCCCCCCCCCC(=O)[O-]
REMARK SMILES IDX 9 1 10 2 11 3 12 4 13 5 14 6 15 7 16 8 17 9 18 10 8 11 7 12
REMARK SMILES IDX 6 13 5 14 4 15 3 16 2 17 1 18
REMARK H PARENT
REMARK Flexibility Score: inf
ROOT
ATOM      1  C   UNL     1      22.750   8.441  13.641  1.00  0.00     0.000 C 
ENDROOT
BRANCH   1   2
ATOM      2  C   UNL     1      24.022   8.797  14.433  1.00  0.00     0.000 C 
BRANCH   2   3
ATOM      3  C   UNL     1      24.306  10.310  14.517  1.00  0.00     0.000 C 
BRANCH   3   4
ATOM      4  C   UNL     1      25.004  10.879  13.262  1.00  0.00     0.000 C 
BRANCH   4   5
ATOM      5  C   UNL     1      26.066   9.941  12.653  1.00  0.00     0.000 C 
BRANCH   5   6
ATOM      6  C   UNL     1      25.669   9.349  11.283  1.00  0.00     0.006 C 
BRANCH   6   7
ATOM      7  C   UNL     1      24.401   9.980  10.686  1.00  0.00     0.053 C 
BRANCH   7   8
ATOM      8  C   UNL     1      23.774   9.093   9.654  1.00  0.00     0.041 C 
ATOM      9  O   UNL     1      24.224   7.934   9.453  1.00  0.00    -0.550 OA
ATOM     10  O   UNL     1      22.701   9.554   8.901  1.00  0.00    -0.550 OA
ENDBRANCH   7   8
ENDBRANCH   6   7
ENDBRANCH   5   6
ENDBRANCH   4   5
ENDBRANCH   3   4
ENDBRANCH   2   3
ENDBRANCH   1   2
BRANCH   1  11
ATOM     11  C   UNL     1      22.928   7.198  12.757  1.00  0.00     0.000 C 
BRANCH  11  12
ATOM     12  C   UNL     1      21.659   6.924  11.936  1.00  0.00    -0.000 C 
BRANCH  12  13
ATOM     13  C   UNL     1      20.851   8.200  11.651  1.00  0.00    -0.000 C 
BRANCH  13  14
ATOM     14  C   UNL     1      19.468   7.898  11.049  1.00  0.00    -0.000 C 
BRANCH  14  15
ATOM     15  C   UNL     1      19.480   6.666  10.131  1.00  0.00    -0.000 C 
BRANCH  15  16
ATOM     16  C   UNL     1      20.213   6.927   8.804  1.00  0.00    -0.000 C 
BRANCH  16  17
ATOM     17  C   UNL     1      19.248   7.044   7.613  1.00  0.00    -0.003 C 
ATOM     18  C   UNL     1      19.307   8.413   6.938  1.00  0.00     0.004 C 
ENDBRANCH  16  17
ENDBRANCH  15  16
ENDBRANCH  14  15
ENDBRANCH  13  14
ENDBRANCH  12  13
ENDBRANCH  11  12
ENDBRANCH   1  11
TORSDOF 14
ENDMDL
MODEL 8
REMARK VINA RESULT:    -4.320      2.426      3.660
REMARK INTER + INTRA:          -9.991
REMARK INTER:                  -7.967
REMARK INTRA:                  -2.024
REMARK UNBOUND:                -2.136
REMARK SMILES CCCCCCCCCCCCCCCC(=O)[O-]
REMARK SMILES IDX 9 1 10 2 11 3 12 4 13 5 14 6 15 7 16 8 17 9 18 10 8 11 7 12
REMARK SMILES IDX 6 13 5 14 4 15 3 16 2 17 1 18
REMARK H PARENT
REMARK Flexibility Score: inf
ROOT
ATOM      1  C   UNL     1      24.980   8.964  10.650  1.00  0.00     0.000 C 
ENDROOT
BRANCH   1   2
ATOM      2  C   UNL     1      24.754  10.250  11.466  1.00  0.00     0.000 C 
BRANCH   2   3
ATOM      3  C   UNL     1      24.802  10.041  12.993  1.00  0.00     0.000 C 
BRANCH   3   4
ATOM      4  C   UNL     1      23.617   9.217  13.542  1.00  0.00     0.000 C 
BRANCH   4   5
ATOM      5  C   UNL     1      24.024   7.871  14.173  1.00  0.00     0.000 C 
BRANCH   5   6
ATOM      6  C   UNL     1      23.735   6.644  13.281  1.00  0.00     0.006 C 
BRANCH   6   7
ATOM      7  C   UNL     1      24.988   5.818  12.948  1.00  0.00     0.053 C 
BRANCH   7   8
ATOM      8  C   UNL     1      24.772   4.357  13.202  1.00  0.00     0.041 C 
ATOM      9  O   UNL     1      25.564   3.504  12.720  1.00  0.00    -0.550 OA
ATOM     10  O   UNL     1      23.683   3.937  13.956  1.00  0.00    -0.550 OA
ENDBRANCH   7   8
ENDBRANCH   6   7
ENDBRANCH   5   6
ENDBRANCH   4   5
ENDBRANCH   3   4
ENDBRANCH   2   3
ENDBRANCH   1   2
BRANCH   1  11
ATOM     11  C   UNL     1      23.958   8.792   9.516  1.00  0.00     0.000 C 
BRANCH  11  12
ATOM     12  C   UNL     1      22.736   7.994   9.997  1.00  0.00    -0.000 C 
BRANCH  12  13
ATOM     13  C   UNL     1      21.567   8.899  10.417  1.00  0.00    -0.000 C 
BRANCH  13  14
ATOM     14  C   UNL     1      20.715   8.278  11.539  1.00  0.00    -0.000 C 
BRANCH  14  15
ATOM     15  C   UNL     1      19.289   7.943  11.078  1.00  0.00    -0.000 C 
BRANCH  15  16
ATOM     16  C   UNL     1      19.025   6.427  11.032  1.00  0.00    -0.000 C 
BRANCH  16  17
ATOM     17  C   UNL     1      19.482   5.792   9.710  1.00  0.00    -0.003 C 
ATOM     18  C   UNL     1      19.310   6.728   8.515  1.00  0.00     0.004 C 
ENDBRANCH  16  17
ENDBRANCH  15  16
ENDBRANCH  14  15
ENDBRANCH  13  14
ENDBRANCH  12  13
ENDBRANCH  11  12
ENDBRANCH   1  11
TORSDOF 14
ENDMDL
MODEL 9
REMARK VINA RESULT:    -4.235      2.788      5.746
REMARK INTER + INTRA:          -9.838
REMARK INTER:                  -7.690
REMARK INTRA:                  -2.148
REMARK UNBOUND:                -2.136
REMARK SMILES CCCCCCCCCCCCCCCC(=O)[O-]
REMARK SMILES IDX 9 1 10 2 11 3 12 4 13 5 14 6 15 7 16 8 17 9 18 10 8 11 7 12
REMARK SMILES IDX 6 13 5 14 4 15 3 16 2 17 1 18
REMARK H PARENT
REMARK Flexibility Score: inf
ROOT
ATOM      1  C   UNL     1      24.979  10.244  11.377  1.00  0.00     0.000 C 
ENDROOT
BRANCH   1   2
ATOM      2  C   UNL     1      25.304   8.958  10.594  1.00  0.00     0.000 C 
BRANCH   2   3
ATOM      3  C   UNL     1      24.165   8.483   9.670  1.00  0.00     0.000 C 
BRANCH   3   4
ATOM      4  C   UNL     1      23.074   9.550   9.434  1.00  0.00     0.000 C 
BRANCH   4   5
ATOM      5  C   UNL     1      21.644   9.069   9.752  1.00  0.00     0.000 C 
BRANCH   5   6
ATOM      6  C   UNL     1      21.351   7.622   9.298  1.00  0.00     0.006 C 
BRANCH   6   7
ATOM      7  C   UNL     1      19.851   7.310   9.173  1.00  0.00     0.053 C 
BRANCH   7   8
ATOM      8  C   UNL     1      19.318   6.649  10.408  1.00  0.00     0.041 C 
ATOM      9  O   UNL     1      19.146   7.315  11.462  1.00  0.00    -0.550 OA
ATOM     10  O   UNL     1      19.029   5.289  10.397  1.00  0.00    -0.550 OA
ENDBRANCH   7   8
ENDBRANCH   6   7
ENDBRANCH   5   6
ENDBRANCH   4   5
ENDBRANCH   3   4
ENDBRANCH   2   3
ENDBRANCH   1   2
BRANCH   1  11
ATOM     11  C   UNL     1      26.038  10.577  12.439  1.00  0.00     0.000 C 
BRANCH  11  12
ATOM     12  C   UNL     1      25.685   9.926  13.785  1.00  0.00    -0.000 C 
BRANCH  12  13
ATOM     13  C   UNL     1      24.185  10.007  14.107  1.00  0.00    -0.000 C 
BRANCH  13  14
ATOM     14  C   UNL     1      23.547   8.620  14.301  1.00  0.00    -0.000 C 
BRANCH  14  15
ATOM     15  C   UNL     1      22.554   8.267  13.184  1.00  0.00    -0.000 C 
BRANCH  15  16
ATOM     16  C   UNL     1      22.803   6.867  12.596  1.00  0.00    -0.000 C 
BRANCH  16  17
ATOM     17  C   UNL     1      24.122   6.250  13.086  1.00  0.00    -0.003 C 
ATOM     18  C   UNL     1      23.952   4.819  13.592  1.00  0.00     0.004 C 
ENDBRANCH  16  17
ENDBRANCH  15  16
ENDBRANCH  14  15
ENDBRANCH  13  14
ENDBRANCH  12  13
ENDBRANCH  11  12
ENDBRANCH   1  11
TORSDOF 14
ENDMDL
