MODEL 1
REMARK VINA RESULT:    -3.504      0.000      0.000
REMARK INTER + INTRA:          -5.317
REMARK INTER:                  -4.938
REMARK INTRA:                  -0.379
REMARK UNBOUND:                -0.379
REMARK SMILES CC1=CCC(=C(C)C)CCC(C)=CCC1
REMARK SMILES IDX 5 1 6 2 7 3 8 4 9 5 10 6 11 7 12 8 13 9 4 11 3 12 2 13 1 14
REMARK SMILES IDX 15 15 14 16
REMARK H PARENT
REMARK Flexibility Score: 60.00
ROOT
ATOM      1  C   UNL     1     133.066 136.975 135.026  1.00  0.00    -0.067 C 
ATOM      2  C   UNL     1     132.429 136.355 133.976  1.00  0.00    -0.077 C 
ATOM      3  C   UNL     1     131.565 137.130 133.005  1.00  0.00     0.039 C 
ATOM      4  C   UNL     1     132.549 134.864 133.736  1.00  0.00     0.039 C 
ENDROOT
BRANCH   1   5
ATOM      5  C   UNL     1     133.194 138.504 135.071  1.00  0.00     0.035 C 
BRANCH   5   6
ATOM      6  C   UNL     1     132.977 139.158 136.447  1.00  0.00     0.035 C 
BRANCH   6   7
ATOM      7  C   UNL     1     134.233 139.794 137.013  1.00  0.00    -0.077 C 
ATOM      8  C   UNL     1     134.880 140.915 136.239  1.00  0.00     0.039 C 
ATOM      9  C   UNL     1     134.826 139.390 138.159  1.00  0.00    -0.028 CG0
ATOM     10  G   UNL     1     134.234 138.417 139.146  1.00  0.00     0.000 G0
ENDBRANCH   6   7
ENDBRANCH   5   6
ENDBRANCH   1   5
BRANCH   1  11
ATOM     11  C   UNL     1     133.961 136.196 135.989  1.00  0.00     0.058 C 
BRANCH  11  12
ATOM     12  C   UNL     1     133.355 135.719 137.299  1.00  0.00    -0.024 C 
ATOM     13  C   UNL     1     133.770 135.999 138.561  1.00  0.00    -0.077 C 
ATOM     14  C   UNL     1     133.052 135.319 139.701  1.00  0.00     0.039 C 
BRANCH  13  15
ATOM     15  C   UNL     1     134.837 137.022 138.886  1.00  0.00     0.034 C 
BRANCH  15  16
ATOM     16  C   UNL     1     134.258 138.413 139.163  1.00  0.00     0.032 CG0
ATOM     17  G   UNL     1     134.819 139.398 138.171  1.00  0.00     0.000 G0
ENDBRANCH  15  16
ENDBRANCH  13  15
ENDBRANCH  11  12
ENDBRANCH   1  11
TORSDOF 0
ENDMDL
MODEL 2
REMARK VINA RESULT:    -3.462      5.767      6.886
REMARK INTER + INTRA:          -5.257
REMARK INTER:                  -4.888
REMARK INTRA:                  -0.369
REMARK UNBOUND:                -0.379
REMARK SMILES CC1=CCC(=C(C)C)CCC(C)=CCC1
REMARK SMILES IDX 5 1 6 2 7 3 8 4 9 5 10 6 11 7 12 8 13 9 4 11 3 12 2 13 1 14
REMARK SMILES IDX 15 15 14 16
REMARK H PARENT
REMARK Flexibility Score: 60.00
ROOT
ATOM      1  C   UNL     1     139.978 137.014 135.470  1.00  0.00    -0.067 C 
ATOM      2  C   UNL     1     139.675 138.035 134.601  1.00  0.00    -0.077 C 
ATOM      3  C   UNL     1     139.143 139.364 135.094  1.00  0.00     0.039 C 
ATOM      4  C   UNL     1     139.846 137.888 133.102  1.00  0.00     0.039 C 
ENDROOT
BRANCH   1   5
ATOM      5  C   UNL     1     140.101 137.278 136.977  1.00  0.00     0.035 C 
BRANCH   5   6
ATOM      6  C   UNL     1     138.821 137.068 137.805  1.00  0.00     0.035 C 
BRANCH   6   7
ATOM      7  C   UNL     1     139.006 136.100 138.958  1.00  0.00    -0.077 C 
ATOM      8  C   UNL     1     139.439 136.650 140.294  1.00  0.00     0.039 C 
ATOM      9  C   UNL     1     138.835 134.763 138.848  1.00  0.00    -0.028 CG0
ATOM     10  G   UNL     1     138.239 134.060 137.656  1.00  0.00     0.000 G0
ENDBRANCH   6   7
ENDBRANCH   5   6
ENDBRANCH   1   5
BRANCH   1  11
ATOM     11  C   UNL     1     140.541 135.683 134.972  1.00  0.00     0.058 C 
BRANCH  11  12
ATOM     12  C   UNL     1     139.558 134.594 134.577  1.00  0.00    -0.024 C 
ATOM     13  C   UNL     1     139.099 133.567 135.337  1.00  0.00    -0.077 C 
ATOM     14  C   UNL     1     138.195 132.556 134.676  1.00  0.00     0.039 C 
BRANCH  13  15
ATOM     15  C   UNL     1     139.364 133.439 136.822  1.00  0.00     0.034 C 
BRANCH  15  16
ATOM     16  C   UNL     1     138.240 134.035 137.677  1.00  0.00     0.032 CG0
ATOM     17  G   UNL     1     138.835 134.759 138.856  1.00  0.00     0.000 G0
ENDBRANCH  15  16
ENDBRANCH  13  15
ENDBRANCH  11  12
ENDBRANCH   1  11
TORSDOF 0
ENDMDL
MODEL 3
REMARK VINA RESULT:    -3.441      3.930      5.968
REMARK INTER + INTRA:          -5.228
REMARK INTER:                  -4.822
REMARK INTRA:                  -0.406
REMARK UNBOUND:                -0.379
REMARK SMILES CC1=CCC(=C(C)C)CCC(C)=CCC1
REMARK SMILES IDX 5 1 6 2 7 3 8 4 9 5 10 6 11 7 12 8 13 9 4 11 3 12 2 13 1 14
REMARK SMILES IDX 15 15 14 16
REMARK H PARENT
REMARK Flexibility Score: 60.00
ROOT
ATOM      1  C   UNL     1     136.920 132.720 135.471  1.00  0.00    -0.067 C 
ATOM      2  C   UNL     1     137.985 132.886 134.618  1.00  0.00    -0.077 C 
ATOM      3  C   UNL     1     139.330 133.374 135.114  1.00  0.00     0.039 C 
ATOM      4  C   UNL     1     137.874 132.601 133.134  1.00  0.00     0.039 C 
ENDROOT
BRANCH   1   5
ATOM      5  C   UNL     1     137.129 132.707 136.991  1.00  0.00     0.035 C 
BRANCH   5   6
ATOM      6  C   UNL     1     136.712 133.984 137.741  1.00  0.00     0.035 C 
BRANCH   6   7
ATOM      7  C   UNL     1     135.690 133.731 138.833  1.00  0.00    -0.077 C 
ATOM      8  C   UNL     1     136.181 133.255 140.177  1.00  0.00     0.039 C 
ATOM      9  C   UNL     1     134.357 133.878 138.660  1.00  0.00    -0.028 CG0
ATOM     10  G   UNL     1     133.702 134.507 137.458  1.00  0.00     0.000 G0
ENDBRANCH   6   7
ENDBRANCH   5   6
ENDBRANCH   1   5
BRANCH   1  11
ATOM     11  C   UNL     1     135.571 132.201 134.972  1.00  0.00     0.058 C 
BRANCH  11  12
ATOM     12  C   UNL     1     134.566 133.213 134.449  1.00  0.00    -0.024 C 
ATOM     13  C   UNL     1     133.463 133.695 135.076  1.00  0.00    -0.077 C 
ATOM     14  C   UNL     1     132.566 134.627 134.299  1.00  0.00     0.039 C 
BRANCH  13  15
ATOM     15  C   UNL     1     133.142 133.428 136.532  1.00  0.00     0.034 C 
BRANCH  15  16
ATOM     16  C   UNL     1     133.691 134.511 137.467  1.00  0.00     0.032 CG0
ATOM     17  G   UNL     1     134.353 133.861 138.654  1.00  0.00     0.000 G0
ENDBRANCH  15  16
ENDBRANCH  13  15
ENDBRANCH  11  12
ENDBRANCH   1  11
TORSDOF 0
ENDMDL
MODEL 4
REMARK VINA RESULT:    -3.429      3.305      5.003
REMARK INTER + INTRA:          -5.212
REMARK INTER:                  -4.851
REMARK INTRA:                  -0.361
REMARK UNBOUND:                -0.379
REMARK SMILES CC1=CCC(=C(C)C)CCC(C)=CCC1
REMARK SMILES IDX 5 1 6 2 7 3 8 4 9 5 10 6 11 7 12 8 13 9 4 11 3 12 2 13 1 14
REMARK SMILES IDX 15 15 14 16
REMARK H PARENT
REMARK Flexibility Score: 60.00
ROOT
ATOM      1  C   UNL     1     135.767 139.973 135.369  1.00  0.00    -0.067 C 
ATOM      2  C   UNL     1     134.853 139.658 134.391  1.00  0.00    -0.077 C 
ATOM      3  C   UNL     1     133.486 139.103 134.733  1.00  0.00     0.039 C 
ATOM      4  C   UNL     1     135.161 139.840 132.919  1.00  0.00     0.039 C 
ENDROOT
BRANCH   1   5
ATOM      5  C   UNL     1     135.335 140.084 136.837  1.00  0.00     0.035 C 
BRANCH   5   6
ATOM      6  C   UNL     1     135.558 138.830 137.703  1.00  0.00     0.035 C 
BRANCH   6   7
ATOM      7  C   UNL     1     136.492 139.070 138.874  1.00  0.00    -0.077 C 
ATOM      8  C   UNL     1     135.902 139.561 140.172  1.00  0.00     0.039 C 
ATOM      9  C   UNL     1     137.832 138.896 138.811  1.00  0.00    -0.028 CG0
ATOM     10  G   UNL     1     138.570 138.249 137.668  1.00  0.00     0.000 G0
ENDBRANCH   6   7
ENDBRANCH   5   6
ENDBRANCH   1   5
BRANCH   1  11
ATOM     11  C   UNL     1     137.135 140.560 135.023  1.00  0.00     0.058 C 
BRANCH  11  12
ATOM     12  C   UNL     1     138.240 139.601 134.613  1.00  0.00    -0.024 C 
ATOM     13  C   UNL     1     139.255 139.121 135.377  1.00  0.00    -0.077 C 
ATOM     14  C   UNL     1     140.287 138.252 134.703  1.00  0.00     0.039 C 
BRANCH  13  15
ATOM     15  C   UNL     1     139.349 139.328 136.874  1.00  0.00     0.034 C 
BRANCH  15  16
ATOM     16  C   UNL     1     138.597 138.255 137.668  1.00  0.00     0.032 CG0
ATOM     17  G   UNL     1     137.836 138.903 138.795  1.00  0.00     0.000 G0
ENDBRANCH  15  16
ENDBRANCH  13  15
ENDBRANCH  11  12
ENDBRANCH   1  11
TORSDOF 0
ENDMDL
MODEL 5
REMARK VINA RESULT:    -3.428      1.250      3.753
REMARK INTER + INTRA:          -5.210
REMARK INTER:                  -4.872
REMARK INTRA:                  -0.338
REMARK UNBOUND:                -0.379
REMARK SMILES CC1=CCC(=C(C)C)CCC(C)=CCC1
REMARK SMILES IDX 5 1 6 2 7 3 8 4 9 5 10 6 11 7 12 8 13 9 4 11 3 12 2 13 1 14
REMARK SMILES IDX 15 15 14 16
REMARK H PARENT
REMARK Flexibility Score: 60.00
ROOT
ATOM      1  C   UNL     1     132.504 135.378 135.495  1.00  0.00    -0.067 C 
ATOM      2  C   UNL     1     132.857 134.415 134.580  1.00  0.00    -0.077 C 
ATOM      3  C   UNL     1     133.435 133.085 135.014  1.00  0.00     0.039 C 
ATOM      4  C   UNL     1     132.696 134.630 133.089  1.00  0.00     0.039 C 
ENDROOT
BRANCH   1   5
ATOM      5  C   UNL     1     132.374 135.034 136.985  1.00  0.00     0.035 C 
BRANCH   5   6
ATOM      6  C   UNL     1     133.636 135.250 137.839  1.00  0.00     0.035 C 
BRANCH   6   7
ATOM      7  C   UNL     1     133.425 136.221 138.985  1.00  0.00    -0.077 C 
ATOM      8  C   UNL     1     132.987 135.672 140.319  1.00  0.00     0.039 C 
ATOM      9  C   UNL     1     133.577 137.560 138.869  1.00  0.00    -0.028 CG0
ATOM     10  G   UNL     1     134.174 138.266 137.679  1.00  0.00     0.000 G0
ENDBRANCH   6   7
ENDBRANCH   5   6
ENDBRANCH   1   5
BRANCH   1  11
ATOM     11  C   UNL     1     131.894 136.710 135.056  1.00  0.00     0.058 C 
BRANCH  11  12
ATOM     12  C   UNL     1     132.838 137.825 134.640  1.00  0.00    -0.024 C 
ATOM     13  C   UNL     1     133.295 138.857 135.395  1.00  0.00    -0.077 C 
ATOM     14  C   UNL     1     134.153 139.895 134.715  1.00  0.00     0.039 C 
BRANCH  13  15
ATOM     15  C   UNL     1     133.074 138.966 136.889  1.00  0.00     0.034 C 
BRANCH  15  16
ATOM     16  C   UNL     1     134.181 138.285 137.701  1.00  0.00     0.032 CG0
ATOM     17  G   UNL     1     133.571 137.561 138.873  1.00  0.00     0.000 G0
ENDBRANCH  15  16
ENDBRANCH  13  15
ENDBRANCH  11  12
ENDBRANCH   1  11
TORSDOF 0
ENDMDL
MODEL 6
REMARK VINA RESULT:    -3.344      4.742      7.084
REMARK INTER + INTRA:          -5.092
REMARK INTER:                  -4.706
REMARK INTRA:                  -0.386
REMARK UNBOUND:                -0.379
REMARK SMILES CC1=CCC(=C(C)C)CCC(C)=CCC1
REMARK SMILES IDX 5 1 6 2 7 3 8 4 9 5 10 6 11 7 12 8 13 9 4 11 3 12 2 13 1 14
REMARK SMILES IDX 15 15 14 16
REMARK H PARENT
REMARK Flexibility Score: 60.00
ROOT
ATOM      1  C   UNL     1     136.535 133.503 138.852  1.00  0.00    -0.067 C 
ATOM      2  C   UNL     1     136.308 133.326 140.196  1.00  0.00    -0.077 C 
ATOM      3  C   UNL     1     137.227 132.478 141.049  1.00  0.00     0.039 C 
ATOM      4  C   UNL     1     135.124 133.959 140.898  1.00  0.00     0.039 C 
ENDROOT
BRANCH   1   5
ATOM      5  C   UNL     1     137.886 133.128 138.229  1.00  0.00     0.035 C 
BRANCH   5   6
ATOM      6  C   UNL     1     137.826 132.270 136.952  1.00  0.00     0.035 C 
BRANCH   6   7
ATOM      7  C   UNL     1     138.325 132.998 135.718  1.00  0.00    -0.077 C 
ATOM      8  C   UNL     1     139.786 133.367 135.646  1.00  0.00     0.039 C 
ATOM      9  C   UNL     1     137.526 133.363 134.690  1.00  0.00    -0.028 CG0
ATOM     10  G   UNL     1     136.095 132.929 134.507  1.00  0.00     0.000 G0
ENDBRANCH   6   7
ENDBRANCH   5   6
ENDBRANCH   1   5
BRANCH   1  11
ATOM     11  C   UNL     1     135.622 134.382 137.997  1.00  0.00     0.058 C 
BRANCH  11  12
ATOM     12  C   UNL     1     134.431 133.727 137.318  1.00  0.00    -0.024 C 
ATOM     13  C   UNL     1     134.167 133.649 135.988  1.00  0.00    -0.077 C 
ATOM     14  C   UNL     1     132.859 133.025 135.570  1.00  0.00     0.039 C 
BRANCH  13  15
ATOM     15  C   UNL     1     135.150 134.062 134.913  1.00  0.00     0.034 C 
BRANCH  15  16
ATOM     16  C   UNL     1     136.095 132.925 134.508  1.00  0.00     0.032 CG0
ATOM     17  G   UNL     1     137.522 133.361 134.714  1.00  0.00     0.000 G0
ENDBRANCH  15  16
ENDBRANCH  13  15
ENDBRANCH  11  12
ENDBRANCH   1  11
TORSDOF 0
ENDMDL
MODEL 7
REMARK VINA RESULT:    -3.280      2.270      5.520
REMARK INTER + INTRA:          -5.001
REMARK INTER:                  -4.604
REMARK INTRA:                  -0.397
REMARK UNBOUND:                -0.379
REMARK SMILES CC1=CCC(=C(C)C)CCC(C)=CCC1
REMARK SMILES IDX 5 1 6 2 7 3 8 4 9 5 10 6 11 7 12 8 13 9 4 11 3 12 2 13 1 14
REMARK SMILES IDX 15 15 14 16
REMARK H PARENT
REMARK Flexibility Score: 60.00
ROOT
ATOM      1  C   UNL     1     133.603 136.122 138.806  1.00  0.00    -0.067 C 
ATOM      2  C   UNL     1     133.287 136.364 140.122  1.00  0.00    -0.077 C 
ATOM      3  C   UNL     1     132.403 135.423 140.912  1.00  0.00     0.039 C 
ATOM      4  C   UNL     1     133.797 137.589 140.855  1.00  0.00     0.039 C 
ENDROOT
BRANCH   1   5
ATOM      5  C   UNL     1     133.349 134.743 138.182  1.00  0.00     0.035 C 
BRANCH   5   6
ATOM      6  C   UNL     1     132.405 134.717 136.966  1.00  0.00     0.035 C 
BRANCH   6   7
ATOM      7  C   UNL     1     133.096 134.305 135.680  1.00  0.00    -0.077 C 
ATOM      8  C   UNL     1     133.482 132.857 135.506  1.00  0.00     0.039 C 
ATOM      9  C   UNL     1     133.415 135.170 134.690  1.00  0.00    -0.028 CG0
ATOM     10  G   UNL     1     132.956 136.603 134.610  1.00  0.00     0.000 G0
ENDBRANCH   6   7
ENDBRANCH   5   6
ENDBRANCH   1   5
BRANCH   1  11
ATOM     11  C   UNL     1     134.519 137.059 138.019  1.00  0.00     0.058 C 
BRANCH  11  12
ATOM     12  C   UNL     1     133.894 138.272 137.350  1.00  0.00    -0.024 C 
ATOM     13  C   UNL     1     133.792 138.532 136.022  1.00  0.00    -0.077 C 
ATOM     14  C   UNL     1     133.211 139.863 135.612  1.00  0.00     0.039 C 
BRANCH  13  15
ATOM     15  C   UNL     1     134.135 137.528 134.941  1.00  0.00     0.034 C 
BRANCH  15  16
ATOM     16  C   UNL     1     132.960 136.608 134.595  1.00  0.00     0.032 CG0
ATOM     17  G   UNL     1     133.401 135.171 134.693  1.00  0.00     0.000 G0
ENDBRANCH  15  16
ENDBRANCH  13  15
ENDBRANCH  11  12
ENDBRANCH   1  11
TORSDOF 0
ENDMDL
MODEL 8
REMARK VINA RESULT:    -3.251      5.852      8.149
REMARK INTER + INTRA:          -4.960
REMARK INTER:                  -4.784
REMARK INTRA:                  -0.176
REMARK UNBOUND:                -0.379
REMARK SMILES CC1=CCC(=C(C)C)CCC(C)=CCC1
REMARK SMILES IDX 5 1 6 2 7 3 8 4 9 5 10 6 11 7 12 8 13 9 4 11 3 12 2 13 1 14
REMARK SMILES IDX 15 15 14 16
REMARK H PARENT
REMARK Flexibility Score: 60.00
ROOT
ATOM      1  C   UNL     1     138.565 134.734 139.249  1.00  0.00    -0.067 C 
ATOM      2  C   UNL     1     139.372 134.767 140.362  1.00  0.00    -0.077 C 
ATOM      3  C   UNL     1     139.855 133.496 141.028  1.00  0.00     0.039 C 
ATOM      4  C   UNL     1     139.818 136.072 140.989  1.00  0.00     0.039 C 
ENDROOT
BRANCH   1   5
ATOM      5  C   UNL     1     138.386 133.436 138.450  1.00  0.00     0.035 C 
BRANCH   5   6
ATOM      6  C   UNL     1     139.363 133.223 137.280  1.00  0.00     0.035 C 
BRANCH   6   7
ATOM      7  C   UNL     1     138.668 133.044 135.944  1.00  0.00    -0.077 C 
ATOM      8  C   UNL     1     137.711 131.890 135.783  1.00  0.00     0.039 C 
ATOM      9  C   UNL     1     138.883 133.844 134.875  1.00  0.00    -0.028 CG0
ATOM     10  G   UNL     1     139.659 135.135 134.899  1.00  0.00     0.000 G0
ENDBRANCH   6   7
ENDBRANCH   5   6
ENDBRANCH   1   5
BRANCH   1  11
ATOM     11  C   UNL     1     138.102 136.018 138.561  1.00  0.00     0.058 C 
BRANCH  11  12
ATOM     12  C   UNL     1     139.158 136.913 137.935  1.00  0.00    -0.024 C 
ATOM     13  C   UNL     1     139.540 136.971 136.634  1.00  0.00    -0.077 C 
ATOM     14  C   UNL     1     140.688 137.884 136.281  1.00  0.00     0.039 C 
BRANCH  13  15
ATOM     15  C   UNL     1     138.817 136.252 135.515  1.00  0.00     0.034 C 
BRANCH  15  16
ATOM     16  C   UNL     1     139.664 135.144 134.880  1.00  0.00     0.032 CG0
ATOM     17  G   UNL     1     138.885 133.855 134.875  1.00  0.00     0.000 G0
ENDBRANCH  15  16
ENDBRANCH  13  15
ENDBRANCH  11  12
ENDBRANCH   1  11
TORSDOF 0
ENDMDL
MODEL 9
REMARK VINA RESULT:    -3.174      3.478      4.845
REMARK INTER + INTRA:          -4.853
REMARK INTER:                  -4.454
REMARK INTRA:                  -0.398
REMARK UNBOUND:                -0.379
REMARK SMILES CC1=CCC(=C(C)C)CCC(C)=CCC1
REMARK SMILES IDX 5 1 6 2 7 3 8 4 9 5 10 6 11 7 12 8 13 9 4 11 3 12 2 13 1 14
REMARK SMILES IDX 15 15 14 16
REMARK H PARENT
REMARK Flexibility Score: 60.00
ROOT
ATOM      1  C   UNL     1     138.632 138.742 136.461  1.00  0.00    -0.067 C 
ATOM      2  C   UNL     1     139.522 138.083 135.645  1.00  0.00    -0.077 C 
ATOM      3  C   UNL     1     139.195 137.778 134.199  1.00  0.00     0.039 C 
ATOM      4  C   UNL     1     140.873 137.617 136.148  1.00  0.00     0.039 C 
ENDROOT
BRANCH   1   5
ATOM      5  C   UNL     1     137.422 139.476 135.867  1.00  0.00     0.035 C 
BRANCH   5   6
ATOM      6  C   UNL     1     136.041 138.892 136.214  1.00  0.00     0.035 C 
BRANCH   6   7
ATOM      7  C   UNL     1     135.169 139.847 137.007  1.00  0.00    -0.077 C 
ATOM      8  C   UNL     1     134.500 140.983 136.274  1.00  0.00     0.039 C 
ATOM      9  C   UNL     1     134.981 139.755 138.343  1.00  0.00    -0.028 CG0
ATOM     10  G   UNL     1     135.418 138.599 139.203  1.00  0.00     0.000 G0
ENDBRANCH   6   7
ENDBRANCH   5   6
ENDBRANCH   1   5
BRANCH   1  11
ATOM     11  C   UNL     1     138.974 139.074 137.913  1.00  0.00     0.058 C 
BRANCH  11  12
ATOM     12  C   UNL     1     138.720 138.010 138.968  1.00  0.00    -0.024 C 
ATOM     13  C   UNL     1     137.774 138.008 139.941  1.00  0.00    -0.077 C 
ATOM     14  C   UNL     1     137.791 136.872 140.932  1.00  0.00     0.039 C 
BRANCH  13  15
ATOM     15  C   UNL     1     136.654 139.024 140.023  1.00  0.00     0.034 C 
BRANCH  15  16
ATOM     16  C   UNL     1     135.418 138.607 139.219  1.00  0.00     0.032 CG0
ATOM     17  G   UNL     1     134.984 139.749 138.337  1.00  0.00     0.000 G0
ENDBRANCH  15  16
ENDBRANCH  13  15
ENDBRANCH  11  12
ENDBRANCH   1  11
TORSDOF 0
ENDMDL
