MODEL 1
REMARK VINA RESULT:    -1.786      0.000      0.000
REMARK INTER + INTRA:          -1.786
REMARK INTER:                  -1.786
REMARK INTRA:                   0.000
REMARK UNBOUND:                 0.000
REMARK SMILES CC(=O)[O-]
REMARK SMILES IDX 1 1 2 2 3 3 4 4
REMARK H PARENT
REMARK Flexibility Score: inf
ROOT
ATOM      1  C   UNL     1      61.444  30.308  61.759  1.00  0.00     0.063 C 
ATOM      2  C   UNL     1      62.601  29.370  61.711  1.00  0.00     0.038 C 
ATOM      3  O   UNL     1      63.777  29.817  61.729  1.00  0.00    -0.550 OA
ATOM      4  O   UNL     1      62.385  27.998  61.702  1.00  0.00    -0.550 OA
ENDROOT
TORSDOF 0
ENDMDL
MODEL 2
REMARK VINA RESULT:    -1.767     12.441     12.630
REMARK INTER + INTRA:          -1.767
REMARK INTER:                  -1.767
REMARK INTRA:                   0.000
REMARK UNBOUND:                 0.000
REMARK SMILES CC(=O)[O-]
REMARK SMILES IDX 1 1 2 2 3 3 4 4
REMARK H PARENT
REMARK Flexibility Score: inf
ROOT
ATOM      1  C   UNL     1      59.419  28.410  49.555  1.00  0.00     0.063 C 
ATOM      2  C   UNL     1      60.255  27.177  49.614  1.00  0.00     0.038 C 
ATOM      3  O   UNL     1      59.708  26.044  49.629  1.00  0.00    -0.550 OA
ATOM      4  O   UNL     1      61.640  27.274  49.597  1.00  0.00    -0.550 OA
ENDROOT
TORSDOF 0
ENDMDL
MODEL 3
REMARK VINA RESULT:    -1.749     14.166     14.576
REMARK INTER + INTRA:          -1.749
REMARK INTER:                  -1.749
REMARK INTRA:                   0.000
REMARK UNBOUND:                 0.000
REMARK SMILES CC(=O)[O-]
REMARK SMILES IDX 1 1 2 2 3 3 4 4
REMARK H PARENT
REMARK Flexibility Score: inf
ROOT
ATOM      1  C   UNL     1      54.427  27.038  50.129  1.00  0.00     0.063 C 
ATOM      2  C   UNL     1      55.026  25.698  49.868  1.00  0.00     0.038 C 
ATOM      3  O   UNL     1      54.357  24.811  49.278  1.00  0.00    -0.550 OA
ATOM      4  O   UNL     1      56.343  25.443  50.227  1.00  0.00    -0.550 OA
ENDROOT
TORSDOF 0
ENDMDL
MODEL 4
REMARK VINA RESULT:    -1.743      5.102      5.572
REMARK INTER + INTRA:          -1.743
REMARK INTER:                  -1.743
REMARK INTRA:                   0.000
REMARK UNBOUND:                 0.000
REMARK SMILES CC(=O)[O-]
REMARK SMILES IDX 1 1 2 2 3 3 4 4
REMARK H PARENT
REMARK Flexibility Score: inf
ROOT
ATOM      1  C   UNL     1      63.267  35.364  61.283  1.00  0.00     0.063 C 
ATOM      2  C   UNL     1      64.525  34.589  61.483  1.00  0.00     0.038 C 
ATOM      3  O   UNL     1      65.534  35.144  61.992  1.00  0.00    -0.550 OA
ATOM      4  O   UNL     1      64.570  33.240  61.159  1.00  0.00    -0.550 OA
ENDROOT
TORSDOF 0
ENDMDL
MODEL 5
REMARK VINA RESULT:    -1.736     14.022     14.365
REMARK INTER + INTRA:          -1.736
REMARK INTER:                  -1.736
REMARK INTRA:                   0.000
REMARK UNBOUND:                 0.000
REMARK SMILES CC(=O)[O-]
REMARK SMILES IDX 1 1 2 2 3 3 4 4
REMARK H PARENT
REMARK Flexibility Score: inf
ROOT
ATOM      1  C   UNL     1      54.797  27.132  50.316  1.00  0.00     0.063 C 
ATOM      2  C   UNL     1      55.262  25.771  49.922  1.00  0.00     0.038 C 
ATOM      3  O   UNL     1      56.395  25.361  50.284  1.00  0.00    -0.550 OA
ATOM      4  O   UNL     1      54.423  24.932  49.200  1.00  0.00    -0.550 OA
ENDROOT
TORSDOF 0
ENDMDL
MODEL 6
REMARK VINA RESULT:    -1.683     10.042     10.132
REMARK INTER + INTRA:          -1.683
REMARK INTER:                  -1.683
REMARK INTRA:                   0.000
REMARK UNBOUND:                 0.000
REMARK SMILES CC(=O)[O-]
REMARK SMILES IDX 1 1 2 2 3 3 4 4
REMARK H PARENT
REMARK Flexibility Score: inf
ROOT
ATOM      1  C   UNL     1      71.692  32.158  58.782  1.00  0.00     0.063 C 
ATOM      2  C   UNL     1      71.914  32.406  60.236  1.00  0.00     0.038 C 
ATOM      3  O   UNL     1      72.542  31.566  60.930  1.00  0.00    -0.550 OA
ATOM      4  O   UNL     1      71.475  33.589  60.815  1.00  0.00    -0.550 OA
ENDROOT
TORSDOF 0
ENDMDL
MODEL 7
REMARK VINA RESULT:    -1.647     12.556     12.694
REMARK INTER + INTRA:          -1.647
REMARK INTER:                  -1.647
REMARK INTRA:                   0.000
REMARK UNBOUND:                 0.000
REMARK SMILES CC(=O)[O-]
REMARK SMILES IDX 1 1 2 2 3 3 4 4
REMARK H PARENT
REMARK Flexibility Score: inf
ROOT
ATOM      1  C   UNL     1      59.476  25.937  49.966  1.00  0.00     0.063 C 
ATOM      2  C   UNL     1      60.182  27.194  49.588  1.00  0.00     0.038 C 
ATOM      3  O   UNL     1      61.440  27.224  49.548  1.00  0.00    -0.550 OA
ATOM      4  O   UNL     1      59.454  28.319  49.224  1.00  0.00    -0.550 OA
ENDROOT
TORSDOF 0
ENDMDL
MODEL 8
REMARK VINA RESULT:    -1.611      9.106      9.701
REMARK INTER + INTRA:          -1.611
REMARK INTER:                  -1.611
REMARK INTRA:                   0.000
REMARK UNBOUND:                 0.000
REMARK SMILES CC(=O)[O-]
REMARK SMILES IDX 1 1 2 2 3 3 4 4
REMARK H PARENT
REMARK Flexibility Score: inf
ROOT
ATOM      1  C   UNL     1      72.435  31.115  60.649  1.00  0.00     0.063 C 
ATOM      2  C   UNL     1      72.168  29.798  61.295  1.00  0.00     0.038 C 
ATOM      3  O   UNL     1      73.125  29.049  61.620  1.00  0.00    -0.550 OA
ATOM      4  O   UNL     1      70.865  29.419  61.589  1.00  0.00    -0.550 OA
ENDROOT
TORSDOF 0
ENDMDL
