MODEL 1
REMARK VINA RESULT:    -1.277      0.000      0.000
REMARK INTER + INTRA:          -1.132
REMARK INTER:                  -1.950
REMARK INTRA:                   0.818
REMARK UNBOUND:                 0.818
REMARK SMILES CC1=CCC[C@H](C)C(=O)C[C@H](C(C)C)C(=O)C1
REMARK SMILES IDX 8 1 9 2 6 3 7 4 5 5 4 6 3 7 2 8 1 9 10 11 11 12 15 13 16 14
REMARK SMILES IDX 17 15 12 17 13 18 14 19
REMARK H PARENT
REMARK Flexibility Score: 70.00
ROOT
ATOM      1  C   UNL     1      87.168  28.847  64.620  1.00  0.00     0.136 C 
ATOM      2  O   UNL     1      88.069  29.211  63.877  1.00  0.00    -0.299 OA
ENDROOT
BRANCH   1   3
ATOM      3  C   UNL     1      86.365  27.612  64.258  1.00  0.00     0.053 C 
ATOM      4  C   UNL     1      87.110  26.338  64.674  1.00  0.00     0.016 C 
BRANCH   3   5
ATOM      5  C   UNL     1      84.963  27.694  64.925  1.00  0.00     0.015 C 
BRANCH   5   6
ATOM      6  C   UNL     1      83.909  28.484  64.127  1.00  0.00     0.028 C 
BRANCH   6   7
ATOM      7  C   UNL     1      83.373  29.738  64.787  1.00  0.00    -0.028 C 
ATOM      8  C   UNL     1      83.968  30.956  64.809  1.00  0.00    -0.070 CG0
ATOM      9  C   UNL     1      83.300  32.057  65.595  1.00  0.00     0.039 C 
ATOM     10  G   UNL     1      85.229  31.288  64.036  1.00  0.00     0.000 G0
ENDBRANCH   6   7
ENDBRANCH   5   6
ENDBRANCH   3   5
ENDBRANCH   1   3
BRANCH   1  11
ATOM     11  C   UNL     1      86.893  29.645  65.878  1.00  0.00     0.087 C 
BRANCH  11  12
ATOM     12  C   UNL     1      87.287  31.146  65.772  1.00  0.00     0.066 C 
BRANCH  12  13
ATOM     13  C   UNL     1      86.332  31.934  64.876  1.00  0.00     0.140 C 
ATOM     14  O   UNL     1      86.465  33.146  64.796  1.00  0.00    -0.299 OA
BRANCH  13  15
ATOM     15  C   UNL     1      85.230  31.291  64.049  1.00  0.00     0.106 CG0
ATOM     16  G   UNL     1      83.965  30.978  64.824  1.00  0.00     0.000 G0
ENDBRANCH  13  15
ENDBRANCH  12  13
BRANCH  12  17
ATOM     17  C   UNL     1      87.460  31.853  67.153  1.00  0.00    -0.006 C 
ATOM     18  C   UNL     1      88.048  33.273  67.072  1.00  0.00     0.008 C 
ATOM     19  C   UNL     1      86.146  31.877  67.950  1.00  0.00     0.008 C 
ENDBRANCH  12  17
ENDBRANCH  11  12
ENDBRANCH   1  11
TORSDOF 1
ENDMDL
MODEL 2
REMARK VINA RESULT:    -0.645      2.013      4.271
REMARK INTER + INTRA:          -0.166
REMARK INTER:                  -1.032
REMARK INTRA:                   0.866
REMARK UNBOUND:                 0.818
REMARK SMILES CC1=CCC[C@H](C)C(=O)C[C@H](C(C)C)C(=O)C1
REMARK SMILES IDX 8 1 9 2 6 3 7 4 5 5 4 6 3 7 2 8 1 9 10 11 11 12 15 13 16 14
REMARK SMILES IDX 17 15 12 17 13 18 14 19
REMARK H PARENT
REMARK Flexibility Score: 70.00
ROOT
ATOM      1  C   UNL     1      86.829  30.645  65.821  1.00  0.00     0.136 C 
ATOM      2  O   UNL     1      86.654  30.867  67.011  1.00  0.00    -0.299 OA
ENDROOT
BRANCH   1   3
ATOM      3  C   UNL     1      88.063  31.202  65.139  1.00  0.00     0.053 C 
ATOM      4  C   UNL     1      88.114  30.768  63.669  1.00  0.00     0.016 C 
BRANCH   3   5
ATOM      5  C   UNL     1      88.074  32.751  65.275  1.00  0.00     0.015 C 
BRANCH   5   6
ATOM      6  C   UNL     1      86.684  33.403  65.393  1.00  0.00     0.028 C 
BRANCH   6   7
ATOM      7  C   UNL     1      86.153  34.075  64.142  1.00  0.00    -0.028 C 
ATOM      8  C   UNL     1      85.453  33.483  63.143  1.00  0.00    -0.070 CG0
ATOM      9  C   UNL     1      85.087  34.321  61.943  1.00  0.00     0.039 C 
ATOM     10  G   UNL     1      84.964  32.049  63.196  1.00  0.00     0.000 G0
ENDBRANCH   6   7
ENDBRANCH   5   6
ENDBRANCH   3   5
ENDBRANCH   1   3
BRANCH   1  11
ATOM     11  C   UNL     1      85.804  29.815  65.076  1.00  0.00     0.087 C 
BRANCH  11  12
ATOM     12  C   UNL     1      84.350  30.357  65.189  1.00  0.00     0.066 C 
BRANCH  12  13
ATOM     13  C   UNL     1      84.154  31.658  64.413  1.00  0.00     0.140 C 
ATOM     14  O   UNL     1      83.315  32.456  64.802  1.00  0.00    -0.299 OA
BRANCH  13  15
ATOM     15  C   UNL     1      84.968  32.036  63.185  1.00  0.00     0.106 CG0
ATOM     16  G   UNL     1      85.432  33.479  63.159  1.00  0.00     0.000 G0
ENDBRANCH  13  15
ENDBRANCH  12  13
BRANCH  12  17
ATOM     17  C   UNL     1      83.255  29.312  64.805  1.00  0.00    -0.006 C 
ATOM     18  C   UNL     1      82.274  29.788  63.719  1.00  0.00     0.008 C 
ATOM     19  C   UNL     1      83.871  27.964  64.398  1.00  0.00     0.008 C 
ENDBRANCH  12  17
ENDBRANCH  11  12
ENDBRANCH   1  11
TORSDOF 1
ENDMDL
MODEL 3
REMARK VINA RESULT:    -0.204      2.198      5.120
REMARK INTER + INTRA:           0.506
REMARK INTER:                  -0.128
REMARK INTRA:                   0.634
REMARK UNBOUND:                 0.818
REMARK SMILES CC1=CCC[C@H](C)C(=O)C[C@H](C(C)C)C(=O)C1
REMARK SMILES IDX 8 1 9 2 6 3 7 4 5 5 4 6 3 7 2 8 1 9 10 11 11 12 15 13 16 14
REMARK SMILES IDX 17 15 12 17 13 18 14 19
REMARK H PARENT
REMARK Flexibility Score: 70.00
ROOT
ATOM      1  C   UNL     1      85.196  33.412  63.605  1.00  0.00     0.136 C 
ATOM      2  O   UNL     1      84.744  33.567  62.479  1.00  0.00    -0.299 OA
ENDROOT
BRANCH   1   3
ATOM      3  C   UNL     1      86.593  33.912  63.917  1.00  0.00     0.053 C 
ATOM      4  C   UNL     1      86.790  35.338  63.388  1.00  0.00     0.016 C 
BRANCH   3   5
ATOM      5  C   UNL     1      86.841  33.834  65.449  1.00  0.00     0.015 C 
BRANCH   5   6
ATOM      6  C   UNL     1      87.856  32.763  65.890  1.00  0.00     0.028 C 
BRANCH   6   7
ATOM      7  C   UNL     1      88.125  31.649  64.899  1.00  0.00    -0.028 C 
ATOM      8  C   UNL     1      87.622  30.390  64.943  1.00  0.00    -0.070 CG0
ATOM      9  C   UNL     1      88.082  29.406  63.897  1.00  0.00     0.039 C 
ATOM     10  G   UNL     1      86.576  29.940  65.945  1.00  0.00     0.000 G0
ENDBRANCH   6   7
ENDBRANCH   5   6
ENDBRANCH   3   5
ENDBRANCH   1   3
BRANCH   1  11
ATOM     11  C   UNL     1      84.336  32.727  64.647  1.00  0.00     0.087 C 
BRANCH  11  12
ATOM     12  C   UNL     1      84.540  31.187  64.722  1.00  0.00     0.066 C 
BRANCH  12  13
ATOM     13  C   UNL     1      85.307  30.764  65.974  1.00  0.00     0.140 C 
ATOM     14  O   UNL     1      84.873  31.088  67.069  1.00  0.00    -0.299 OA
BRANCH  13  15
ATOM     15  C   UNL     1      86.580  29.932  65.939  1.00  0.00     0.106 CG0
ATOM     16  G   UNL     1      87.611  30.404  64.933  1.00  0.00     0.000 G0
ENDBRANCH  13  15
ENDBRANCH  12  13
BRANCH  12  17
ATOM     17  C   UNL     1      83.219  30.367  64.578  1.00  0.00    -0.006 C 
ATOM     18  C   UNL     1      83.422  28.904  64.145  1.00  0.00     0.008 C 
ATOM     19  C   UNL     1      82.374  30.418  65.861  1.00  0.00     0.008 C 
ENDBRANCH  12  17
ENDBRANCH  11  12
ENDBRANCH   1  11
TORSDOF 1
ENDMDL
MODEL 4
REMARK VINA RESULT:    -0.190      1.666      4.181
REMARK INTER + INTRA:           0.528
REMARK INTER:                  -0.099
REMARK INTRA:                   0.626
REMARK UNBOUND:                 0.818
REMARK SMILES CC1=CCC[C@H](C)C(=O)C[C@H](C(C)C)C(=O)C1
REMARK SMILES IDX 8 1 9 2 6 3 7 4 5 5 4 6 3 7 2 8 1 9 10 11 11 12 15 13 16 14
REMARK SMILES IDX 17 15 12 17 13 18 14 19
REMARK H PARENT
REMARK Flexibility Score: 70.00
ROOT
ATOM      1  C   UNL     1      87.778  30.681  66.518  1.00  0.00     0.136 C 
ATOM      2  O   UNL     1      88.075  30.170  67.589  1.00  0.00    -0.299 OA
ENDROOT
BRANCH   1   3
ATOM      3  C   UNL     1      87.161  32.066  66.505  1.00  0.00     0.053 C 
ATOM      4  C   UNL     1      87.342  32.729  65.135  1.00  0.00     0.016 C 
BRANCH   3   5
ATOM      5  C   UNL     1      85.659  31.967  66.895  1.00  0.00     0.015 C 
BRANCH   5   6
ATOM      6  C   UNL     1      84.672  32.385  65.789  1.00  0.00     0.028 C 
BRANCH   6   7
ATOM      7  C   UNL     1      83.679  31.330  65.346  1.00  0.00    -0.028 C 
ATOM      8  C   UNL     1      83.930  30.275  64.532  1.00  0.00    -0.070 CG0
ATOM      9  C   UNL     1      82.775  29.385  64.149  1.00  0.00     0.039 C 
ATOM     10  G   UNL     1      85.317  29.906  64.042  1.00  0.00     0.000 G0
ENDBRANCH   6   7
ENDBRANCH   5   6
ENDBRANCH   3   5
ENDBRANCH   1   3
BRANCH   1  11
ATOM     11  C   UNL     1      88.043  29.907  65.243  1.00  0.00     0.087 C 
BRANCH  11  12
ATOM     12  C   UNL     1      87.329  28.527  65.181  1.00  0.00     0.066 C 
BRANCH  12  13
ATOM     13  C   UNL     1      85.891  28.640  64.675  1.00  0.00     0.140 C 
ATOM     14  O   UNL     1      85.146  27.680  64.798  1.00  0.00    -0.299 OA
BRANCH  13  15
ATOM     15  C   UNL     1      85.319  29.899  64.043  1.00  0.00     0.106 CG0
ATOM     16  G   UNL     1      83.928  30.266  64.524  1.00  0.00     0.000 G0
ENDBRANCH  13  15
ENDBRANCH  12  13
BRANCH  12  17
ATOM     17  C   UNL     1      88.115  27.444  64.378  1.00  0.00    -0.006 C 
ATOM     18  C   UNL     1      87.772  25.993  64.760  1.00  0.00     0.008 C 
ATOM     19  C   UNL     1      87.958  27.634  62.860  1.00  0.00     0.008 C 
ENDBRANCH  12  17
ENDBRANCH  11  12
ENDBRANCH   1  11
TORSDOF 1
ENDMDL
MODEL 5
REMARK VINA RESULT:     0.057     15.428     16.739
REMARK INTER + INTRA:           0.904
REMARK INTER:                   0.914
REMARK INTRA:                  -0.010
REMARK UNBOUND:                 0.818
REMARK SMILES CC1=CCC[C@H](C)C(=O)C[C@H](C(C)C)C(=O)C1
REMARK SMILES IDX 8 1 9 2 6 3 7 4 5 5 4 6 3 7 2 8 1 9 10 11 11 12 15 13 16 14
REMARK SMILES IDX 17 15 12 17 13 18 14 19
REMARK H PARENT
REMARK Flexibility Score: 70.00
ROOT
ATOM      1  C   UNL     1      78.067  32.678  52.400  1.00  0.00     0.136 C 
ATOM      2  O   UNL     1      79.004  31.957  52.712  1.00  0.00    -0.299 OA
ENDROOT
BRANCH   1   3
ATOM      3  C   UNL     1      76.757  32.043  51.973  1.00  0.00     0.053 C 
ATOM      4  C   UNL     1      76.991  30.625  51.436  1.00  0.00     0.016 C 
BRANCH   3   5
ATOM      5  C   UNL     1      75.768  32.041  53.171  1.00  0.00     0.015 C 
BRANCH   5   6
ATOM      6  C   UNL     1      75.323  33.436  53.649  1.00  0.00     0.028 C 
BRANCH   6   7
ATOM      7  C   UNL     1      74.375  34.184  52.733  1.00  0.00    -0.028 C 
ATOM      8  C   UNL     1      74.623  35.355  52.097  1.00  0.00    -0.070 CG0
ATOM      9  C   UNL     1      73.508  35.974  51.292  1.00  0.00     0.039 C 
ATOM     10  G   UNL     1      75.976  36.039  52.097  1.00  0.00     0.000 G0
ENDBRANCH   6   7
ENDBRANCH   5   6
ENDBRANCH   3   5
ENDBRANCH   1   3
BRANCH   1  11
ATOM     11  C   UNL     1      78.251  34.180  52.457  1.00  0.00     0.087 C 
BRANCH  11  12
ATOM     12  C   UNL     1      78.158  34.881  51.071  1.00  0.00     0.066 C 
BRANCH  12  13
ATOM     13  C   UNL     1      76.886  35.717  50.929  1.00  0.00     0.140 C 
ATOM     14  O   UNL     1      76.569  36.121  49.821  1.00  0.00    -0.299 OA
BRANCH  13  15
ATOM     15  C   UNL     1      75.969  36.058  52.093  1.00  0.00     0.106 CG0
ATOM     16  G   UNL     1      74.637  35.333  52.076  1.00  0.00     0.000 G0
ENDBRANCH  13  15
ENDBRANCH  12  13
BRANCH  12  17
ATOM     17  C   UNL     1      79.419  35.724  50.703  1.00  0.00    -0.006 C 
ATOM     18  C   UNL     1      80.420  35.910  51.857  1.00  0.00     0.008 C 
ATOM     19  C   UNL     1      80.143  35.158  49.471  1.00  0.00     0.008 C 
ENDBRANCH  12  17
ENDBRANCH  11  12
ENDBRANCH   1  11
TORSDOF 1
ENDMDL
MODEL 6
REMARK VINA RESULT:     0.291      1.776      2.462
REMARK INTER + INTRA:           1.262
REMARK INTER:                  -1.084
REMARK INTRA:                   2.346
REMARK UNBOUND:                 0.818
REMARK SMILES CC1=CCC[C@H](C)C(=O)C[C@H](C(C)C)C(=O)C1
REMARK SMILES IDX 8 1 9 2 6 3 7 4 5 5 4 6 3 7 2 8 1 9 10 11 11 12 15 13 16 14
REMARK SMILES IDX 17 15 12 17 13 18 14 19
REMARK H PARENT
REMARK Flexibility Score: 70.00
ROOT
ATOM      1  C   UNL     1      87.502  29.620  65.021  1.00  0.00     0.136 C 
ATOM      2  O   UNL     1      88.117  29.102  65.942  1.00  0.00    -0.299 OA
ENDROOT
BRANCH   1   3
ATOM      3  C   UNL     1      86.364  28.856  64.371  1.00  0.00     0.053 C 
ATOM      4  C   UNL     1      86.642  27.348  64.388  1.00  0.00     0.016 C 
BRANCH   3   5
ATOM      5  C   UNL     1      85.032  29.197  65.095  1.00  0.00     0.015 C 
BRANCH   5   6
ATOM      6  C   UNL     1      84.417  30.559  64.719  1.00  0.00     0.028 C 
BRANCH   6   7
ATOM      7  C   UNL     1      83.795  31.348  65.853  1.00  0.00    -0.028 C 
ATOM      8  C   UNL     1      84.372  31.639  67.045  1.00  0.00    -0.070 CG0
ATOM      9  C   UNL     1      83.545  32.372  68.072  1.00  0.00     0.039 C 
ATOM     10  G   UNL     1      85.819  31.328  67.375  1.00  0.00     0.000 G0
ENDBRANCH   6   7
ENDBRANCH   5   6
ENDBRANCH   3   5
ENDBRANCH   1   3
BRANCH   1  11
ATOM     11  C   UNL     1      87.901  31.009  64.567  1.00  0.00     0.087 C 
BRANCH  11  12
ATOM     12  C   UNL     1      86.996  32.141  65.129  1.00  0.00     0.066 C 
BRANCH  12  13
ATOM     13  C   UNL     1      86.899  32.103  66.654  1.00  0.00     0.140 C 
ATOM     14  O   UNL     1      87.709  32.739  67.312  1.00  0.00    -0.299 OA
BRANCH  13  15
ATOM     15  C   UNL     1      85.828  31.333  67.410  1.00  0.00     0.106 CG0
ATOM     16  G   UNL     1      84.408  31.658  66.990  1.00  0.00     0.000 G0
ENDBRANCH  13  15
ENDBRANCH  12  13
BRANCH  12  17
ATOM     17  C   UNL     1      87.390  33.569  64.635  1.00  0.00    -0.006 C 
ATOM     18  C   UNL     1      86.235  34.365  64.002  1.00  0.00     0.008 C 
ATOM     19  C   UNL     1      88.044  34.398  65.752  1.00  0.00     0.008 C 
ENDBRANCH  12  17
ENDBRANCH  11  12
ENDBRANCH   1  11
TORSDOF 1
ENDMDL
MODEL 7
REMARK VINA RESULT:     0.523      1.912      4.444
REMARK INTER + INTRA:           1.616
REMARK INTER:                   0.476
REMARK INTRA:                   1.140
REMARK UNBOUND:                 0.818
REMARK SMILES CC1=CCC[C@H](C)C(=O)C[C@H](C(C)C)C(=O)C1
REMARK SMILES IDX 8 1 9 2 6 3 7 4 5 5 4 6 3 7 2 8 1 9 10 11 11 12 15 13 16 14
REMARK SMILES IDX 17 15 12 17 13 18 14 19
REMARK H PARENT
REMARK Flexibility Score: 70.00
ROOT
ATOM      1  C   UNL     1      84.908  29.869  65.127  1.00  0.00     0.136 C 
ATOM      2  O   UNL     1      84.744  30.132  66.310  1.00  0.00    -0.299 OA
ENDROOT
BRANCH   1   3
ATOM      3  C   UNL     1      84.304  30.780  64.076  1.00  0.00     0.053 C 
ATOM      4  C   UNL     1      83.274  31.726  64.705  1.00  0.00     0.016 C 
BRANCH   3   5
ATOM      5  C   UNL     1      85.437  31.568  63.361  1.00  0.00     0.015 C 
BRANCH   5   6
ATOM      6  C   UNL     1      85.596  33.032  63.813  1.00  0.00     0.028 C 
BRANCH   6   7
ATOM      7  C   UNL     1      86.369  33.255  65.097  1.00  0.00    -0.028 C 
ATOM      8  C   UNL     1      87.431  32.536  65.536  1.00  0.00    -0.070 CG0
ATOM      9  C   UNL     1      88.007  32.876  66.888  1.00  0.00     0.039 C 
ATOM     10  G   UNL     1      88.109  31.456  64.715  1.00  0.00     0.000 G0
ENDBRANCH   6   7
ENDBRANCH   5   6
ENDBRANCH   3   5
ENDBRANCH   1   3
BRANCH   1  11
ATOM     11  C   UNL     1      85.715  28.641  64.759  1.00  0.00     0.087 C 
BRANCH  11  12
ATOM     12  C   UNL     1      87.184  28.949  64.353  1.00  0.00     0.066 C 
BRANCH  12  13
ATOM     13  C   UNL     1      87.814  30.031  65.230  1.00  0.00     0.140 C 
ATOM     14  O   UNL     1      88.119  29.753  66.380  1.00  0.00    -0.299 OA
BRANCH  13  15
ATOM     15  C   UNL     1      88.111  31.440  64.743  1.00  0.00     0.106 CG0
ATOM     16  G   UNL     1      87.421  32.535  65.534  1.00  0.00     0.000 G0
ENDBRANCH  13  15
ENDBRANCH  12  13
BRANCH  12  17
ATOM     17  C   UNL     1      88.100  27.686  64.288  1.00  0.00    -0.006 C 
ATOM     18  C   UNL     1      87.865  26.670  65.419  1.00  0.00     0.008 C 
ATOM     19  C   UNL     1      88.003  26.981  62.925  1.00  0.00     0.008 C 
ENDBRANCH  12  17
ENDBRANCH  11  12
ENDBRANCH   1  11
TORSDOF 1
ENDMDL
MODEL 8
REMARK VINA RESULT:     0.966      1.919      3.458
REMARK INTER + INTRA:           2.292
REMARK INTER:                  -0.393
REMARK INTRA:                   2.685
REMARK UNBOUND:                 0.818
REMARK SMILES CC1=CCC[C@H](C)C(=O)C[C@H](C(C)C)C(=O)C1
REMARK SMILES IDX 8 1 9 2 6 3 7 4 5 5 4 6 3 7 2 8 1 9 10 11 11 12 15 13 16 14
REMARK SMILES IDX 17 15 12 17 13 18 14 19
REMARK H PARENT
REMARK Flexibility Score: 70.00
ROOT
ATOM      1  C   UNL     1      87.868  32.458  66.336  1.00  0.00     0.136 C 
ATOM      2  O   UNL     1      88.117  33.487  66.950  1.00  0.00    -0.299 OA
ENDROOT
BRANCH   1   3
ATOM      3  C   UNL     1      87.525  31.200  67.111  1.00  0.00     0.053 C 
ATOM      4  C   UNL     1      86.069  31.237  67.590  1.00  0.00     0.016 C 
BRANCH   3   5
ATOM      5  C   UNL     1      87.800  29.955  66.222  1.00  0.00     0.015 C 
BRANCH   5   6
ATOM      6  C   UNL     1      87.002  29.907  64.905  1.00  0.00     0.028 C 
BRANCH   6   7
ATOM      7  C   UNL     1      85.545  29.506  65.021  1.00  0.00    -0.028 C 
ATOM      8  C   UNL     1      84.471  30.250  64.659  1.00  0.00    -0.070 CG0
ATOM      9  C   UNL     1      83.097  29.693  64.935  1.00  0.00     0.039 C 
ATOM     10  G   UNL     1      84.577  31.578  63.934  1.00  0.00     0.000 G0
ENDBRANCH   6   7
ENDBRANCH   5   6
ENDBRANCH   3   5
ENDBRANCH   1   3
BRANCH   1  11
ATOM     11  C   UNL     1      87.909  32.485  64.822  1.00  0.00     0.087 C 
BRANCH  11  12
ATOM     12  C   UNL     1      86.687  33.191  64.169  1.00  0.00     0.066 C 
BRANCH  12  13
ATOM     13  C   UNL     1      85.357  32.638  64.679  1.00  0.00     0.140 C 
ATOM     14  O   UNL     1      84.899  33.074  65.723  1.00  0.00    -0.299 OA
BRANCH  13  15
ATOM     15  C   UNL     1      84.548  31.582  63.942  1.00  0.00     0.106 CG0
ATOM     16  G   UNL     1      84.454  30.249  64.658  1.00  0.00     0.000 G0
ENDBRANCH  13  15
ENDBRANCH  12  13
BRANCH  12  17
ATOM     17  C   UNL     1      86.720  34.748  64.286  1.00  0.00    -0.006 C 
ATOM     18  C   UNL     1      88.125  35.341  64.497  1.00  0.00     0.008 C 
ATOM     19  C   UNL     1      86.044  35.424  63.083  1.00  0.00     0.008 C 
ENDBRANCH  12  17
ENDBRANCH  11  12
ENDBRANCH   1  11
TORSDOF 1
ENDMDL
