MODEL 1
REMARK VINA RESULT:    -4.241      0.000      0.000
REMARK INTER + INTRA:          -8.041
REMARK INTER:                  -5.977
REMARK INTRA:                  -2.064
REMARK UNBOUND:                -2.064
REMARK SMILES C=CC(=C)CCC=C(C)CCC=C(C)C
REMARK SMILES IDX 8 1 7 2 9 3 10 4 11 5 12 6 14 7 13 8 15 9 6 10 5 11 3 12
REMARK SMILES IDX 4 13 2 14 1 15
REMARK H PARENT
REMARK Flexibility Score: inf
ROOT
ATOM      1  C   UNL     1     135.180 140.150 131.270  1.00  0.00    -0.077 C 
ATOM      2  C   UNL     1     134.832 139.224 132.193  1.00  0.00    -0.028 C 
ATOM      3  C   UNL     1     136.397 140.998 131.535  1.00  0.00     0.039 C 
ENDROOT
BRANCH   1   4
ATOM      4  C   UNL     1     134.388 140.384 129.996  1.00  0.00     0.034 C 
BRANCH   4   5
ATOM      5  C   UNL     1     135.075 139.756 128.773  1.00  0.00     0.032 C 
BRANCH   5   6
ATOM      6  C   UNL     1     134.339 138.533 128.281  1.00  0.00    -0.028 C 
ATOM      7  C   UNL     1     133.971 136.120 127.876  1.00  0.00     0.039 C 
ATOM      8  C   UNL     1     134.775 137.263 128.440  1.00  0.00    -0.080 C 
ATOM      9  C   UNL     1     136.023 136.934 129.221  1.00  0.00     0.039 C 
ENDBRANCH   5   6
ENDBRANCH   4   5
ENDBRANCH   1   4
BRANCH   2  10
ATOM     10  C   UNL     1     133.689 138.249 132.053  1.00  0.00     0.032 C 
BRANCH  10  11
ATOM     11  C   UNL     1     134.097 136.818 132.434  1.00  0.00     0.039 C 
BRANCH  11  12
ATOM     12  C   UNL     1     133.408 135.780 131.569  1.00  0.00    -0.055 C 
ATOM     13  C   UNL     1     132.181 136.042 131.104  1.00  0.00     0.012 C 
BRANCH  12  14
ATOM     14  C   UNL     1     134.021 134.464 131.243  1.00  0.00    -0.005 C 
ATOM     15  C   UNL     1     135.026 133.909 131.922  1.00  0.00     0.009 C 
ENDBRANCH  12  14
ENDBRANCH  11  12
ENDBRANCH  10  11
ENDBRANCH   2  10
TORSDOF 7
ENDMDL
MODEL 2
REMARK VINA RESULT:    -4.205      2.534      4.375
REMARK INTER + INTRA:          -7.991
REMARK INTER:                  -6.066
REMARK INTRA:                  -1.925
REMARK UNBOUND:                -2.064
REMARK SMILES C=CC(=C)CCC=C(C)CCC=C(C)C
REMARK SMILES IDX 8 1 7 2 9 3 10 4 11 5 12 6 14 7 13 8 15 9 6 10 5 11 3 12
REMARK SMILES IDX 4 13 2 14 1 15
REMARK H PARENT
REMARK Flexibility Score: inf
ROOT
ATOM      1  C   UNL     1     133.629 135.908 131.901  1.00  0.00    -0.077 C 
ATOM      2  C   UNL     1     134.545 135.147 132.544  1.00  0.00    -0.028 C 
ATOM      3  C   UNL     1     133.403 137.315 132.389  1.00  0.00     0.039 C 
ENDROOT
BRANCH   1   4
ATOM      4  C   UNL     1     132.810 135.400 130.728  1.00  0.00     0.034 C 
BRANCH   4   5
ATOM      5  C   UNL     1     133.403 135.844 129.381  1.00  0.00     0.032 C 
BRANCH   5   6
ATOM      6  C   UNL     1     134.318 134.795 128.796  1.00  0.00    -0.028 C 
ATOM      7  C   UNL     1     136.477 133.799 128.110  1.00  0.00     0.039 C 
ATOM      8  C   UNL     1     135.666 134.896 128.750  1.00  0.00    -0.080 C 
ATOM      9  C   UNL     1     136.406 136.052 129.375  1.00  0.00     0.039 C 
ENDBRANCH   5   6
ENDBRANCH   4   5
ENDBRANCH   1   4
BRANCH   2  10
ATOM     10  C   UNL     1     134.943 133.748 132.143  1.00  0.00     0.032 C 
BRANCH  10  11
ATOM     11  C   UNL     1     136.196 133.265 132.889  1.00  0.00     0.039 C 
BRANCH  11  12
ATOM     12  C   UNL     1     137.425 133.271 132.001  1.00  0.00    -0.055 C 
ATOM     13  C   UNL     1     137.658 132.212 131.219  1.00  0.00     0.012 C 
BRANCH  12  14
ATOM     14  C   UNL     1     138.407 134.389 131.988  1.00  0.00    -0.005 C 
ATOM     15  C   UNL     1     139.427 134.491 131.136  1.00  0.00     0.009 C 
ENDBRANCH  12  14
ENDBRANCH  11  12
ENDBRANCH  10  11
ENDBRANCH   2  10
TORSDOF 7
ENDMDL
MODEL 3
REMARK VINA RESULT:    -4.148      3.133      5.563
REMARK INTER + INTRA:          -7.909
REMARK INTER:                  -5.871
REMARK INTRA:                  -2.038
REMARK UNBOUND:                -2.064
REMARK SMILES C=CC(=C)CCC=C(C)CCC=C(C)C
REMARK SMILES IDX 8 1 7 2 9 3 10 4 11 5 12 6 14 7 13 8 15 9 6 10 5 11 3 12
REMARK SMILES IDX 4 13 2 14 1 15
REMARK H PARENT
REMARK Flexibility Score: inf
ROOT
ATOM      1  C   UNL     1     138.931 138.887 132.648  1.00  0.00    -0.077 C 
ATOM      2  C   UNL     1     139.863 138.031 132.167  1.00  0.00    -0.028 C 
ATOM      3  C   UNL     1     138.145 138.473 133.865  1.00  0.00     0.039 C 
ENDROOT
BRANCH   1   4
ATOM      4  C   UNL     1     138.633 140.229 132.005  1.00  0.00     0.034 C 
BRANCH   4   5
ATOM      5  C   UNL     1     137.269 140.784 132.446  1.00  0.00     0.032 C 
BRANCH   5   6
ATOM      6  C   UNL     1     136.343 140.996 131.272  1.00  0.00    -0.028 C 
ATOM      7  C   UNL     1     134.419 140.524 129.788  1.00  0.00     0.039 C 
ATOM      8  C   UNL     1     135.253 140.240 131.011  1.00  0.00    -0.080 C 
ATOM      9  C   UNL     1     134.797 139.141 131.940  1.00  0.00     0.039 C 
ENDBRANCH   5   6
ENDBRANCH   4   5
ENDBRANCH   1   4
BRANCH   2  10
ATOM     10  C   UNL     1     140.783 138.317 131.005  1.00  0.00     0.032 C 
BRANCH  10  11
ATOM     11  C   UNL     1     140.317 137.629 129.713  1.00  0.00     0.039 C 
BRANCH  11  12
ATOM     12  C   UNL     1     139.436 138.533 128.873  1.00  0.00    -0.055 C 
ATOM     13  C   UNL     1     140.004 139.544 128.205  1.00  0.00     0.012 C 
BRANCH  12  14
ATOM     14  C   UNL     1     137.959 138.371 128.788  1.00  0.00    -0.005 C 
ATOM     15  C   UNL     1     137.242 137.555 129.562  1.00  0.00     0.009 C 
ENDBRANCH  12  14
ENDBRANCH  11  12
ENDBRANCH  10  11
ENDBRANCH   2  10
TORSDOF 7
ENDMDL
MODEL 4
REMARK VINA RESULT:    -4.138      4.081      6.805
REMARK INTER + INTRA:          -7.896
REMARK INTER:                  -5.975
REMARK INTRA:                  -1.920
REMARK UNBOUND:                -2.064
REMARK SMILES C=CC(=C)CCC=C(C)CCC=C(C)C
REMARK SMILES IDX 8 1 7 2 9 3 10 4 11 5 12 6 14 7 13 8 15 9 6 10 5 11 3 12
REMARK SMILES IDX 4 13 2 14 1 15
REMARK H PARENT
REMARK Flexibility Score: inf
ROOT
ATOM      1  C   UNL     1     137.883 133.681 131.842  1.00  0.00    -0.077 C 
ATOM      2  C   UNL     1     138.617 134.595 132.520  1.00  0.00    -0.028 C 
ATOM      3  C   UNL     1     136.471 133.421 132.298  1.00  0.00     0.039 C 
ENDROOT
BRANCH   1   4
ATOM      4  C   UNL     1     138.428 132.897 130.662  1.00  0.00     0.034 C 
BRANCH   4   5
ATOM      5  C   UNL     1     137.977 133.495 129.320  1.00  0.00     0.032 C 
BRANCH   5   6
ATOM      6  C   UNL     1     139.028 134.403 128.727  1.00  0.00    -0.028 C 
ATOM      7  C   UNL     1     140.035 136.555 128.036  1.00  0.00     0.039 C 
ATOM      8  C   UNL     1     138.938 135.752 128.685  1.00  0.00    -0.080 C 
ATOM      9  C   UNL     1     137.793 136.500 129.322  1.00  0.00     0.039 C 
ENDBRANCH   5   6
ENDBRANCH   4   5
ENDBRANCH   1   4
BRANCH   2  10
ATOM     10  C   UNL     1     140.016 135.025 132.155  1.00  0.00     0.032 C 
BRANCH  10  11
ATOM     11  C   UNL     1     140.447 136.294 132.906  1.00  0.00     0.039 C 
BRANCH  11  12
ATOM     12  C   UNL     1     140.472 137.510 132.001  1.00  0.00    -0.055 C 
ATOM     13  C   UNL     1     141.541 137.710 131.223  1.00  0.00     0.012 C 
BRANCH  12  14
ATOM     14  C   UNL     1     139.375 138.514 131.968  1.00  0.00    -0.005 C 
ATOM     15  C   UNL     1     139.317 139.545 131.123  1.00  0.00     0.009 C 
ENDBRANCH  12  14
ENDBRANCH  11  12
ENDBRANCH  10  11
ENDBRANCH   2  10
TORSDOF 7
ENDMDL
MODEL 5
REMARK VINA RESULT:    -4.122      1.532      2.417
REMARK INTER + INTRA:          -7.874
REMARK INTER:                  -5.739
REMARK INTRA:                  -2.134
REMARK UNBOUND:                -2.064
REMARK SMILES C=CC(=C)CCC=C(C)CCC=C(C)C
REMARK SMILES IDX 8 1 7 2 9 3 10 4 11 5 12 6 14 7 13 8 15 9 6 10 5 11 3 12
REMARK SMILES IDX 4 13 2 14 1 15
REMARK H PARENT
REMARK Flexibility Score: inf
ROOT
ATOM      1  C   UNL     1     137.181 139.591 132.389  1.00  0.00    -0.077 C 
ATOM      2  C   UNL     1     136.982 138.307 132.769  1.00  0.00    -0.028 C 
ATOM      3  C   UNL     1     138.575 140.013 132.005  1.00  0.00     0.039 C 
ENDROOT
BRANCH   1   4
ATOM      4  C   UNL     1     136.068 140.622 132.353  1.00  0.00     0.034 C 
BRANCH   4   5
ATOM      5  C   UNL     1     135.869 141.201 130.944  1.00  0.00     0.032 C 
BRANCH   5   6
ATOM      6  C   UNL     1     134.906 140.373 130.127  1.00  0.00    -0.028 C 
ATOM      7  C   UNL     1     134.222 138.752 128.387  1.00  0.00     0.039 C 
ATOM      8  C   UNL     1     135.275 139.500 129.162  1.00  0.00    -0.080 C 
ATOM      9  C   UNL     1     136.723 139.197 128.866  1.00  0.00     0.039 C 
ENDBRANCH   5   6
ENDBRANCH   4   5
ENDBRANCH   1   4
BRANCH   2  10
ATOM     10  C   UNL     1     135.644 137.704 133.116  1.00  0.00     0.032 C 
BRANCH  10  11
ATOM     11  C   UNL     1     135.028 136.939 131.935  1.00  0.00     0.039 C 
BRANCH  11  12
ATOM     12  C   UNL     1     133.525 137.127 131.856  1.00  0.00    -0.055 C 
ATOM     13  C   UNL     1     132.985 138.221 132.404  1.00  0.00     0.012 C 
BRANCH  12  14
ATOM     14  C   UNL     1     132.618 136.128 131.229  1.00  0.00    -0.005 C 
ATOM     15  C   UNL     1     132.993 135.237 130.310  1.00  0.00     0.009 C 
ENDBRANCH  12  14
ENDBRANCH  11  12
ENDBRANCH  10  11
ENDBRANCH   2  10
TORSDOF 7
ENDMDL
MODEL 6
REMARK VINA RESULT:    -4.119      2.833      5.934
REMARK INTER + INTRA:          -7.869
REMARK INTER:                  -5.478
REMARK INTRA:                  -2.390
REMARK UNBOUND:                -2.064
REMARK SMILES C=CC(=C)CCC=C(C)CCC=C(C)C
REMARK SMILES IDX 8 1 7 2 9 3 10 4 11 5 12 6 14 7 13 8 15 9 6 10 5 11 3 12
REMARK SMILES IDX 4 13 2 14 1 15
REMARK H PARENT
REMARK Flexibility Score: inf
ROOT
ATOM      1  C   UNL     1     138.229 133.942 132.122  1.00  0.00    -0.077 C 
ATOM      2  C   UNL     1     139.171 134.207 131.188  1.00  0.00    -0.028 C 
ATOM      3  C   UNL     1     138.248 134.739 133.401  1.00  0.00     0.039 C 
ENDROOT
BRANCH   1   4
ATOM      4  C   UNL     1     137.171 132.867 131.946  1.00  0.00     0.034 C 
BRANCH   4   5
ATOM      5  C   UNL     1     135.851 133.245 132.636  1.00  0.00     0.032 C 
BRANCH   5   6
ATOM      6  C   UNL     1     134.816 133.723 131.647  1.00  0.00    -0.028 C 
ATOM      7  C   UNL     1     133.144 135.275 130.688  1.00  0.00     0.039 C 
ATOM      8  C   UNL     1     134.186 134.918 131.715  1.00  0.00    -0.080 C 
ATOM      9  C   UNL     1     134.533 135.949 132.761  1.00  0.00     0.039 C 
ENDBRANCH   5   6
ENDBRANCH   4   5
ENDBRANCH   1   4
BRANCH   2  10
ATOM     10  C   UNL     1     139.252 133.554 129.831  1.00  0.00     0.032 C 
BRANCH  10  11
ATOM     11  C   UNL     1     138.791 134.494 128.706  1.00  0.00     0.039 C 
BRANCH  11  12
ATOM     12  C   UNL     1     137.282 134.632 128.663  1.00  0.00    -0.055 C 
ATOM     13  C   UNL     1     136.550 133.575 128.294  1.00  0.00     0.012 C 
BRANCH  12  14
ATOM     14  C   UNL     1     136.578 135.905 128.978  1.00  0.00    -0.005 C 
ATOM     15  C   UNL     1     136.915 136.731 129.968  1.00  0.00     0.009 C 
ENDBRANCH  12  14
ENDBRANCH  11  12
ENDBRANCH  10  11
ENDBRANCH   2  10
TORSDOF 7
ENDMDL
MODEL 7
REMARK VINA RESULT:    -4.102      4.031      6.230
REMARK INTER + INTRA:          -7.845
REMARK INTER:                  -5.544
REMARK INTRA:                  -2.302
REMARK UNBOUND:                -2.064
REMARK SMILES C=CC(=C)CCC=C(C)CCC=C(C)C
REMARK SMILES IDX 8 1 7 2 9 3 10 4 11 5 12 6 14 7 13 8 15 9 6 10 5 11 3 12
REMARK SMILES IDX 4 13 2 14 1 15
REMARK H PARENT
REMARK Flexibility Score: inf
ROOT
ATOM      1  C   UNL     1     139.856 138.166 132.158  1.00  0.00    -0.077 C 
ATOM      2  C   UNL     1     139.661 139.156 131.255  1.00  0.00    -0.028 C 
ATOM      3  C   UNL     1     139.055 138.198 133.433  1.00  0.00     0.039 C 
ENDROOT
BRANCH   1   4
ATOM      4  C   UNL     1     140.858 137.045 131.950  1.00  0.00     0.034 C 
BRANCH   4   5
ATOM      5  C   UNL     1     140.353 135.712 132.526  1.00  0.00     0.032 C 
BRANCH   5   6
ATOM      6  C   UNL     1     139.861 134.782 131.443  1.00  0.00    -0.028 C 
ATOM      7  C   UNL     1     138.350 133.131 130.388  1.00  0.00     0.039 C 
ATOM      8  C   UNL     1     138.724 134.054 131.518  1.00  0.00    -0.080 C 
ATOM      9  C   UNL     1     137.769 134.175 132.680  1.00  0.00     0.039 C 
ENDBRANCH   5   6
ENDBRANCH   4   5
ENDBRANCH   1   4
BRANCH   2  10
ATOM     10  C   UNL     1     140.326 139.237 129.903  1.00  0.00     0.032 C 
BRANCH  10  11
ATOM     11  C   UNL     1     139.356 138.905 128.759  1.00  0.00     0.039 C 
BRANCH  11  12
ATOM     12  C   UNL     1     139.078 137.417 128.662  1.00  0.00    -0.055 C 
ATOM     13  C   UNL     1     140.075 136.599 128.305  1.00  0.00     0.012 C 
BRANCH  12  14
ATOM     14  C   UNL     1     137.734 136.829 128.909  1.00  0.00    -0.005 C 
ATOM     15  C   UNL     1     137.041 136.974 130.039  1.00  0.00     0.009 C 
ENDBRANCH  12  14
ENDBRANCH  11  12
ENDBRANCH  10  11
ENDBRANCH   2  10
TORSDOF 7
ENDMDL
MODEL 8
REMARK VINA RESULT:    -4.055      1.641      4.921
REMARK INTER + INTRA:          -7.779
REMARK INTER:                  -5.444
REMARK INTRA:                  -2.334
REMARK UNBOUND:                -2.064
REMARK SMILES C=CC(=C)CCC=C(C)CCC=C(C)C
REMARK SMILES IDX 8 1 7 2 9 3 10 4 11 5 12 6 14 7 13 8 15 9 6 10 5 11 3 12
REMARK SMILES IDX 4 13 2 14 1 15
REMARK H PARENT
REMARK Flexibility Score: inf
ROOT
ATOM      1  C   UNL     1     133.536 135.462 131.304  1.00  0.00    -0.077 C 
ATOM      2  C   UNL     1     132.842 136.609 131.487  1.00  0.00    -0.028 C 
ATOM      3  C   UNL     1     133.100 134.533 130.201  1.00  0.00     0.039 C 
ENDROOT
BRANCH   1   4
ATOM      4  C   UNL     1     134.716 135.063 132.172  1.00  0.00     0.034 C 
BRANCH   4   5
ATOM      5  C   UNL     1     135.978 134.797 131.335  1.00  0.00     0.032 C 
BRANCH   5   6
ATOM      6  C   UNL     1     137.037 135.849 131.564  1.00  0.00    -0.028 C 
ATOM      7  C   UNL     1     138.354 137.884 131.069  1.00  0.00     0.039 C 
ATOM      8  C   UNL     1     137.242 136.916 130.759  1.00  0.00    -0.080 C 
ATOM      9  C   UNL     1     136.352 137.212 129.577  1.00  0.00     0.039 C 
ENDBRANCH   5   6
ENDBRANCH   4   5
ENDBRANCH   1   4
BRANCH   2  10
ATOM     10  C   UNL     1     133.186 137.677 132.495  1.00  0.00     0.032 C 
BRANCH  10  11
ATOM     11  C   UNL     1     133.924 138.863 131.855  1.00  0.00     0.039 C 
BRANCH  11  12
ATOM     12  C   UNL     1     135.167 139.248 132.634  1.00  0.00    -0.055 C 
ATOM     13  C   UNL     1     135.510 138.515 133.700  1.00  0.00     0.012 C 
BRANCH  12  14
ATOM     14  C   UNL     1     136.003 140.429 132.289  1.00  0.00    -0.005 C 
ATOM     15  C   UNL     1     136.065 140.985 131.079  1.00  0.00     0.009 C 
ENDBRANCH  12  14
ENDBRANCH  11  12
ENDBRANCH  10  11
ENDBRANCH   2  10
TORSDOF 7
ENDMDL
MODEL 9
REMARK VINA RESULT:    -4.051      2.477      5.088
REMARK INTER + INTRA:          -7.774
REMARK INTER:                  -5.483
REMARK INTRA:                  -2.290
REMARK UNBOUND:                -2.064
REMARK SMILES C=CC(=C)CCC=C(C)CCC=C(C)C
REMARK SMILES IDX 8 1 7 2 9 3 10 4 11 5 12 6 14 7 13 8 15 9 6 10 5 11 3 12
REMARK SMILES IDX 4 13 2 14 1 15
REMARK H PARENT
REMARK Flexibility Score: inf
ROOT
ATOM      1  C   UNL     1     138.298 133.614 131.270  1.00  0.00    -0.077 C 
ATOM      2  C   UNL     1     137.145 132.928 131.442  1.00  0.00    -0.028 C 
ATOM      3  C   UNL     1     139.215 133.195 130.150  1.00  0.00     0.039 C 
ENDROOT
BRANCH   1   4
ATOM      4  C   UNL     1     138.716 134.766 132.165  1.00  0.00     0.034 C 
BRANCH   4   5
ATOM      5  C   UNL     1     138.966 136.053 131.363  1.00  0.00     0.032 C 
BRANCH   5   6
ATOM      6  C   UNL     1     137.906 137.095 131.626  1.00  0.00    -0.028 C 
ATOM      7  C   UNL     1     135.859 138.409 131.176  1.00  0.00     0.039 C 
ATOM      8  C   UNL     1     136.836 137.316 130.830  1.00  0.00    -0.080 C 
ATOM      9  C   UNL     1     136.544 136.461 129.622  1.00  0.00     0.039 C 
ENDBRANCH   5   6
ENDBRANCH   4   5
ENDBRANCH   1   4
BRANCH   2  10
ATOM     10  C   UNL     1     136.086 133.259 132.466  1.00  0.00     0.032 C 
BRANCH  10  11
ATOM     11  C   UNL     1     134.862 133.941 131.835  1.00  0.00     0.039 C 
BRANCH  11  12
ATOM     12  C   UNL     1     134.445 135.181 132.601  1.00  0.00    -0.055 C 
ATOM     13  C   UNL     1     135.140 135.530 133.689  1.00  0.00     0.012 C 
BRANCH  12  14
ATOM     14  C   UNL     1     133.269 136.010 132.217  1.00  0.00    -0.005 C 
ATOM     15  C   UNL     1     132.611 135.900 131.063  1.00  0.00     0.009 C 
ENDBRANCH  12  14
ENDBRANCH  11  12
ENDBRANCH  10  11
ENDBRANCH   2  10
TORSDOF 7
ENDMDL
