MODEL 1
REMARK VINA RESULT:    -4.162      0.000      0.000
REMARK INTER + INTRA:          -5.055
REMARK INTER:                  -4.770
REMARK INTRA:                  -0.285
REMARK UNBOUND:                -0.285
REMARK SMILES O=C1C[C@H](c2ccc(O)cc2)Oc2cc(O)cc(O)c21
REMARK SMILES IDX 3 1 4 2 12 3 13 4 14 5 15 6 17 7 18 8 20 9 2 10 1 11 5 12
REMARK SMILES IDX 6 13 11 14 7 15 10 16 8 17 9 18 19 20 16 22
REMARK H PARENT 9 19 19 21 16 23
REMARK Flexibility Score: inf
ROOT
ATOM      1  C   UNL     1     -21.386  14.165  -7.155  1.00  0.00     0.131 C 
ATOM      2  C   UNL     1     -20.160  13.938  -6.260  1.00  0.00     0.211 C 
ATOM      3  O   UNL     1     -20.072  14.953  -5.258  1.00  0.00    -0.484 OA
ATOM      4  C   UNL     1     -20.374  16.298  -5.514  1.00  0.00     0.138 A 
ATOM      5  C   UNL     1     -20.005  17.265  -4.578  1.00  0.00     0.093 A 
ATOM      6  C   UNL     1     -20.279  18.614  -4.811  1.00  0.00     0.123 A 
ATOM      7  C   UNL     1     -20.954  18.994  -5.976  1.00  0.00     0.093 A 
ATOM      8  C   UNL     1     -21.369  18.037  -6.909  1.00  0.00     0.133 A 
ATOM      9  C   UNL     1     -21.049  16.670  -6.698  1.00  0.00     0.102 A 
ATOM     10  C   UNL     1     -21.377  15.581  -7.651  1.00  0.00     0.174 C 
ATOM     11  O   UNL     1     -21.592  15.810  -8.870  1.00  0.00    -0.294 OA
ENDROOT
BRANCH   2  12
ATOM     12  C   UNL     1     -20.216  12.576  -5.613  1.00  0.00    -0.007 A 
ATOM     13  C   UNL     1     -21.421  12.087  -5.078  1.00  0.00     0.011 A 
ATOM     14  C   UNL     1     -19.073  11.758  -5.586  1.00  0.00     0.011 A 
ATOM     15  C   UNL     1     -21.473  10.816  -4.499  1.00  0.00     0.046 A 
ATOM     16  C   UNL     1     -19.128  10.487  -5.005  1.00  0.00     0.046 A 
ATOM     17  C   UNL     1     -20.323  10.015  -4.456  1.00  0.00     0.115 A 
BRANCH  17  18
ATOM     18  O   UNL     1     -20.362   8.750  -3.875  1.00  0.00    -0.508 OA
ATOM     19  H   UNL     1     -19.692   8.032  -4.124  1.00  0.00     0.293 HD
ENDBRANCH  17  18
ENDBRANCH   2  12
BRANCH   8  20
ATOM     20  O   UNL     1     -22.120  18.486  -7.998  1.00  0.00    -0.507 OA
ATOM     21  H   UNL     1     -22.283  19.460  -8.208  1.00  0.00     0.293 HD
ENDBRANCH   8  20
BRANCH   6  22
ATOM     22  O   UNL     1     -19.883  19.567  -3.875  1.00  0.00    -0.508 OA
ATOM     23  H   UNL     1     -19.201  20.281  -4.103  1.00  0.00     0.293 HD
ENDBRANCH   6  22
TORSDOF 4
ENDMDL
MODEL 2
REMARK VINA RESULT:    -3.963      2.129      7.372
REMARK INTER + INTRA:          -4.826
REMARK INTER:                  -4.540
REMARK INTRA:                  -0.287
REMARK UNBOUND:                -0.285
REMARK SMILES O=C1C[C@H](c2ccc(O)cc2)Oc2cc(O)cc(O)c21
REMARK SMILES IDX 3 1 4 2 12 3 13 4 14 5 15 6 17 7 18 8 20 9 2 10 1 11 5 12
REMARK SMILES IDX 6 13 11 14 7 15 10 16 8 17 9 18 19 20 16 22
REMARK H PARENT 9 19 19 21 16 23
REMARK Flexibility Score: inf
ROOT
ATOM      1  C   UNL     1     -21.281  12.308  -4.787  1.00  0.00     0.131 C 
ATOM      2  C   UNL     1     -19.813  12.758  -4.796  1.00  0.00     0.211 C 
ATOM      3  O   UNL     1     -19.072  12.040  -5.785  1.00  0.00    -0.484 OA
ATOM      4  C   UNL     1     -19.272  10.677  -6.040  1.00  0.00     0.138 A 
ATOM      5  C   UNL     1     -18.335   9.987  -6.812  1.00  0.00     0.093 A 
ATOM      6  C   UNL     1     -18.500   8.626  -7.071  1.00  0.00     0.123 A 
ATOM      7  C   UNL     1     -19.625   7.956  -6.579  1.00  0.00     0.093 A 
ATOM      8  C   UNL     1     -20.597   8.636  -5.836  1.00  0.00     0.133 A 
ATOM      9  C   UNL     1     -20.409  10.009  -5.530  1.00  0.00     0.102 A 
ATOM     10  C   UNL     1     -21.336  10.812  -4.695  1.00  0.00     0.174 C 
ATOM     11  O   UNL     1     -22.125  10.272  -3.875  1.00  0.00    -0.294 OA
ENDROOT
BRANCH   2  12
ATOM     12  C   UNL     1     -19.711  14.241  -5.048  1.00  0.00    -0.007 A 
ATOM     13  C   UNL     1     -20.615  14.885  -5.912  1.00  0.00     0.011 A 
ATOM     14  C   UNL     1     -18.741  15.008  -4.378  1.00  0.00     0.011 A 
ATOM     15  C   UNL     1     -20.530  16.263  -6.126  1.00  0.00     0.046 A 
ATOM     16  C   UNL     1     -18.657  16.387  -4.595  1.00  0.00     0.046 A 
ATOM     17  C   UNL     1     -19.545  17.017  -5.472  1.00  0.00     0.115 A 
BRANCH  17  18
ATOM     18  O   UNL     1     -19.446  18.390  -5.683  1.00  0.00    -0.508 OA
ATOM     19  H   UNL     1     -19.092  19.012  -4.966  1.00  0.00     0.293 HD
ENDBRANCH  17  18
ENDBRANCH   2  12
BRANCH   8  20
ATOM     20  O   UNL     1     -21.736   7.919  -5.462  1.00  0.00    -0.507 OA
ATOM     21  H   UNL     1     -22.524   7.754  -6.071  1.00  0.00     0.293 HD
ENDBRANCH   8  20
BRANCH   6  22
ATOM     22  O   UNL     1     -17.543   7.950  -7.826  1.00  0.00    -0.508 OA
ATOM     23  H   UNL     1     -16.936   8.440  -8.472  1.00  0.00     0.293 HD
ENDBRANCH   6  22
TORSDOF 4
ENDMDL
MODEL 3
REMARK VINA RESULT:    -3.786     21.557     23.859
REMARK INTER + INTRA:          -4.623
REMARK INTER:                  -4.319
REMARK INTRA:                  -0.304
REMARK UNBOUND:                -0.285
REMARK SMILES O=C1C[C@H](c2ccc(O)cc2)Oc2cc(O)cc(O)c21
REMARK SMILES IDX 3 1 4 2 12 3 13 4 14 5 15 6 17 7 18 8 20 9 2 10 1 11 5 12
REMARK SMILES IDX 6 13 11 14 7 15 10 16 8 17 9 18 19 20 16 22
REMARK H PARENT 9 19 19 21 16 23
REMARK Flexibility Score: inf
ROOT
ATOM      1  C   UNL     1      -9.608  25.217 -20.834  1.00  0.00     0.131 C 
ATOM      2  C   UNL     1      -9.512  26.599 -21.495  1.00  0.00     0.211 C 
ATOM      3  O   UNL     1      -8.522  26.598 -22.526  1.00  0.00    -0.484 OA
ATOM      4  C   UNL     1      -7.303  25.917 -22.403  1.00  0.00     0.138 A 
ATOM      5  C   UNL     1      -6.283  26.184 -23.319  1.00  0.00     0.093 A 
ATOM      6  C   UNL     1      -5.053  25.532 -23.214  1.00  0.00     0.123 A 
ATOM      7  C   UNL     1      -4.852  24.586 -22.204  1.00  0.00     0.093 A 
ATOM      8  C   UNL     1      -5.874  24.273 -21.300  1.00  0.00     0.133 A 
ATOM      9  C   UNL     1      -7.109  24.968 -21.374  1.00  0.00     0.102 A 
ATOM     10  C   UNL     1      -8.235  24.770 -20.428  1.00  0.00     0.174 C 
ATOM     11  O   UNL     1      -8.057  24.288 -19.278  1.00  0.00    -0.294 OA
ENDROOT
BRANCH   2  12
ATOM     12  C   UNL     1     -10.847  27.014 -22.061  1.00  0.00    -0.007 A 
ATOM     13  C   UNL     1     -11.201  26.680 -23.381  1.00  0.00     0.011 A 
ATOM     14  C   UNL     1     -11.777  27.694 -21.255  1.00  0.00     0.011 A 
ATOM     15  C   UNL     1     -12.447  27.048 -23.893  1.00  0.00     0.046 A 
ATOM     16  C   UNL     1     -13.023  28.062 -21.771  1.00  0.00     0.046 A 
ATOM     17  C   UNL     1     -13.360  27.746 -23.090  1.00  0.00     0.115 A 
BRANCH  17  18
ATOM     18  O   UNL     1     -14.603  28.124 -23.593  1.00  0.00    -0.508 OA
ATOM     19  H   UNL     1     -14.856  29.098 -23.701  1.00  0.00     0.293 HD
ENDBRANCH  17  18
ENDBRANCH   2  12
BRANCH   8  20
ATOM     20  O   UNL     1      -5.627  23.250 -20.382  1.00  0.00    -0.507 OA
ATOM     21  H   UNL     1      -5.299  23.404 -19.440  1.00  0.00     0.293 HD
ENDBRANCH   8  20
BRANCH   6  22
ATOM     22  O   UNL     1      -4.040  25.828 -24.124  1.00  0.00    -0.508 OA
ATOM     23  H   UNL     1      -4.136  26.579 -24.798  1.00  0.00     0.293 HD
ENDBRANCH   6  22
TORSDOF 4
ENDMDL
MODEL 4
REMARK VINA RESULT:    -3.575      2.112      7.187
REMARK INTER + INTRA:          -4.382
REMARK INTER:                  -4.097
REMARK INTRA:                  -0.285
REMARK UNBOUND:                -0.285
REMARK SMILES O=C1C[C@H](c2ccc(O)cc2)Oc2cc(O)cc(O)c21
REMARK SMILES IDX 3 1 4 2 12 3 13 4 14 5 15 6 17 7 18 8 20 9 2 10 1 11 5 12
REMARK SMILES IDX 6 13 11 14 7 15 10 16 8 17 9 18 19 20 16 22
REMARK H PARENT 9 19 19 21 16 23
REMARK Flexibility Score: inf
ROOT
ATOM      1  C   UNL     1     -18.660  12.748  -6.450  1.00  0.00     0.131 C 
ATOM      2  C   UNL     1     -20.077  13.215  -6.089  1.00  0.00     0.211 C 
ATOM      3  O   UNL     1     -20.694  12.299  -5.181  1.00  0.00    -0.484 OA
ATOM      4  C   UNL     1     -20.539  10.910  -5.285  1.00  0.00     0.138 A 
ATOM      5  C   UNL     1     -21.381  10.077  -4.546  1.00  0.00     0.093 A 
ATOM      6  C   UNL     1     -21.261   8.690  -4.639  1.00  0.00     0.123 A 
ATOM      7  C   UNL     1     -20.272   8.132  -5.456  1.00  0.00     0.093 A 
ATOM      8  C   UNL     1     -19.391   8.948  -6.176  1.00  0.00     0.133 A 
ATOM      9  C   UNL     1     -19.541  10.358  -6.120  1.00  0.00     0.102 A 
ATOM     10  C   UNL     1     -18.711  11.315  -6.892  1.00  0.00     0.174 C 
ATOM     11  O   UNL     1     -18.098  10.969  -7.936  1.00  0.00    -0.294 OA
ENDROOT
BRANCH   2  12
ATOM     12  C   UNL     1     -20.046  14.598  -5.488  1.00  0.00    -0.007 A 
ATOM     13  C   UNL     1     -19.125  14.919  -4.475  1.00  0.00     0.011 A 
ATOM     14  C   UNL     1     -20.906  15.599  -5.973  1.00  0.00     0.011 A 
ATOM     15  C   UNL     1     -19.086  16.207  -3.936  1.00  0.00     0.046 A 
ATOM     16  C   UNL     1     -20.866  16.888  -5.431  1.00  0.00     0.046 A 
ATOM     17  C   UNL     1     -19.962  17.194  -4.410  1.00  0.00     0.115 A 
BRANCH  17  18
ATOM     18  O   UNL     1     -19.938  18.480  -3.875  1.00  0.00    -0.508 OA
ATOM     19  H   UNL     1     -19.129  18.830  -3.376  1.00  0.00     0.293 HD
ENDBRANCH  17  18
ENDBRANCH   2  12
BRANCH   8  20
ATOM     20  O   UNL     1     -18.372   8.316  -6.892  1.00  0.00    -0.507 OA
ATOM     21  H   UNL     1     -17.798   7.573  -6.521  1.00  0.00     0.293 HD
ENDBRANCH   8  20
BRANCH   6  22
ATOM     22  O   UNL     1     -22.125   7.876  -3.911  1.00  0.00    -0.508 OA
ATOM     23  H   UNL     1     -21.777   7.133  -3.315  1.00  0.00     0.293 HD
ENDBRANCH   6  22
TORSDOF 4
ENDMDL
MODEL 5
REMARK VINA RESULT:    -2.692     15.870     17.997
REMARK INTER + INTRA:          -3.370
REMARK INTER:                  -3.086
REMARK INTRA:                  -0.284
REMARK UNBOUND:                -0.285
REMARK SMILES O=C1C[C@H](c2ccc(O)cc2)Oc2cc(O)cc(O)c21
REMARK SMILES IDX 3 1 4 2 12 3 13 4 14 5 15 6 17 7 18 8 20 9 2 10 1 11 5 12
REMARK SMILES IDX 6 13 11 14 7 15 10 16 8 17 9 18 19 20 16 22
REMARK H PARENT 9 19 19 21 16 23
REMARK Flexibility Score: inf
ROOT
ATOM      1  C   UNL     1     -16.344   9.294 -23.003  1.00  0.00     0.131 C 
ATOM      2  C   UNL     1     -17.643   8.979 -22.248  1.00  0.00     0.211 C 
ATOM      3  O   UNL     1     -17.461   9.148 -20.841  1.00  0.00    -0.484 OA
ATOM      4  C   UNL     1     -16.286   8.766 -20.178  1.00  0.00     0.138 A 
ATOM      5  C   UNL     1     -16.285   8.704 -18.783  1.00  0.00     0.093 A 
ATOM      6  C   UNL     1     -15.135   8.313 -18.096  1.00  0.00     0.123 A 
ATOM      7  C   UNL     1     -13.969   8.010 -18.807  1.00  0.00     0.093 A 
ATOM      8  C   UNL     1     -13.936   8.105 -20.203  1.00  0.00     0.133 A 
ATOM      9  C   UNL     1     -15.117   8.456 -20.909  1.00  0.00     0.102 A 
ATOM     10  C   UNL     1     -15.217   8.519 -22.388  1.00  0.00     0.174 C 
ATOM     11  O   UNL     1     -14.416   7.896 -23.133  1.00  0.00    -0.294 OA
ENDROOT
BRANCH   2  12
ATOM     12  C   UNL     1     -18.768   9.859 -22.733  1.00  0.00    -0.007 A 
ATOM     13  C   UNL     1     -18.512  10.941 -23.594  1.00  0.00     0.011 A 
ATOM     14  C   UNL     1     -20.096   9.572 -22.371  1.00  0.00     0.011 A 
ATOM     15  C   UNL     1     -19.561  11.739 -24.058  1.00  0.00     0.046 A 
ATOM     16  C   UNL     1     -21.144  10.374 -22.835  1.00  0.00     0.046 A 
ATOM     17  C   UNL     1     -20.880  11.461 -23.674  1.00  0.00     0.115 A 
BRANCH  17  18
ATOM     18  O   UNL     1     -21.933  12.254 -24.124  1.00  0.00    -0.508 OA
ATOM     19  H   UNL     1     -22.599  11.912 -24.805  1.00  0.00     0.293 HD
ENDBRANCH  17  18
ENDBRANCH   2  12
BRANCH   8  20
ATOM     20  O   UNL     1     -12.709   7.880 -20.833  1.00  0.00    -0.507 OA
ATOM     21  H   UNL     1     -11.837   7.751 -20.340  1.00  0.00     0.293 HD
ENDBRANCH   8  20
BRANCH   6  22
ATOM     22  O   UNL     1     -15.159   8.236 -16.705  1.00  0.00    -0.508 OA
ATOM     23  H   UNL     1     -15.713   8.877 -16.149  1.00  0.00     0.293 HD
ENDBRANCH   6  22
TORSDOF 4
ENDMDL
MODEL 6
REMARK VINA RESULT:    -1.998      2.067      7.341
REMARK INTER + INTRA:          -2.574
REMARK INTER:                  -2.263
REMARK INTRA:                  -0.311
REMARK UNBOUND:                -0.285
REMARK SMILES O=C1C[C@H](c2ccc(O)cc2)Oc2cc(O)cc(O)c21
REMARK SMILES IDX 3 1 4 2 12 3 13 4 14 5 15 6 17 7 18 8 20 9 2 10 1 11 5 12
REMARK SMILES IDX 6 13 11 14 7 15 10 16 8 17 9 18 19 20 16 22
REMARK H PARENT 9 19 19 21 16 23
REMARK Flexibility Score: inf
ROOT
ATOM      1  C   UNL     1     -20.153  13.511  -4.864  1.00  0.00     0.131 C 
ATOM      2  C   UNL     1     -20.179  13.879  -6.354  1.00  0.00     0.211 C 
ATOM      3  O   UNL     1     -20.978  12.949  -7.090  1.00  0.00    -0.484 OA
ATOM      4  C   UNL     1     -20.976  11.574  -6.823  1.00  0.00     0.138 A 
ATOM      5  C   UNL     1     -21.557  10.703  -7.747  1.00  0.00     0.093 A 
ATOM      6  C   UNL     1     -21.559   9.327  -7.516  1.00  0.00     0.123 A 
ATOM      7  C   UNL     1     -21.000   8.820  -6.338  1.00  0.00     0.093 A 
ATOM      8  C   UNL     1     -20.447   9.677  -5.379  1.00  0.00     0.133 A 
ATOM      9  C   UNL     1     -20.401  11.073  -5.633  1.00  0.00     0.102 A 
ATOM     10  C   UNL     1     -19.779  12.065  -4.722  1.00  0.00     0.174 C 
ATOM     11  O   UNL     1     -18.908  11.733  -3.875  1.00  0.00    -0.294 OA
ENDROOT
BRANCH   2  12
ATOM     12  C   UNL     1     -20.706  15.280  -6.548  1.00  0.00    -0.007 A 
ATOM     13  C   UNL     1     -20.541  16.253  -5.546  1.00  0.00     0.011 A 
ATOM     14  C   UNL     1     -21.322  15.642  -7.759  1.00  0.00     0.011 A 
ATOM     15  C   UNL     1     -21.012  17.554  -5.740  1.00  0.00     0.046 A 
ATOM     16  C   UNL     1     -21.794  16.945  -7.949  1.00  0.00     0.046 A 
ATOM     17  C   UNL     1     -21.645  17.901  -6.941  1.00  0.00     0.115 A 
BRANCH  17  18
ATOM     18  O   UNL     1     -22.125  19.194  -7.142  1.00  0.00    -0.508 OA
ATOM     19  H   UNL     1     -23.106  19.418  -7.029  1.00  0.00     0.293 HD
ENDBRANCH  17  18
ENDBRANCH   2  12
BRANCH   8  20
ATOM     20  O   UNL     1     -19.996   9.102  -4.189  1.00  0.00    -0.507 OA
ATOM     21  H   UNL     1     -20.054   9.552  -3.287  1.00  0.00     0.293 HD
ENDBRANCH   8  20
BRANCH   6  22
ATOM     22  O   UNL     1     -22.125   8.473  -8.460  1.00  0.00    -0.508 OA
ATOM     23  H   UNL     1     -22.195   7.475  -8.297  1.00  0.00     0.293 HD
ENDBRANCH   6  22
TORSDOF 4
ENDMDL
MODEL 7
REMARK VINA RESULT:    -1.748     21.686     24.001
REMARK INTER + INTRA:          -2.289
REMARK INTER:                  -2.003
REMARK INTRA:                  -0.286
REMARK UNBOUND:                -0.285
REMARK SMILES O=C1C[C@H](c2ccc(O)cc2)Oc2cc(O)cc(O)c21
REMARK SMILES IDX 3 1 4 2 12 3 13 4 14 5 15 6 17 7 18 8 20 9 2 10 1 11 5 12
REMARK SMILES IDX 6 13 11 14 7 15 10 16 8 17 9 18 19 20 16 22
REMARK H PARENT 9 19 19 21 16 23
REMARK Flexibility Score: inf
ROOT
ATOM      1  C   UNL     1      -8.955  27.843 -22.949  1.00  0.00     0.131 C 
ATOM      2  C   UNL     1      -9.969  26.715 -23.188  1.00  0.00     0.211 C 
ATOM      3  O   UNL     1      -9.518  25.497 -22.589  1.00  0.00    -0.484 OA
ATOM      4  C   UNL     1      -8.176  25.096 -22.608  1.00  0.00     0.138 A 
ATOM      5  C   UNL     1      -7.855  23.784 -22.255  1.00  0.00     0.093 A 
ATOM      6  C   UNL     1      -6.529  23.351 -22.277  1.00  0.00     0.123 A 
ATOM      7  C   UNL     1      -5.512  24.246 -22.627  1.00  0.00     0.093 A 
ATOM      8  C   UNL     1      -5.805  25.577 -22.945  1.00  0.00     0.133 A 
ATOM      9  C   UNL     1      -7.158  26.008 -22.970  1.00  0.00     0.102 A 
ATOM     10  C   UNL     1      -7.591  27.372 -23.359  1.00  0.00     0.174 C 
ATOM     11  O   UNL     1      -6.867  28.120 -24.068  1.00  0.00    -0.294 OA
ENDROOT
BRANCH   2  12
ATOM     12  C   UNL     1     -11.323  27.090 -22.639  1.00  0.00    -0.007 A 
ATOM     13  C   UNL     1     -12.487  26.877 -23.399  1.00  0.00     0.011 A 
ATOM     14  C   UNL     1     -11.441  27.608 -21.338  1.00  0.00     0.011 A 
ATOM     15  C   UNL     1     -13.741  27.207 -22.878  1.00  0.00     0.046 A 
ATOM     16  C   UNL     1     -12.697  27.939 -20.820  1.00  0.00     0.046 A 
ATOM     17  C   UNL     1     -13.848  27.744 -21.588  1.00  0.00     0.115 A 
BRANCH  17  18
ATOM     18  O   UNL     1     -15.093  28.083 -21.062  1.00  0.00    -0.508 OA
ATOM     19  H   UNL     1     -15.395  29.047 -20.995  1.00  0.00     0.293 HD
ENDBRANCH  17  18
ENDBRANCH   2  12
BRANCH   8  20
ATOM     20  O   UNL     1      -4.727  26.431 -23.190  1.00  0.00    -0.507 OA
ATOM     21  H   UNL     1      -4.592  27.317 -22.724  1.00  0.00     0.293 HD
ENDBRANCH   8  20
BRANCH   6  22
ATOM     22  O   UNL     1      -6.232  22.032 -21.943  1.00  0.00    -0.508 OA
ATOM     23  H   UNL     1      -6.853  21.270 -22.191  1.00  0.00     0.293 HD
ENDBRANCH   6  22
TORSDOF 4
ENDMDL
