MODEL 1
REMARK VINA RESULT:    51.222      0.000      0.000
REMARK INTER + INTRA:          69.248
REMARK INTER:                  69.189
REMARK INTRA:                   0.060
REMARK UNBOUND:                 0.060
REMARK SMILES O=c1c(-c2ccc(O)cc2)coc2c([C@H]3O[C@@H](CO)[C@@H](O)[C@@H](O)[C@@H]3O)c(O)ccc12
REMARK SMILES IDX 3 1 11 2 12 3 13 4 30 5 2 6 1 7 29 8 28 9 26 10 14 11 4 12
REMARK SMILES IDX 5 13 6 14 7 15 10 16 9 17 8 18 15 20 24 21 16 22 22 23 17 24
REMARK SMILES IDX 20 25 25 26 23 28 18 30 19 31 21 33 27 35
REMARK H PARENT 8 19 25 27 23 29 19 32 21 34 27 36
REMARK Flexibility Score: inf
ROOT
ATOM      1  C   UNL     1      16.222  48.309  58.276  1.00  0.00     0.065 A 
ATOM      2  C   UNL     1      16.752  48.646  59.528  1.00  0.00     0.208 A 
ATOM      3  O   UNL     1      16.520  49.834  60.069  1.00  0.00    -0.463 OA
ATOM      4  C   UNL     1      15.786  50.776  59.479  1.00  0.00     0.147 A 
ATOM      5  C   UNL     1      15.225  50.525  58.206  1.00  0.00     0.066 A 
ATOM      6  C   UNL     1      15.452  49.273  57.602  1.00  0.00     0.200 A 
ATOM      7  O   UNL     1      14.986  49.026  56.455  1.00  0.00    -0.288 OA
ATOM      8  C   UNL     1      14.469  51.521  57.574  1.00  0.00     0.020 A 
ATOM      9  C   UNL     1      14.298  52.761  58.180  1.00  0.00     0.047 A 
ATOM     10  C   UNL     1      14.863  53.037  59.429  1.00  0.00     0.125 A 
ATOM     11  C   UNL     1      15.576  52.021  60.125  1.00  0.00     0.069 A 
ENDROOT
BRANCH   1  12
ATOM     12  C   UNL     1      16.487  46.968  57.695  1.00  0.00    -0.011 A 
ATOM     13  C   UNL     1      15.448  46.027  57.583  1.00  0.00     0.013 A 
ATOM     14  C   UNL     1      15.692  44.767  57.029  1.00  0.00     0.047 A 
ATOM     15  C   UNL     1      16.975  44.434  56.573  1.00  0.00     0.115 A 
ATOM     16  C   UNL     1      17.769  46.629  57.229  1.00  0.00     0.013 A 
ATOM     17  C   UNL     1      18.010  45.368  56.674  1.00  0.00     0.047 A 
BRANCH  15  18
ATOM     18  O   UNL     1      17.230  43.182  56.020  1.00  0.00    -0.508 OA
ATOM     19  H   UNL     1      17.013  42.976  55.051  1.00  0.00     0.293 HD
ENDBRANCH  15  18
ENDBRANCH   1  12
BRANCH  11  20
ATOM     20  C   UNL     1      16.145  52.255  61.521  1.00  0.00     0.188 C 
ATOM     21  C   UNL     1      15.340  53.364  62.247  1.00  0.00     0.179 C 
ATOM     22  O   UNL     1      17.517  52.614  61.410  1.00  0.00    -0.362 OA
ATOM     23  C   UNL     1      15.984  53.661  63.615  1.00  0.00     0.177 C 
ATOM     24  C   UNL     1      18.119  52.737  62.688  1.00  0.00     0.176 C 
ATOM     25  C   UNL     1      17.494  53.917  63.464  1.00  0.00     0.177 C 
BRANCH  21  26
ATOM     26  O   UNL     1      14.012  52.951  62.450  1.00  0.00    -0.387 OA
ATOM     27  H   UNL     1      13.442  53.504  61.856  1.00  0.00     0.211 HD
ENDBRANCH  21  26
BRANCH  23  28
ATOM     28  O   UNL     1      15.347  54.736  64.262  1.00  0.00    -0.387 OA
ATOM     29  H   UNL     1      15.086  55.400  63.572  1.00  0.00     0.211 HD
ENDBRANCH  23  28
BRANCH  24  30
ATOM     30  C   UNL     1      19.633  52.925  62.512  1.00  0.00     0.191 C 
BRANCH  30  31
ATOM     31  O   UNL     1      20.151  51.935  61.665  1.00  0.00    -0.394 OA
ATOM     32  H   UNL     1      19.553  51.147  61.747  1.00  0.00     0.210 HD
ENDBRANCH  30  31
ENDBRANCH  24  30
BRANCH  25  33
ATOM     33  O   UNL     1      17.706  55.124  62.769  1.00  0.00    -0.388 OA
ATOM     34  H   UNL     1      16.946  55.236  62.140  1.00  0.00     0.211 HD
ENDBRANCH  25  33
ENDBRANCH  11  20
BRANCH  10  35
ATOM     35  O   UNL     1      14.704  54.335  59.925  1.00  0.00    -0.507 OA
ATOM     36  H   UNL     1      13.833  54.844  59.923  1.00  0.00     0.293 HD
ENDBRANCH  10  35
TORSDOF 9
ENDMDL
