MODEL 1
REMARK VINA RESULT:    -7.939      0.000      0.000
REMARK INTER + INTRA:          -9.824
REMARK INTER:                  -9.563
REMARK INTRA:                  -0.261
REMARK UNBOUND:                -0.261
REMARK SMILES O=c1c(O)c(-c2ccc(O)c(O)c2)oc2cc(O)cc(O)c12
REMARK SMILES IDX 5 1 3 2 2 3 1 4 22 5 20 6 19 7 17 8 16 9 15 10 14 11 6 12
REMARK SMILES IDX 7 13 8 14 9 15 13 16 11 17 10 18 12 20 4 22 21 24 18 26
REMARK H PARENT 10 19 12 21 4 23 21 25 18 27
REMARK Flexibility Score: inf
ROOT
ATOM      1  C   UNL     1       0.728 -26.831  -0.112  1.00  0.00     0.180 A 
ATOM      2  C   UNL     1       1.480 -26.900  -1.297  1.00  0.00     0.208 A 
ATOM      3  C   UNL     1       2.702 -27.592  -1.288  1.00  0.00     0.238 A 
ATOM      4  O   UNL     1       3.345 -27.696  -2.366  1.00  0.00    -0.285 OA
ATOM      5  C   UNL     1       3.163 -28.192  -0.093  1.00  0.00     0.111 A 
ATOM      6  C   UNL     1       4.405 -28.883   0.040  1.00  0.00     0.134 A 
ATOM      7  C   UNL     1       4.699 -29.550   1.236  1.00  0.00     0.093 A 
ATOM      8  C   UNL     1       3.829 -29.496   2.324  1.00  0.00     0.123 A 
ATOM      9  C   UNL     1       2.639 -28.774   2.225  1.00  0.00     0.094 A 
ATOM     10  C   UNL     1       2.301 -28.128   1.033  1.00  0.00     0.146 A 
ATOM     11  O   UNL     1       1.155 -27.460   0.977  1.00  0.00    -0.452 OA
ENDROOT
BRANCH   1  12
ATOM     12  C   UNL     1      -0.558 -26.099  -0.037  1.00  0.00     0.025 A 
ATOM     13  C   UNL     1      -1.753 -26.816   0.114  1.00  0.00     0.016 A 
ATOM     14  C   UNL     1      -2.973 -26.145   0.207  1.00  0.00     0.051 A 
ATOM     15  C   UNL     1      -3.024 -24.747   0.169  1.00  0.00     0.157 A 
ATOM     16  C   UNL     1      -0.602 -24.694  -0.053  1.00  0.00     0.062 A 
ATOM     17  C   UNL     1      -1.822 -24.012   0.044  1.00  0.00     0.158 A 
BRANCH  15  18
ATOM     18  O   UNL     1      -4.277 -24.137   0.260  1.00  0.00    -0.504 OA
ATOM     19  H   UNL     1      -4.871 -24.187   1.075  1.00  0.00     0.293 HD
ENDBRANCH  15  18
BRANCH  17  20
ATOM     20  O   UNL     1      -1.792 -22.616   0.019  1.00  0.00    -0.504 OA
ATOM     21  H   UNL     1      -1.062 -22.075  -0.422  1.00  0.00     0.293 HD
ENDBRANCH  17  20
ENDBRANCH   1  12
BRANCH   2  22
ATOM     22  O   UNL     1       0.995 -26.319  -2.472  1.00  0.00    -0.502 OA
ATOM     23  H   UNL     1       0.011 -26.122  -2.616  1.00  0.00     0.293 HD
ENDBRANCH   2  22
BRANCH   6  24
ATOM     24  O   UNL     1       5.387 -28.922  -0.953  1.00  0.00    -0.507 OA
ATOM     25  H   UNL     1       6.027 -29.689  -1.098  1.00  0.00     0.293 HD
ENDBRANCH   6  24
BRANCH   8  26
ATOM     26  O   UNL     1       4.161 -30.158   3.504  1.00  0.00    -0.508 OA
ATOM     27  H   UNL     1       5.108 -30.466   3.690  1.00  0.00     0.293 HD
ENDBRANCH   8  26
TORSDOF 6
ENDMDL
MODEL 2
REMARK VINA RESULT:    -7.934      1.291      1.975
REMARK INTER + INTRA:          -9.818
REMARK INTER:                  -9.677
REMARK INTRA:                  -0.141
REMARK UNBOUND:                -0.261
REMARK SMILES O=c1c(O)c(-c2ccc(O)c(O)c2)oc2cc(O)cc(O)c12
REMARK SMILES IDX 5 1 3 2 2 3 1 4 22 5 20 6 19 7 17 8 16 9 15 10 14 11 6 12
REMARK SMILES IDX 7 13 8 14 9 15 13 16 11 17 10 18 12 20 4 22 21 24 18 26
REMARK H PARENT 10 19 12 21 4 23 21 25 18 27
REMARK Flexibility Score: inf
ROOT
ATOM      1  C   UNL     1      -0.097 -26.538  -0.313  1.00  0.00     0.180 A 
ATOM      2  C   UNL     1       0.448 -26.336  -1.593  1.00  0.00     0.208 A 
ATOM      3  C   UNL     1       1.719 -26.858  -1.881  1.00  0.00     0.238 A 
ATOM      4  O   UNL     1       2.179 -26.720  -3.045  1.00  0.00    -0.285 OA
ATOM      5  C   UNL     1       2.435 -27.561  -0.883  1.00  0.00     0.111 A 
ATOM      6  C   UNL     1       3.746 -28.097  -1.053  1.00  0.00     0.134 A 
ATOM      7  C   UNL     1       4.305 -28.887  -0.040  1.00  0.00     0.093 A 
ATOM      8  C   UNL     1       3.630 -29.105   1.160  1.00  0.00     0.123 A 
ATOM      9  C   UNL     1       2.372 -28.535   1.360  1.00  0.00     0.094 A 
ATOM     10  C   UNL     1       1.772 -27.773   0.354  1.00  0.00     0.146 A 
ATOM     11  O   UNL     1       0.570 -27.257   0.581  1.00  0.00    -0.452 OA
ENDROOT
BRANCH   1  12
ATOM     12  C   UNL     1      -1.421 -25.996   0.072  1.00  0.00     0.025 A 
ATOM     13  C   UNL     1      -1.624 -24.609   0.077  1.00  0.00     0.016 A 
ATOM     14  C   UNL     1      -2.870 -24.078   0.417  1.00  0.00     0.051 A 
ATOM     15  C   UNL     1      -3.939 -24.919   0.742  1.00  0.00     0.157 A 
ATOM     16  C   UNL     1      -2.499 -26.845   0.376  1.00  0.00     0.062 A 
ATOM     17  C   UNL     1      -3.754 -26.321   0.715  1.00  0.00     0.158 A 
BRANCH  15  18
ATOM     18  O   UNL     1      -5.158 -24.325   1.080  1.00  0.00    -0.504 OA
ATOM     19  H   UNL     1      -5.753 -23.844   0.422  1.00  0.00     0.293 HD
ENDBRANCH  15  18
BRANCH  17  20
ATOM     20  O   UNL     1      -4.779 -27.223   1.008  1.00  0.00    -0.504 OA
ATOM     21  H   UNL     1      -5.473 -27.526   0.340  1.00  0.00     0.293 HD
ENDBRANCH  17  20
ENDBRANCH   1  12
BRANCH   2  22
ATOM     22  O   UNL     1      -0.286 -25.658  -2.571  1.00  0.00    -0.502 OA
ATOM     23  H   UNL     1       0.066 -25.510  -3.509  1.00  0.00     0.293 HD
ENDBRANCH   2  22
BRANCH   6  24
ATOM     24  O   UNL     1       4.547 -27.864  -2.175  1.00  0.00    -0.507 OA
ATOM     25  H   UNL     1       4.596 -28.470  -2.980  1.00  0.00     0.293 HD
ENDBRANCH   6  24
BRANCH   8  26
ATOM     26  O   UNL     1       4.223 -29.883   2.152  1.00  0.00    -0.508 OA
ATOM     27  H   UNL     1       4.020 -29.735   3.133  1.00  0.00     0.293 HD
ENDBRANCH   8  26
TORSDOF 6
ENDMDL
MODEL 3
REMARK VINA RESULT:    -7.796      2.338      6.678
REMARK INTER + INTRA:          -9.652
REMARK INTER:                  -9.603
REMARK INTRA:                  -0.050
REMARK UNBOUND:                -0.261
REMARK SMILES O=c1c(O)c(-c2ccc(O)c(O)c2)oc2cc(O)cc(O)c12
REMARK SMILES IDX 5 1 3 2 2 3 1 4 22 5 20 6 19 7 17 8 16 9 15 10 14 11 6 12
REMARK SMILES IDX 7 13 8 14 9 15 13 16 11 17 10 18 12 20 4 22 21 24 18 26
REMARK H PARENT 10 19 12 21 4 23 21 25 18 27
REMARK Flexibility Score: inf
ROOT
ATOM      1  C   UNL     1       3.376 -29.263   1.748  1.00  0.00     0.180 A 
ATOM      2  C   UNL     1       4.459 -29.300   0.852  1.00  0.00     0.208 A 
ATOM      3  C   UNL     1       4.336 -28.659  -0.391  1.00  0.00     0.238 A 
ATOM      4  O   UNL     1       5.329 -28.649  -1.166  1.00  0.00    -0.285 OA
ATOM      5  C   UNL     1       3.129 -28.002  -0.729  1.00  0.00     0.111 A 
ATOM      6  C   UNL     1       2.880 -27.355  -1.976  1.00  0.00     0.134 A 
ATOM      7  C   UNL     1       1.698 -26.626  -2.152  1.00  0.00     0.093 A 
ATOM      8  C   UNL     1       0.727 -26.575  -1.152  1.00  0.00     0.123 A 
ATOM      9  C   UNL     1       0.933 -27.254   0.049  1.00  0.00     0.094 A 
ATOM     10  C   UNL     1       2.119 -27.960   0.268  1.00  0.00     0.146 A 
ATOM     11  O   UNL     1       2.281 -28.584   1.429  1.00  0.00    -0.452 OA
ENDROOT
BRANCH   1  12
ATOM     12  C   UNL     1       3.422 -29.937   3.066  1.00  0.00     0.025 A 
ATOM     13  C   UNL     1       3.727 -31.303   3.132  1.00  0.00     0.016 A 
ATOM     14  C   UNL     1       3.796 -31.953   4.365  1.00  0.00     0.051 A 
ATOM     15  C   UNL     1       3.579 -31.251   5.556  1.00  0.00     0.157 A 
ATOM     16  C   UNL     1       3.226 -29.223   4.261  1.00  0.00     0.062 A 
ATOM     17  C   UNL     1       3.297 -29.866   5.504  1.00  0.00     0.158 A 
BRANCH  15  18
ATOM     18  O   UNL     1       3.655 -31.962   6.756  1.00  0.00    -0.504 OA
ATOM     19  H   UNL     1       3.962 -31.561   7.631  1.00  0.00     0.293 HD
ENDBRANCH  15  18
BRANCH  17  20
ATOM     20  O   UNL     1       3.089 -29.095   6.649  1.00  0.00    -0.504 OA
ATOM     21  H   UNL     1       3.830 -28.768   7.252  1.00  0.00     0.293 HD
ENDBRANCH  17  20
ENDBRANCH   1  12
BRANCH   2  22
ATOM     22  O   UNL     1       5.651 -29.934   1.216  1.00  0.00    -0.502 OA
ATOM     23  H   UNL     1       6.045 -30.699   0.681  1.00  0.00     0.293 HD
ENDBRANCH   2  22
BRANCH   6  24
ATOM     24  O   UNL     1       3.742 -27.419  -3.075  1.00  0.00    -0.507 OA
ATOM     25  H   UNL     1       4.114 -26.616  -3.559  1.00  0.00     0.293 HD
ENDBRANCH   6  24
BRANCH   8  26
ATOM     26  O   UNL     1      -0.445 -25.854  -1.367  1.00  0.00    -0.508 OA
ATOM     27  H   UNL     1      -0.611 -25.358  -2.235  1.00  0.00     0.293 HD
ENDBRANCH   8  26
TORSDOF 6
ENDMDL
MODEL 4
REMARK VINA RESULT:    -7.377      2.474      4.753
REMARK INTER + INTRA:          -9.147
REMARK INTER:                  -9.621
REMARK INTRA:                   0.474
REMARK UNBOUND:                -0.261
REMARK SMILES O=c1c(O)c(-c2ccc(O)c(O)c2)oc2cc(O)cc(O)c12
REMARK SMILES IDX 5 1 3 2 2 3 1 4 22 5 20 6 19 7 17 8 16 9 15 10 14 11 6 12
REMARK SMILES IDX 7 13 8 14 9 15 13 16 11 17 10 18 12 20 4 22 21 24 18 26
REMARK H PARENT 10 19 12 21 4 23 21 25 18 27
REMARK Flexibility Score: inf
ROOT
ATOM      1  C   UNL     1       3.570 -28.855   1.420  1.00  0.00     0.180 A 
ATOM      2  C   UNL     1       4.845 -29.351   1.097  1.00  0.00     0.208 A 
ATOM      3  C   UNL     1       5.595 -30.000   2.091  1.00  0.00     0.238 A 
ATOM      4  O   UNL     1       6.713 -30.490   1.781  1.00  0.00    -0.285 OA
ATOM      5  C   UNL     1       5.068 -30.131   3.398  1.00  0.00     0.111 A 
ATOM      6  C   UNL     1       5.759 -30.733   4.492  1.00  0.00     0.134 A 
ATOM      7  C   UNL     1       5.090 -30.925   5.708  1.00  0.00     0.093 A 
ATOM      8  C   UNL     1       3.782 -30.477   5.890  1.00  0.00     0.123 A 
ATOM      9  C   UNL     1       3.119 -29.833   4.845  1.00  0.00     0.094 A 
ATOM     10  C   UNL     1       3.746 -29.659   3.609  1.00  0.00     0.146 A 
ATOM     11  O   UNL     1       3.077 -29.051   2.638  1.00  0.00    -0.452 OA
ENDROOT
BRANCH   1  12
ATOM     12  C   UNL     1       2.731 -28.138   0.433  1.00  0.00     0.025 A 
ATOM     13  C   UNL     1       1.537 -27.533   0.851  1.00  0.00     0.016 A 
ATOM     14  C   UNL     1       0.742 -26.835  -0.058  1.00  0.00     0.051 A 
ATOM     15  C   UNL     1       1.128 -26.713  -1.398  1.00  0.00     0.157 A 
ATOM     16  C   UNL     1       3.134 -27.998  -0.906  1.00  0.00     0.062 A 
ATOM     17  C   UNL     1       2.343 -27.295  -1.826  1.00  0.00     0.158 A 
BRANCH  15  18
ATOM     18  O   UNL     1       0.284 -26.007  -2.259  1.00  0.00    -0.504 OA
ATOM     19  H   UNL     1      -0.072 -25.082  -2.067  1.00  0.00     0.293 HD
ENDBRANCH  15  18
BRANCH  17  20
ATOM     20  O   UNL     1       2.804 -27.199  -3.140  1.00  0.00    -0.504 OA
ATOM     21  H   UNL     1       3.768 -27.328  -3.412  1.00  0.00     0.293 HD
ENDBRANCH  17  20
ENDBRANCH   1  12
BRANCH   2  22
ATOM     22  O   UNL     1       5.336 -29.231  -0.206  1.00  0.00    -0.502 OA
ATOM     23  H   UNL     1       5.123 -29.906  -0.932  1.00  0.00     0.293 HD
ENDBRANCH   2  22
BRANCH   6  24
ATOM     24  O   UNL     1       7.097 -31.134   4.447  1.00  0.00    -0.507 OA
ATOM     25  H   UNL     1       7.842 -30.704   4.975  1.00  0.00     0.293 HD
ENDBRANCH   6  24
BRANCH   8  26
ATOM     26  O   UNL     1       3.153 -30.670   7.118  1.00  0.00    -0.508 OA
ATOM     27  H   UNL     1       3.617 -30.451   7.991  1.00  0.00     0.293 HD
ENDBRANCH   8  26
TORSDOF 6
ENDMDL
MODEL 5
REMARK VINA RESULT:    -7.199      6.677      8.342
REMARK INTER + INTRA:          -8.932
REMARK INTER:                  -8.610
REMARK INTRA:                  -0.322
REMARK UNBOUND:                -0.261
REMARK SMILES O=c1c(O)c(-c2ccc(O)c(O)c2)oc2cc(O)cc(O)c12
REMARK SMILES IDX 5 1 3 2 2 3 1 4 22 5 20 6 19 7 17 8 16 9 15 10 14 11 6 12
REMARK SMILES IDX 7 13 8 14 9 15 13 16 11 17 10 18 12 20 4 22 21 24 18 26
REMARK H PARENT 10 19 12 21 4 23 21 25 18 27
REMARK Flexibility Score: inf
ROOT
ATOM      1  C   UNL     1       5.648 -30.374   4.552  1.00  0.00     0.180 A 
ATOM      2  C   UNL     1       6.806 -30.407   5.347  1.00  0.00     0.208 A 
ATOM      3  C   UNL     1       8.051 -30.163   4.746  1.00  0.00     0.238 A 
ATOM      4  O   UNL     1       9.080 -30.140   5.473  1.00  0.00    -0.285 OA
ATOM      5  C   UNL     1       8.124 -29.902   3.356  1.00  0.00     0.111 A 
ATOM      6  C   UNL     1       9.336 -29.681   2.636  1.00  0.00     0.134 A 
ATOM      7  C   UNL     1       9.279 -29.304   1.288  1.00  0.00     0.093 A 
ATOM      8  C   UNL     1       8.060 -29.205   0.619  1.00  0.00     0.123 A 
ATOM      9  C   UNL     1       6.872 -29.478   1.298  1.00  0.00     0.094 A 
ATOM     10  C   UNL     1       6.894 -29.821   2.652  1.00  0.00     0.146 A 
ATOM     11  O   UNL     1       5.742 -30.063   3.264  1.00  0.00    -0.452 OA
ENDROOT
BRANCH   1  12
ATOM     12  C   UNL     1       4.303 -30.646   5.109  1.00  0.00     0.025 A 
ATOM     13  C   UNL     1       3.456 -29.574   5.423  1.00  0.00     0.016 A 
ATOM     14  C   UNL     1       2.177 -29.808   5.930  1.00  0.00     0.051 A 
ATOM     15  C   UNL     1       1.712 -31.115   6.118  1.00  0.00     0.157 A 
ATOM     16  C   UNL     1       3.831 -31.959   5.275  1.00  0.00     0.062 A 
ATOM     17  C   UNL     1       2.547 -32.205   5.780  1.00  0.00     0.158 A 
BRANCH  15  18
ATOM     18  O   UNL     1       0.425 -31.281   6.636  1.00  0.00    -0.504 OA
ATOM     19  H   UNL     1       0.098 -30.845   7.486  1.00  0.00     0.293 HD
ENDBRANCH  15  18
BRANCH  17  20
ATOM     20  O   UNL     1       2.145 -33.534   5.921  1.00  0.00    -0.504 OA
ATOM     21  H   UNL     1       2.459 -34.286   5.323  1.00  0.00     0.293 HD
ENDBRANCH  17  20
ENDBRANCH   1  12
BRANCH   2  22
ATOM     22  O   UNL     1       6.709 -30.644   6.721  1.00  0.00    -0.502 OA
ATOM     23  H   UNL     1       6.816 -29.907   7.408  1.00  0.00     0.293 HD
ENDBRANCH   2  22
BRANCH   6  24
ATOM     24  O   UNL     1      10.612 -29.842   3.184  1.00  0.00    -0.507 OA
ATOM     25  H   UNL     1      10.971 -29.315   3.966  1.00  0.00     0.293 HD
ENDBRANCH   6  24
BRANCH   8  26
ATOM     26  O   UNL     1       8.042 -28.843  -0.726  1.00  0.00    -0.508 OA
ATOM     27  H   UNL     1       7.870 -27.888  -1.016  1.00  0.00     0.293 HD
ENDBRANCH   8  26
TORSDOF 6
ENDMDL
MODEL 6
REMARK VINA RESULT:    -7.108      4.968      7.137
REMARK INTER + INTRA:          -8.822
REMARK INTER:                  -8.488
REMARK INTRA:                  -0.334
REMARK UNBOUND:                -0.261
REMARK SMILES O=c1c(O)c(-c2ccc(O)c(O)c2)oc2cc(O)cc(O)c12
REMARK SMILES IDX 5 1 3 2 2 3 1 4 22 5 20 6 19 7 17 8 16 9 15 10 14 11 6 12
REMARK SMILES IDX 7 13 8 14 9 15 13 16 11 17 10 18 12 20 4 22 21 24 18 26
REMARK H PARENT 10 19 12 21 4 23 21 25 18 27
REMARK Flexibility Score: inf
ROOT
ATOM      1  C   UNL     1       4.390 -29.907   3.406  1.00  0.00     0.180 A 
ATOM      2  C   UNL     1       5.773 -30.038   3.615  1.00  0.00     0.208 A 
ATOM      3  C   UNL     1       6.649 -29.789   2.547  1.00  0.00     0.238 A 
ATOM      4  O   UNL     1       7.890 -29.855   2.754  1.00  0.00    -0.285 OA
ATOM      5  C   UNL     1       6.131 -29.428   1.280  1.00  0.00     0.111 A 
ATOM      6  C   UNL     1       6.925 -29.192   0.117  1.00  0.00     0.134 A 
ATOM      7  C   UNL     1       6.315 -28.714  -1.049  1.00  0.00     0.093 A 
ATOM      8  C   UNL     1       4.935 -28.526  -1.116  1.00  0.00     0.123 A 
ATOM      9  C   UNL     1       4.142 -28.810  -0.003  1.00  0.00     0.094 A 
ATOM     10  C   UNL     1       4.725 -29.254   1.186  1.00  0.00     0.146 A 
ATOM     11  O   UNL     1       3.937 -29.503   2.225  1.00  0.00    -0.452 OA
ENDROOT
BRANCH   1  12
ATOM     12  C   UNL     1       3.403 -30.176   4.478  1.00  0.00     0.025 A 
ATOM     13  C   UNL     1       2.927 -29.115   5.260  1.00  0.00     0.016 A 
ATOM     14  C   UNL     1       1.981 -29.343   6.261  1.00  0.00     0.051 A 
ATOM     15  C   UNL     1       1.481 -30.630   6.491  1.00  0.00     0.157 A 
ATOM     16  C   UNL     1       2.886 -31.466   4.690  1.00  0.00     0.062 A 
ATOM     17  C   UNL     1       1.934 -31.704   5.690  1.00  0.00     0.158 A 
BRANCH  15  18
ATOM     18  O   UNL     1       0.543 -30.792   7.512  1.00  0.00    -0.504 OA
ATOM     19  H   UNL     1       0.270 -30.059   8.151  1.00  0.00     0.293 HD
ENDBRANCH  15  18
BRANCH  17  20
ATOM     20  O   UNL     1       1.466 -33.010   5.846  1.00  0.00    -0.504 OA
ATOM     21  H   UNL     1       1.919 -33.708   6.419  1.00  0.00     0.293 HD
ENDBRANCH  17  20
ENDBRANCH   1  12
BRANCH   2  22
ATOM     22  O   UNL     1       6.264 -30.373   4.880  1.00  0.00    -0.502 OA
ATOM     23  H   UNL     1       6.677 -29.688   5.502  1.00  0.00     0.293 HD
ENDBRANCH   2  22
BRANCH   6  24
ATOM     24  O   UNL     1       8.299 -29.436   0.047  1.00  0.00    -0.507 OA
ATOM     25  H   UNL     1       8.975 -29.110   0.721  1.00  0.00     0.293 HD
ENDBRANCH   6  24
BRANCH   8  26
ATOM     26  O   UNL     1       4.360 -28.063  -2.298  1.00  0.00    -0.508 OA
ATOM     27  H   UNL     1       3.366 -27.882  -2.368  1.00  0.00     0.293 HD
ENDBRANCH   8  26
TORSDOF 6
ENDMDL
MODEL 7
REMARK VINA RESULT:    -6.937      6.454      8.949
REMARK INTER + INTRA:          -8.617
REMARK INTER:                  -8.298
REMARK INTRA:                  -0.319
REMARK UNBOUND:                -0.261
REMARK SMILES O=c1c(O)c(-c2ccc(O)c(O)c2)oc2cc(O)cc(O)c12
REMARK SMILES IDX 5 1 3 2 2 3 1 4 22 5 20 6 19 7 17 8 16 9 15 10 14 11 6 12
REMARK SMILES IDX 7 13 8 14 9 15 13 16 11 17 10 18 12 20 4 22 21 24 18 26
REMARK H PARENT 10 19 12 21 4 23 21 25 18 27
REMARK Flexibility Score: inf
ROOT
ATOM      1  C   UNL     1       5.920 -30.602   3.539  1.00  0.00     0.180 A 
ATOM      2  C   UNL     1       5.835 -32.005   3.575  1.00  0.00     0.208 A 
ATOM      3  C   UNL     1       4.786 -32.605   4.290  1.00  0.00     0.238 A 
ATOM      4  O   UNL     1       4.684 -33.860   4.273  1.00  0.00    -0.285 OA
ATOM      5  C   UNL     1       3.845 -31.796   4.972  1.00  0.00     0.111 A 
ATOM      6  C   UNL     1       2.766 -32.299   5.760  1.00  0.00     0.134 A 
ATOM      7  C   UNL     1       1.820 -31.408   6.283  1.00  0.00     0.093 A 
ATOM      8  C   UNL     1       1.950 -30.031   6.102  1.00  0.00     0.123 A 
ATOM      9  C   UNL     1       3.034 -29.526   5.384  1.00  0.00     0.094 A 
ATOM     10  C   UNL     1       3.975 -30.391   4.819  1.00  0.00     0.146 A 
ATOM     11  O   UNL     1       4.985 -29.870   4.135  1.00  0.00    -0.452 OA
ENDROOT
BRANCH   1  12
ATOM     12  C   UNL     1       7.011 -29.898   2.827  1.00  0.00     0.025 A 
ATOM     13  C   UNL     1       8.185 -29.566   3.519  1.00  0.00     0.016 A 
ATOM     14  C   UNL     1       9.234 -28.921   2.862  1.00  0.00     0.051 A 
ATOM     15  C   UNL     1       9.140 -28.609   1.501  1.00  0.00     0.157 A 
ATOM     16  C   UNL     1       6.923 -29.607   1.455  1.00  0.00     0.062 A 
ATOM     17  C   UNL     1       7.973 -28.964   0.787  1.00  0.00     0.158 A 
BRANCH  15  18
ATOM     18  O   UNL     1      10.222 -27.957   0.905  1.00  0.00    -0.504 OA
ATOM     19  H   UNL     1      11.175 -28.287   0.952  1.00  0.00     0.293 HD
ENDBRANCH  15  18
BRANCH  17  20
ATOM     20  O   UNL     1       7.815 -28.704  -0.576  1.00  0.00    -0.504 OA
ATOM     21  H   UNL     1       7.321 -29.312  -1.214  1.00  0.00     0.293 HD
ENDBRANCH  17  20
ENDBRANCH   1  12
BRANCH   2  22
ATOM     22  O   UNL     1       6.761 -32.783   2.876  1.00  0.00    -0.502 OA
ATOM     23  H   UNL     1       6.855 -33.781   3.023  1.00  0.00     0.293 HD
ENDBRANCH   2  22
BRANCH   6  24
ATOM     24  O   UNL     1       2.594 -33.649   6.079  1.00  0.00    -0.507 OA
ATOM     25  H   UNL     1       3.186 -34.396   5.749  1.00  0.00     0.293 HD
ENDBRANCH   6  24
BRANCH   8  26
ATOM     26  O   UNL     1       0.999 -29.173   6.650  1.00  0.00    -0.508 OA
ATOM     27  H   UNL     1       1.156 -28.702   7.532  1.00  0.00     0.293 HD
ENDBRANCH   8  26
TORSDOF 6
ENDMDL
MODEL 8
REMARK VINA RESULT:    -6.922      6.419      7.849
REMARK INTER + INTRA:          -8.599
REMARK INTER:                  -8.305
REMARK INTRA:                  -0.294
REMARK UNBOUND:                -0.261
REMARK SMILES O=c1c(O)c(-c2ccc(O)c(O)c2)oc2cc(O)cc(O)c12
REMARK SMILES IDX 5 1 3 2 2 3 1 4 22 5 20 6 19 7 17 8 16 9 15 10 14 11 6 12
REMARK SMILES IDX 7 13 8 14 9 15 13 16 11 17 10 18 12 20 4 22 21 24 18 26
REMARK H PARENT 10 19 12 21 4 23 21 25 18 27
REMARK Flexibility Score: inf
ROOT
ATOM      1  C   UNL     1       5.364 -30.396   4.294  1.00  0.00     0.180 A 
ATOM      2  C   UNL     1       5.415 -29.947   2.963  1.00  0.00     0.208 A 
ATOM      3  C   UNL     1       6.665 -29.812   2.338  1.00  0.00     0.238 A 
ATOM      4  O   UNL     1       6.701 -29.462   1.129  1.00  0.00    -0.285 OA
ATOM      5  C   UNL     1       7.848 -30.112   3.055  1.00  0.00     0.111 A 
ATOM      6  C   UNL     1       9.168 -29.972   2.534  1.00  0.00     0.134 A 
ATOM      7  C   UNL     1      10.259 -30.422   3.288  1.00  0.00     0.093 A 
ATOM      8  C   UNL     1      10.083 -30.945   4.569  1.00  0.00     0.123 A 
ATOM      9  C   UNL     1       8.801 -31.031   5.112  1.00  0.00     0.094 A 
ATOM     10  C   UNL     1       7.689 -30.624   4.370  1.00  0.00     0.146 A 
ATOM     11  O   UNL     1       6.486 -30.732   4.919  1.00  0.00    -0.452 OA
ENDROOT
BRANCH   1  12
ATOM     12  C   UNL     1       4.085 -30.539   5.027  1.00  0.00     0.025 A 
ATOM     13  C   UNL     1       3.467 -29.402   5.565  1.00  0.00     0.016 A 
ATOM     14  C   UNL     1       2.251 -29.512   6.242  1.00  0.00     0.051 A 
ATOM     15  C   UNL     1       1.621 -30.753   6.381  1.00  0.00     0.157 A 
ATOM     16  C   UNL     1       3.444 -31.784   5.145  1.00  0.00     0.062 A 
ATOM     17  C   UNL     1       2.221 -31.903   5.819  1.00  0.00     0.158 A 
BRANCH  15  18
ATOM     18  O   UNL     1       0.409 -30.796   7.076  1.00  0.00    -0.504 OA
ATOM     19  H   UNL     1      -0.035 -31.649   7.384  1.00  0.00     0.293 HD
ENDBRANCH  15  18
BRANCH  17  20
ATOM     20  O   UNL     1       1.643 -33.172   5.899  1.00  0.00    -0.504 OA
ATOM     21  H   UNL     1       2.033 -33.938   6.428  1.00  0.00     0.293 HD
ENDBRANCH  17  20
ENDBRANCH   1  12
BRANCH   2  22
ATOM     22  O   UNL     1       4.233 -29.678   2.266  1.00  0.00    -0.502 OA
ATOM     23  H   UNL     1       3.534 -30.388   2.087  1.00  0.00     0.293 HD
ENDBRANCH   2  22
BRANCH   6  24
ATOM     24  O   UNL     1       9.464 -29.379   1.303  1.00  0.00    -0.507 OA
ATOM     25  H   UNL     1      10.218 -28.727   1.147  1.00  0.00     0.293 HD
ENDBRANCH   6  24
BRANCH   8  26
ATOM     26  O   UNL     1      11.193 -31.369   5.297  1.00  0.00    -0.508 OA
ATOM     27  H   UNL     1      11.190 -31.378   6.310  1.00  0.00     0.293 HD
ENDBRANCH   8  26
TORSDOF 6
ENDMDL
MODEL 9
REMARK VINA RESULT:    -6.907      1.680      3.418
REMARK INTER + INTRA:          -8.581
REMARK INTER:                  -8.964
REMARK INTRA:                   0.383
REMARK UNBOUND:                -0.261
REMARK SMILES O=c1c(O)c(-c2ccc(O)c(O)c2)oc2cc(O)cc(O)c12
REMARK SMILES IDX 5 1 3 2 2 3 1 4 22 5 20 6 19 7 17 8 16 9 15 10 14 11 6 12
REMARK SMILES IDX 7 13 8 14 9 15 13 16 11 17 10 18 12 20 4 22 21 24 18 26
REMARK H PARENT 10 19 12 21 4 23 21 25 18 27
REMARK Flexibility Score: inf
ROOT
ATOM      1  C   UNL     1       0.843 -26.891  -0.749  1.00  0.00     0.180 A 
ATOM      2  C   UNL     1       1.525 -27.593   0.261  1.00  0.00     0.208 A 
ATOM      3  C   UNL     1       2.831 -28.045   0.012  1.00  0.00     0.238 A 
ATOM      4  O   UNL     1       3.456 -28.625   0.939  1.00  0.00    -0.285 OA
ATOM      5  C   UNL     1       3.432 -27.804  -1.247  1.00  0.00     0.111 A 
ATOM      6  C   UNL     1       4.734 -28.253  -1.621  1.00  0.00     0.134 A 
ATOM      7  C   UNL     1       5.279 -27.845  -2.845  1.00  0.00     0.093 A 
ATOM      8  C   UNL     1       4.545 -27.062  -3.735  1.00  0.00     0.123 A 
ATOM      9  C   UNL     1       3.248 -26.668  -3.405  1.00  0.00     0.094 A 
ATOM     10  C   UNL     1       2.691 -27.028  -2.175  1.00  0.00     0.146 A 
ATOM     11  O   UNL     1       1.458 -26.624  -1.895  1.00  0.00    -0.452 OA
ENDROOT
BRANCH   1  12
ATOM     12  C   UNL     1      -0.544 -26.405  -0.569  1.00  0.00     0.025 A 
ATOM     13  C   UNL     1      -1.378 -27.029   0.369  1.00  0.00     0.016 A 
ATOM     14  C   UNL     1      -2.682 -26.574   0.569  1.00  0.00     0.051 A 
ATOM     15  C   UNL     1      -3.174 -25.479  -0.149  1.00  0.00     0.157 A 
ATOM     16  C   UNL     1      -1.027 -25.290  -1.276  1.00  0.00     0.062 A 
ATOM     17  C   UNL     1      -2.333 -24.823  -1.079  1.00  0.00     0.158 A 
BRANCH  15  18
ATOM     18  O   UNL     1      -4.490 -25.077   0.092  1.00  0.00    -0.504 OA
ATOM     19  H   UNL     1      -5.270 -25.714   0.167  1.00  0.00     0.293 HD
ENDBRANCH  15  18
BRANCH  17  20
ATOM     20  O   UNL     1      -2.746 -23.713  -1.817  1.00  0.00    -0.504 OA
ATOM     21  H   UNL     1      -3.708 -23.414  -1.898  1.00  0.00     0.293 HD
ENDBRANCH  17  20
ENDBRANCH   1  12
BRANCH   2  22
ATOM     22  O   UNL     1       0.921 -27.800   1.504  1.00  0.00    -0.502 OA
ATOM     23  H   UNL     1       1.005 -28.672   2.011  1.00  0.00     0.293 HD
ENDBRANCH   2  22
BRANCH   6  24
ATOM     24  O   UNL     1       5.517 -29.114  -0.847  1.00  0.00    -0.507 OA
ATOM     25  H   UNL     1       5.891 -29.994  -1.168  1.00  0.00     0.293 HD
ENDBRANCH   6  24
BRANCH   8  26
ATOM     26  O   UNL     1       5.112 -26.688  -4.951  1.00  0.00    -0.508 OA
ATOM     27  H   UNL     1       5.403 -25.734  -5.130  1.00  0.00     0.293 HD
ENDBRANCH   8  26
TORSDOF 6
ENDMDL
