MODEL 1
REMARK VINA RESULT:    -5.611      0.000      0.000
REMARK INTER + INTRA:          -6.103
REMARK INTER:                  -6.103
REMARK INTRA:                   0.000
REMARK UNBOUND:                 0.000
REMARK SMILES Cc1cc(O)c2c(c1)C(=O)c1cc(O)cc(O)c1C2=O
REMARK SMILES IDX 1 1 2 2 8 3 7 4 6 5 4 6 3 7 19 8 20 9 18 10 11 11 9 12 10 13
REMARK SMILES IDX 12 14 13 15 15 16 16 17 5 18 17 20 14 22
REMARK H PARENT 5 19 17 21 14 23
REMARK Flexibility Score: inf
ROOT
ATOM      1  C   UNL     1      18.988  -1.875 -29.763  1.00  0.00     0.044 C 
ATOM      2  C   UNL     1      18.234  -3.162 -29.930  1.00  0.00    -0.047 A 
ATOM      3  C   UNL     1      17.031  -3.366 -29.247  1.00  0.00     0.016 A 
ATOM      4  C   UNL     1      16.331  -4.577 -29.374  1.00  0.00     0.038 A 
ATOM      5  C   UNL     1      16.845  -5.603 -30.198  1.00  0.00     0.076 A 
ATOM      6  C   UNL     1      18.108  -5.422 -30.821  1.00  0.00     0.127 A 
ATOM      7  C   UNL     1      18.774  -4.200 -30.696  1.00  0.00     0.050 A 
ATOM      8  C   UNL     1      16.007  -6.808 -30.426  1.00  0.00     0.201 C 
ATOM      9  O   UNL     1      16.101  -7.442 -31.511  1.00  0.00    -0.288 OA
ATOM     10  C   UNL     1      14.934  -7.153 -29.459  1.00  0.00     0.076 A 
ATOM     11  C   UNL     1      14.423  -6.126 -28.633  1.00  0.00     0.041 A 
ATOM     12  C   UNL     1      15.060  -4.788 -28.641  1.00  0.00     0.194 C 
ATOM     13  O   UNL     1      14.534  -3.834 -28.003  1.00  0.00    -0.289 OA
ATOM     14  C   UNL     1      13.317  -6.379 -27.805  1.00  0.00     0.059 A 
ATOM     15  C   UNL     1      12.725  -7.643 -27.778  1.00  0.00     0.120 A 
ATOM     16  C   UNL     1      13.251  -8.672 -28.562  1.00  0.00     0.093 A 
ATOM     17  C   UNL     1      14.364  -8.451 -29.379  1.00  0.00     0.131 A 
ENDROOT
BRANCH   6  18
ATOM     18  O   UNL     1      18.748  -6.436 -31.537  1.00  0.00    -0.507 OA
ATOM     19  H   UNL     1      19.740  -6.448 -31.722  1.00  0.00     0.293 HD
ENDBRANCH   6  18
BRANCH  17  20
ATOM     20  O   UNL     1      14.890  -9.550 -30.063  1.00  0.00    -0.507 OA
ATOM     21  H   UNL     1      14.570  -9.847 -30.974  1.00  0.00     0.293 HD
ENDBRANCH  17  20
BRANCH  15  22
ATOM     22  O   UNL     1      11.621  -7.867 -26.959  1.00  0.00    -0.508 OA
ATOM     23  H   UNL     1      11.423  -7.272 -26.162  1.00  0.00     0.293 HD
ENDBRANCH  15  22
TORSDOF 3
ENDMDL
MODEL 2
REMARK VINA RESULT:    -5.185      5.933      8.086
REMARK INTER + INTRA:          -5.640
REMARK INTER:                  -5.640
REMARK INTRA:                   0.000
REMARK UNBOUND:                 0.000
REMARK SMILES Cc1cc(O)c2c(c1)C(=O)c1cc(O)cc(O)c1C2=O
REMARK SMILES IDX 1 1 2 2 8 3 7 4 6 5 4 6 3 7 19 8 20 9 18 10 11 11 9 12 10 13
REMARK SMILES IDX 12 14 13 15 15 16 16 17 5 18 17 20 14 22
REMARK H PARENT 5 19 17 21 14 23
REMARK Flexibility Score: inf
ROOT
ATOM      1  C   UNL     1      25.604  -3.783 -36.595  1.00  0.00     0.044 C 
ATOM      2  C   UNL     1      24.282  -4.493 -36.563  1.00  0.00    -0.047 A 
ATOM      3  C   UNL     1      23.287  -4.086 -35.667  1.00  0.00     0.016 A 
ATOM      4  C   UNL     1      22.057  -4.761 -35.609  1.00  0.00     0.038 A 
ATOM      5  C   UNL     1      21.817  -5.862 -36.462  1.00  0.00     0.076 A 
ATOM      6  C   UNL     1      22.861  -6.321 -37.308  1.00  0.00     0.127 A 
ATOM      7  C   UNL     1      24.069  -5.620 -37.362  1.00  0.00     0.050 A 
ATOM      8  C   UNL     1      20.456  -6.455 -36.479  1.00  0.00     0.201 C 
ATOM      9  O   UNL     1      20.018  -6.991 -37.532  1.00  0.00    -0.288 OA
ATOM     10  C   UNL     1      19.548  -6.251 -35.320  1.00  0.00     0.076 A 
ATOM     11  C   UNL     1      19.791  -5.151 -34.468  1.00  0.00     0.041 A 
ATOM     12  C   UNL     1      21.011  -4.329 -34.653  1.00  0.00     0.194 C 
ATOM     13  O   UNL     1      21.169  -3.274 -33.978  1.00  0.00    -0.289 OA
ATOM     14  C   UNL     1      18.878  -4.844 -33.444  1.00  0.00     0.059 A 
ATOM     15  C   UNL     1      17.739  -5.626 -33.252  1.00  0.00     0.120 A 
ATOM     16  C   UNL     1      17.515  -6.738 -34.066  1.00  0.00     0.093 A 
ATOM     17  C   UNL     1      18.419  -7.077 -35.079  1.00  0.00     0.131 A 
ENDROOT
BRANCH   6  18
ATOM     18  O   UNL     1      22.753  -7.482 -38.076  1.00  0.00    -0.507 OA
ATOM     19  H   UNL     1      23.386  -7.715 -38.828  1.00  0.00     0.293 HD
ENDBRANCH   6  18
BRANCH  17  20
ATOM     20  O   UNL     1      18.177  -8.254 -35.791  1.00  0.00    -0.507 OA
ATOM     21  H   UNL     1      18.813  -9.040 -35.805  1.00  0.00     0.293 HD
ENDBRANCH  17  20
BRANCH  15  22
ATOM     22  O   UNL     1      16.842  -5.295 -32.240  1.00  0.00    -0.508 OA
ATOM     23  H   UNL     1      16.996  -4.497 -31.634  1.00  0.00     0.293 HD
ENDBRANCH  15  22
TORSDOF 3
ENDMDL
MODEL 3
REMARK VINA RESULT:    -5.145      3.951      6.937
REMARK INTER + INTRA:          -5.596
REMARK INTER:                  -5.596
REMARK INTRA:                   0.000
REMARK UNBOUND:                 0.000
REMARK SMILES Cc1cc(O)c2c(c1)C(=O)c1cc(O)cc(O)c1C2=O
REMARK SMILES IDX 1 1 2 2 8 3 7 4 6 5 4 6 3 7 19 8 20 9 18 10 11 11 9 12 10 13
REMARK SMILES IDX 12 14 13 15 15 16 16 17 5 18 17 20 14 22
REMARK H PARENT 5 19 17 21 14 23
REMARK Flexibility Score: inf
ROOT
ATOM      1  C   UNL     1      10.875  -9.172 -36.625  1.00  0.00     0.044 C 
ATOM      2  C   UNL     1      11.545  -9.002 -35.293  1.00  0.00    -0.047 A 
ATOM      3  C   UNL     1      12.730  -8.266 -35.190  1.00  0.00     0.016 A 
ATOM      4  C   UNL     1      13.380  -8.123 -33.954  1.00  0.00     0.038 A 
ATOM      5  C   UNL     1      12.835  -8.727 -32.798  1.00  0.00     0.076 A 
ATOM      6  C   UNL     1      11.679  -9.542 -32.925  1.00  0.00     0.127 A 
ATOM      7  C   UNL     1      11.039  -9.651 -34.162  1.00  0.00     0.050 A 
ATOM      8  C   UNL     1      13.465  -8.432 -31.487  1.00  0.00     0.201 C 
ATOM      9  O   UNL     1      12.764  -8.434 -30.439  1.00  0.00    -0.288 OA
ATOM     10  C   UNL     1      14.870  -7.954 -31.435  1.00  0.00     0.076 A 
ATOM     11  C   UNL     1      15.414  -7.352 -32.592  1.00  0.00     0.041 A 
ATOM     12  C   UNL     1      14.639  -7.348 -33.855  1.00  0.00     0.194 C 
ATOM     13  O   UNL     1      15.064  -6.704 -34.854  1.00  0.00    -0.289 OA
ATOM     14  C   UNL     1      16.690  -6.765 -32.541  1.00  0.00     0.059 A 
ATOM     15  C   UNL     1      17.433  -6.783 -31.360  1.00  0.00     0.120 A 
ATOM     16  C   UNL     1      16.917  -7.412 -30.225  1.00  0.00     0.093 A 
ATOM     17  C   UNL     1      15.658  -8.021 -30.255  1.00  0.00     0.131 A 
ENDROOT
BRANCH   6  18
ATOM     18  O   UNL     1      11.160 -10.283 -31.861  1.00  0.00    -0.507 OA
ATOM     19  H   UNL     1      11.223  -9.994 -30.895  1.00  0.00     0.293 HD
ENDBRANCH   6  18
BRANCH  17  20
ATOM     20  O   UNL     1      15.248  -8.710 -29.111  1.00  0.00    -0.507 OA
ATOM     21  H   UNL     1      15.810  -9.412 -28.649  1.00  0.00     0.293 HD
ENDBRANCH  17  20
BRANCH  15  22
ATOM     22  O   UNL     1      18.689  -6.183 -31.330  1.00  0.00    -0.508 OA
ATOM     23  H   UNL     1      19.374  -6.349 -32.059  1.00  0.00     0.293 HD
ENDBRANCH  15  22
TORSDOF 3
ENDMDL
MODEL 4
REMARK VINA RESULT:    -5.141      1.185      3.345
REMARK INTER + INTRA:          -5.591
REMARK INTER:                  -5.591
REMARK INTRA:                   0.000
REMARK UNBOUND:                 0.000
REMARK SMILES Cc1cc(O)c2c(c1)C(=O)c1cc(O)cc(O)c1C2=O
REMARK SMILES IDX 1 1 2 2 8 3 7 4 6 5 4 6 3 7 19 8 20 9 18 10 11 11 9 12 10 13
REMARK SMILES IDX 12 14 13 15 15 16 16 17 5 18 17 20 14 22
REMARK H PARENT 5 19 17 21 14 23
REMARK Flexibility Score: inf
ROOT
ATOM      1  C   UNL     1      20.040  -2.208 -30.566  1.00  0.00     0.044 C 
ATOM      2  C   UNL     1      18.806  -2.855 -30.010  1.00  0.00    -0.047 A 
ATOM      3  C   UNL     1      18.477  -4.167 -30.367  1.00  0.00     0.016 A 
ATOM      4  C   UNL     1      17.309  -4.772 -29.875  1.00  0.00     0.038 A 
ATOM      5  C   UNL     1      16.455  -4.052 -29.010  1.00  0.00     0.076 A 
ATOM      6  C   UNL     1      16.750  -2.694 -28.719  1.00  0.00     0.127 A 
ATOM      7  C   UNL     1      17.929  -2.121 -29.205  1.00  0.00     0.050 A 
ATOM      8  C   UNL     1      15.312  -4.771 -28.392  1.00  0.00     0.201 C 
ATOM      9  O   UNL     1      14.891  -4.422 -27.257  1.00  0.00    -0.288 OA
ATOM     10  C   UNL     1      14.792  -6.011 -29.025  1.00  0.00     0.076 A 
ATOM     11  C   UNL     1      15.648  -6.728 -29.891  1.00  0.00     0.041 A 
ATOM     12  C   UNL     1      16.965  -6.160 -30.264  1.00  0.00     0.194 C 
ATOM     13  O   UNL     1      17.783  -6.850 -30.934  1.00  0.00    -0.289 OA
ATOM     14  C   UNL     1      15.244  -7.974 -30.400  1.00  0.00     0.059 A 
ATOM     15  C   UNL     1      13.996  -8.505 -30.069  1.00  0.00     0.120 A 
ATOM     16  C   UNL     1      13.131  -7.782 -29.245  1.00  0.00     0.093 A 
ATOM     17  C   UNL     1      13.501  -6.530 -28.742  1.00  0.00     0.131 A 
ENDROOT
BRANCH   6  18
ATOM     18  O   UNL     1      15.887  -1.875 -27.988  1.00  0.00    -0.507 OA
ATOM     19  H   UNL     1      16.081  -0.907 -27.777  1.00  0.00     0.293 HD
ENDBRANCH   6  18
BRANCH  17  20
ATOM     20  O   UNL     1      12.548  -5.826 -28.002  1.00  0.00    -0.507 OA
ATOM     21  H   UNL     1      11.596  -6.139 -27.875  1.00  0.00     0.293 HD
ENDBRANCH  17  20
BRANCH  15  22
ATOM     22  O   UNL     1      13.623  -9.748 -30.574  1.00  0.00    -0.508 OA
ATOM     23  H   UNL     1      13.480 -10.546 -29.967  1.00  0.00     0.293 HD
ENDBRANCH  15  22
TORSDOF 3
ENDMDL
MODEL 5
REMARK VINA RESULT:    -5.071      2.384      4.273
REMARK INTER + INTRA:          -5.516
REMARK INTER:                  -5.516
REMARK INTRA:                   0.000
REMARK UNBOUND:                 0.000
REMARK SMILES Cc1cc(O)c2c(c1)C(=O)c1cc(O)cc(O)c1C2=O
REMARK SMILES IDX 1 1 2 2 8 3 7 4 6 5 4 6 3 7 19 8 20 9 18 10 11 11 9 12 10 13
REMARK SMILES IDX 12 14 13 15 15 16 16 17 5 18 17 20 14 22
REMARK H PARENT 5 19 17 21 14 23
REMARK Flexibility Score: inf
ROOT
ATOM      1  C   UNL     1      18.162  -7.469 -35.903  1.00  0.00     0.044 C 
ATOM      2  C   UNL     1      18.023  -6.806 -34.564  1.00  0.00    -0.047 A 
ATOM      3  C   UNL     1      16.992  -7.181 -33.696  1.00  0.00     0.016 A 
ATOM      4  C   UNL     1      16.836  -6.547 -32.453  1.00  0.00     0.038 A 
ATOM      5  C   UNL     1      17.727  -5.520 -32.070  1.00  0.00     0.076 A 
ATOM      6  C   UNL     1      18.718  -5.087 -32.989  1.00  0.00     0.127 A 
ATOM      7  C   UNL     1      18.866  -5.747 -34.212  1.00  0.00     0.050 A 
ATOM      8  C   UNL     1      17.624  -4.978 -30.691  1.00  0.00     0.201 C 
ATOM      9  O   UNL     1      18.652  -4.535 -30.113  1.00  0.00    -0.288 OA
ATOM     10  C   UNL     1      16.356  -5.129 -29.932  1.00  0.00     0.076 A 
ATOM     11  C   UNL     1      15.465  -6.156 -30.318  1.00  0.00     0.041 A 
ATOM     12  C   UNL     1      15.736  -6.946 -31.543  1.00  0.00     0.194 C 
ATOM     13  O   UNL     1      15.015  -7.943 -31.823  1.00  0.00    -0.289 OA
ATOM     14  C   UNL     1      14.324  -6.420 -29.542  1.00  0.00     0.059 A 
ATOM     15  C   UNL     1      14.053  -5.666 -28.400  1.00  0.00     0.120 A 
ATOM     16  C   UNL     1      14.908  -4.624 -28.036  1.00  0.00     0.093 A 
ATOM     17  C   UNL     1      16.040  -4.328 -28.803  1.00  0.00     0.131 A 
ENDROOT
BRANCH   6  18
ATOM     18  O   UNL     1      19.546  -3.989 -32.743  1.00  0.00    -0.507 OA
ATOM     19  H   UNL     1      19.222  -3.032 -32.753  1.00  0.00     0.293 HD
ENDBRANCH   6  18
BRANCH  17  20
ATOM     20  O   UNL     1      16.798  -3.215 -28.430  1.00  0.00    -0.507 OA
ATOM     21  H   UNL     1      16.404  -2.297 -28.277  1.00  0.00     0.293 HD
ENDBRANCH  17  20
BRANCH  15  22
ATOM     22  O   UNL     1      12.922  -5.955 -27.639  1.00  0.00    -0.508 OA
ATOM     23  H   UNL     1      12.817  -6.842 -27.161  1.00  0.00     0.293 HD
ENDBRANCH  15  22
TORSDOF 3
ENDMDL
MODEL 6
REMARK VINA RESULT:    -5.046      3.265      6.319
REMARK INTER + INTRA:          -5.488
REMARK INTER:                  -5.488
REMARK INTRA:                   0.000
REMARK UNBOUND:                 0.000
REMARK SMILES Cc1cc(O)c2c(c1)C(=O)c1cc(O)cc(O)c1C2=O
REMARK SMILES IDX 1 1 2 2 8 3 7 4 6 5 4 6 3 7 19 8 20 9 18 10 11 11 9 12 10 13
REMARK SMILES IDX 12 14 13 15 15 16 16 17 5 18 17 20 14 22
REMARK H PARENT 5 19 17 21 14 23
REMARK Flexibility Score: inf
ROOT
ATOM      1  C   UNL     1      12.503  -6.560 -28.365  1.00  0.00     0.044 C 
ATOM      2  C   UNL     1      13.149  -6.677 -29.715  1.00  0.00    -0.047 A 
ATOM      3  C   UNL     1      14.524  -6.916 -29.818  1.00  0.00     0.016 A 
ATOM      4  C   UNL     1      15.143  -6.999 -31.075  1.00  0.00     0.038 A 
ATOM      5  C   UNL     1      14.375  -6.841 -32.251  1.00  0.00     0.076 A 
ATOM      6  C   UNL     1      12.998  -6.516 -32.137  1.00  0.00     0.127 A 
ATOM      7  C   UNL     1      12.400  -6.459 -30.875  1.00  0.00     0.050 A 
ATOM      8  C   UNL     1      15.034  -7.083 -33.559  1.00  0.00     0.201 C 
ATOM      9  O   UNL     1      14.358  -7.516 -34.531  1.00  0.00    -0.288 OA
ATOM     10  C   UNL     1      16.513  -6.996 -33.668  1.00  0.00     0.076 A 
ATOM     11  C   UNL     1      17.279  -7.152 -32.491  1.00  0.00     0.041 A 
ATOM     12  C   UNL     1      16.602  -7.245 -31.176  1.00  0.00     0.194 C 
ATOM     13  O   UNL     1      17.271  -7.510 -30.139  1.00  0.00    -0.289 OA
ATOM     14  C   UNL     1      18.681  -7.212 -32.572  1.00  0.00     0.059 A 
ATOM     15  C   UNL     1      19.325  -7.104 -33.805  1.00  0.00     0.120 A 
ATOM     16  C   UNL     1      18.574  -6.909 -34.966  1.00  0.00     0.093 A 
ATOM     17  C   UNL     1      17.180  -6.826 -34.910  1.00  0.00     0.131 A 
ENDROOT
BRANCH   6  18
ATOM     18  O   UNL     1      12.202  -6.208 -33.243  1.00  0.00    -0.507 OA
ATOM     19  H   UNL     1      11.363  -5.649 -33.189  1.00  0.00     0.293 HD
ENDBRANCH   6  18
BRANCH  17  20
ATOM     20  O   UNL     1      16.503  -6.538 -36.098  1.00  0.00    -0.507 OA
ATOM     21  H   UNL     1      15.499  -6.601 -36.199  1.00  0.00     0.293 HD
ENDBRANCH  17  20
BRANCH  15  22
ATOM     22  O   UNL     1      20.715  -7.180 -33.862  1.00  0.00    -0.508 OA
ATOM     23  H   UNL     1      21.203  -8.061 -33.747  1.00  0.00     0.293 HD
ENDBRANCH  15  22
TORSDOF 3
ENDMDL
MODEL 7
REMARK VINA RESULT:    -4.990      3.029      3.960
REMARK INTER + INTRA:          -5.427
REMARK INTER:                  -5.427
REMARK INTRA:                   0.000
REMARK UNBOUND:                 0.000
REMARK SMILES Cc1cc(O)c2c(c1)C(=O)c1cc(O)cc(O)c1C2=O
REMARK SMILES IDX 1 1 2 2 8 3 7 4 6 5 4 6 3 7 19 8 20 9 18 10 11 11 9 12 10 13
REMARK SMILES IDX 12 14 13 15 15 16 16 17 5 18 17 20 14 22
REMARK H PARENT 5 19 17 21 14 23
REMARK Flexibility Score: inf
ROOT
ATOM      1  C   UNL     1      19.837  -5.204 -34.580  1.00  0.00     0.044 C 
ATOM      2  C   UNL     1      18.507  -5.798 -34.217  1.00  0.00    -0.047 A 
ATOM      3  C   UNL     1      18.243  -6.178 -32.897  1.00  0.00     0.016 A 
ATOM      4  C   UNL     1      17.012  -6.760 -32.552  1.00  0.00     0.038 A 
ATOM      5  C   UNL     1      16.029  -6.968 -33.546  1.00  0.00     0.076 A 
ATOM      6  C   UNL     1      16.335  -6.658 -34.897  1.00  0.00     0.127 A 
ATOM      7  C   UNL     1      17.559  -6.061 -35.211  1.00  0.00     0.050 A 
ATOM      8  C   UNL     1      14.689  -7.446 -33.119  1.00  0.00     0.201 C 
ATOM      9  O   UNL     1      13.667  -7.118 -33.779  1.00  0.00    -0.288 OA
ATOM     10  C   UNL     1      14.536  -8.149 -31.819  1.00  0.00     0.076 A 
ATOM     11  C   UNL     1      15.522  -7.942 -30.828  1.00  0.00     0.041 A 
ATOM     12  C   UNL     1      16.743  -7.166 -31.152  1.00  0.00     0.194 C 
ATOM     13  O   UNL     1      17.564  -6.872 -30.240  1.00  0.00    -0.289 OA
ATOM     14  C   UNL     1      15.344  -8.477 -29.541  1.00  0.00     0.059 A 
ATOM     15  C   UNL     1      14.206  -9.226 -29.236  1.00  0.00     0.120 A 
ATOM     16  C   UNL     1      13.249  -9.467 -30.223  1.00  0.00     0.093 A 
ATOM     17  C   UNL     1      13.413  -8.962 -31.517  1.00  0.00     0.131 A 
ENDROOT
BRANCH   6  18
ATOM     18  O   UNL     1      15.474  -6.961 -35.953  1.00  0.00    -0.507 OA
ATOM     19  H   UNL     1      15.768  -7.433 -36.796  1.00  0.00     0.293 HD
ENDBRANCH   6  18
BRANCH  17  20
ATOM     20  O   UNL     1      12.461  -9.322 -32.475  1.00  0.00    -0.507 OA
ATOM     21  H   UNL     1      11.609  -9.820 -32.257  1.00  0.00     0.293 HD
ENDBRANCH  17  20
BRANCH  15  22
ATOM     22  O   UNL     1      14.045  -9.735 -27.950  1.00  0.00    -0.508 OA
ATOM     23  H   UNL     1      13.394 -10.488 -27.756  1.00  0.00     0.293 HD
ENDBRANCH  15  22
TORSDOF 3
ENDMDL
MODEL 8
REMARK VINA RESULT:    -4.974      2.082      4.903
REMARK INTER + INTRA:          -5.410
REMARK INTER:                  -5.410
REMARK INTRA:                   0.000
REMARK UNBOUND:                 0.000
REMARK SMILES Cc1cc(O)c2c(c1)C(=O)c1cc(O)cc(O)c1C2=O
REMARK SMILES IDX 1 1 2 2 8 3 7 4 6 5 4 6 3 7 19 8 20 9 18 10 11 11 9 12 10 13
REMARK SMILES IDX 12 14 13 15 15 16 16 17 5 18 17 20 14 22
REMARK H PARENT 5 19 17 21 14 23
REMARK Flexibility Score: inf
ROOT
ATOM      1  C   UNL     1      13.303  -8.875 -32.362  1.00  0.00     0.044 C 
ATOM      2  C   UNL     1      14.252  -7.890 -31.746  1.00  0.00    -0.047 A 
ATOM      3  C   UNL     1      13.924  -7.257 -30.541  1.00  0.00     0.016 A 
ATOM      4  C   UNL     1      14.792  -6.313 -29.970  1.00  0.00     0.038 A 
ATOM      5  C   UNL     1      16.009  -5.994 -30.614  1.00  0.00     0.076 A 
ATOM      6  C   UNL     1      16.295  -6.577 -31.876  1.00  0.00     0.127 A 
ATOM      7  C   UNL     1      15.426  -7.529 -32.414  1.00  0.00     0.050 A 
ATOM      8  C   UNL     1      16.966  -5.106 -29.907  1.00  0.00     0.201 C 
ATOM      9  O   UNL     1      18.204  -5.234 -30.106  1.00  0.00    -0.288 OA
ATOM     10  C   UNL     1      16.479  -4.200 -28.835  1.00  0.00     0.076 A 
ATOM     11  C   UNL     1      15.261  -4.519 -28.194  1.00  0.00     0.041 A 
ATOM     12  C   UNL     1      14.434  -5.642 -28.697  1.00  0.00     0.194 C 
ATOM     13  O   UNL     1      13.412  -6.010 -28.055  1.00  0.00    -0.289 OA
ATOM     14  C   UNL     1      14.836  -3.767 -27.086  1.00  0.00     0.059 A 
ATOM     15  C   UNL     1      15.600  -2.696 -26.620  1.00  0.00     0.120 A 
ATOM     16  C   UNL     1      16.784  -2.352 -27.275  1.00  0.00     0.093 A 
ATOM     17  C   UNL     1      17.219  -3.072 -28.392  1.00  0.00     0.131 A 
ENDROOT
BRANCH   6  18
ATOM     18  O   UNL     1      17.406  -6.211 -32.640  1.00  0.00    -0.507 OA
ATOM     19  H   UNL     1      17.343  -5.694 -33.505  1.00  0.00     0.293 HD
ENDBRANCH   6  18
BRANCH  17  20
ATOM     20  O   UNL     1      18.363  -2.613 -29.050  1.00  0.00    -0.507 OA
ATOM     21  H   UNL     1      18.975  -1.901 -28.676  1.00  0.00     0.293 HD
ENDBRANCH  17  20
BRANCH  15  22
ATOM     22  O   UNL     1      15.165  -1.974 -25.512  1.00  0.00    -0.508 OA
ATOM     23  H   UNL     1      14.504  -1.211 -25.602  1.00  0.00     0.293 HD
ENDBRANCH  15  22
TORSDOF 3
ENDMDL
MODEL 9
REMARK VINA RESULT:    -4.759      2.559      5.082
REMARK INTER + INTRA:          -5.176
REMARK INTER:                  -5.176
REMARK INTRA:                   0.000
REMARK UNBOUND:                 0.000
REMARK SMILES Cc1cc(O)c2c(c1)C(=O)c1cc(O)cc(O)c1C2=O
REMARK SMILES IDX 1 1 2 2 8 3 7 4 6 5 4 6 3 7 19 8 20 9 18 10 11 11 9 12 10 13
REMARK SMILES IDX 12 14 13 15 15 16 16 17 5 18 17 20 14 22
REMARK H PARENT 5 19 17 21 14 23
REMARK Flexibility Score: inf
ROOT
ATOM      1  C   UNL     1      12.214  -1.875 -25.700  1.00  0.00     0.044 C 
ATOM      2  C   UNL     1      13.409  -2.326 -26.488  1.00  0.00    -0.047 A 
ATOM      3  C   UNL     1      13.240  -3.108 -27.635  1.00  0.00     0.016 A 
ATOM      4  C   UNL     1      14.353  -3.559 -28.364  1.00  0.00     0.038 A 
ATOM      5  C   UNL     1      15.657  -3.222 -27.937  1.00  0.00     0.076 A 
ATOM      6  C   UNL     1      15.823  -2.500 -26.727  1.00  0.00     0.127 A 
ATOM      7  C   UNL     1      14.700  -2.045 -26.030  1.00  0.00     0.050 A 
ATOM      8  C   UNL     1      16.799  -3.589 -28.813  1.00  0.00     0.201 C 
ATOM      9  O   UNL     1      17.839  -2.876 -28.819  1.00  0.00    -0.288 OA
ATOM     10  C   UNL     1      16.645  -4.679 -29.810  1.00  0.00     0.076 A 
ATOM     11  C   UNL     1      15.339  -5.016 -30.233  1.00  0.00     0.041 A 
ATOM     12  C   UNL     1      14.166  -4.394 -29.575  1.00  0.00     0.194 C 
ATOM     13  O   UNL     1      13.006  -4.595 -30.030  1.00  0.00    -0.289 OA
ATOM     14  C   UNL     1      15.159  -5.944 -31.273  1.00  0.00     0.059 A 
ATOM     15  C   UNL     1      16.258  -6.548 -31.883  1.00  0.00     0.120 A 
ATOM     16  C   UNL     1      17.549  -6.249 -31.441  1.00  0.00     0.093 A 
ATOM     17  C   UNL     1      17.754  -5.344 -30.395  1.00  0.00     0.131 A 
ENDROOT
BRANCH   6  18
ATOM     18  O   UNL     1      17.077  -2.247 -26.166  1.00  0.00    -0.507 OA
ATOM     19  H   UNL     1      17.209  -1.909 -25.223  1.00  0.00     0.293 HD
ENDBRANCH   6  18
BRANCH  17  20
ATOM     20  O   UNL     1      19.065  -5.165 -29.946  1.00  0.00    -0.507 OA
ATOM     21  H   UNL     1      19.862  -5.644 -30.341  1.00  0.00     0.293 HD
ENDBRANCH  17  20
BRANCH  15  22
ATOM     22  O   UNL     1      16.056  -7.455 -32.920  1.00  0.00    -0.508 OA
ATOM     23  H   UNL     1      15.125  -7.684 -33.250  1.00  0.00     0.293 HD
ENDBRANCH  15  22
TORSDOF 3
ENDMDL
