MODEL 1
REMARK VINA RESULT:    -2.566      0.000      0.000
REMARK INTER + INTRA:          -3.240
REMARK INTER:                  -3.016
REMARK INTRA:                  -0.223
REMARK UNBOUND:                -0.223
REMARK SMILES [NH3+][C@H](CO)C(=O)[O-]
REMARK SMILES IDX 3 1 2 2 1 3 5 7 6 8 7 9 4 10
REMARK H PARENT 1 4 1 5 1 6 4 11
REMARK Flexibility Score: inf
ROOT
ATOM      1  C   UNL     1      14.390  -4.193  16.252  1.00  0.00     0.227 C 
ENDROOT
BRANCH   1   2
ATOM      2  C   UNL     1      14.839  -5.026  15.036  1.00  0.00     0.253 C 
BRANCH   2   3
ATOM      3  N   UNL     1      14.732  -6.466  15.302  1.00  0.00    -0.348 N 
ATOM      4  H   UNL     1      13.783  -6.683  15.685  1.00  0.00     0.345 HD
ATOM      5  H   UNL     1      14.857  -7.001  14.412  1.00  0.00     0.345 HD
ATOM      6  H   UNL     1      15.455  -6.777  15.992  1.00  0.00     0.345 HD
ENDBRANCH   2   3
BRANCH   2   7
ATOM      7  C   UNL     1      14.059  -4.644  13.805  1.00  0.00     0.102 C 
ATOM      8  O   UNL     1      12.839  -4.341  13.887  1.00  0.00    -0.544 OA
ATOM      9  O   UNL     1      14.696  -4.587  12.572  1.00  0.00    -0.544 OA
ENDBRANCH   2   7
ENDBRANCH   1   2
BRANCH   1  10
ATOM     10  O   UNL     1      13.223  -4.720  16.830  1.00  0.00    -0.390 OA
ATOM     11  H   UNL     1      12.844  -5.365  16.178  1.00  0.00     0.210 HD
ENDBRANCH   1  10
TORSDOF 4
ENDMDL
MODEL 2
REMARK VINA RESULT:    -2.563      9.739     10.019
REMARK INTER + INTRA:          -3.236
REMARK INTER:                  -3.013
REMARK INTRA:                  -0.223
REMARK UNBOUND:                -0.223
REMARK SMILES [NH3+][C@H](CO)C(=O)[O-]
REMARK SMILES IDX 3 1 2 2 1 3 5 7 6 8 7 9 4 10
REMARK H PARENT 1 4 1 5 1 6 4 11
REMARK Flexibility Score: inf
ROOT
ATOM      1  C   UNL     1      15.821  -3.942  24.307  1.00  0.00     0.227 C 
ENDROOT
BRANCH   1   2
ATOM      2  C   UNL     1      14.588  -4.412  25.102  1.00  0.00     0.253 C 
BRANCH   2   3
ATOM      3  N   UNL     1      14.577  -3.852  26.459  1.00  0.00    -0.348 N 
ATOM      4  H   UNL     1      15.161  -4.448  27.090  1.00  0.00     0.345 HD
ATOM      5  H   UNL     1      14.985  -2.889  26.448  1.00  0.00     0.345 HD
ATOM      6  H   UNL     1      13.604  -3.806  26.841  1.00  0.00     0.345 HD
ENDBRANCH   2   3
BRANCH   2   7
ATOM      7  C   UNL     1      13.316  -4.076  24.367  1.00  0.00     0.102 C 
ATOM      8  O   UNL     1      12.916  -2.884  24.288  1.00  0.00    -0.544 OA
ATOM      9  O   UNL     1      12.593  -5.083  23.739  1.00  0.00    -0.544 OA
ENDBRANCH   2   7
ENDBRANCH   1   2
BRANCH   1  10
ATOM     10  O   UNL     1      15.472  -2.983  23.341  1.00  0.00    -0.390 OA
ATOM     11  H   UNL     1      14.520  -3.139  23.111  1.00  0.00     0.210 HD
ENDBRANCH   1  10
TORSDOF 4
ENDMDL
MODEL 3
REMARK VINA RESULT:    -2.562     10.608     11.260
REMARK INTER + INTRA:          -3.235
REMARK INTER:                  -3.009
REMARK INTRA:                  -0.227
REMARK UNBOUND:                -0.223
REMARK SMILES [NH3+][C@H](CO)C(=O)[O-]
REMARK SMILES IDX 3 1 2 2 1 3 5 7 6 8 7 9 4 10
REMARK H PARENT 1 4 1 5 1 6 4 11
REMARK Flexibility Score: inf
ROOT
ATOM      1  C   UNL     1       9.264 -11.473  21.989  1.00  0.00     0.227 C 
ENDROOT
BRANCH   1   2
ATOM      2  C   UNL     1      10.404 -10.671  22.645  1.00  0.00     0.253 C 
BRANCH   2   3
ATOM      3  N   UNL     1      10.855  -9.573  21.782  1.00  0.00    -0.348 N 
ATOM      4  H   UNL     1      11.774  -9.822  21.348  1.00  0.00     0.345 HD
ATOM      5  H   UNL     1      10.162  -9.418  21.013  1.00  0.00     0.345 HD
ATOM      6  H   UNL     1      10.966  -8.687  22.326  1.00  0.00     0.345 HD
ENDBRANCH   2   3
BRANCH   2   7
ATOM      7  C   UNL     1       9.990 -10.160  24.000  1.00  0.00     0.102 C 
ATOM      8  O   UNL     1      10.593  -9.189  24.531  1.00  0.00    -0.544 OA
ATOM      9  O   UNL     1       8.910 -10.736  24.657  1.00  0.00    -0.544 OA
ENDBRANCH   2   7
ENDBRANCH   1   2
BRANCH   1  10
ATOM     10  O   UNL     1       8.069 -10.736  21.962  1.00  0.00    -0.390 OA
ATOM     11  H   UNL     1       8.323  -9.776  21.948  1.00  0.00     0.210 HD
ENDBRANCH   1  10
TORSDOF 4
ENDMDL
MODEL 4
REMARK VINA RESULT:    -2.562      9.456     10.239
REMARK INTER + INTRA:          -3.234
REMARK INTER:                  -3.008
REMARK INTRA:                  -0.226
REMARK UNBOUND:                -0.223
REMARK SMILES [NH3+][C@H](CO)C(=O)[O-]
REMARK SMILES IDX 3 1 2 2 1 3 5 7 6 8 7 9 4 10
REMARK H PARENT 1 4 1 5 1 6 4 11
REMARK Flexibility Score: inf
ROOT
ATOM      1  C   UNL     1      13.736  -5.383  24.368  1.00  0.00     0.227 C 
ENDROOT
BRANCH   1   2
ATOM      2  C   UNL     1      14.436  -4.133  24.934  1.00  0.00     0.253 C 
BRANCH   2   3
ATOM      3  N   UNL     1      15.501  -3.663  24.040  1.00  0.00    -0.348 N 
ATOM      4  H   UNL     1      16.406  -3.619  24.564  1.00  0.00     0.345 HD
ATOM      5  H   UNL     1      15.617  -4.331  23.244  1.00  0.00     0.345 HD
ATOM      6  H   UNL     1      15.283  -2.712  23.660  1.00  0.00     0.345 HD
ENDBRANCH   2   3
BRANCH   2   7
ATOM      7  C   UNL     1      13.439  -3.038  25.211  1.00  0.00     0.102 C 
ATOM      8  O   UNL     1      13.153  -2.715  26.395  1.00  0.00    -0.544 OA
ATOM      9  O   UNL     1      12.854  -2.351  24.155  1.00  0.00    -0.544 OA
ENDBRANCH   2   7
ENDBRANCH   1   2
BRANCH   1  10
ATOM     10  O   UNL     1      12.554  -5.044  23.690  1.00  0.00    -0.390 OA
ATOM     11  H   UNL     1      12.072  -5.893  23.508  1.00  0.00     0.210 HD
ENDBRANCH   1  10
TORSDOF 4
ENDMDL
MODEL 5
REMARK VINA RESULT:    -2.500     10.109     10.901
REMARK INTER + INTRA:          -3.162
REMARK INTER:                  -2.774
REMARK INTRA:                  -0.388
REMARK UNBOUND:                -0.223
REMARK SMILES [NH3+][C@H](CO)C(=O)[O-]
REMARK SMILES IDX 3 1 2 2 1 3 5 7 6 8 7 9 4 10
REMARK H PARENT 1 4 1 5 1 6 4 11
REMARK Flexibility Score: inf
ROOT
ATOM      1  C   UNL     1       9.747 -10.648  23.702  1.00  0.00     0.227 C 
ENDROOT
BRANCH   1   2
ATOM      2  C   UNL     1      11.070 -10.054  23.183  1.00  0.00     0.253 C 
BRANCH   2   3
ATOM      3  N   UNL     1      10.931  -9.552  21.810  1.00  0.00    -0.348 N 
ATOM      4  H   UNL     1      11.062 -10.339  21.133  1.00  0.00     0.345 HD
ATOM      5  H   UNL     1       9.973  -9.157  21.671  1.00  0.00     0.345 HD
ATOM      6  H   UNL     1      11.640  -8.810  21.607  1.00  0.00     0.345 HD
ENDBRANCH   2   3
BRANCH   2   7
ATOM      7  C   UNL     1      11.573  -8.976  24.106  1.00  0.00     0.102 C 
ATOM      8  O   UNL     1      11.339  -7.762  23.862  1.00  0.00    -0.544 OA
ATOM      9  O   UNL     1      12.270  -9.320  25.257  1.00  0.00    -0.544 OA
ENDBRANCH   2   7
ENDBRANCH   1   2
BRANCH   1  10
ATOM     10  O   UNL     1       9.292  -9.966  24.842  1.00  0.00    -0.390 OA
ATOM     11  H   UNL     1       8.389 -10.321  25.050  1.00  0.00     0.210 HD
ENDBRANCH   1  10
TORSDOF 4
ENDMDL
MODEL 6
REMARK VINA RESULT:    -2.476      9.205      9.570
REMARK INTER + INTRA:          -3.133
REMARK INTER:                  -2.882
REMARK INTRA:                  -0.252
REMARK UNBOUND:                -0.223
REMARK SMILES [NH3+][C@H](CO)C(=O)[O-]
REMARK SMILES IDX 3 1 2 2 1 3 5 7 6 8 7 9 4 10
REMARK H PARENT 1 4 1 5 1 6 4 11
REMARK Flexibility Score: inf
ROOT
ATOM      1  C   UNL     1      11.501  -8.087  23.799  1.00  0.00     0.227 C 
ENDROOT
BRANCH   1   2
ATOM      2  C   UNL     1      11.743  -9.432  23.087  1.00  0.00     0.253 C 
BRANCH   2   3
ATOM      3  N   UNL     1      10.989  -9.519  21.831  1.00  0.00    -0.348 N 
ATOM      4  H   UNL     1      11.652  -9.634  21.030  1.00  0.00     0.345 HD
ATOM      5  H   UNL     1      10.356 -10.351  21.854  1.00  0.00     0.345 HD
ATOM      6  H   UNL     1      10.416  -8.657  21.674  1.00  0.00     0.345 HD
ENDBRANCH   2   3
BRANCH   2   7
ATOM      7  C   UNL     1      13.214  -9.657  22.852  1.00  0.00     0.102 C 
ATOM      8  O   UNL     1      13.624 -10.132  21.759  1.00  0.00    -0.544 OA
ATOM      9  O   UNL     1      14.133  -9.306  23.832  1.00  0.00    -0.544 OA
ENDBRANCH   2   7
ENDBRANCH   1   2
BRANCH   1  10
ATOM     10  O   UNL     1      12.301  -7.069  23.256  1.00  0.00    -0.390 OA
ATOM     11  H   UNL     1      11.945  -6.208  23.598  1.00  0.00     0.210 HD
ENDBRANCH   1  10
TORSDOF 4
ENDMDL
MODEL 7
REMARK VINA RESULT:    -2.475     10.328     11.078
REMARK INTER + INTRA:          -3.132
REMARK INTER:                  -2.905
REMARK INTRA:                  -0.227
REMARK UNBOUND:                -0.223
REMARK SMILES [NH3+][C@H](CO)C(=O)[O-]
REMARK SMILES IDX 3 1 2 2 1 3 5 7 6 8 7 9 4 10
REMARK H PARENT 1 4 1 5 1 6 4 11
REMARK Flexibility Score: inf
ROOT
ATOM      1  C   UNL     1       9.740 -11.656  21.785  1.00  0.00     0.227 C 
ENDROOT
BRANCH   1   2
ATOM      2  C   UNL     1      10.620 -10.652  22.553  1.00  0.00     0.253 C 
BRANCH   2   3
ATOM      3  N   UNL     1      10.934  -9.476  21.733  1.00  0.00    -0.348 N 
ATOM      4  H   UNL     1      11.541  -9.759  20.929  1.00  0.00     0.345 HD
ATOM      5  H   UNL     1      10.052  -9.065  21.348  1.00  0.00     0.345 HD
ATOM      6  H   UNL     1      11.434  -8.747  22.294  1.00  0.00     0.345 HD
ENDBRANCH   2   3
BRANCH   2   7
ATOM      7  C   UNL     1       9.969 -10.250  23.850  1.00  0.00     0.102 C 
ATOM      8  O   UNL     1       8.906 -10.807  24.234  1.00  0.00    -0.544 OA
ATOM      9  O   UNL     1      10.563  -9.284  24.652  1.00  0.00    -0.544 OA
ENDBRANCH   2   7
ENDBRANCH   1   2
BRANCH   1  10
ATOM     10  O   UNL     1       8.566 -11.049  21.311  1.00  0.00    -0.390 OA
ATOM     11  H   UNL     1       8.751 -10.076  21.242  1.00  0.00     0.210 HD
ENDBRANCH   1  10
TORSDOF 4
ENDMDL
MODEL 8
REMARK VINA RESULT:    -2.462      8.920      9.940
REMARK INTER + INTRA:          -3.117
REMARK INTER:                  -2.731
REMARK INTRA:                  -0.386
REMARK UNBOUND:                -0.223
REMARK SMILES [NH3+][C@H](CO)C(=O)[O-]
REMARK SMILES IDX 3 1 2 2 1 3 5 7 6 8 7 9 4 10
REMARK H PARENT 1 4 1 5 1 6 4 11
REMARK Flexibility Score: inf
ROOT
ATOM      1  C   UNL     1       6.885  -3.709  19.370  1.00  0.00     0.227 C 
ENDROOT
BRANCH   1   2
ATOM      2  C   UNL     1       5.881  -2.889  20.202  1.00  0.00     0.253 C 
BRANCH   2   3
ATOM      3  N   UNL     1       5.644  -3.503  21.515  1.00  0.00    -0.348 N 
ATOM      4  H   UNL     1       5.647  -2.762  22.254  1.00  0.00     0.345 HD
ATOM      5  H   UNL     1       4.708  -3.969  21.524  1.00  0.00     0.345 HD
ATOM      6  H   UNL     1       6.381  -4.210  21.740  1.00  0.00     0.345 HD
ENDBRANCH   2   3
BRANCH   2   7
ATOM      7  C   UNL     1       6.343  -1.463  20.347  1.00  0.00     0.102 C 
ATOM      8  O   UNL     1       6.947  -1.086  21.387  1.00  0.00    -0.544 OA
ATOM      9  O   UNL     1       6.135  -0.560  19.312  1.00  0.00    -0.544 OA
ENDBRANCH   2   7
ENDBRANCH   1   2
BRANCH   1  10
ATOM     10  O   UNL     1       8.052  -2.974  19.106  1.00  0.00    -0.390 OA
ATOM     11  H   UNL     1       7.971  -2.117  19.599  1.00  0.00     0.210 HD
ENDBRANCH   1  10
TORSDOF 4
ENDMDL
MODEL 9
REMARK VINA RESULT:    -2.418      9.117      9.561
REMARK INTER + INTRA:          -3.066
REMARK INTER:                  -2.834
REMARK INTRA:                  -0.232
REMARK UNBOUND:                -0.223
REMARK SMILES [NH3+][C@H](CO)C(=O)[O-]
REMARK SMILES IDX 3 1 2 2 1 3 5 7 6 8 7 9 4 10
REMARK H PARENT 1 4 1 5 1 6 4 11
REMARK Flexibility Score: inf
ROOT
ATOM      1  C   UNL     1      11.183 -10.271  22.613  1.00  0.00     0.227 C 
ENDROOT
BRANCH   1   2
ATOM      2  C   UNL     1      12.689 -10.045  22.843  1.00  0.00     0.253 C 
BRANCH   2   3
ATOM      3  N   UNL     1      13.472 -10.388  21.650  1.00  0.00    -0.348 N 
ATOM      4  H   UNL     1      12.946 -11.083  21.072  1.00  0.00     0.345 HD
ATOM      5  H   UNL     1      13.629  -9.532  21.071  1.00  0.00     0.345 HD
ATOM      6  H   UNL     1      14.399 -10.798  21.912  1.00  0.00     0.345 HD
ENDBRANCH   2   3
BRANCH   2   7
ATOM      7  C   UNL     1      12.959  -8.629  23.280  1.00  0.00     0.102 C 
ATOM      8  O   UNL     1      14.116  -8.139  23.188  1.00  0.00    -0.544 OA
ATOM      9  O   UNL     1      11.919  -7.841  23.755  1.00  0.00    -0.544 OA
ENDBRANCH   2   7
ENDBRANCH   1   2
BRANCH   1  10
ATOM     10  O   UNL     1      10.696  -9.459  21.575  1.00  0.00    -0.390 OA
ATOM     11  H   UNL     1       9.915  -9.929  21.183  1.00  0.00     0.210 HD
ENDBRANCH   1  10
TORSDOF 4
ENDMDL
