MODEL 1
REMARK VINA RESULT:    -3.692      0.000      0.000
REMARK INTER + INTRA:          -4.296
REMARK INTER:                  -4.232
REMARK INTRA:                  -0.065
REMARK UNBOUND:                -0.065
REMARK SMILES CC(C)[C@H]([NH3+])C(=O)[O-]
REMARK SMILES IDX 4 1 5 2 6 6 7 7 8 8 2 9 1 10 3 11
REMARK H PARENT 5 3 5 4 5 5
REMARK Flexibility Score: inf
ROOT
ATOM      1  C   UNL     1     160.313 152.148 166.715  1.00  0.00     0.230 C 
ENDROOT
BRANCH   1   2
ATOM      2  N   UNL     1     159.602 150.951 166.240  1.00  0.00    -0.350 N 
ATOM      3  H   UNL     1     159.277 151.080 165.254  1.00  0.00     0.345 HD
ATOM      4  H   UNL     1     158.773 150.761 166.850  1.00  0.00     0.345 HD
ATOM      5  H   UNL     1     160.224 150.113 166.297  1.00  0.00     0.345 HD
ENDBRANCH   1   2
BRANCH   1   6
ATOM      6  C   UNL     1     161.239 152.640 165.630  1.00  0.00     0.099 C 
ATOM      7  O   UNL     1     162.486 152.607 165.798  1.00  0.00    -0.544 OA
ATOM      8  O   UNL     1     160.721 153.128 164.437  1.00  0.00    -0.544 OA
ENDBRANCH   1   6
BRANCH   1   9
ATOM      9  C   UNL     1     161.104 151.868 168.029  1.00  0.00     0.047 C 
ATOM     10  C   UNL     1     160.828 150.456 168.575  1.00  0.00     0.014 C 
ATOM     11  C   UNL     1     160.763 152.902 169.116  1.00  0.00     0.014 C 
ENDBRANCH   1   9
TORSDOF 3
ENDMDL
MODEL 2
REMARK VINA RESULT:    -3.677     14.929     16.422
REMARK INTER + INTRA:          -4.279
REMARK INTER:                  -4.219
REMARK INTRA:                  -0.060
REMARK UNBOUND:                -0.065
REMARK SMILES CC(C)[C@H]([NH3+])C(=O)[O-]
REMARK SMILES IDX 4 1 5 2 6 6 7 7 8 8 2 9 1 10 3 11
REMARK H PARENT 5 3 5 4 5 5
REMARK Flexibility Score: inf
ROOT
ATOM      1  C   UNL     1     157.699 152.183 151.266  1.00  0.00     0.230 C 
ENDROOT
BRANCH   1   2
ATOM      2  N   UNL     1     158.417 150.981 151.718  1.00  0.00    -0.350 N 
ATOM      3  H   UNL     1     159.347 151.236 152.123  1.00  0.00     0.345 HD
ATOM      4  H   UNL     1     158.563 150.328 150.914  1.00  0.00     0.345 HD
ATOM      5  H   UNL     1     157.852 150.469 152.432  1.00  0.00     0.345 HD
ENDBRANCH   1   2
BRANCH   1   6
ATOM      6  C   UNL     1     156.803 152.674 152.376  1.00  0.00     0.099 C 
ATOM      7  O   UNL     1     157.301 153.170 153.420  1.00  0.00    -0.544 OA
ATOM      8  O   UNL     1     155.422 152.584 152.252  1.00  0.00    -0.544 OA
ENDBRANCH   1   6
BRANCH   1   9
ATOM      9  C   UNL     1     156.874 151.912 149.971  1.00  0.00     0.047 C 
ATOM     10  C   UNL     1     157.120 150.497 149.419  1.00  0.00     0.014 C 
ATOM     11  C   UNL     1     157.202 152.942 148.875  1.00  0.00     0.014 C 
ENDBRANCH   1   9
TORSDOF 3
ENDMDL
MODEL 3
REMARK VINA RESULT:    -3.667     19.610     21.103
REMARK INTER + INTRA:          -4.268
REMARK INTER:                  -4.203
REMARK INTRA:                  -0.064
REMARK UNBOUND:                -0.065
REMARK SMILES CC(C)[C@H]([NH3+])C(=O)[O-]
REMARK SMILES IDX 4 1 5 2 6 6 7 7 8 8 2 9 1 10 3 11
REMARK H PARENT 5 3 5 4 5 5
REMARK Flexibility Score: inf
ROOT
ATOM      1  C   UNL     1     160.312 165.769 151.276  1.00  0.00     0.230 C 
ENDROOT
BRANCH   1   2
ATOM      2  N   UNL     1     159.605 166.988 151.700  1.00  0.00    -0.350 N 
ATOM      3  H   UNL     1     159.211 166.872 152.662  1.00  0.00     0.345 HD
ATOM      4  H   UNL     1     158.825 167.199 151.035  1.00  0.00     0.345 HD
ATOM      5  H   UNL     1     160.254 167.807 151.684  1.00  0.00     0.345 HD
ENDBRANCH   1   2
BRANCH   1   6
ATOM      6  C   UNL     1     161.200 165.293 152.400  1.00  0.00     0.099 C 
ATOM      7  O   UNL     1     162.452 165.391 152.303  1.00  0.00    -0.544 OA
ATOM      8  O   UNL     1     160.642 164.748 153.549  1.00  0.00    -0.544 OA
ENDBRANCH   1   6
BRANCH   1   9
ATOM      9  C   UNL     1     161.143 166.004 149.978  1.00  0.00     0.047 C 
ATOM     10  C   UNL     1     160.956 167.428 149.426  1.00  0.00     0.014 C 
ATOM     11  C   UNL     1     160.769 164.988 148.885  1.00  0.00     0.014 C 
ENDBRANCH   1   9
TORSDOF 3
ENDMDL
MODEL 4
REMARK VINA RESULT:    -3.625      2.696      3.083
REMARK INTER + INTRA:          -4.220
REMARK INTER:                  -4.173
REMARK INTRA:                  -0.046
REMARK UNBOUND:                -0.065
REMARK SMILES CC(C)[C@H]([NH3+])C(=O)[O-]
REMARK SMILES IDX 4 1 5 2 6 6 7 7 8 8 2 9 1 10 3 11
REMARK H PARENT 5 3 5 4 5 5
REMARK Flexibility Score: inf
ROOT
ATOM      1  C   UNL     1     160.491 150.499 168.082  1.00  0.00     0.230 C 
ENDROOT
BRANCH   1   2
ATOM      2  N   UNL     1     161.622 149.606 167.784  1.00  0.00    -0.350 N 
ATOM      3  H   UNL     1     161.444 149.064 166.907  1.00  0.00     0.345 HD
ATOM      4  H   UNL     1     161.768 148.936 168.574  1.00  0.00     0.345 HD
ATOM      5  H   UNL     1     162.503 150.159 167.682  1.00  0.00     0.345 HD
ENDBRANCH   1   2
BRANCH   1   6
ATOM      6  C   UNL     1     159.298 150.084 167.257  1.00  0.00     0.099 C 
ATOM      7  O   UNL     1     159.367 149.076 166.505  1.00  0.00    -0.544 OA
ATOM      8  O   UNL     1     158.115 150.808 167.325  1.00  0.00    -0.544 OA
ENDBRANCH   1   6
BRANCH   1   9
ATOM      9  C   UNL     1     160.849 151.994 167.820  1.00  0.00     0.047 C 
ATOM     10  C   UNL     1     162.231 152.146 167.159  1.00  0.00     0.014 C 
ATOM     11  C   UNL     1     160.824 152.810 169.125  1.00  0.00     0.014 C 
ENDBRANCH   1   9
TORSDOF 3
ENDMDL
MODEL 5
REMARK VINA RESULT:    -3.622     14.054     14.632
REMARK INTER + INTRA:          -4.216
REMARK INTER:                  -4.152
REMARK INTRA:                  -0.064
REMARK UNBOUND:                -0.065
REMARK SMILES CC(C)[C@H]([NH3+])C(=O)[O-]
REMARK SMILES IDX 4 1 5 2 6 6 7 7 8 8 2 9 1 10 3 11
REMARK H PARENT 5 3 5 4 5 5
REMARK Flexibility Score: inf
ROOT
ATOM      1  C   UNL     1     157.527 165.817 166.612  1.00  0.00     0.230 C 
ENDROOT
BRANCH   1   2
ATOM      2  N   UNL     1     158.372 166.939 166.174  1.00  0.00    -0.350 N 
ATOM      3  H   UNL     1     158.397 166.998 165.131  1.00  0.00     0.345 HD
ATOM      4  H   UNL     1     159.347 166.814 166.532  1.00  0.00     0.345 HD
ATOM      5  H   UNL     1     158.013 167.838 166.568  1.00  0.00     0.345 HD
ENDBRANCH   1   2
BRANCH   1   6
ATOM      6  C   UNL     1     156.638 165.388 165.471  1.00  0.00     0.099 C 
ATOM      7  O   UNL     1     155.388 165.366 165.615  1.00  0.00    -0.544 OA
ATOM      8  O   UNL     1     157.194 165.020 164.252  1.00  0.00    -0.544 OA
ENDBRANCH   1   6
BRANCH   1   9
ATOM      9  C   UNL     1     156.676 166.187 167.865  1.00  0.00     0.047 C 
ATOM     10  C   UNL     1     156.670 167.704 168.127  1.00  0.00     0.014 C 
ATOM     11  C   UNL     1     157.188 165.462 169.122  1.00  0.00     0.014 C 
ENDBRANCH   1   9
TORSDOF 3
ENDMDL
MODEL 6
REMARK VINA RESULT:    -3.603     21.351     21.985
REMARK INTER + INTRA:          -4.194
REMARK INTER:                  -4.140
REMARK INTRA:                  -0.054
REMARK UNBOUND:                -0.065
REMARK SMILES CC(C)[C@H]([NH3+])C(=O)[O-]
REMARK SMILES IDX 4 1 5 2 6 6 7 7 8 8 2 9 1 10 3 11
REMARK H PARENT 5 3 5 4 5 5
REMARK Flexibility Score: inf
ROOT
ATOM      1  C   UNL     1     159.890 166.297 151.086  1.00  0.00     0.230 C 
ENDROOT
BRANCH   1   2
ATOM      2  N   UNL     1     158.963 165.201 150.763  1.00  0.00    -0.350 N 
ATOM      3  H   UNL     1     159.433 164.480 150.171  1.00  0.00     0.345 HD
ATOM      4  H   UNL     1     158.132 165.575 150.248  1.00  0.00     0.345 HD
ATOM      5  H   UNL     1     158.607 164.758 151.640  1.00  0.00     0.345 HD
ENDBRANCH   1   2
BRANCH   1   6
ATOM      6  C   UNL     1     159.174 167.616 150.933  1.00  0.00     0.099 C 
ATOM      7  O   UNL     1     157.920 167.671 151.028  1.00  0.00    -0.544 OA
ATOM      8  O   UNL     1     159.895 168.779 150.690  1.00  0.00    -0.544 OA
ENDBRANCH   1   6
BRANCH   1   9
ATOM      9  C   UNL     1     161.168 166.256 150.193  1.00  0.00     0.047 C 
ATOM     10  C   UNL     1     160.923 165.499 148.875  1.00  0.00     0.014 C 
ATOM     11  C   UNL     1     162.346 165.603 150.936  1.00  0.00     0.014 C 
ENDBRANCH   1   9
TORSDOF 3
ENDMDL
MODEL 7
REMARK VINA RESULT:    -3.594     14.354     14.929
REMARK INTER + INTRA:          -4.184
REMARK INTER:                  -4.132
REMARK INTRA:                  -0.052
REMARK UNBOUND:                -0.065
REMARK SMILES CC(C)[C@H]([NH3+])C(=O)[O-]
REMARK SMILES IDX 4 1 5 2 6 6 7 7 8 8 2 9 1 10 3 11
REMARK H PARENT 5 3 5 4 5 5
REMARK Flexibility Score: inf
ROOT
ATOM      1  C   UNL     1     158.111 166.260 166.908  1.00  0.00     0.230 C 
ENDROOT
BRANCH   1   2
ATOM      2  N   UNL     1     159.046 165.163 167.205  1.00  0.00    -0.350 N 
ATOM      3  H   UNL     1     158.917 164.821 168.184  1.00  0.00     0.345 HD
ATOM      4  H   UNL     1     160.033 165.491 167.086  1.00  0.00     0.345 HD
ATOM      5  H   UNL     1     158.902 164.374 166.536  1.00  0.00     0.345 HD
ENDBRANCH   1   2
BRANCH   1   6
ATOM      6  C   UNL     1     158.831 167.579 167.050  1.00  0.00     0.099 C 
ATOM      7  O   UNL     1     160.087 167.625 166.986  1.00  0.00    -0.544 OA
ATOM      8  O   UNL     1     158.111 168.750 167.250  1.00  0.00    -0.544 OA
ENDBRANCH   1   6
BRANCH   1   9
ATOM      9  C   UNL     1     156.855 166.215 167.830  1.00  0.00     0.047 C 
ATOM     10  C   UNL     1     157.120 165.427 169.124  1.00  0.00     0.014 C 
ATOM     11  C   UNL     1     155.651 165.593 167.100  1.00  0.00     0.014 C 
ENDBRANCH   1   9
TORSDOF 3
ENDMDL
MODEL 8
REMARK VINA RESULT:    -3.592     14.974     15.590
REMARK INTER + INTRA:          -4.181
REMARK INTER:                  -4.134
REMARK INTRA:                  -0.047
REMARK UNBOUND:                -0.065
REMARK SMILES CC(C)[C@H]([NH3+])C(=O)[O-]
REMARK SMILES IDX 4 1 5 2 6 6 7 7 8 8 2 9 1 10 3 11
REMARK H PARENT 5 3 5 4 5 5
REMARK Flexibility Score: inf
ROOT
ATOM      1  C   UNL     1     157.485 167.544 168.046  1.00  0.00     0.230 C 
ENDROOT
BRANCH   1   2
ATOM      2  N   UNL     1     156.354 168.420 167.703  1.00  0.00    -0.350 N 
ATOM      3  H   UNL     1     156.553 168.956 166.827  1.00  0.00     0.345 HD
ATOM      4  H   UNL     1     156.174 169.095 168.482  1.00  0.00     0.345 HD
ATOM      5  H   UNL     1     155.484 167.855 167.578  1.00  0.00     0.345 HD
ENDBRANCH   1   2
BRANCH   1   6
ATOM      6  C   UNL     1     158.693 167.952 167.239  1.00  0.00     0.099 C 
ATOM      7  O   UNL     1     158.656 168.986 166.521  1.00  0.00    -0.544 OA
ATOM      8  O   UNL     1     159.854 167.191 167.284  1.00  0.00    -0.544 OA
ENDBRANCH   1   6
BRANCH   1   9
ATOM      9  C   UNL     1     157.146 166.041 167.811  1.00  0.00     0.047 C 
ATOM     10  C   UNL     1     155.742 165.857 167.208  1.00  0.00     0.014 C 
ATOM     11  C   UNL     1     157.240 165.237 169.119  1.00  0.00     0.014 C 
ENDBRANCH   1   9
TORSDOF 3
ENDMDL
MODEL 9
REMARK VINA RESULT:    -3.586     16.466     17.040
REMARK INTER + INTRA:          -4.175
REMARK INTER:                  -4.128
REMARK INTRA:                  -0.047
REMARK UNBOUND:                -0.065
REMARK SMILES CC(C)[C@H]([NH3+])C(=O)[O-]
REMARK SMILES IDX 4 1 5 2 6 6 7 7 8 8 2 9 1 10 3 11
REMARK H PARENT 5 3 5 4 5 5
REMARK Flexibility Score: inf
ROOT
ATOM      1  C   UNL     1     157.464 150.470 149.951  1.00  0.00     0.230 C 
ENDROOT
BRANCH   1   2
ATOM      2  N   UNL     1     156.330 149.611 150.324  1.00  0.00    -0.350 N 
ATOM      3  H   UNL     1     155.889 149.189 149.475  1.00  0.00     0.345 HD
ATOM      4  H   UNL     1     155.610 150.170 150.839  1.00  0.00     0.345 HD
ATOM      5  H   UNL     1     156.648 148.851 150.969  1.00  0.00     0.345 HD
ENDBRANCH   1   2
BRANCH   1   6
ATOM      6  C   UNL     1     158.684 150.051 150.732  1.00  0.00     0.099 C 
ATOM      7  O   UNL     1     158.656 149.012 151.442  1.00  0.00    -0.544 OA
ATOM      8  O   UNL     1     159.848 150.807 150.670  1.00  0.00    -0.544 OA
ENDBRANCH   1   6
BRANCH   1   9
ATOM      9  C   UNL     1     157.149 151.979 150.187  1.00  0.00     0.047 C 
ATOM     10  C   UNL     1     155.755 152.185 150.805  1.00  0.00     0.014 C 
ATOM     11  C   UNL     1     157.240 152.779 148.876  1.00  0.00     0.014 C 
ENDBRANCH   1   9
TORSDOF 3
ENDMDL
