MODEL 1
REMARK VINA RESULT:    -4.041      0.000      0.000
REMARK INTER + INTRA:          -5.930
REMARK INTER:                  -5.458
REMARK INTRA:                  -0.471
REMARK UNBOUND:                -0.471
REMARK SMILES CCCCCCCC(=O)[O-]
REMARK SMILES IDX 5 1 6 2 7 3 8 4 9 5 10 6 4 7 3 8 2 9 1 10
REMARK H PARENT
REMARK Flexibility Score: inf
ROOT
ATOM      1  C   UNL     1      15.917 -20.892  21.119  1.00  0.00     0.000 C 
ENDROOT
BRANCH   1   2
ATOM      2  C   UNL     1      16.524 -21.799  22.199  1.00  0.00     0.006 C 
BRANCH   2   3
ATOM      3  C   UNL     1      16.851 -21.031  23.487  1.00  0.00     0.053 C 
BRANCH   3   4
ATOM      4  C   UNL     1      15.753 -21.148  24.499  1.00  0.00     0.041 C 
ATOM      5  O   UNL     1      14.634 -20.611  24.283  1.00  0.00    -0.550 OA
ATOM      6  O   UNL     1      15.953 -21.877  25.664  1.00  0.00    -0.550 OA
ENDBRANCH   3   4
ENDBRANCH   2   3
ENDBRANCH   1   2
BRANCH   1   7
ATOM      7  C   UNL     1      14.731 -21.576  20.429  1.00  0.00     0.000 C 
BRANCH   7   8
ATOM      8  C   UNL     1      14.414 -22.925  21.092  1.00  0.00    -0.000 C 
BRANCH   8   9
ATOM      9  C   UNL     1      13.148 -22.873  21.962  1.00  0.00    -0.003 C 
ATOM     10  C   UNL     1      12.266 -21.662  21.652  1.00  0.00     0.004 C 
ENDBRANCH   8   9
ENDBRANCH   7   8
ENDBRANCH   1   7
TORSDOF 6
ENDMDL
MODEL 2
REMARK VINA RESULT:    -3.903      2.521      4.461
REMARK INTER + INTRA:          -5.744
REMARK INTER:                  -5.173
REMARK INTRA:                  -0.570
REMARK UNBOUND:                -0.471
REMARK SMILES CCCCCCCC(=O)[O-]
REMARK SMILES IDX 5 1 6 2 7 3 8 4 9 5 10 6 4 7 3 8 2 9 1 10
REMARK H PARENT
REMARK Flexibility Score: inf
ROOT
ATOM      1  C   UNL     1      13.303 -20.002  23.101  1.00  0.00     0.000 C 
ENDROOT
BRANCH   1   2
ATOM      2  C   UNL     1      13.158 -21.385  22.450  1.00  0.00     0.006 C 
BRANCH   2   3
ATOM      3  C   UNL     1      13.343 -21.333  20.928  1.00  0.00     0.053 C 
BRANCH   3   4
ATOM      4  C   UNL     1      14.094 -22.525  20.418  1.00  0.00     0.041 C 
ATOM      5  O   UNL     1      14.481 -23.418  21.217  1.00  0.00    -0.550 OA
ATOM      6  O   UNL     1      14.338 -22.666  19.058  1.00  0.00    -0.550 OA
ENDBRANCH   3   4
ENDBRANCH   2   3
ENDBRANCH   1   2
BRANCH   1   7
ATOM      7  C   UNL     1      14.359 -20.025  24.212  1.00  0.00     0.000 C 
BRANCH   7   8
ATOM      8  C   UNL     1      15.127 -21.356  24.212  1.00  0.00    -0.000 C 
BRANCH   8   9
ATOM      9  C   UNL     1      16.629 -21.171  23.942  1.00  0.00    -0.003 C 
ATOM     10  C   UNL     1      16.973 -21.232  22.453  1.00  0.00     0.004 C 
ENDBRANCH   8   9
ENDBRANCH   7   8
ENDBRANCH   1   7
TORSDOF 6
ENDMDL
MODEL 3
REMARK VINA RESULT:    -3.873      0.907      1.763
REMARK INTER + INTRA:          -5.702
REMARK INTER:                  -5.238
REMARK INTRA:                  -0.464
REMARK UNBOUND:                -0.471
REMARK SMILES CCCCCCCC(=O)[O-]
REMARK SMILES IDX 5 1 6 2 7 3 8 4 9 5 10 6 4 7 3 8 2 9 1 10
REMARK H PARENT
REMARK Flexibility Score: inf
ROOT
ATOM      1  C   UNL     1      15.060 -22.473  21.496  1.00  0.00     0.000 C 
ENDROOT
BRANCH   1   2
ATOM      2  C   UNL     1      15.846 -21.182  21.766  1.00  0.00     0.006 C 
BRANCH   2   3
ATOM      3  C   UNL     1      16.617 -21.236  23.091  1.00  0.00     0.053 C 
BRANCH   3   4
ATOM      4  C   UNL     1      15.708 -21.071  24.271  1.00  0.00     0.041 C 
ATOM      5  O   UNL     1      15.943 -21.691  25.342  1.00  0.00    -0.550 OA
ATOM      6  O   UNL     1      14.621 -20.210  24.198  1.00  0.00    -0.550 OA
ENDBRANCH   3   4
ENDBRANCH   2   3
ENDBRANCH   1   2
BRANCH   1   7
ATOM      7  C   UNL     1      13.677 -22.164  20.911  1.00  0.00     0.000 C 
BRANCH   7   8
ATOM      8  C   UNL     1      12.594 -22.231  21.999  1.00  0.00    -0.000 C 
BRANCH   8   9
ATOM      9  C   UNL     1      11.472 -21.204  21.779  1.00  0.00    -0.003 C 
ATOM     10  C   UNL     1      11.970 -19.760  21.843  1.00  0.00     0.004 C 
ENDBRANCH   8   9
ENDBRANCH   7   8
ENDBRANCH   1   7
TORSDOF 6
ENDMDL
MODEL 4
REMARK VINA RESULT:    -3.817      2.235      3.877
REMARK INTER + INTRA:          -5.627
REMARK INTER:                  -5.176
REMARK INTRA:                  -0.451
REMARK UNBOUND:                -0.471
REMARK SMILES CCCCCCCC(=O)[O-]
REMARK SMILES IDX 5 1 6 2 7 3 8 4 9 5 10 6 4 7 3 8 2 9 1 10
REMARK H PARENT
REMARK Flexibility Score: inf
ROOT
ATOM      1  C   UNL     1      15.893 -20.941  21.008  1.00  0.00     0.000 C 
ENDROOT
BRANCH   1   2
ATOM      2  C   UNL     1      14.667 -21.420  20.217  1.00  0.00     0.006 C 
BRANCH   2   3
ATOM      3  C   UNL     1      13.693 -22.226  21.085  1.00  0.00     0.053 C 
BRANCH   3   4
ATOM      4  C   UNL     1      12.488 -21.421  21.464  1.00  0.00     0.041 C 
ATOM      5  O   UNL     1      11.580 -21.934  22.170  1.00  0.00    -0.550 OA
ATOM      6  O   UNL     1      12.382 -20.095  21.064  1.00  0.00    -0.550 OA
ENDBRANCH   3   4
ENDBRANCH   2   3
ENDBRANCH   1   2
BRANCH   1   7
ATOM      7  C   UNL     1      16.211 -21.898  22.163  1.00  0.00     0.000 C 
BRANCH   7   8
ATOM      8  C   UNL     1      16.957 -21.169  23.291  1.00  0.00    -0.000 C 
BRANCH   8   9
ATOM      9  C   UNL     1      16.169 -21.159  24.610  1.00  0.00    -0.003 C 
ATOM     10  C   UNL     1      14.693 -20.807  24.416  1.00  0.00     0.004 C 
ENDBRANCH   8   9
ENDBRANCH   7   8
ENDBRANCH   1   7
TORSDOF 6
ENDMDL
MODEL 5
REMARK VINA RESULT:    -3.725      1.580      3.760
REMARK INTER + INTRA:          -5.503
REMARK INTER:                  -5.052
REMARK INTRA:                  -0.451
REMARK UNBOUND:                -0.471
REMARK SMILES CCCCCCCC(=O)[O-]
REMARK SMILES IDX 5 1 6 2 7 3 8 4 9 5 10 6 4 7 3 8 2 9 1 10
REMARK H PARENT
REMARK Flexibility Score: inf
ROOT
ATOM      1  C   UNL     1      14.389 -22.204  20.707  1.00  0.00     0.000 C 
ENDROOT
BRANCH   1   2
ATOM      2  C   UNL     1      13.566 -22.660  21.920  1.00  0.00     0.006 C 
BRANCH   2   3
ATOM      3  C   UNL     1      12.191 -21.982  21.978  1.00  0.00     0.053 C 
BRANCH   3   4
ATOM      4  C   UNL     1      12.308 -20.500  22.164  1.00  0.00     0.041 C 
ATOM      5  O   UNL     1      11.815 -19.715  21.312  1.00  0.00    -0.550 OA
ATOM      6  O   UNL     1      12.934 -19.987  23.293  1.00  0.00    -0.550 OA
ENDBRANCH   3   4
ENDBRANCH   2   3
ENDBRANCH   1   2
BRANCH   1   7
ATOM      7  C   UNL     1      15.573 -21.332  21.142  1.00  0.00     0.000 C 
BRANCH   7   8
ATOM      8  C   UNL     1      16.409 -22.040  22.219  1.00  0.00    -0.000 C 
BRANCH   8   9
ATOM      9  C   UNL     1      16.860 -21.087  23.338  1.00  0.00    -0.003 C 
ATOM     10  C   UNL     1      16.004 -21.210  24.599  1.00  0.00     0.004 C 
ENDBRANCH   8   9
ENDBRANCH   7   8
ENDBRANCH   1   7
TORSDOF 6
ENDMDL
MODEL 6
REMARK VINA RESULT:    -3.717      1.584      2.525
REMARK INTER + INTRA:          -5.492
REMARK INTER:                  -4.990
REMARK INTRA:                  -0.502
REMARK UNBOUND:                -0.471
REMARK SMILES CCCCCCCC(=O)[O-]
REMARK SMILES IDX 5 1 6 2 7 3 8 4 9 5 10 6 4 7 3 8 2 9 1 10
REMARK H PARENT
REMARK Flexibility Score: inf
ROOT
ATOM      1  C   UNL     1      12.994 -19.522  22.165  1.00  0.00     0.000 C 
ENDROOT
BRANCH   1   2
ATOM      2  C   UNL     1      13.271 -20.417  23.382  1.00  0.00     0.006 C 
BRANCH   2   3
ATOM      3  C   UNL     1      14.508 -19.964  24.169  1.00  0.00     0.053 C 
BRANCH   3   4
ATOM      4  C   UNL     1      15.563 -21.026  24.208  1.00  0.00     0.041 C 
ATOM      5  O   UNL     1      15.863 -21.580  25.299  1.00  0.00    -0.550 OA
ATOM      6  O   UNL     1      16.192 -21.427  23.036  1.00  0.00    -0.550 OA
ENDBRANCH   3   4
ENDBRANCH   2   3
ENDBRANCH   1   2
BRANCH   1   7
ATOM      7  C   UNL     1      13.253 -20.277  20.857  1.00  0.00     0.000 C 
BRANCH   7   8
ATOM      8  C   UNL     1      13.007 -21.783  21.033  1.00  0.00    -0.000 C 
BRANCH   8   9
ATOM      9  C   UNL     1      14.131 -22.640  20.430  1.00  0.00    -0.003 C 
ATOM     10  C   UNL     1      14.375 -23.931  21.212  1.00  0.00     0.004 C 
ENDBRANCH   8   9
ENDBRANCH   7   8
ENDBRANCH   1   7
TORSDOF 6
ENDMDL
MODEL 7
REMARK VINA RESULT:    -3.683      2.285      4.173
REMARK INTER + INTRA:          -5.446
REMARK INTER:                  -4.890
REMARK INTRA:                  -0.556
REMARK UNBOUND:                -0.471
REMARK SMILES CCCCCCCC(=O)[O-]
REMARK SMILES IDX 5 1 6 2 7 3 8 4 9 5 10 6 4 7 3 8 2 9 1 10
REMARK H PARENT
REMARK Flexibility Score: inf
ROOT
ATOM      1  C   UNL     1      14.569 -19.937  24.148  1.00  0.00     0.000 C 
ENDROOT
BRANCH   1   2
ATOM      2  C   UNL     1      13.181 -20.344  23.634  1.00  0.00     0.006 C 
BRANCH   2   3
ATOM      3  C   UNL     1      12.990 -20.011  22.148  1.00  0.00     0.053 C 
BRANCH   3   4
ATOM      4  C   UNL     1      12.971 -21.244  21.299  1.00  0.00     0.041 C 
ATOM      5  O   UNL     1      13.231 -21.169  20.069  1.00  0.00    -0.550 OA
ATOM      6  O   UNL     1      12.697 -22.480  21.871  1.00  0.00    -0.550 OA
ENDBRANCH   3   4
ENDBRANCH   2   3
ENDBRANCH   1   2
BRANCH   1   7
ATOM      7  C   UNL     1      15.409 -21.170  24.501  1.00  0.00     0.000 C 
BRANCH   7   8
ATOM      8  C   UNL     1      16.719 -21.189  23.700  1.00  0.00    -0.000 C 
BRANCH   8   9
ATOM      9  C   UNL     1      16.509 -21.594  22.232  1.00  0.00    -0.003 C 
ATOM     10  C   UNL     1      16.587 -20.406  21.273  1.00  0.00     0.004 C 
ENDBRANCH   8   9
ENDBRANCH   7   8
ENDBRANCH   1   7
TORSDOF 6
ENDMDL
MODEL 8
REMARK VINA RESULT:    -3.433      1.473      2.461
REMARK INTER + INTRA:          -5.109
REMARK INTER:                  -4.648
REMARK INTRA:                  -0.460
REMARK UNBOUND:                -0.471
REMARK SMILES CCCCCCCC(=O)[O-]
REMARK SMILES IDX 5 1 6 2 7 3 8 4 9 5 10 6 4 7 3 8 2 9 1 10
REMARK H PARENT
REMARK Flexibility Score: inf
ROOT
ATOM      1  C   UNL     1      13.914 -23.058  21.078  1.00  0.00     0.000 C 
ENDROOT
BRANCH   1   2
ATOM      2  C   UNL     1      13.803 -22.135  22.299  1.00  0.00     0.006 C 
BRANCH   2   3
ATOM      3  C   UNL     1      15.173 -21.651  22.790  1.00  0.00     0.053 C 
BRANCH   3   4
ATOM      4  C   UNL     1      15.065 -20.873  24.066  1.00  0.00     0.041 C 
ATOM      5  O   UNL     1      14.010 -20.238  24.331  1.00  0.00    -0.550 OA
ATOM      6  O   UNL     1      16.115 -20.875  24.975  1.00  0.00    -0.550 OA
ENDBRANCH   3   4
ENDBRANCH   2   3
ENDBRANCH   1   2
BRANCH   1   7
ATOM      7  C   UNL     1      14.420 -22.290  19.852  1.00  0.00     0.000 C 
BRANCH   7   8
ATOM      8  C   UNL     1      13.549 -21.055  19.579  1.00  0.00    -0.000 C 
BRANCH   8   9
ATOM      9  C   UNL     1      14.376 -19.767  19.439  1.00  0.00    -0.003 C 
ATOM     10  C   UNL     1      14.171 -18.803  20.608  1.00  0.00     0.004 C 
ENDBRANCH   8   9
ENDBRANCH   7   8
ENDBRANCH   1   7
TORSDOF 6
ENDMDL
MODEL 9
REMARK VINA RESULT:    -3.295      2.027      3.390
REMARK INTER + INTRA:          -4.922
REMARK INTER:                  -4.376
REMARK INTRA:                  -0.546
REMARK UNBOUND:                -0.471
REMARK SMILES CCCCCCCC(=O)[O-]
REMARK SMILES IDX 5 1 6 2 7 3 8 4 9 5 10 6 4 7 3 8 2 9 1 10
REMARK H PARENT
REMARK Flexibility Score: inf
ROOT
ATOM      1  C   UNL     1      13.297 -22.612  22.193  1.00  0.00     0.000 C 
ENDROOT
BRANCH   1   2
ATOM      2  C   UNL     1      14.048 -23.017  20.917  1.00  0.00     0.006 C 
BRANCH   2   3
ATOM      3  C   UNL     1      14.827 -21.846  20.304  1.00  0.00     0.053 C 
BRANCH   3   4
ATOM      4  C   UNL     1      15.673 -21.145  21.323  1.00  0.00     0.041 C 
ATOM      5  O   UNL     1      15.519 -19.913  21.534  1.00  0.00    -0.550 OA
ATOM      6  O   UNL     1      16.608 -21.859  22.062  1.00  0.00    -0.550 OA
ENDBRANCH   3   4
ENDBRANCH   2   3
ENDBRANCH   1   2
BRANCH   1   7
ATOM      7  C   UNL     1      11.987 -21.890  21.855  1.00  0.00     0.000 C 
BRANCH   7   8
ATOM      8  C   UNL     1      12.064 -20.405  22.236  1.00  0.00    -0.000 C 
BRANCH   8   9
ATOM      9  C   UNL     1      11.406 -19.491  21.190  1.00  0.00    -0.003 C 
ATOM     10  C   UNL     1      12.403 -18.958  20.160  1.00  0.00     0.004 C 
ENDBRANCH   8   9
ENDBRANCH   7   8
ENDBRANCH   1   7
TORSDOF 6
ENDMDL
