MODEL 1
REMARK VINA RESULT:    14.713      0.000      0.000
REMARK INTER + INTRA:          17.027
REMARK INTER:                  17.294
REMARK INTRA:                  -0.266
REMARK UNBOUND:                -0.266
REMARK SMILES O=c1cc(-c2ccc(O)c(O)c2)oc2cc(O)cc(O)c12
REMARK SMILES IDX 4 1 3 2 2 3 1 4 21 5 19 6 18 7 16 8 15 9 14 10 13 11 5 12
REMARK SMILES IDX 6 13 7 14 8 15 12 16 10 17 9 18 11 20 20 22 17 24
REMARK H PARENT 9 19 11 21 20 23 17 25
REMARK Flexibility Score: inf
ROOT
ATOM      1  C   UNL     1     -13.995  12.723   6.238  1.00  0.00     0.138 A 
ATOM      2  C   UNL     1     -13.981  13.975   6.871  1.00  0.00     0.100 A 
ATOM      3  C   UNL     1     -13.709  15.123   6.125  1.00  0.00     0.197 A 
ATOM      4  O   UNL     1     -13.766  16.236   6.708  1.00  0.00    -0.289 OA
ATOM      5  C   UNL     1     -13.421  15.012   4.744  1.00  0.00     0.107 A 
ATOM      6  C   UNL     1     -13.090  16.110   3.893  1.00  0.00     0.134 A 
ATOM      7  C   UNL     1     -12.938  15.894   2.518  1.00  0.00     0.093 A 
ATOM      8  C   UNL     1     -13.044  14.611   1.972  1.00  0.00     0.123 A 
ATOM      9  C   UNL     1     -13.313  13.526   2.803  1.00  0.00     0.094 A 
ATOM     10  C   UNL     1     -13.505  13.714   4.175  1.00  0.00     0.146 A 
ATOM     11  O   UNL     1     -13.774  12.654   4.929  1.00  0.00    -0.456 OA
ENDROOT
BRANCH   1  12
ATOM     12  C   UNL     1     -14.276  11.471   6.984  1.00  0.00     0.021 A 
ATOM     13  C   UNL     1     -13.264  10.533   7.264  1.00  0.00     0.016 A 
ATOM     14  C   UNL     1     -13.560   9.358   7.958  1.00  0.00     0.051 A 
ATOM     15  C   UNL     1     -14.870   9.094   8.377  1.00  0.00     0.157 A 
ATOM     16  C   UNL     1     -15.592  11.192   7.396  1.00  0.00     0.062 A 
ATOM     17  C   UNL     1     -15.890  10.015   8.092  1.00  0.00     0.158 A 
BRANCH  15  18
ATOM     18  O   UNL     1     -15.160   7.920   9.071  1.00  0.00    -0.504 OA
ATOM     19  H   UNL     1     -15.808   7.233   8.704  1.00  0.00     0.293 HD
ENDBRANCH  15  18
BRANCH  17  20
ATOM     20  O   UNL     1     -17.205   9.780   8.493  1.00  0.00    -0.504 OA
ATOM     21  H   UNL     1     -17.473   8.945   9.001  1.00  0.00     0.293 HD
ENDBRANCH  17  20
ENDBRANCH   1  12
BRANCH   6  22
ATOM     22  O   UNL     1     -12.878  17.414   4.347  1.00  0.00    -0.507 OA
ATOM     23  H   UNL     1     -12.415  18.139   3.822  1.00  0.00     0.293 HD
ENDBRANCH   6  22
BRANCH   8  24
ATOM     24  O   UNL     1     -12.875  14.404   0.606  1.00  0.00    -0.508 OA
ATOM     25  H   UNL     1     -13.336  14.991  -0.080  1.00  0.00     0.293 HD
ENDBRANCH   8  24
TORSDOF 5
ENDMDL
