MODEL 1
REMARK VINA RESULT:    -7.021      0.000      0.000
REMARK INTER + INTRA:         -12.117
REMARK INTER:                 -10.715
REMARK INTRA:                  -1.402
REMARK UNBOUND:                -1.402
REMARK SMILES CC(=O)CCC=C(C)CCC=C(C)CCC=C(C)C
REMARK SMILES IDX 10 1 11 2 12 3 13 4 14 5 15 6 16 7 18 8 17 9 19 10 9 11 7 12
REMARK SMILES IDX 6 13 8 14 5 15 4 16 2 17 3 18 1 19
REMARK H PARENT
REMARK Flexibility Score: inf
ROOT
ATOM      1  C   UNL     1      26.840  19.895   6.120  1.00  0.00     0.032 C 
ENDROOT
BRANCH   1   2
ATOM      2  C   UNL     1      25.580  20.708   6.299  1.00  0.00    -0.028 C 
ATOM      3  C   UNL     1      25.068  21.556   5.380  1.00  0.00    -0.077 C 
ATOM      4  C   UNL     1      23.778  22.265   5.702  1.00  0.00     0.039 C 
BRANCH   3   5
ATOM      5  C   UNL     1      25.763  21.875   4.071  1.00  0.00     0.034 C 
BRANCH   5   6
ATOM      6  C   UNL     1      26.277  23.319   4.072  1.00  0.00     0.032 C 
BRANCH   6   7
ATOM      7  C   UNL     1      25.490  24.167   3.099  1.00  0.00    -0.028 C 
ATOM      8  C   UNL     1      24.016  25.992   2.365  1.00  0.00     0.039 C 
ATOM      9  C   UNL     1      24.783  25.266   3.441  1.00  0.00    -0.080 C 
ATOM     10  C   UNL     1      24.752  25.784   4.858  1.00  0.00     0.039 C 
ENDBRANCH   6   7
ENDBRANCH   5   6
ENDBRANCH   3   5
ENDBRANCH   1   2
BRANCH   1  11
ATOM     11  C   UNL     1      27.860  20.181   7.231  1.00  0.00     0.034 C 
BRANCH  11  12
ATOM     12  C   UNL     1      29.040  20.980   6.719  1.00  0.00    -0.077 C 
ATOM     13  C   UNL     1      30.271  20.418   6.747  1.00  0.00    -0.028 C 
ATOM     14  C   UNL     1      28.807  22.365   6.167  1.00  0.00     0.039 C 
BRANCH  13  15
ATOM     15  C   UNL     1      31.538  21.099   6.282  1.00  0.00     0.035 C 
BRANCH  15  16
ATOM     16  C   UNL     1      32.437  21.506   7.456  1.00  0.00     0.079 C 
BRANCH  16  17
ATOM     17  C   UNL     1      31.737  22.453   8.396  1.00  0.00     0.130 C 
ATOM     18  O   UNL     1      31.355  22.052   9.486  1.00  0.00    -0.300 OA
ATOM     19  C   UNL     1      31.538  23.893   8.033  1.00  0.00     0.087 C 
ENDBRANCH  16  17
ENDBRANCH  15  16
ENDBRANCH  13  15
ENDBRANCH  11  12
ENDBRANCH   1  11
TORSDOF 9
ENDMDL
MODEL 2
REMARK VINA RESULT:    -7.016      2.606      7.341
REMARK INTER + INTRA:         -12.109
REMARK INTER:                 -10.950
REMARK INTRA:                  -1.159
REMARK UNBOUND:                -1.402
REMARK SMILES CC(=O)CCC=C(C)CCC=C(C)CCC=C(C)C
REMARK SMILES IDX 10 1 11 2 12 3 13 4 14 5 15 6 16 7 18 8 17 9 19 10 9 11 7 12
REMARK SMILES IDX 6 13 8 14 5 15 4 16 2 17 3 18 1 19
REMARK H PARENT
REMARK Flexibility Score: inf
ROOT
ATOM      1  C   UNL     1      26.920  20.674   5.446  1.00  0.00     0.032 C 
ENDROOT
BRANCH   1   2
ATOM      2  C   UNL     1      27.509  21.197   6.735  1.00  0.00    -0.028 C 
ATOM      3  C   UNL     1      28.737  20.890   7.207  1.00  0.00    -0.077 C 
ATOM      4  C   UNL     1      29.189  21.530   8.494  1.00  0.00     0.039 C 
BRANCH   3   5
ATOM      5  C   UNL     1      29.652  19.884   6.537  1.00  0.00     0.034 C 
BRANCH   5   6
ATOM      6  C   UNL     1      30.671  20.596   5.639  1.00  0.00     0.032 C 
BRANCH   6   7
ATOM      7  C   UNL     1      32.044  20.575   6.269  1.00  0.00    -0.028 C 
ATOM      8  C   UNL     1      34.013  21.470   7.437  1.00  0.00     0.039 C 
ATOM      9  C   UNL     1      32.619  21.630   6.886  1.00  0.00    -0.080 C 
ATOM     10  C   UNL     1      31.900  22.947   7.046  1.00  0.00     0.039 C 
ENDBRANCH   6   7
ENDBRANCH   5   6
ENDBRANCH   3   5
ENDBRANCH   1   2
BRANCH   1  11
ATOM     11  C   UNL     1      27.123  21.662   4.289  1.00  0.00     0.034 C 
BRANCH  11  12
ATOM     12  C   UNL     1      25.940  22.594   4.130  1.00  0.00    -0.077 C 
ATOM     13  C   UNL     1      26.086  23.717   3.390  1.00  0.00    -0.028 C 
ATOM     14  C   UNL     1      24.625  22.231   4.777  1.00  0.00     0.039 C 
BRANCH  13  15
ATOM     15  C   UNL     1      25.000  24.742   3.155  1.00  0.00     0.035 C 
BRANCH  15  16
ATOM     16  C   UNL     1      24.898  25.747   4.309  1.00  0.00     0.079 C 
BRANCH  16  17
ATOM     17  C   UNL     1      23.468  26.125   4.597  1.00  0.00     0.130 C 
ATOM     18  O   UNL     1      23.204  26.786   5.591  1.00  0.00    -0.300 OA
ATOM     19  C   UNL     1      22.364  25.739   3.659  1.00  0.00     0.087 C 
ENDBRANCH  16  17
ENDBRANCH  15  16
ENDBRANCH  13  15
ENDBRANCH  11  12
ENDBRANCH   1  11
TORSDOF 9
ENDMDL
MODEL 3
REMARK VINA RESULT:    -6.929      2.977      7.165
REMARK INTER + INTRA:         -11.977
REMARK INTER:                 -10.703
REMARK INTRA:                  -1.274
REMARK UNBOUND:                -1.402
REMARK SMILES CC(=O)CCC=C(C)CCC=C(C)CCC=C(C)C
REMARK SMILES IDX 10 1 11 2 12 3 13 4 14 5 15 6 16 7 18 8 17 9 19 10 9 11 7 12
REMARK SMILES IDX 6 13 8 14 5 15 4 16 2 17 3 18 1 19
REMARK H PARENT
REMARK Flexibility Score: inf
ROOT
ATOM      1  C   UNL     1      27.086  20.455   4.838  1.00  0.00     0.032 C 
ENDROOT
BRANCH   1   2
ATOM      2  C   UNL     1      28.573  20.248   5.003  1.00  0.00    -0.028 C 
ATOM      3  C   UNL     1      29.290  20.605   6.090  1.00  0.00    -0.077 C 
ATOM      4  C   UNL     1      30.763  20.291   6.110  1.00  0.00     0.039 C 
BRANCH   3   5
ATOM      5  C   UNL     1      28.694  21.364   7.260  1.00  0.00     0.034 C 
BRANCH   5   6
ATOM      6  C   UNL     1      29.794  21.798   8.237  1.00  0.00     0.032 C 
BRANCH   6   7
ATOM      7  C   UNL     1      30.018  23.290   8.159  1.00  0.00    -0.028 C 
ATOM      8  C   UNL     1      31.262  25.376   7.779  1.00  0.00     0.039 C 
ATOM      9  C   UNL     1      31.175  23.871   7.773  1.00  0.00    -0.080 C 
ATOM     10  C   UNL     1      32.365  23.056   7.328  1.00  0.00     0.039 C 
ENDBRANCH   6   7
ENDBRANCH   5   6
ENDBRANCH   3   5
ENDBRANCH   1   2
BRANCH   1  11
ATOM     11  C   UNL     1      26.770  21.352   3.633  1.00  0.00     0.034 C 
BRANCH  11  12
ATOM     12  C   UNL     1      26.160  22.672   4.057  1.00  0.00    -0.077 C 
ATOM     13  C   UNL     1      25.967  23.633   3.125  1.00  0.00    -0.028 C 
ATOM     14  C   UNL     1      25.758  22.867   5.499  1.00  0.00     0.039 C 
BRANCH  13  15
ATOM     15  C   UNL     1      25.381  24.998   3.404  1.00  0.00     0.035 C 
BRANCH  15  16
ATOM     16  C   UNL     1      23.949  25.130   2.873  1.00  0.00     0.079 C 
BRANCH  16  17
ATOM     17  C   UNL     1      23.039  25.793   3.874  1.00  0.00     0.130 C 
ATOM     18  O   UNL     1      21.837  25.851   3.655  1.00  0.00    -0.300 OA
ATOM     19  C   UNL     1      23.578  26.347   5.158  1.00  0.00     0.087 C 
ENDBRANCH  16  17
ENDBRANCH  15  16
ENDBRANCH  13  15
ENDBRANCH  11  12
ENDBRANCH   1  11
TORSDOF 9
ENDMDL
MODEL 4
REMARK VINA RESULT:    -6.656      1.348      1.796
REMARK INTER + INTRA:         -11.560
REMARK INTER:                 -10.695
REMARK INTRA:                  -0.865
REMARK UNBOUND:                -1.402
REMARK SMILES CC(=O)CCC=C(C)CCC=C(C)CCC=C(C)C
REMARK SMILES IDX 10 1 11 2 12 3 13 4 14 5 15 6 16 7 18 8 17 9 19 10 9 11 7 12
REMARK SMILES IDX 6 13 8 14 5 15 4 16 2 17 3 18 1 19
REMARK H PARENT
REMARK Flexibility Score: inf
ROOT
ATOM      1  C   UNL     1      28.125  21.598   5.201  1.00  0.00     0.032 C 
ENDROOT
BRANCH   1   2
ATOM      2  C   UNL     1      26.675  21.361   5.551  1.00  0.00    -0.028 C 
ATOM      3  C   UNL     1      25.627  21.648   4.748  1.00  0.00    -0.077 C 
ATOM      4  C   UNL     1      24.241  21.314   5.235  1.00  0.00     0.039 C 
BRANCH   3   5
ATOM      5  C   UNL     1      25.776  22.349   3.412  1.00  0.00     0.034 C 
BRANCH   5   6
ATOM      6  C   UNL     1      25.726  23.870   3.592  1.00  0.00     0.032 C 
BRANCH   6   7
ATOM      7  C   UNL     1      24.318  24.385   3.401  1.00  0.00    -0.028 C 
ATOM      8  C   UNL     1      22.375  25.848   3.755  1.00  0.00     0.039 C 
ATOM      9  C   UNL     1      23.812  25.474   4.017  1.00  0.00    -0.080 C 
ATOM     10  C   UNL     1      24.646  26.324   4.945  1.00  0.00     0.039 C 
ENDBRANCH   6   7
ENDBRANCH   5   6
ENDBRANCH   3   5
ENDBRANCH   1   2
BRANCH   1  11
ATOM     11  C   UNL     1      28.937  20.296   5.246  1.00  0.00     0.034 C 
BRANCH  11  12
ATOM     12  C   UNL     1      30.295  20.502   5.884  1.00  0.00    -0.077 C 
ATOM     13  C   UNL     1      30.378  21.222   7.027  1.00  0.00    -0.028 C 
ATOM     14  C   UNL     1      31.511  19.875   5.245  1.00  0.00     0.039 C 
BRANCH  13  15
ATOM     15  C   UNL     1      31.663  21.517   7.766  1.00  0.00     0.035 C 
BRANCH  15  16
ATOM     16  C   UNL     1      31.542  22.760   8.656  1.00  0.00     0.079 C 
BRANCH  16  17
ATOM     17  C   UNL     1      30.742  23.850   7.991  1.00  0.00     0.130 C 
ATOM     18  O   UNL     1      29.555  23.976   8.253  1.00  0.00    -0.300 OA
ATOM     19  C   UNL     1      31.391  24.813   7.043  1.00  0.00     0.087 C 
ENDBRANCH  16  17
ENDBRANCH  15  16
ENDBRANCH  13  15
ENDBRANCH  11  12
ENDBRANCH   1  11
TORSDOF 9
ENDMDL
MODEL 5
REMARK VINA RESULT:    -6.649      2.538      6.871
REMARK INTER + INTRA:         -11.550
REMARK INTER:                 -11.136
REMARK INTRA:                  -0.414
REMARK UNBOUND:                -1.402
REMARK SMILES CC(=O)CCC=C(C)CCC=C(C)CCC=C(C)C
REMARK SMILES IDX 10 1 11 2 12 3 13 4 14 5 15 6 16 7 18 8 17 9 19 10 9 11 7 12
REMARK SMILES IDX 6 13 8 14 5 15 4 16 2 17 3 18 1 19
REMARK H PARENT
REMARK Flexibility Score: inf
ROOT
ATOM      1  C   UNL     1      28.283  20.235   5.155  1.00  0.00     0.032 C 
ENDROOT
BRANCH   1   2
ATOM      2  C   UNL     1      29.767  20.005   4.994  1.00  0.00    -0.028 C 
ATOM      3  C   UNL     1      30.704  20.311   5.917  1.00  0.00    -0.077 C 
ATOM      4  C   UNL     1      32.142  19.980   5.614  1.00  0.00     0.039 C 
BRANCH   3   5
ATOM      5  C   UNL     1      30.383  21.029   7.214  1.00  0.00     0.034 C 
BRANCH   5   6
ATOM      6  C   UNL     1      31.664  21.560   7.867  1.00  0.00     0.032 C 
BRANCH   6   7
ATOM      7  C   UNL     1      31.878  23.015   7.517  1.00  0.00    -0.028 C 
ATOM      8  C   UNL     1      31.298  25.388   7.252  1.00  0.00     0.039 C 
ATOM      9  C   UNL     1      30.953  23.985   7.680  1.00  0.00    -0.080 C 
ATOM     10  C   UNL     1      29.599  23.700   8.284  1.00  0.00     0.039 C 
ENDBRANCH   6   7
ENDBRANCH   5   6
ENDBRANCH   3   5
ENDBRANCH   1   2
BRANCH   1  11
ATOM     11  C   UNL     1      27.595  20.459   3.800  1.00  0.00     0.034 C 
BRANCH  11  12
ATOM     12  C   UNL     1      26.306  21.240   3.946  1.00  0.00    -0.077 C 
ATOM     13  C   UNL     1      26.274  22.531   3.541  1.00  0.00    -0.028 C 
ATOM     14  C   UNL     1      25.088  20.551   4.511  1.00  0.00     0.039 C 
BRANCH  13  15
ATOM     15  C   UNL     1      25.066  23.433   3.636  1.00  0.00     0.035 C 
BRANCH  15  16
ATOM     16  C   UNL     1      25.259  24.548   4.671  1.00  0.00     0.079 C 
BRANCH  16  17
ATOM     17  C   UNL     1      24.776  25.880   4.157  1.00  0.00     0.130 C 
ATOM     18  O   UNL     1      24.767  26.850   4.901  1.00  0.00    -0.300 OA
ATOM     19  C   UNL     1      24.345  26.045   2.731  1.00  0.00     0.087 C 
ENDBRANCH  16  17
ENDBRANCH  15  16
ENDBRANCH  13  15
ENDBRANCH  11  12
ENDBRANCH   1  11
TORSDOF 9
ENDMDL
MODEL 6
REMARK VINA RESULT:    -6.424      2.954      7.393
REMARK INTER + INTRA:         -11.206
REMARK INTER:                  -9.658
REMARK INTRA:                  -1.548
REMARK UNBOUND:                -1.402
REMARK SMILES CC(=O)CCC=C(C)CCC=C(C)CCC=C(C)C
REMARK SMILES IDX 10 1 11 2 12 3 13 4 14 5 15 6 16 7 18 8 17 9 19 10 9 11 7 12
REMARK SMILES IDX 6 13 8 14 5 15 4 16 2 17 3 18 1 19
REMARK H PARENT
REMARK Flexibility Score: inf
ROOT
ATOM      1  C   UNL     1      28.166  22.401   6.706  1.00  0.00     0.032 C 
ENDROOT
BRANCH   1   2
ATOM      2  C   UNL     1      29.183  23.514   6.791  1.00  0.00    -0.028 C 
ATOM      3  C   UNL     1      30.154  23.607   7.725  1.00  0.00    -0.077 C 
ATOM      4  C   UNL     1      31.114  24.766   7.646  1.00  0.00     0.039 C 
BRANCH   3   5
ATOM      5  C   UNL     1      30.283  22.637   8.883  1.00  0.00     0.034 C 
BRANCH   5   6
ATOM      6  C   UNL     1      31.500  21.725   8.689  1.00  0.00     0.032 C 
BRANCH   6   7
ATOM      7  C   UNL     1      31.313  20.833   7.485  1.00  0.00    -0.028 C 
ATOM      8  C   UNL     1      31.800  19.891   5.267  1.00  0.00     0.039 C 
ATOM      9  C   UNL     1      32.135  20.811   6.413  1.00  0.00    -0.080 C 
ATOM     10  C   UNL     1      33.373  21.671   6.343  1.00  0.00     0.039 C 
ENDBRANCH   6   7
ENDBRANCH   5   6
ENDBRANCH   3   5
ENDBRANCH   1   2
BRANCH   1  11
ATOM     11  C   UNL     1      28.279  21.632   5.382  1.00  0.00     0.034 C 
BRANCH  11  12
ATOM     12  C   UNL     1      27.064  21.843   4.503  1.00  0.00    -0.077 C 
ATOM     13  C   UNL     1      26.657  23.107   4.241  1.00  0.00    -0.028 C 
ATOM     14  C   UNL     1      26.358  20.641   3.923  1.00  0.00     0.039 C 
BRANCH  13  15
ATOM     15  C   UNL     1      25.459  23.467   3.393  1.00  0.00     0.035 C 
BRANCH  15  16
ATOM     16  C   UNL     1      24.264  23.911   4.245  1.00  0.00     0.079 C 
BRANCH  16  17
ATOM     17  C   UNL     1      23.882  25.343   3.972  1.00  0.00     0.130 C 
ATOM     18  O   UNL     1      22.895  25.589   3.294  1.00  0.00    -0.300 OA
ATOM     19  C   UNL     1      24.672  26.476   4.557  1.00  0.00     0.087 C 
ENDBRANCH  16  17
ENDBRANCH  15  16
ENDBRANCH  13  15
ENDBRANCH  11  12
ENDBRANCH   1  11
TORSDOF 9
ENDMDL
MODEL 7
REMARK VINA RESULT:    -6.358      1.243      2.039
REMARK INTER + INTRA:         -11.106
REMARK INTER:                 -10.183
REMARK INTRA:                  -0.923
REMARK UNBOUND:                -1.402
REMARK SMILES CC(=O)CCC=C(C)CCC=C(C)CCC=C(C)C
REMARK SMILES IDX 10 1 11 2 12 3 13 4 14 5 15 6 16 7 18 8 17 9 19 10 9 11 7 12
REMARK SMILES IDX 6 13 8 14 5 15 4 16 2 17 3 18 1 19
REMARK H PARENT
REMARK Flexibility Score: inf
ROOT
ATOM      1  C   UNL     1      26.008  21.533   6.292  1.00  0.00     0.032 C 
ENDROOT
BRANCH   1   2
ATOM      2  C   UNL     1      26.228  20.613   5.115  1.00  0.00    -0.028 C 
ATOM      3  C   UNL     1      26.648  21.005   3.893  1.00  0.00    -0.077 C 
ATOM      4  C   UNL     1      26.854  19.952   2.835  1.00  0.00     0.039 C 
BRANCH   3   5
ATOM      5  C   UNL     1      26.860  22.459   3.518  1.00  0.00     0.034 C 
BRANCH   5   6
ATOM      6  C   UNL     1      25.515  23.160   3.296  1.00  0.00     0.032 C 
BRANCH   6   7
ATOM      7  C   UNL     1      25.405  24.393   4.162  1.00  0.00    -0.028 C 
ATOM      8  C   UNL     1      24.695  26.660   4.794  1.00  0.00     0.039 C 
ATOM      9  C   UNL     1      24.680  25.488   3.846  1.00  0.00    -0.080 C 
ATOM     10  C   UNL     1      23.855  25.559   2.584  1.00  0.00     0.039 C 
ENDBRANCH   6   7
ENDBRANCH   5   6
ENDBRANCH   3   5
ENDBRANCH   1   2
BRANCH   1  11
ATOM     11  C   UNL     1      27.266  22.353   6.612  1.00  0.00     0.034 C 
BRANCH  11  12
ATOM     12  C   UNL     1      28.478  21.467   6.815  1.00  0.00    -0.077 C 
ATOM     13  C   UNL     1      29.632  21.781   6.180  1.00  0.00    -0.028 C 
ATOM     14  C   UNL     1      28.375  20.279   7.741  1.00  0.00     0.039 C 
BRANCH  13  15
ATOM     15  C   UNL     1      30.912  20.985   6.279  1.00  0.00     0.035 C 
BRANCH  15  16
ATOM     16  C   UNL     1      32.103  21.859   6.693  1.00  0.00     0.079 C 
BRANCH  16  17
ATOM     17  C   UNL     1      31.778  22.721   7.886  1.00  0.00     0.130 C 
ATOM     18  O   UNL     1      31.780  23.938   7.773  1.00  0.00    -0.300 OA
ATOM     19  C   UNL     1      31.409  22.107   9.203  1.00  0.00     0.087 C 
ENDBRANCH  16  17
ENDBRANCH  15  16
ENDBRANCH  13  15
ENDBRANCH  11  12
ENDBRANCH   1  11
TORSDOF 9
ENDMDL
MODEL 8
REMARK VINA RESULT:    -6.033      1.285      2.515
REMARK INTER + INTRA:         -10.610
REMARK INTER:                  -9.170
REMARK INTRA:                  -1.440
REMARK UNBOUND:                -1.402
REMARK SMILES CC(=O)CCC=C(C)CCC=C(C)CCC=C(C)C
REMARK SMILES IDX 10 1 11 2 12 3 13 4 14 5 15 6 16 7 18 8 17 9 19 10 9 11 7 12
REMARK SMILES IDX 6 13 8 14 5 15 4 16 2 17 3 18 1 19
REMARK H PARENT
REMARK Flexibility Score: inf
ROOT
ATOM      1  C   UNL     1      26.727  20.291   3.828  1.00  0.00     0.032 C 
ENDROOT
BRANCH   1   2
ATOM      2  C   UNL     1      26.636  21.642   3.159  1.00  0.00    -0.028 C 
ATOM      3  C   UNL     1      26.150  22.762   3.735  1.00  0.00    -0.077 C 
ATOM      4  C   UNL     1      26.164  24.041   2.939  1.00  0.00     0.039 C 
BRANCH   3   5
ATOM      5  C   UNL     1      25.532  22.778   5.120  1.00  0.00     0.034 C 
BRANCH   5   6
ATOM      6  C   UNL     1      24.055  23.183   5.047  1.00  0.00     0.032 C 
BRANCH   6   7
ATOM      7  C   UNL     1      23.859  24.586   5.570  1.00  0.00    -0.028 C 
ATOM      8  C   UNL     1      23.291  26.976   5.484  1.00  0.00     0.039 C 
ATOM      9  C   UNL     1      23.401  25.621   4.833  1.00  0.00    -0.080 C 
ATOM     10  C   UNL     1      22.990  25.450   3.391  1.00  0.00     0.039 C 
ENDBRANCH   6   7
ENDBRANCH   5   6
ENDBRANCH   3   5
ENDBRANCH   1   2
BRANCH   1  11
ATOM     11  C   UNL     1      28.114  20.057   4.442  1.00  0.00     0.034 C 
BRANCH  11  12
ATOM     12  C   UNL     1      28.195  20.572   5.864  1.00  0.00    -0.077 C 
ATOM     13  C   UNL     1      28.970  21.649   6.126  1.00  0.00    -0.028 C 
ATOM     14  C   UNL     1      27.389  19.887   6.941  1.00  0.00     0.039 C 
BRANCH  13  15
ATOM     15  C   UNL     1      29.156  22.264   7.494  1.00  0.00     0.035 C 
BRANCH  15  16
ATOM     16  C   UNL     1      30.459  23.066   7.594  1.00  0.00     0.079 C 
BRANCH  16  17
ATOM     17  C   UNL     1      31.578  22.247   8.185  1.00  0.00     0.130 C 
ATOM     18  O   UNL     1      31.614  22.052   9.391  1.00  0.00    -0.300 OA
ATOM     19  C   UNL     1      32.627  21.632   7.309  1.00  0.00     0.087 C 
ENDBRANCH  16  17
ENDBRANCH  15  16
ENDBRANCH  13  15
ENDBRANCH  11  12
ENDBRANCH   1  11
TORSDOF 9
ENDMDL
MODEL 9
REMARK VINA RESULT:    -5.770      2.330      6.589
REMARK INTER + INTRA:         -10.208
REMARK INTER:                  -8.910
REMARK INTRA:                  -1.299
REMARK UNBOUND:                -1.402
REMARK SMILES CC(=O)CCC=C(C)CCC=C(C)CCC=C(C)C
REMARK SMILES IDX 10 1 11 2 12 3 13 4 14 5 15 6 16 7 18 8 17 9 19 10 9 11 7 12
REMARK SMILES IDX 6 13 8 14 5 15 4 16 2 17 3 18 1 19
REMARK H PARENT
REMARK Flexibility Score: inf
ROOT
ATOM      1  C   UNL     1      29.026  20.685   5.187  1.00  0.00     0.032 C 
ENDROOT
BRANCH   1   2
ATOM      2  C   UNL     1      28.472  20.038   6.434  1.00  0.00    -0.028 C 
ATOM      3  C   UNL     1      28.299  20.661   7.619  1.00  0.00    -0.077 C 
ATOM      4  C   UNL     1      27.697  19.879   8.758  1.00  0.00     0.039 C 
BRANCH   3   5
ATOM      5  C   UNL     1      28.743  22.088   7.875  1.00  0.00     0.034 C 
BRANCH   5   6
ATOM      6  C   UNL     1      29.861  22.126   8.924  1.00  0.00     0.032 C 
BRANCH   6   7
ATOM      7  C   UNL     1      31.189  21.766   8.301  1.00  0.00    -0.028 C 
ATOM      8  C   UNL     1      33.190  22.063   6.904  1.00  0.00     0.039 C 
ATOM      9  C   UNL     1      31.893  22.574   7.479  1.00  0.00    -0.080 C 
ATOM     10  C   UNL     1      31.422  23.966   7.137  1.00  0.00     0.039 C 
ENDBRANCH   6   7
ENDBRANCH   5   6
ENDBRANCH   3   5
ENDBRANCH   1   2
BRANCH   1  11
ATOM     11  C   UNL     1      28.283  20.216   3.928  1.00  0.00     0.034 C 
BRANCH  11  12
ATOM     12  C   UNL     1      26.886  20.795   3.851  1.00  0.00    -0.077 C 
ATOM     13  C   UNL     1      26.739  22.121   3.624  1.00  0.00    -0.028 C 
ATOM     14  C   UNL     1      25.698  19.875   4.001  1.00  0.00     0.039 C 
BRANCH  13  15
ATOM     15  C   UNL     1      25.411  22.837   3.534  1.00  0.00     0.035 C 
BRANCH  15  16
ATOM     16  C   UNL     1      25.582  24.358   3.447  1.00  0.00     0.079 C 
BRANCH  16  17
ATOM     17  C   UNL     1      24.963  25.060   4.629  1.00  0.00     0.130 C 
ATOM     18  O   UNL     1      25.323  24.772   5.761  1.00  0.00    -0.300 OA
ATOM     19  C   UNL     1      23.941  26.139   4.435  1.00  0.00     0.087 C 
ENDBRANCH  16  17
ENDBRANCH  15  16
ENDBRANCH  13  15
ENDBRANCH  11  12
ENDBRANCH   1  11
TORSDOF 9
ENDMDL
