MODEL 1
REMARK VINA RESULT:    -4.524      0.000      0.000
REMARK INTER + INTRA:          -9.988
REMARK INTER:                  -8.492
REMARK INTRA:                  -1.496
REMARK UNBOUND:                -1.496
REMARK SMILES O=C([O-])CCCCCCCCCCCCCCC(=O)[O-]
REMARK SMILES IDX 10 1 9 2 8 3 7 4 6 5 5 6 4 7 2 8 1 9 3 10 11 11 12 12 13 13
REMARK SMILES IDX 14 14 15 15 16 16 17 17 18 18 19 19 20 20
REMARK H PARENT
REMARK Flexibility Score: inf
ROOT
ATOM      1  C   UNL     1      46.630   7.294  20.000  1.00  0.00     0.000 C 
ENDROOT
BRANCH   1   2
ATOM      2  C   UNL     1      45.976   8.671  19.791  1.00  0.00     0.000 C 
BRANCH   2   3
ATOM      3  C   UNL     1      45.607   8.941  18.321  1.00  0.00     0.000 C 
BRANCH   3   4
ATOM      4  C   UNL     1      44.547   7.993  17.725  1.00  0.00     0.000 C 
BRANCH   4   5
ATOM      5  C   UNL     1      44.474   7.976  16.185  1.00  0.00     0.000 C 
BRANCH   5   6
ATOM      6  C   UNL     1      44.846   6.630  15.531  1.00  0.00     0.006 C 
BRANCH   6   7
ATOM      7  C   UNL     1      46.205   6.627  14.813  1.00  0.00     0.053 C 
BRANCH   7   8
ATOM      8  C   UNL     1      47.226   5.816  15.550  1.00  0.00     0.041 C 
ATOM      9  O   UNL     1      47.299   5.879  16.806  1.00  0.00    -0.550 OA
ATOM     10  O   UNL     1      48.075   4.965  14.854  1.00  0.00    -0.550 OA
ENDBRANCH   7   8
ENDBRANCH   6   7
ENDBRANCH   5   6
ENDBRANCH   4   5
ENDBRANCH   3   4
ENDBRANCH   2   3
ENDBRANCH   1   2
BRANCH   1  11
ATOM     11  C   UNL     1      46.812   6.935  21.487  1.00  0.00     0.000 C 
BRANCH  11  12
ATOM     12  C   UNL     1      48.141   7.391  22.114  1.00  0.00     0.000 C 
BRANCH  12  13
ATOM     13  C   UNL     1      47.998   8.656  22.974  1.00  0.00     0.000 C 
BRANCH  13  14
ATOM     14  C   UNL     1      46.558   8.817  23.479  1.00  0.00     0.000 C 
BRANCH  14  15
ATOM     15  C   UNL     1      46.075  10.263  23.312  1.00  0.00     0.000 C 
BRANCH  15  16
ATOM     16  C   UNL     1      44.613  10.305  22.852  1.00  0.00     0.006 C 
BRANCH  16  17
ATOM     17  C   UNL     1      43.825   9.120  23.417  1.00  0.00     0.053 C 
BRANCH  17  18
ATOM     18  C   UNL     1      43.164   9.496  24.705  1.00  0.00     0.041 C 
ATOM     19  O   UNL     1      43.720   9.231  25.804  1.00  0.00    -0.550 OA
ATOM     20  O   UNL     1      41.910  10.095  24.695  1.00  0.00    -0.550 OA
ENDBRANCH  17  18
ENDBRANCH  16  17
ENDBRANCH  15  16
ENDBRANCH  14  15
ENDBRANCH  13  14
ENDBRANCH  12  13
ENDBRANCH  11  12
ENDBRANCH   1  11
TORSDOF 15
ENDMDL
MODEL 2
REMARK VINA RESULT:    -4.499      1.446      2.679
REMARK INTER + INTRA:          -9.940
REMARK INTER:                  -8.642
REMARK INTRA:                  -1.299
REMARK UNBOUND:                -1.496
REMARK SMILES O=C([O-])CCCCCCCCCCCCCCC(=O)[O-]
REMARK SMILES IDX 10 1 9 2 8 3 7 4 6 5 5 6 4 7 2 8 1 9 3 10 11 11 12 12 13 13
REMARK SMILES IDX 14 14 15 15 16 16 17 17 18 18 19 19 20 20
REMARK H PARENT
REMARK Flexibility Score: inf
ROOT
ATOM      1  C   UNL     1      44.974   9.327  17.963  1.00  0.00     0.000 C 
ENDROOT
BRANCH   1   2
ATOM      2  C   UNL     1      45.096   9.880  16.533  1.00  0.00     0.000 C 
BRANCH   2   3
ATOM      3  C   UNL     1      46.140   9.127  15.688  1.00  0.00     0.000 C 
BRANCH   3   4
ATOM      4  C   UNL     1      45.610   8.527  14.371  1.00  0.00     0.000 C 
BRANCH   4   5
ATOM      5  C   UNL     1      44.532   7.437  14.533  1.00  0.00     0.000 C 
BRANCH   5   6
ATOM      6  C   UNL     1      45.036   5.991  14.348  1.00  0.00     0.006 C 
BRANCH   6   7
ATOM      7  C   UNL     1      46.493   5.881  13.875  1.00  0.00     0.053 C 
BRANCH   7   8
ATOM      8  C   UNL     1      47.347   5.139  14.857  1.00  0.00     0.041 C 
ATOM      9  O   UNL     1      47.523   5.598  16.017  1.00  0.00    -0.550 OA
ATOM     10  O   UNL     1      47.918   3.923  14.504  1.00  0.00    -0.550 OA
ENDBRANCH   7   8
ENDBRANCH   6   7
ENDBRANCH   5   6
ENDBRANCH   4   5
ENDBRANCH   3   4
ENDBRANCH   2   3
ENDBRANCH   1   2
BRANCH   1  11
ATOM     11  C   UNL     1      45.167   7.801  18.037  1.00  0.00     0.000 C 
BRANCH  11  12
ATOM     12  C   UNL     1      46.412   7.334  18.812  1.00  0.00     0.000 C 
BRANCH  12  13
ATOM     13  C   UNL     1      46.463   7.872  20.249  1.00  0.00     0.000 C 
BRANCH  13  14
ATOM     14  C   UNL     1      47.208   6.902  21.174  1.00  0.00     0.000 C 
BRANCH  14  15
ATOM     15  C   UNL     1      47.690   7.612  22.444  1.00  0.00     0.000 C 
BRANCH  15  16
ATOM     16  C   UNL     1      46.870   8.882  22.709  1.00  0.00     0.006 C 
BRANCH  16  17
ATOM     17  C   UNL     1      45.879   8.665  23.856  1.00  0.00     0.053 C 
BRANCH  17  18
ATOM     18  C   UNL     1      44.500   9.072  23.441  1.00  0.00     0.041 C 
ATOM     19  O   UNL     1      43.954  10.080  23.960  1.00  0.00    -0.550 OA
ATOM     20  O   UNL     1      43.799   8.308  22.516  1.00  0.00    -0.550 OA
ENDBRANCH  17  18
ENDBRANCH  16  17
ENDBRANCH  15  16
ENDBRANCH  14  15
ENDBRANCH  13  14
ENDBRANCH  12  13
ENDBRANCH  11  12
ENDBRANCH   1  11
TORSDOF 15
ENDMDL
MODEL 3
REMARK VINA RESULT:    -4.470      1.030      1.832
REMARK INTER + INTRA:          -9.885
REMARK INTER:                  -8.341
REMARK INTRA:                  -1.544
REMARK UNBOUND:                -1.496
REMARK SMILES O=C([O-])CCCCCCCCCCCCCCC(=O)[O-]
REMARK SMILES IDX 10 1 9 2 8 3 7 4 6 5 5 6 4 7 2 8 1 9 3 10 11 11 12 12 13 13
REMARK SMILES IDX 14 14 15 15 16 16 17 17 18 18 19 19 20 20
REMARK H PARENT
REMARK Flexibility Score: inf
ROOT
ATOM      1  C   UNL     1      44.463   8.857  19.706  1.00  0.00     0.000 C 
ENDROOT
BRANCH   1   2
ATOM      2  C   UNL     1      43.873  10.121  19.057  1.00  0.00     0.000 C 
BRANCH   2   3
ATOM      3  C   UNL     1      43.356   9.874  17.628  1.00  0.00     0.000 C 
BRANCH   3   4
ATOM      4  C   UNL     1      44.435   9.497  16.595  1.00  0.00     0.000 C 
BRANCH   4   5
ATOM      5  C   UNL     1      44.280   8.099  15.963  1.00  0.00     0.000 C 
BRANCH   5   6
ATOM      6  C   UNL     1      45.335   7.064  16.405  1.00  0.00     0.006 C 
BRANCH   6   7
ATOM      7  C   UNL     1      45.939   6.243  15.255  1.00  0.00     0.053 C 
BRANCH   7   8
ATOM      8  C   UNL     1      47.242   5.612  15.642  1.00  0.00     0.041 C 
ATOM      9  O   UNL     1      47.578   5.547  16.854  1.00  0.00    -0.550 OA
ATOM     10  O   UNL     1      48.067   5.066  14.668  1.00  0.00    -0.550 OA
ENDBRANCH   7   8
ENDBRANCH   6   7
ENDBRANCH   5   6
ENDBRANCH   4   5
ENDBRANCH   3   4
ENDBRANCH   2   3
ENDBRANCH   1   2
BRANCH   1  11
ATOM     11  C   UNL     1      46.003   8.837  19.692  1.00  0.00     0.000 C 
BRANCH  11  12
ATOM     12  C   UNL     1      46.642   7.439  19.761  1.00  0.00     0.000 C 
BRANCH  12  13
ATOM     13  C   UNL     1      46.961   6.993  21.196  1.00  0.00     0.000 C 
BRANCH  13  14
ATOM     14  C   UNL     1      47.180   8.204  22.112  1.00  0.00     0.000 C 
BRANCH  14  15
ATOM     15  C   UNL     1      46.212   8.176  23.301  1.00  0.00     0.000 C 
BRANCH  15  16
ATOM     16  C   UNL     1      45.418   9.485  23.394  1.00  0.00     0.006 C 
BRANCH  16  17
ATOM     17  C   UNL     1      43.911   9.213  23.406  1.00  0.00     0.053 C 
BRANCH  17  18
ATOM     18  C   UNL     1      43.337   9.503  24.757  1.00  0.00     0.041 C 
ATOM     19  O   UNL     1      42.090   9.491  24.932  1.00  0.00    -0.550 OA
ATOM     20  O   UNL     1      44.177   9.836  25.813  1.00  0.00    -0.550 OA
ENDBRANCH  17  18
ENDBRANCH  16  17
ENDBRANCH  15  16
ENDBRANCH  14  15
ENDBRANCH  13  14
ENDBRANCH  12  13
ENDBRANCH  11  12
ENDBRANCH   1  11
TORSDOF 15
ENDMDL
MODEL 4
REMARK VINA RESULT:    -4.459      0.855      8.105
REMARK INTER + INTRA:          -9.865
REMARK INTER:                  -8.523
REMARK INTRA:                  -1.341
REMARK UNBOUND:                -1.496
REMARK SMILES O=C([O-])CCCCCCCCCCCCCCC(=O)[O-]
REMARK SMILES IDX 10 1 9 2 8 3 7 4 6 5 5 6 4 7 2 8 1 9 3 10 11 11 12 12 13 13
REMARK SMILES IDX 14 14 15 15 16 16 17 17 18 18 19 19 20 20
REMARK H PARENT
REMARK Flexibility Score: inf
ROOT
ATOM      1  C   UNL     1      47.500   6.997  20.995  1.00  0.00     0.000 C 
ENDROOT
BRANCH   1   2
ATOM      2  C   UNL     1      47.664   7.205  22.510  1.00  0.00     0.000 C 
BRANCH   2   3
ATOM      3  C   UNL     1      47.894   8.680  22.890  1.00  0.00     0.000 C 
BRANCH   3   4
ATOM      4  C   UNL     1      46.673   9.402  23.492  1.00  0.00     0.000 C 
BRANCH   4   5
ATOM      5  C   UNL     1      45.464   8.497  23.804  1.00  0.00     0.000 C 
BRANCH   5   6
ATOM      6  C   UNL     1      44.136   8.938  23.155  1.00  0.00     0.006 C 
BRANCH   6   7
ATOM      7  C   UNL     1      43.422  10.086  23.884  1.00  0.00     0.053 C 
BRANCH   7   8
ATOM      8  C   UNL     1      42.687   9.607  25.098  1.00  0.00     0.041 C 
ATOM      9  O   UNL     1      43.324   9.227  26.116  1.00  0.00    -0.550 OA
ATOM     10  O   UNL     1      41.298   9.612  25.118  1.00  0.00    -0.550 OA
ENDBRANCH   7   8
ENDBRANCH   6   7
ENDBRANCH   5   6
ENDBRANCH   4   5
ENDBRANCH   3   4
ENDBRANCH   2   3
ENDBRANCH   1   2
BRANCH   1  11
ATOM     11  C   UNL     1      46.081   7.322  20.493  1.00  0.00     0.000 C 
BRANCH  11  12
ATOM     12  C   UNL     1      45.988   8.497  19.503  1.00  0.00     0.000 C 
BRANCH  12  13
ATOM     13  C   UNL     1      44.541   8.885  19.164  1.00  0.00     0.000 C 
BRANCH  13  14
ATOM     14  C   UNL     1      44.115   8.293  17.815  1.00  0.00     0.000 C 
BRANCH  14  15
ATOM     15  C   UNL     1      44.717   9.089  16.650  1.00  0.00     0.000 C 
BRANCH  15  16
ATOM     16  C   UNL     1      44.901   8.200  15.414  1.00  0.00     0.006 C 
BRANCH  16  17
ATOM     17  C   UNL     1      44.940   6.720  15.802  1.00  0.00     0.053 C 
BRANCH  17  18
ATOM     18  C   UNL     1      46.350   6.219  15.817  1.00  0.00     0.041 C 
ATOM     19  O   UNL     1      46.785   5.523  14.862  1.00  0.00    -0.550 OA
ATOM     20  O   UNL     1      47.169   6.477  16.909  1.00  0.00    -0.550 OA
ENDBRANCH  17  18
ENDBRANCH  16  17
ENDBRANCH  15  16
ENDBRANCH  14  15
ENDBRANCH  13  14
ENDBRANCH  12  13
ENDBRANCH  11  12
ENDBRANCH   1  11
TORSDOF 15
ENDMDL
MODEL 5
REMARK VINA RESULT:    -4.433      1.518      8.282
REMARK INTER + INTRA:          -9.817
REMARK INTER:                  -8.563
REMARK INTRA:                  -1.255
REMARK UNBOUND:                -1.496
REMARK SMILES O=C([O-])CCCCCCCCCCCCCCC(=O)[O-]
REMARK SMILES IDX 10 1 9 2 8 3 7 4 6 5 5 6 4 7 2 8 1 9 3 10 11 11 12 12 13 13
REMARK SMILES IDX 14 14 15 15 16 16 17 17 18 18 19 19 20 20
REMARK H PARENT
REMARK Flexibility Score: inf
ROOT
ATOM      1  C   UNL     1      46.759   6.876  19.422  1.00  0.00     0.000 C 
ENDROOT
BRANCH   1   2
ATOM      2  C   UNL     1      46.522   7.693  20.703  1.00  0.00     0.000 C 
BRANCH   2   3
ATOM      3  C   UNL     1      47.464   7.290  21.852  1.00  0.00     0.000 C 
BRANCH   3   4
ATOM      4  C   UNL     1      47.840   8.426  22.823  1.00  0.00     0.000 C 
BRANCH   4   5
ATOM      5  C   UNL     1      46.661   9.293  23.307  1.00  0.00     0.000 C 
BRANCH   5   6
ATOM      6  C   UNL     1      45.532   8.518  24.017  1.00  0.00     0.006 C 
BRANCH   6   7
ATOM      7  C   UNL     1      44.116   9.014  23.686  1.00  0.00     0.053 C 
BRANCH   7   8
ATOM      8  C   UNL     1      43.410   9.543  24.897  1.00  0.00     0.041 C 
ATOM      9  O   UNL     1      44.072   9.937  25.894  1.00  0.00    -0.550 OA
ATOM     10  O   UNL     1      42.024   9.632  24.913  1.00  0.00    -0.550 OA
ENDBRANCH   7   8
ENDBRANCH   6   7
ENDBRANCH   5   6
ENDBRANCH   4   5
ENDBRANCH   3   4
ENDBRANCH   2   3
ENDBRANCH   1   2
BRANCH   1  11
ATOM     11  C   UNL     1      46.092   7.498  18.180  1.00  0.00     0.000 C 
BRANCH  11  12
ATOM     12  C   UNL     1      44.849   8.359  18.466  1.00  0.00     0.000 C 
BRANCH  12  13
ATOM     13  C   UNL     1      44.625   9.459  17.418  1.00  0.00     0.000 C 
BRANCH  13  14
ATOM     14  C   UNL     1      45.947   9.858  16.749  1.00  0.00     0.000 C 
BRANCH  14  15
ATOM     15  C   UNL     1      45.823   9.823  15.222  1.00  0.00     0.000 C 
BRANCH  15  16
ATOM     16  C   UNL     1      46.239   8.455  14.667  1.00  0.00     0.006 C 
BRANCH  16  17
ATOM     17  C   UNL     1      45.029   7.694  14.119  1.00  0.00     0.053 C 
BRANCH  17  18
ATOM     18  C   UNL     1      44.850   6.400  14.847  1.00  0.00     0.041 C 
ATOM     19  O   UNL     1      45.613   5.427  14.609  1.00  0.00    -0.550 OA
ATOM     20  O   UNL     1      43.808   6.250  15.754  1.00  0.00    -0.550 OA
ENDBRANCH  17  18
ENDBRANCH  16  17
ENDBRANCH  15  16
ENDBRANCH  14  15
ENDBRANCH  13  14
ENDBRANCH  12  13
ENDBRANCH  11  12
ENDBRANCH   1  11
TORSDOF 15
ENDMDL
MODEL 6
REMARK VINA RESULT:    -4.334      1.236      1.781
REMARK INTER + INTRA:          -9.631
REMARK INTER:                  -7.807
REMARK INTRA:                  -1.824
REMARK UNBOUND:                -1.496
REMARK SMILES O=C([O-])CCCCCCCCCCCCCCC(=O)[O-]
REMARK SMILES IDX 10 1 9 2 8 3 7 4 6 5 5 6 4 7 2 8 1 9 3 10 11 11 12 12 13 13
REMARK SMILES IDX 14 14 15 15 16 16 17 17 18 18 19 19 20 20
REMARK H PARENT
REMARK Flexibility Score: inf
ROOT
ATOM      1  C   UNL     1      46.699   6.849  21.006  1.00  0.00     0.000 C 
ENDROOT
BRANCH   1   2
ATOM      2  C   UNL     1      46.746   7.336  19.548  1.00  0.00     0.000 C 
BRANCH   2   3
ATOM      3  C   UNL     1      45.572   8.266  19.191  1.00  0.00     0.000 C 
BRANCH   3   4
ATOM      4  C   UNL     1      45.971   9.617  18.564  1.00  0.00     0.000 C 
BRANCH   4   5
ATOM      5  C   UNL     1      45.492   9.835  17.116  1.00  0.00     0.000 C 
BRANCH   5   6
ATOM      6  C   UNL     1      46.390   9.206  16.031  1.00  0.00     0.006 C 
BRANCH   6   7
ATOM      7  C   UNL     1      45.660   8.246  15.079  1.00  0.00     0.053 C 
BRANCH   7   8
ATOM      8  C   UNL     1      45.474   6.889  15.686  1.00  0.00     0.041 C 
ATOM      9  O   UNL     1      46.458   6.277  16.180  1.00  0.00    -0.550 OA
ATOM     10  O   UNL     1      44.211   6.315  15.737  1.00  0.00    -0.550 OA
ENDBRANCH   7   8
ENDBRANCH   6   7
ENDBRANCH   5   6
ENDBRANCH   4   5
ENDBRANCH   3   4
ENDBRANCH   2   3
ENDBRANCH   1   2
BRANCH   1  11
ATOM     11  C   UNL     1      48.039   7.033  21.745  1.00  0.00     0.000 C 
BRANCH  11  12
ATOM     12  C   UNL     1      48.024   8.071  22.881  1.00  0.00     0.000 C 
BRANCH  12  13
ATOM     13  C   UNL     1      46.615   8.595  23.198  1.00  0.00     0.000 C 
BRANCH  13  14
ATOM     14  C   UNL     1      46.540  10.116  23.015  1.00  0.00     0.000 C 
BRANCH  14  15
ATOM     15  C   UNL     1      45.338  10.508  22.148  1.00  0.00     0.000 C 
BRANCH  15  16
ATOM     16  C   UNL     1      44.062   9.801  22.624  1.00  0.00     0.006 C 
BRANCH  16  17
ATOM     17  C   UNL     1      43.350  10.622  23.703  1.00  0.00     0.053 C 
BRANCH  17  18
ATOM     18  C   UNL     1      43.016   9.762  24.881  1.00  0.00     0.041 C 
ATOM     19  O   UNL     1      43.933   9.199  25.534  1.00  0.00    -0.550 OA
ATOM     20  O   UNL     1      41.689   9.541  25.227  1.00  0.00    -0.550 OA
ENDBRANCH  17  18
ENDBRANCH  16  17
ENDBRANCH  15  16
ENDBRANCH  14  15
ENDBRANCH  13  14
ENDBRANCH  12  13
ENDBRANCH  11  12
ENDBRANCH   1  11
TORSDOF 15
ENDMDL
MODEL 7
REMARK VINA RESULT:    -4.317      2.454      7.390
REMARK INTER + INTRA:          -9.599
REMARK INTER:                  -8.008
REMARK INTRA:                  -1.590
REMARK UNBOUND:                -1.496
REMARK SMILES O=C([O-])CCCCCCCCCCCCCCC(=O)[O-]
REMARK SMILES IDX 10 1 9 2 8 3 7 4 6 5 5 6 4 7 2 8 1 9 3 10 11 11 12 12 13 13
REMARK SMILES IDX 14 14 15 15 16 16 17 17 18 18 19 19 20 20
REMARK H PARENT
REMARK Flexibility Score: inf
ROOT
ATOM      1  C   UNL     1      45.885   9.311  18.785  1.00  0.00     0.000 C 
ENDROOT
BRANCH   1   2
ATOM      2  C   UNL     1      44.505   8.879  19.310  1.00  0.00     0.000 C 
BRANCH   2   3
ATOM      3  C   UNL     1      44.173   9.482  20.687  1.00  0.00     0.000 C 
BRANCH   3   4
ATOM      4  C   UNL     1      44.135   8.475  21.853  1.00  0.00     0.000 C 
BRANCH   4   5
ATOM      5  C   UNL     1      44.705   8.994  23.188  1.00  0.00     0.000 C 
BRANCH   5   6
ATOM      6  C   UNL     1      46.101   8.452  23.554  1.00  0.00     0.006 C 
BRANCH   6   7
ATOM      7  C   UNL     1      47.133   8.535  22.418  1.00  0.00     0.053 C 
BRANCH   7   8
ATOM      8  C   UNL     1      47.534   7.178  21.926  1.00  0.00     0.041 C 
ATOM      9  O   UNL     1      48.247   6.428  22.645  1.00  0.00    -0.550 OA
ATOM     10  O   UNL     1      47.093   6.727  20.689  1.00  0.00    -0.550 OA
ENDBRANCH   7   8
ENDBRANCH   6   7
ENDBRANCH   5   6
ENDBRANCH   4   5
ENDBRANCH   3   4
ENDBRANCH   2   3
ENDBRANCH   1   2
BRANCH   1  11
ATOM     11  C   UNL     1      45.950  10.808  18.428  1.00  0.00     0.000 C 
BRANCH  11  12
ATOM     12  C   UNL     1      46.483  11.123  17.019  1.00  0.00     0.000 C 
BRANCH  12  13
ATOM     13  C   UNL     1      45.556  10.625  15.900  1.00  0.00     0.000 C 
BRANCH  13  14
ATOM     14  C   UNL     1      46.365  10.107  14.705  1.00  0.00     0.000 C 
BRANCH  14  15
ATOM     15  C   UNL     1      45.958   8.674  14.344  1.00  0.00     0.000 C 
BRANCH  15  16
ATOM     16  C   UNL     1      45.054   8.070  15.425  1.00  0.00     0.006 C 
BRANCH  16  17
ATOM     17  C   UNL     1      45.267   6.557  15.537  1.00  0.00     0.053 C 
BRANCH  17  18
ATOM     18  C   UNL     1      46.680   6.255  15.922  1.00  0.00     0.041 C 
ATOM     19  O   UNL     1      47.125   6.623  17.041  1.00  0.00    -0.550 OA
ATOM     20  O   UNL     1      47.523   5.610  15.025  1.00  0.00    -0.550 OA
ENDBRANCH  17  18
ENDBRANCH  16  17
ENDBRANCH  15  16
ENDBRANCH  14  15
ENDBRANCH  13  14
ENDBRANCH  12  13
ENDBRANCH  11  12
ENDBRANCH   1  11
TORSDOF 15
ENDMDL
MODEL 8
REMARK VINA RESULT:    -4.300      2.437      3.442
REMARK INTER + INTRA:          -9.567
REMARK INTER:                  -8.228
REMARK INTRA:                  -1.339
REMARK UNBOUND:                -1.496
REMARK SMILES O=C([O-])CCCCCCCCCCCCCCC(=O)[O-]
REMARK SMILES IDX 10 1 9 2 8 3 7 4 6 5 5 6 4 7 2 8 1 9 3 10 11 11 12 12 13 13
REMARK SMILES IDX 14 14 15 15 16 16 17 17 18 18 19 19 20 20
REMARK H PARENT
REMARK Flexibility Score: inf
ROOT
ATOM      1  C   UNL     1      46.004   9.416  18.463  1.00  0.00     0.000 C 
ENDROOT
BRANCH   1   2
ATOM      2  C   UNL     1      45.308   8.253  17.735  1.00  0.00     0.000 C 
BRANCH   2   3
ATOM      3  C   UNL     1      44.534   8.708  16.483  1.00  0.00     0.000 C 
BRANCH   3   4
ATOM      4  C   UNL     1      44.289   7.611  15.428  1.00  0.00     0.000 C 
BRANCH   4   5
ATOM      5  C   UNL     1      45.083   7.773  14.117  1.00  0.00     0.000 C 
BRANCH   5   6
ATOM      6  C   UNL     1      46.167   6.701  13.876  1.00  0.00     0.006 C 
BRANCH   6   7
ATOM      7  C   UNL     1      46.139   5.534  14.875  1.00  0.00     0.053 C 
BRANCH   7   8
ATOM      8  C   UNL     1      47.515   5.153  15.329  1.00  0.00     0.041 C 
ATOM      9  O   UNL     1      47.849   5.306  16.534  1.00  0.00    -0.550 OA
ATOM     10  O   UNL     1      48.416   4.597  14.431  1.00  0.00    -0.550 OA
ENDBRANCH   7   8
ENDBRANCH   6   7
ENDBRANCH   5   6
ENDBRANCH   4   5
ENDBRANCH   3   4
ENDBRANCH   2   3
ENDBRANCH   1   2
BRANCH   1  11
ATOM     11  C   UNL     1      45.322   9.786  19.794  1.00  0.00     0.000 C 
BRANCH  11  12
ATOM     12  C   UNL     1      44.349   8.730  20.348  1.00  0.00     0.000 C 
BRANCH  12  13
ATOM     13  C   UNL     1      44.126   8.854  21.863  1.00  0.00     0.000 C 
BRANCH  13  14
ATOM     14  C   UNL     1      44.728  10.158  22.402  1.00  0.00     0.000 C 
BRANCH  14  15
ATOM     15  C   UNL     1      45.607   9.891  23.629  1.00  0.00     0.000 C 
BRANCH  15  16
ATOM     16  C   UNL     1      46.208   8.481  23.580  1.00  0.00     0.006 C 
BRANCH  16  17
ATOM     17  C   UNL     1      47.526   8.472  22.802  1.00  0.00     0.053 C 
BRANCH  17  18
ATOM     18  C   UNL     1      47.709   7.166  22.095  1.00  0.00     0.041 C 
ATOM     19  O   UNL     1      48.305   6.215  22.665  1.00  0.00    -0.550 OA
ATOM     20  O   UNL     1      47.265   7.015  20.787  1.00  0.00    -0.550 OA
ENDBRANCH  17  18
ENDBRANCH  16  17
ENDBRANCH  15  16
ENDBRANCH  14  15
ENDBRANCH  13  14
ENDBRANCH  12  13
ENDBRANCH  11  12
ENDBRANCH   1  11
TORSDOF 15
ENDMDL
MODEL 9
REMARK VINA RESULT:    -4.290      1.380      8.485
REMARK INTER + INTRA:          -9.547
REMARK INTER:                  -8.005
REMARK INTRA:                  -1.542
REMARK UNBOUND:                -1.496
REMARK SMILES O=C([O-])CCCCCCCCCCCCCCC(=O)[O-]
REMARK SMILES IDX 10 1 9 2 8 3 7 4 6 5 5 6 4 7 2 8 1 9 3 10 11 11 12 12 13 13
REMARK SMILES IDX 14 14 15 15 16 16 17 17 18 18 19 19 20 20
REMARK H PARENT
REMARK Flexibility Score: inf
ROOT
ATOM      1  C   UNL     1      44.832   8.603  18.950  1.00  0.00     0.000 C 
ENDROOT
BRANCH   1   2
ATOM      2  C   UNL     1      46.096   7.761  18.706  1.00  0.00     0.000 C 
BRANCH   2   3
ATOM      3  C   UNL     1      46.751   7.274  20.012  1.00  0.00     0.000 C 
BRANCH   3   4
ATOM      4  C   UNL     1      46.182   7.895  21.304  1.00  0.00     0.000 C 
BRANCH   4   5
ATOM      5  C   UNL     1      47.191   8.043  22.460  1.00  0.00     0.000 C 
BRANCH   5   6
ATOM      6  C   UNL     1      47.052   9.340  23.282  1.00  0.00     0.006 C 
BRANCH   6   7
ATOM      7  C   UNL     1      45.641   9.949  23.275  1.00  0.00     0.053 C 
BRANCH   7   8
ATOM      8  C   UNL     1      44.755   9.323  24.309  1.00  0.00     0.041 C 
ATOM      9  O   UNL     1      45.248   8.879  25.379  1.00  0.00    -0.550 OA
ATOM     10  O   UNL     1      43.383   9.261  24.106  1.00  0.00    -0.550 OA
ENDBRANCH   7   8
ENDBRANCH   6   7
ENDBRANCH   5   6
ENDBRANCH   4   5
ENDBRANCH   3   4
ENDBRANCH   2   3
ENDBRANCH   1   2
BRANCH   1  11
ATOM     11  C   UNL     1      44.759   9.852  18.050  1.00  0.00     0.000 C 
BRANCH  11  12
ATOM     12  C   UNL     1      45.982  10.079  17.144  1.00  0.00     0.000 C 
BRANCH  12  13
ATOM     13  C   UNL     1      45.628  10.093  15.649  1.00  0.00     0.000 C 
BRANCH  13  14
ATOM     14  C   UNL     1      45.991   8.759  14.986  1.00  0.00     0.000 C 
BRANCH  14  15
ATOM     15  C   UNL     1      44.757   7.859  14.849  1.00  0.00     0.000 C 
BRANCH  15  16
ATOM     16  C   UNL     1      45.025   6.466  15.432  1.00  0.00     0.006 C 
BRANCH  16  17
ATOM     17  C   UNL     1      46.528   6.193  15.536  1.00  0.00     0.053 C 
BRANCH  17  18
ATOM     18  C   UNL     1      46.927   5.094  14.604  1.00  0.00     0.041 C 
ATOM     19  O   UNL     1      46.065   4.537  13.875  1.00  0.00    -0.550 OA
ATOM     20  O   UNL     1      48.244   4.651  14.575  1.00  0.00    -0.550 OA
ENDBRANCH  17  18
ENDBRANCH  16  17
ENDBRANCH  15  16
ENDBRANCH  14  15
ENDBRANCH  13  14
ENDBRANCH  12  13
ENDBRANCH  11  12
ENDBRANCH   1  11
TORSDOF 15
ENDMDL
