MODEL 1
REMARK VINA RESULT:    -3.811      0.000      0.000
REMARK INTER + INTRA:          -4.677
REMARK INTER:                  -4.368
REMARK INTRA:                  -0.309
REMARK UNBOUND:                -0.309
REMARK SMILES COC(=O)c1ccccc1O
REMARK SMILES IDX 5 1 6 2 7 3 8 4 9 5 10 6 3 7 4 8 2 9 1 10 11 11
REMARK H PARENT 11 12
REMARK Flexibility Score: inf
ROOT
ATOM      1  C   UNL     1      37.912 182.161 173.005  1.00  0.00     0.101 A 
ATOM      2  C   UNL     1      37.908 183.374 173.723  1.00  0.00     0.019 A 
ATOM      3  C   UNL     1      39.104 183.948 174.162  1.00  0.00     0.001 A 
ATOM      4  C   UNL     1      40.320 183.323 173.892  1.00  0.00     0.004 A 
ATOM      5  C   UNL     1      40.345 182.122 173.183  1.00  0.00     0.047 A 
ATOM      6  C   UNL     1      39.151 181.535 172.735  1.00  0.00     0.130 A 
ENDROOT
BRANCH   1   7
ATOM      7  C   UNL     1      36.624 181.576 172.551  1.00  0.00     0.341 C 
ATOM      8  O   UNL     1      36.203 180.502 173.067  1.00  0.00    -0.246 OA
BRANCH   7   9
ATOM      9  O   UNL     1      35.871 182.203 171.552  1.00  0.00    -0.465 OA
ATOM     10  C   UNL     1      36.419 182.574 170.293  1.00  0.00     0.282 C 
ENDBRANCH   7   9
ENDBRANCH   1   7
BRANCH   6  11
ATOM     11  O   UNL     1      39.206 180.334 172.029  1.00  0.00    -0.507 OA
ATOM     12  H   UNL     1      38.481 179.631 172.114  1.00  0.00     0.293 HD
ENDBRANCH   6  11
TORSDOF 3
ENDMDL
MODEL 2
REMARK VINA RESULT:    -3.725     21.033     22.186
REMARK INTER + INTRA:          -4.578
REMARK INTER:                  -4.279
REMARK INTRA:                  -0.299
REMARK UNBOUND:                -0.309
REMARK SMILES COC(=O)c1ccccc1O
REMARK SMILES IDX 5 1 6 2 7 3 8 4 9 5 10 6 3 7 4 8 2 9 1 10 11 11
REMARK H PARENT 11 12
REMARK Flexibility Score: inf
ROOT
ATOM      1  C   UNL     1      31.581 166.973 158.235  1.00  0.00     0.101 A 
ATOM      2  C   UNL     1      30.612 167.485 157.347  1.00  0.00     0.019 A 
ATOM      3  C   UNL     1      30.938 167.764 156.018  1.00  0.00     0.001 A 
ATOM      4  C   UNL     1      32.233 167.538 155.553  1.00  0.00     0.004 A 
ATOM      5  C   UNL     1      33.206 167.032 156.416  1.00  0.00     0.047 A 
ATOM      6  C   UNL     1      32.892 166.747 157.754  1.00  0.00     0.130 A 
ENDROOT
BRANCH   1   7
ATOM      7  C   UNL     1      31.203 166.686 159.643  1.00  0.00     0.341 C 
ATOM      8  O   UNL     1      30.382 167.437 160.241  1.00  0.00    -0.246 OA
BRANCH   7   9
ATOM      9  O   UNL     1      31.752 165.589 160.317  1.00  0.00    -0.465 OA
ATOM     10  C   UNL     1      31.749 165.476 161.735  1.00  0.00     0.282 C 
ENDBRANCH   7   9
ENDBRANCH   1   7
BRANCH   6  11
ATOM     11  O   UNL     1      33.884 166.243 158.594  1.00  0.00    -0.507 OA
ATOM     12  H   UNL     1      34.439 166.848 159.188  1.00  0.00     0.293 HD
ENDBRANCH   6  11
TORSDOF 3
ENDMDL
MODEL 3
REMARK VINA RESULT:    -3.703     22.205     22.850
REMARK INTER + INTRA:          -4.553
REMARK INTER:                  -4.279
REMARK INTRA:                  -0.275
REMARK UNBOUND:                -0.309
REMARK SMILES COC(=O)c1ccccc1O
REMARK SMILES IDX 5 1 6 2 7 3 8 4 9 5 10 6 3 7 4 8 2 9 1 10 11 11
REMARK H PARENT 11 12
REMARK Flexibility Score: inf
ROOT
ATOM      1  C   UNL     1      31.186 167.580 156.537  1.00  0.00     0.101 A 
ATOM      2  C   UNL     1      32.490 167.504 156.007  1.00  0.00     0.019 A 
ATOM      3  C   UNL     1      33.527 166.923 156.741  1.00  0.00     0.001 A 
ATOM      4  C   UNL     1      33.280 166.410 158.014  1.00  0.00     0.004 A 
ATOM      5  C   UNL     1      31.996 166.475 158.556  1.00  0.00     0.047 A 
ATOM      6  C   UNL     1      30.945 167.056 157.828  1.00  0.00     0.130 A 
ENDROOT
BRANCH   1   7
ATOM      7  C   UNL     1      30.104 168.204 155.731  1.00  0.00     0.341 C 
ATOM      8  O   UNL     1      28.973 167.646 155.656  1.00  0.00    -0.246 OA
BRANCH   7   9
ATOM      9  O   UNL     1      30.327 169.406 155.050  1.00  0.00    -0.465 OA
ATOM     10  C   UNL     1      29.321 170.398 154.890  1.00  0.00     0.282 C 
ENDBRANCH   7   9
ENDBRANCH   1   7
BRANCH   6  11
ATOM     11  O   UNL     1      29.672 167.108 158.395  1.00  0.00    -0.507 OA
ATOM     12  H   UNL     1      29.432 166.569 159.218  1.00  0.00     0.293 HD
ENDBRANCH   6  11
TORSDOF 3
ENDMDL
MODEL 4
REMARK VINA RESULT:    -3.660      3.610      5.939
REMARK INTER + INTRA:          -4.503
REMARK INTER:                  -4.225
REMARK INTRA:                  -0.278
REMARK UNBOUND:                -0.309
REMARK SMILES COC(=O)c1ccccc1O
REMARK SMILES IDX 5 1 6 2 7 3 8 4 9 5 10 6 3 7 4 8 2 9 1 10 11 11
REMARK H PARENT 11 12
REMARK Flexibility Score: inf
ROOT
ATOM      1  C   UNL     1      34.127 179.984 172.206  1.00  0.00     0.101 A 
ATOM      2  C   UNL     1      34.488 179.000 173.148  1.00  0.00     0.019 A 
ATOM      3  C   UNL     1      33.776 177.801 173.236  1.00  0.00     0.001 A 
ATOM      4  C   UNL     1      32.695 177.565 172.387  1.00  0.00     0.004 A 
ATOM      5  C   UNL     1      32.323 178.527 171.447  1.00  0.00     0.047 A 
ATOM      6  C   UNL     1      33.030 179.735 171.348  1.00  0.00     0.130 A 
ENDROOT
BRANCH   1   7
ATOM      7  C   UNL     1      34.903 181.249 172.136  1.00  0.00     0.341 C 
ATOM      8  O   UNL     1      35.092 181.932 173.182  1.00  0.00    -0.246 OA
BRANCH   7   9
ATOM      9  O   UNL     1      35.428 181.695 170.918  1.00  0.00    -0.465 OA
ATOM     10  C   UNL     1      36.481 182.648 170.836  1.00  0.00     0.282 C 
ENDBRANCH   7   9
ENDBRANCH   1   7
BRANCH   6  11
ATOM     11  O   UNL     1      32.635 180.679 170.400  1.00  0.00    -0.507 OA
ATOM     12  H   UNL     1      32.646 181.673 170.599  1.00  0.00     0.293 HD
ENDBRANCH   6  11
TORSDOF 3
ENDMDL
MODEL 5
REMARK VINA RESULT:    -3.653     20.846     21.989
REMARK INTER + INTRA:          -4.496
REMARK INTER:                  -4.174
REMARK INTRA:                  -0.322
REMARK UNBOUND:                -0.309
REMARK SMILES COC(=O)c1ccccc1O
REMARK SMILES IDX 5 1 6 2 7 3 8 4 9 5 10 6 3 7 4 8 2 9 1 10 11 11
REMARK H PARENT 11 12
REMARK Flexibility Score: inf
ROOT
ATOM      1  C   UNL     1      31.384 166.865 158.508  1.00  0.00     0.101 A 
ATOM      2  C   UNL     1      31.399 167.560 157.281  1.00  0.00     0.019 A 
ATOM      3  C   UNL     1      32.514 167.503 156.442  1.00  0.00     0.001 A 
ATOM      4  C   UNL     1      33.630 166.752 156.811  1.00  0.00     0.004 A 
ATOM      5  C   UNL     1      33.634 166.057 158.020  1.00  0.00     0.047 A 
ATOM      6  C   UNL     1      32.521 166.105 158.873  1.00  0.00     0.130 A 
ENDROOT
BRANCH   1   7
ATOM      7  C   UNL     1      30.183 166.944 159.379  1.00  0.00     0.341 C 
ATOM      8  O   UNL     1      29.047 166.646 158.915  1.00  0.00    -0.246 OA
BRANCH   7   9
ATOM      9  O   UNL     1      30.299 167.350 160.714  1.00  0.00    -0.465 OA
ATOM     10  C   UNL     1      29.681 166.651 161.787  1.00  0.00     0.282 C 
ENDBRANCH   7   9
ENDBRANCH   1   7
BRANCH   6  11
ATOM     11  O   UNL     1      32.553 165.401 160.076  1.00  0.00    -0.507 OA
ATOM     12  H   UNL     1      32.862 165.833 160.939  1.00  0.00     0.293 HD
ENDBRANCH   6  11
TORSDOF 3
ENDMDL
MODEL 6
REMARK VINA RESULT:    -3.601      1.882      2.497
REMARK INTER + INTRA:          -4.436
REMARK INTER:                  -4.181
REMARK INTRA:                  -0.255
REMARK UNBOUND:                -0.309
REMARK SMILES COC(=O)c1ccccc1O
REMARK SMILES IDX 5 1 6 2 7 3 8 4 9 5 10 6 3 7 4 8 2 9 1 10 11 11
REMARK H PARENT 11 12
REMARK Flexibility Score: inf
ROOT
ATOM      1  C   UNL     1      38.458 182.428 173.351  1.00  0.00     0.101 A 
ATOM      2  C   UNL     1      38.672 181.035 173.295  1.00  0.00     0.019 A 
ATOM      3  C   UNL     1      39.866 180.477 173.758  1.00  0.00     0.001 A 
ATOM      4  C   UNL     1      40.863 181.296 174.285  1.00  0.00     0.004 A 
ATOM      5  C   UNL     1      40.671 182.677 174.349  1.00  0.00     0.047 A 
ATOM      6  C   UNL     1      39.477 183.251 173.888  1.00  0.00     0.130 A 
ENDROOT
BRANCH   1   7
ATOM      7  C   UNL     1      37.178 182.992 172.850  1.00  0.00     0.341 C 
ATOM      8  O   UNL     1      36.754 184.091 173.305  1.00  0.00    -0.246 OA
BRANCH   7   9
ATOM      9  O   UNL     1      36.435 182.315 171.877  1.00  0.00    -0.465 OA
ATOM     10  C   UNL     1      36.484 182.653 170.497  1.00  0.00     0.282 C 
ENDBRANCH   7   9
ENDBRANCH   1   7
BRANCH   6  11
ATOM     11  O   UNL     1      39.311 184.633 173.964  1.00  0.00    -0.507 OA
ATOM     12  H   UNL     1      39.758 185.185 174.687  1.00  0.00     0.293 HD
ENDBRANCH   6  11
TORSDOF 3
ENDMDL
MODEL 7
REMARK VINA RESULT:    -3.579     20.942     22.341
REMARK INTER + INTRA:          -4.411
REMARK INTER:                  -4.133
REMARK INTRA:                  -0.278
REMARK UNBOUND:                -0.309
REMARK SMILES COC(=O)c1ccccc1O
REMARK SMILES IDX 5 1 6 2 7 3 8 4 9 5 10 6 3 7 4 8 2 9 1 10 11 11
REMARK H PARENT 11 12
REMARK Flexibility Score: inf
ROOT
ATOM      1  C   UNL     1      31.559 166.956 158.282  1.00  0.00     0.101 A 
ATOM      2  C   UNL     1      32.908 166.927 157.872  1.00  0.00     0.019 A 
ATOM      3  C   UNL     1      33.252 167.137 156.534  1.00  0.00     0.001 A 
ATOM      4  C   UNL     1      32.259 167.377 155.586  1.00  0.00     0.004 A 
ATOM      5  C   UNL     1      30.918 167.409 155.971  1.00  0.00     0.047 A 
ATOM      6  C   UNL     1      30.558 167.201 157.312  1.00  0.00     0.130 A 
ENDROOT
BRANCH   1   7
ATOM      7  C   UNL     1      31.224 166.730 159.711  1.00  0.00     0.341 C 
ATOM      8  O   UNL     1      30.385 167.478 160.288  1.00  0.00    -0.246 OA
BRANCH   7   9
ATOM      9  O   UNL     1      31.832 165.694 160.429  1.00  0.00    -0.465 OA
ATOM     10  C   UNL     1      31.703 165.555 161.839  1.00  0.00     0.282 C 
ENDBRANCH   7   9
ENDBRANCH   1   7
BRANCH   6  11
ATOM     11  O   UNL     1      29.211 167.238 157.669  1.00  0.00    -0.507 OA
ATOM     12  H   UNL     1      28.545 166.564 157.309  1.00  0.00     0.293 HD
ENDBRANCH   6  11
TORSDOF 3
ENDMDL
MODEL 8
REMARK VINA RESULT:    -3.578      2.457      4.116
REMARK INTER + INTRA:          -4.410
REMARK INTER:                  -4.091
REMARK INTRA:                  -0.319
REMARK UNBOUND:                -0.309
REMARK SMILES COC(=O)c1ccccc1O
REMARK SMILES IDX 5 1 6 2 7 3 8 4 9 5 10 6 3 7 4 8 2 9 1 10 11 11
REMARK H PARENT 11 12
REMARK Flexibility Score: inf
ROOT
ATOM      1  C   UNL     1      39.411 181.303 173.540  1.00  0.00     0.101 A 
ATOM      2  C   UNL     1      38.185 181.178 172.855  1.00  0.00     0.019 A 
ATOM      3  C   UNL     1      37.294 182.252 172.784  1.00  0.00     0.001 A 
ATOM      4  C   UNL     1      37.611 183.465 173.393  1.00  0.00     0.004 A 
ATOM      5  C   UNL     1      38.820 183.609 174.076  1.00  0.00     0.047 A 
ATOM      6  C   UNL     1      39.724 182.539 174.155  1.00  0.00     0.130 A 
ENDROOT
BRANCH   1   7
ATOM      7  C   UNL     1      40.338 180.143 173.599  1.00  0.00     0.341 C 
ATOM      8  O   UNL     1      39.895 178.996 173.887  1.00  0.00    -0.246 OA
BRANCH   7   9
ATOM      9  O   UNL     1      41.703 180.310 173.338  1.00  0.00    -0.465 OA
ATOM     10  C   UNL     1      42.705 179.498 173.937  1.00  0.00     0.282 C 
ENDBRANCH   7   9
ENDBRANCH   1   7
BRANCH   6  11
ATOM     11  O   UNL     1      40.923 182.710 174.844  1.00  0.00    -0.507 OA
ATOM     12  H   UNL     1      41.819 182.499 174.419  1.00  0.00     0.293 HD
ENDBRANCH   6  11
TORSDOF 3
ENDMDL
MODEL 9
REMARK VINA RESULT:    -3.519      2.030      3.985
REMARK INTER + INTRA:          -4.342
REMARK INTER:                  -4.054
REMARK INTRA:                  -0.289
REMARK UNBOUND:                -0.309
REMARK SMILES COC(=O)c1ccccc1O
REMARK SMILES IDX 5 1 6 2 7 3 8 4 9 5 10 6 3 7 4 8 2 9 1 10 11 11
REMARK H PARENT 11 12
REMARK Flexibility Score: inf
ROOT
ATOM      1  C   UNL     1      38.874 181.568 173.463  1.00  0.00     0.101 A 
ATOM      2  C   UNL     1      38.038 181.988 174.518  1.00  0.00     0.019 A 
ATOM      3  C   UNL     1      36.692 182.282 174.288  1.00  0.00     0.001 A 
ATOM      4  C   UNL     1      36.159 182.161 173.005  1.00  0.00     0.004 A 
ATOM      5  C   UNL     1      36.969 181.746 171.949  1.00  0.00     0.047 A 
ATOM      6  C   UNL     1      38.323 181.447 172.165  1.00  0.00     0.130 A 
ENDROOT
BRANCH   1   7
ATOM      7  C   UNL     1      40.302 181.263 173.739  1.00  0.00     0.341 C 
ATOM      8  O   UNL     1      40.989 182.050 174.448  1.00  0.00    -0.246 OA
BRANCH   7   9
ATOM      9  O   UNL     1      40.896 180.108 173.217  1.00  0.00    -0.465 OA
ATOM     10  C   UNL     1      42.221 179.708 173.545  1.00  0.00     0.282 C 
ENDBRANCH   7   9
ENDBRANCH   1   7
BRANCH   6  11
ATOM     11  O   UNL     1      39.110 181.035 171.091  1.00  0.00    -0.507 OA
ATOM     12  H   UNL     1      39.634 180.168 171.114  1.00  0.00     0.293 HD
ENDBRANCH   6  11
TORSDOF 3
ENDMDL
