MODEL 1
REMARK VINA RESULT:    -5.056      0.000      0.000
REMARK INTER + INTRA:         -18.224
REMARK INTER:                 -13.331
REMARK INTRA:                  -4.894
REMARK UNBOUND:                -4.894
REMARK SMILES CCCCCCCCCCCCCCCCCCCCCCCCCCCCCC(=O)[O-]
REMARK SMILES IDX 16 1 17 2 18 3 19 4 20 5 21 6 22 7 23 8 24 9 25 10 26 11
REMARK SMILES IDX 27 12 28 13 29 14 30 15 31 16 32 17 15 18 14 19 13 20 12 21
REMARK SMILES IDX 11 22 10 23 9 24 8 25 7 26 6 27 5 28 4 29 3 30 2 31 1 32
REMARK H PARENT
REMARK Flexibility Score: inf
ROOT
ATOM      1  C   UNL     1    -105.865 -87.154  34.989  1.00  0.00     0.000 C 
ENDROOT
BRANCH   1   2
ATOM      2  C   UNL     1    -105.184 -87.606  36.296  1.00  0.00     0.000 C 
BRANCH   2   3
ATOM      3  C   UNL     1    -104.920 -86.468  37.301  1.00  0.00     0.000 C 
BRANCH   3   4
ATOM      4  C   UNL     1    -103.968 -86.809  38.464  1.00  0.00     0.000 C 
BRANCH   4   5
ATOM      5  C   UNL     1    -104.020 -85.850  39.669  1.00  0.00     0.000 C 
BRANCH   5   6
ATOM      6  C   UNL     1    -105.245 -84.923  39.651  1.00  0.00     0.000 C 
BRANCH   6   7
ATOM      7  C   UNL     1    -104.865 -83.438  39.521  1.00  0.00     0.000 C 
BRANCH   7   8
ATOM      8  C   UNL     1    -103.424 -83.201  39.026  1.00  0.00     0.000 C 
BRANCH   8   9
ATOM      9  C   UNL     1    -102.559 -82.476  40.073  1.00  0.00     0.000 C 
BRANCH   9  10
ATOM     10  C   UNL     1    -103.323 -81.347  40.784  1.00  0.00     0.000 C 
BRANCH  10  11
ATOM     11  C   UNL     1    -103.410 -80.071  39.930  1.00  0.00     0.000 C 
BRANCH  11  12
ATOM     12  C   UNL     1    -104.742 -79.326  40.112  1.00  0.00     0.000 C 
BRANCH  12  13
ATOM     13  C   UNL     1    -105.422 -79.002  38.771  1.00  0.00     0.006 C 
BRANCH  13  14
ATOM     14  C   UNL     1    -105.972 -80.274  38.116  1.00  0.00     0.053 C 
BRANCH  14  15
ATOM     15  C   UNL     1    -106.925 -79.947  37.004  1.00  0.00     0.041 C 
ATOM     16  O   UNL     1    -108.094 -79.559  37.264  1.00  0.00    -0.550 OA
ATOM     17  O   UNL     1    -106.528 -80.099  35.680  1.00  0.00    -0.550 OA
ENDBRANCH  14  15
ENDBRANCH  13  14
ENDBRANCH  12  13
ENDBRANCH  11  12
ENDBRANCH  10  11
ENDBRANCH   9  10
ENDBRANCH   8   9
ENDBRANCH   7   8
ENDBRANCH   6   7
ENDBRANCH   5   6
ENDBRANCH   4   5
ENDBRANCH   3   4
ENDBRANCH   2   3
ENDBRANCH   1   2
BRANCH   1  18
ATOM     18  C   UNL     1    -105.116 -86.012  34.285  1.00  0.00     0.000 C 
BRANCH  18  19
ATOM     19  C   UNL     1    -106.041 -84.805  34.075  1.00  0.00     0.000 C 
BRANCH  19  20
ATOM     20  C   UNL     1    -105.314 -83.459  34.249  1.00  0.00     0.000 C 
BRANCH  20  21
ATOM     21  C   UNL     1    -104.554 -83.290  35.582  1.00  0.00     0.000 C 
BRANCH  21  22
ATOM     22  C   UNL     1    -103.044 -83.013  35.448  1.00  0.00     0.000 C 
BRANCH  22  23
ATOM     23  C   UNL     1    -102.194 -84.292  35.496  1.00  0.00     0.000 C 
BRANCH  23  24
ATOM     24  C   UNL     1    -101.436 -84.500  34.175  1.00  0.00    -0.000 C 
BRANCH  24  25
ATOM     25  C   UNL     1    -101.631 -83.329  33.197  1.00  0.00    -0.000 C 
BRANCH  25  26
ATOM     26  C   UNL     1    -101.744 -83.794  31.736  1.00  0.00    -0.000 C 
BRANCH  26  27
ATOM     27  C   UNL     1    -102.999 -84.660  31.539  1.00  0.00    -0.000 C 
BRANCH  27  28
ATOM     28  C   UNL     1    -103.867 -84.194  30.359  1.00  0.00    -0.000 C 
BRANCH  28  29
ATOM     29  C   UNL     1    -104.710 -82.951  30.696  1.00  0.00    -0.000 C 
BRANCH  29  30
ATOM     30  C   UNL     1    -106.171 -83.077  30.229  1.00  0.00    -0.000 C 
BRANCH  30  31
ATOM     31  C   UNL     1    -107.210 -82.490  31.199  1.00  0.00    -0.003 C 
ATOM     32  C   UNL     1    -108.341 -83.466  31.528  1.00  0.00     0.004 C 
ENDBRANCH  30  31
ENDBRANCH  29  30
ENDBRANCH  28  29
ENDBRANCH  27  28
ENDBRANCH  26  27
ENDBRANCH  25  26
ENDBRANCH  24  25
ENDBRANCH  23  24
ENDBRANCH  22  23
ENDBRANCH  21  22
ENDBRANCH  20  21
ENDBRANCH  19  20
ENDBRANCH  18  19
ENDBRANCH   1  18
TORSDOF 28
ENDMDL
MODEL 2
REMARK VINA RESULT:    -4.974      2.499      7.367
REMARK INTER + INTRA:         -18.009
REMARK INTER:                 -12.052
REMARK INTRA:                  -5.957
REMARK UNBOUND:                -4.894
REMARK SMILES CCCCCCCCCCCCCCCCCCCCCCCCCCCCCC(=O)[O-]
REMARK SMILES IDX 16 1 17 2 18 3 19 4 20 5 21 6 22 7 23 8 24 9 25 10 26 11
REMARK SMILES IDX 27 12 28 13 29 14 30 15 31 16 32 17 15 18 14 19 13 20 12 21
REMARK SMILES IDX 11 22 10 23 9 24 8 25 7 26 6 27 5 28 4 29 3 30 2 31 1 32
REMARK H PARENT
REMARK Flexibility Score: inf
ROOT
ATOM      1  C   UNL     1    -102.118 -84.465  35.652  1.00  0.00     0.000 C 
ENDROOT
BRANCH   1   2
ATOM      2  C   UNL     1    -101.526 -84.530  34.230  1.00  0.00     0.000 C 
BRANCH   2   3
ATOM      3  C   UNL     1    -101.640 -83.214  33.435  1.00  0.00     0.000 C 
BRANCH   3   4
ATOM      4  C   UNL     1    -102.418 -83.299  32.107  1.00  0.00     0.000 C 
BRANCH   4   5
ATOM      5  C   UNL     1    -103.258 -82.059  31.749  1.00  0.00     0.000 C 
BRANCH   5   6
ATOM      6  C   UNL     1    -103.378 -81.055  32.905  1.00  0.00     0.000 C 
BRANCH   6   7
ATOM      7  C   UNL     1    -104.758 -80.376  32.963  1.00  0.00     0.000 C 
BRANCH   7   8
ATOM      8  C   UNL     1    -105.280 -80.142  34.396  1.00  0.00     0.000 C 
BRANCH   8   9
ATOM      9  C   UNL     1    -106.748 -80.575  34.558  1.00  0.00     0.000 C 
BRANCH   9  10
ATOM     10  C   UNL     1    -107.443 -80.812  33.208  1.00  0.00     0.000 C 
BRANCH  10  11
ATOM     11  C   UNL     1    -108.084 -82.207  33.116  1.00  0.00     0.000 C 
BRANCH  11  12
ATOM     12  C   UNL     1    -108.094 -82.761  31.682  1.00  0.00     0.000 C 
BRANCH  12  13
ATOM     13  C   UNL     1    -106.676 -83.016  31.142  1.00  0.00     0.006 C 
BRANCH  13  14
ATOM     14  C   UNL     1    -106.444 -82.253  29.833  1.00  0.00     0.053 C 
BRANCH  14  15
ATOM     15  C   UNL     1    -105.632 -83.063  28.866  1.00  0.00     0.041 C 
ATOM     16  O   UNL     1    -105.128 -84.160  29.224  1.00  0.00    -0.550 OA
ATOM     17  O   UNL     1    -105.408 -82.590  27.578  1.00  0.00    -0.550 OA
ENDBRANCH  14  15
ENDBRANCH  13  14
ENDBRANCH  12  13
ENDBRANCH  11  12
ENDBRANCH  10  11
ENDBRANCH   9  10
ENDBRANCH   8   9
ENDBRANCH   7   8
ENDBRANCH   6   7
ENDBRANCH   5   6
ENDBRANCH   4   5
ENDBRANCH   3   4
ENDBRANCH   2   3
ENDBRANCH   1   2
BRANCH   1  18
ATOM     18  C   UNL     1    -103.017 -83.239  35.874  1.00  0.00     0.000 C 
BRANCH  18  19
ATOM     19  C   UNL     1    -104.496 -83.649  35.900  1.00  0.00     0.000 C 
BRANCH  19  20
ATOM     20  C   UNL     1    -105.109 -83.764  34.492  1.00  0.00     0.000 C 
BRANCH  20  21
ATOM     21  C   UNL     1    -105.834 -85.094  34.199  1.00  0.00     0.000 C 
BRANCH  21  22
ATOM     22  C   UNL     1    -105.037 -86.368  34.540  1.00  0.00     0.000 C 
BRANCH  22  23
ATOM     23  C   UNL     1    -105.817 -87.339  35.440  1.00  0.00     0.000 C 
BRANCH  23  24
ATOM     24  C   UNL     1    -104.979 -87.751  36.662  1.00  0.00    -0.000 C 
BRANCH  24  25
ATOM     25  C   UNL     1    -104.933 -86.653  37.738  1.00  0.00    -0.000 C 
BRANCH  25  26
ATOM     26  C   UNL     1    -103.653 -86.712  38.586  1.00  0.00    -0.000 C 
BRANCH  26  27
ATOM     27  C   UNL     1    -103.762 -85.772  39.797  1.00  0.00    -0.000 C 
BRANCH  27  28
ATOM     28  C   UNL     1    -103.973 -84.303  39.395  1.00  0.00    -0.000 C 
BRANCH  28  29
ATOM     29  C   UNL     1    -102.788 -83.403  39.791  1.00  0.00    -0.000 C 
BRANCH  29  30
ATOM     30  C   UNL     1    -103.173 -81.916  39.879  1.00  0.00    -0.000 C 
BRANCH  30  31
ATOM     31  C   UNL     1    -104.651 -81.614  39.583  1.00  0.00    -0.003 C 
ATOM     32  C   UNL     1    -104.862 -80.902  38.246  1.00  0.00     0.004 C 
ENDBRANCH  30  31
ENDBRANCH  29  30
ENDBRANCH  28  29
ENDBRANCH  27  28
ENDBRANCH  26  27
ENDBRANCH  25  26
ENDBRANCH  24  25
ENDBRANCH  23  24
ENDBRANCH  22  23
ENDBRANCH  21  22
ENDBRANCH  20  21
ENDBRANCH  19  20
ENDBRANCH  18  19
ENDBRANCH   1  18
TORSDOF 28
ENDMDL
MODEL 3
REMARK VINA RESULT:    -4.964      2.200      5.978
REMARK INTER + INTRA:         -17.983
REMARK INTER:                 -12.472
REMARK INTRA:                  -5.511
REMARK UNBOUND:                -4.894
REMARK SMILES CCCCCCCCCCCCCCCCCCCCCCCCCCCCCC(=O)[O-]
REMARK SMILES IDX 16 1 17 2 18 3 19 4 20 5 21 6 22 7 23 8 24 9 25 10 26 11
REMARK SMILES IDX 27 12 28 13 29 14 30 15 31 16 32 17 15 18 14 19 13 20 12 21
REMARK SMILES IDX 11 22 10 23 9 24 8 25 7 26 6 27 5 28 4 29 3 30 2 31 1 32
REMARK H PARENT
REMARK Flexibility Score: inf
ROOT
ATOM      1  C   UNL     1    -105.026 -85.070  39.556  1.00  0.00     0.000 C 
ENDROOT
BRANCH   1   2
ATOM      2  C   UNL     1    -103.734 -85.896  39.719  1.00  0.00     0.000 C 
BRANCH   2   3
ATOM      3  C   UNL     1    -103.563 -87.019  38.677  1.00  0.00     0.000 C 
BRANCH   3   4
ATOM      4  C   UNL     1    -104.857 -87.493  37.986  1.00  0.00     0.000 C 
BRANCH   4   5
ATOM      5  C   UNL     1    -104.753 -87.723  36.466  1.00  0.00     0.000 C 
BRANCH   5   6
ATOM      6  C   UNL     1    -105.648 -86.778  35.650  1.00  0.00     0.000 C 
BRANCH   6   7
ATOM      7  C   UNL     1    -104.850 -85.680  34.926  1.00  0.00     0.000 C 
BRANCH   7   8
ATOM      8  C   UNL     1    -104.503 -84.469  35.816  1.00  0.00     0.000 C 
BRANCH   8   9
ATOM      9  C   UNL     1    -102.994 -84.162  35.820  1.00  0.00     0.000 C 
BRANCH   9  10
ATOM     10  C   UNL     1    -102.283 -84.698  34.567  1.00  0.00     0.000 C 
BRANCH  10  11
ATOM     11  C   UNL     1    -102.436 -83.756  33.360  1.00  0.00     0.000 C 
BRANCH  11  12
ATOM     12  C   UNL     1    -103.138 -84.430  32.169  1.00  0.00     0.000 C 
BRANCH  12  13
ATOM     13  C   UNL     1    -103.229 -83.506  30.943  1.00  0.00     0.006 C 
BRANCH  13  14
ATOM     14  C   UNL     1    -104.215 -84.063  29.910  1.00  0.00     0.053 C 
BRANCH  14  15
ATOM     15  C   UNL     1    -105.225 -83.030  29.509  1.00  0.00     0.041 C 
ATOM     16  O   UNL     1    -106.455 -83.248  29.671  1.00  0.00    -0.550 OA
ATOM     17  O   UNL     1    -104.809 -81.836  28.929  1.00  0.00    -0.550 OA
ENDBRANCH  14  15
ENDBRANCH  13  14
ENDBRANCH  12  13
ENDBRANCH  11  12
ENDBRANCH  10  11
ENDBRANCH   9  10
ENDBRANCH   8   9
ENDBRANCH   7   8
ENDBRANCH   6   7
ENDBRANCH   5   6
ENDBRANCH   4   5
ENDBRANCH   3   4
ENDBRANCH   2   3
ENDBRANCH   1   2
BRANCH   1  18
ATOM     18  C   UNL     1    -104.762 -83.564  39.413  1.00  0.00     0.000 C 
BRANCH  18  19
ATOM     19  C   UNL     1    -103.255 -83.284  39.312  1.00  0.00     0.000 C 
BRANCH  19  20
ATOM     20  C   UNL     1    -102.825 -82.038  40.107  1.00  0.00     0.000 C 
BRANCH  20  21
ATOM     21  C   UNL     1    -103.975 -81.102  40.534  1.00  0.00     0.000 C 
BRANCH  21  22
ATOM     22  C   UNL     1    -103.752 -79.606  40.238  1.00  0.00     0.000 C 
BRANCH  22  23
ATOM     23  C   UNL     1    -104.429 -79.146  38.937  1.00  0.00     0.000 C 
BRANCH  23  24
ATOM     24  C   UNL     1    -105.516 -80.143  38.499  1.00  0.00    -0.000 C 
BRANCH  24  25
ATOM     25  C   UNL     1    -105.212 -80.777  37.132  1.00  0.00    -0.000 C 
BRANCH  25  26
ATOM     26  C   UNL     1    -103.821 -80.397  36.601  1.00  0.00    -0.000 C 
BRANCH  26  27
ATOM     27  C   UNL     1    -103.767 -80.541  35.071  1.00  0.00    -0.000 C 
BRANCH  27  28
ATOM     28  C   UNL     1    -105.162 -80.606  34.429  1.00  0.00    -0.000 C 
BRANCH  28  29
ATOM     29  C   UNL     1    -105.297 -81.758  33.417  1.00  0.00    -0.000 C 
BRANCH  29  30
ATOM     30  C   UNL     1    -106.762 -82.128  33.126  1.00  0.00    -0.000 C 
BRANCH  30  31
ATOM     31  C   UNL     1    -107.050 -83.638  33.086  1.00  0.00    -0.003 C 
ATOM     32  C   UNL     1    -108.478 -83.964  32.646  1.00  0.00     0.004 C 
ENDBRANCH  30  31
ENDBRANCH  29  30
ENDBRANCH  28  29
ENDBRANCH  27  28
ENDBRANCH  26  27
ENDBRANCH  25  26
ENDBRANCH  24  25
ENDBRANCH  23  24
ENDBRANCH  22  23
ENDBRANCH  21  22
ENDBRANCH  20  21
ENDBRANCH  19  20
ENDBRANCH  18  19
ENDBRANCH   1  18
TORSDOF 28
ENDMDL
MODEL 4
REMARK VINA RESULT:    -4.937      2.272      6.552
REMARK INTER + INTRA:         -17.911
REMARK INTER:                 -12.201
REMARK INTRA:                  -5.710
REMARK UNBOUND:                -4.894
REMARK SMILES CCCCCCCCCCCCCCCCCCCCCCCCCCCCCC(=O)[O-]
REMARK SMILES IDX 16 1 17 2 18 3 19 4 20 5 21 6 22 7 23 8 24 9 25 10 26 11
REMARK SMILES IDX 27 12 28 13 29 14 30 15 31 16 32 17 15 18 14 19 13 20 12 21
REMARK SMILES IDX 11 22 10 23 9 24 8 25 7 26 6 27 5 28 4 29 3 30 2 31 1 32
REMARK H PARENT
REMARK Flexibility Score: inf
ROOT
ATOM      1  C   UNL     1    -105.119 -87.188  37.665  1.00  0.00     0.000 C 
ENDROOT
BRANCH   1   2
ATOM      2  C   UNL     1    -105.000 -87.549  36.170  1.00  0.00     0.000 C 
BRANCH   2   3
ATOM      3  C   UNL     1    -104.636 -86.361  35.258  1.00  0.00     0.000 C 
BRANCH   3   4
ATOM      4  C   UNL     1    -105.060 -84.970  35.770  1.00  0.00     0.000 C 
BRANCH   4   5
ATOM      5  C   UNL     1    -103.928 -83.930  35.882  1.00  0.00     0.000 C 
BRANCH   5   6
ATOM      6  C   UNL     1    -102.527 -84.560  35.887  1.00  0.00     0.000 C 
BRANCH   6   7
ATOM      7  C   UNL     1    -101.788 -84.377  34.550  1.00  0.00     0.000 C 
BRANCH   7   8
ATOM      8  C   UNL     1    -102.535 -83.484  33.539  1.00  0.00     0.000 C 
BRANCH   8   9
ATOM      9  C   UNL     1    -102.858 -84.228  32.231  1.00  0.00     0.000 C 
BRANCH   9  10
ATOM     10  C   UNL     1    -104.369 -84.318  31.964  1.00  0.00     0.000 C 
BRANCH  10  11
ATOM     11  C   UNL     1    -105.105 -83.015  32.320  1.00  0.00     0.000 C 
BRANCH  11  12
ATOM     12  C   UNL     1    -106.459 -83.267  33.004  1.00  0.00     0.000 C 
BRANCH  12  13
ATOM     13  C   UNL     1    -107.635 -82.665  32.217  1.00  0.00     0.006 C 
BRANCH  13  14
ATOM     14  C   UNL     1    -108.324 -83.732  31.361  1.00  0.00     0.053 C 
BRANCH  14  15
ATOM     15  C   UNL     1    -108.274 -83.379  29.904  1.00  0.00     0.041 C 
ATOM     16  O   UNL     1    -109.326 -83.388  29.211  1.00  0.00    -0.550 OA
ATOM     17  O   UNL     1    -107.059 -83.066  29.304  1.00  0.00    -0.550 OA
ENDBRANCH  14  15
ENDBRANCH  13  14
ENDBRANCH  12  13
ENDBRANCH  11  12
ENDBRANCH  10  11
ENDBRANCH   9  10
ENDBRANCH   8   9
ENDBRANCH   7   8
ENDBRANCH   6   7
ENDBRANCH   5   6
ENDBRANCH   4   5
ENDBRANCH   3   4
ENDBRANCH   2   3
ENDBRANCH   1   2
BRANCH   1  18
ATOM     18  C   UNL     1    -103.766 -87.183  38.392  1.00  0.00     0.000 C 
BRANCH  18  19
ATOM     19  C   UNL     1    -103.752 -86.125  39.504  1.00  0.00     0.000 C 
BRANCH  19  20
ATOM     20  C   UNL     1    -105.020 -85.252  39.515  1.00  0.00     0.000 C 
BRANCH  20  21
ATOM     21  C   UNL     1    -104.769 -83.730  39.549  1.00  0.00     0.000 C 
BRANCH  21  22
ATOM     22  C   UNL     1    -103.288 -83.306  39.521  1.00  0.00     0.000 C 
BRANCH  22  23
ATOM     23  C   UNL     1    -103.057 -81.901  40.098  1.00  0.00     0.000 C 
BRANCH  23  24
ATOM     24  C   UNL     1    -102.885 -80.864  38.975  1.00  0.00    -0.000 C 
BRANCH  24  25
ATOM     25  C   UNL     1    -103.666 -79.569  39.250  1.00  0.00    -0.000 C 
BRANCH  25  26
ATOM     26  C   UNL     1    -105.144 -79.829  39.583  1.00  0.00    -0.000 C 
BRANCH  26  27
ATOM     27  C   UNL     1    -105.881 -80.402  38.361  1.00  0.00    -0.000 C 
BRANCH  27  28
ATOM     28  C   UNL     1    -105.942 -79.415  37.185  1.00  0.00    -0.000 C 
BRANCH  28  29
ATOM     29  C   UNL     1    -106.382 -80.084  35.870  1.00  0.00    -0.000 C 
BRANCH  29  30
ATOM     30  C   UNL     1    -105.199 -80.642  35.060  1.00  0.00    -0.000 C 
BRANCH  30  31
ATOM     31  C   UNL     1    -104.003 -79.685  34.923  1.00  0.00    -0.003 C 
ATOM     32  C   UNL     1    -102.691 -80.290  35.424  1.00  0.00     0.004 C 
ENDBRANCH  30  31
ENDBRANCH  29  30
ENDBRANCH  28  29
ENDBRANCH  27  28
ENDBRANCH  26  27
ENDBRANCH  25  26
ENDBRANCH  24  25
ENDBRANCH  23  24
ENDBRANCH  22  23
ENDBRANCH  21  22
ENDBRANCH  20  21
ENDBRANCH  19  20
ENDBRANCH  18  19
ENDBRANCH   1  18
TORSDOF 28
ENDMDL
MODEL 5
REMARK VINA RESULT:    -4.909      1.536      4.628
REMARK INTER + INTRA:         -17.839
REMARK INTER:                 -12.556
REMARK INTRA:                  -5.283
REMARK UNBOUND:                -4.894
REMARK SMILES CCCCCCCCCCCCCCCCCCCCCCCCCCCCCC(=O)[O-]
REMARK SMILES IDX 16 1 17 2 18 3 19 4 20 5 21 6 22 7 23 8 24 9 25 10 26 11
REMARK SMILES IDX 27 12 28 13 29 14 30 15 31 16 32 17 15 18 14 19 13 20 12 21
REMARK SMILES IDX 11 22 10 23 9 24 8 25 7 26 6 27 5 28 4 29 3 30 2 31 1 32
REMARK H PARENT
REMARK Flexibility Score: inf
ROOT
ATOM      1  C   UNL     1    -103.685 -82.557  35.977  1.00  0.00     0.000 C 
ENDROOT
BRANCH   1   2
ATOM      2  C   UNL     1    -102.724 -83.329  35.050  1.00  0.00     0.000 C 
BRANCH   2   3
ATOM      3  C   UNL     1    -102.832 -84.862  35.160  1.00  0.00     0.000 C 
BRANCH   3   4
ATOM      4  C   UNL     1    -104.063 -85.497  34.482  1.00  0.00     0.000 C 
BRANCH   4   5
ATOM      5  C   UNL     1    -105.176 -85.970  35.434  1.00  0.00     0.000 C 
BRANCH   5   6
ATOM      6  C   UNL     1    -104.873 -87.325  36.094  1.00  0.00     0.000 C 
BRANCH   6   7
ATOM      7  C   UNL     1    -105.100 -87.310  37.616  1.00  0.00     0.000 C 
BRANCH   7   8
ATOM      8  C   UNL     1    -105.004 -85.906  38.248  1.00  0.00     0.000 C 
BRANCH   8   9
ATOM      9  C   UNL     1    -104.080 -85.884  39.480  1.00  0.00     0.000 C 
BRANCH   9  10
ATOM     10  C   UNL     1    -102.615 -85.600  39.109  1.00  0.00     0.000 C 
BRANCH  10  11
ATOM     11  C   UNL     1    -102.356 -84.106  38.850  1.00  0.00     0.000 C 
BRANCH  11  12
ATOM     12  C   UNL     1    -102.077 -83.322  40.143  1.00  0.00     0.000 C 
BRANCH  12  13
ATOM     13  C   UNL     1    -102.946 -82.058  40.261  1.00  0.00     0.006 C 
BRANCH  13  14
ATOM     14  C   UNL     1    -104.250 -82.215  39.470  1.00  0.00     0.053 C 
BRANCH  14  15
ATOM     15  C   UNL     1    -104.991 -80.915  39.377  1.00  0.00     0.041 C 
ATOM     16  O   UNL     1    -104.744 -79.983  40.188  1.00  0.00    -0.550 OA
ATOM     17  O   UNL     1    -105.975 -80.742  38.410  1.00  0.00    -0.550 OA
ENDBRANCH  14  15
ENDBRANCH  13  14
ENDBRANCH  12  13
ENDBRANCH  11  12
ENDBRANCH  10  11
ENDBRANCH   9  10
ENDBRANCH   8   9
ENDBRANCH   7   8
ENDBRANCH   6   7
ENDBRANCH   5   6
ENDBRANCH   4   5
ENDBRANCH   3   4
ENDBRANCH   2   3
ENDBRANCH   1   2
BRANCH   1  18
ATOM     18  C   UNL     1    -104.890 -81.963  35.234  1.00  0.00     0.000 C 
BRANCH  18  19
ATOM     19  C   UNL     1    -104.508 -81.584  33.796  1.00  0.00     0.000 C 
BRANCH  19  20
ATOM     20  C   UNL     1    -105.606 -81.933  32.774  1.00  0.00     0.000 C 
BRANCH  20  21
ATOM     21  C   UNL     1    -106.321 -83.279  33.014  1.00  0.00     0.000 C 
BRANCH  21  22
ATOM     22  C   UNL     1    -107.859 -83.231  32.937  1.00  0.00     0.000 C 
BRANCH  22  23
ATOM     23  C   UNL     1    -108.410 -83.762  31.605  1.00  0.00     0.000 C 
BRANCH  23  24
ATOM     24  C   UNL     1    -108.427 -82.657  30.535  1.00  0.00    -0.000 C 
BRANCH  24  25
ATOM     25  C   UNL     1    -107.778 -83.107  29.216  1.00  0.00    -0.000 C 
BRANCH  25  26
ATOM     26  C   UNL     1    -106.305 -83.510  29.391  1.00  0.00    -0.000 C 
BRANCH  26  27
ATOM     27  C   UNL     1    -105.378 -82.328  29.063  1.00  0.00    -0.000 C 
BRANCH  27  28
ATOM     28  C   UNL     1    -103.888 -82.694  29.157  1.00  0.00    -0.000 C 
BRANCH  28  29
ATOM     29  C   UNL     1    -103.659 -84.119  29.694  1.00  0.00    -0.000 C 
BRANCH  29  30
ATOM     30  C   UNL     1    -103.118 -84.134  31.134  1.00  0.00    -0.000 C 
BRANCH  30  31
ATOM     31  C   UNL     1    -102.061 -83.059  31.436  1.00  0.00    -0.003 C 
ATOM     32  C   UNL     1    -100.715 -83.645  31.863  1.00  0.00     0.004 C 
ENDBRANCH  30  31
ENDBRANCH  29  30
ENDBRANCH  28  29
ENDBRANCH  27  28
ENDBRANCH  26  27
ENDBRANCH  25  26
ENDBRANCH  24  25
ENDBRANCH  23  24
ENDBRANCH  22  23
ENDBRANCH  21  22
ENDBRANCH  20  21
ENDBRANCH  19  20
ENDBRANCH  18  19
ENDBRANCH   1  18
TORSDOF 28
ENDMDL
MODEL 6
REMARK VINA RESULT:    -4.892      2.470      4.865
REMARK INTER + INTRA:         -17.794
REMARK INTER:                 -11.898
REMARK INTRA:                  -5.896
REMARK UNBOUND:                -4.894
REMARK SMILES CCCCCCCCCCCCCCCCCCCCCCCCCCCCCC(=O)[O-]
REMARK SMILES IDX 16 1 17 2 18 3 19 4 20 5 21 6 22 7 23 8 24 9 25 10 26 11
REMARK SMILES IDX 27 12 28 13 29 14 30 15 31 16 32 17 15 18 14 19 13 20 12 21
REMARK SMILES IDX 11 22 10 23 9 24 8 25 7 26 6 27 5 28 4 29 3 30 2 31 1 32
REMARK H PARENT
REMARK Flexibility Score: inf
ROOT
ATOM      1  C   UNL     1    -103.717 -84.871  35.188  1.00  0.00     0.000 C 
ENDROOT
BRANCH   1   2
ATOM      2  C   UNL     1    -104.340 -83.664  35.917  1.00  0.00     0.000 C 
BRANCH   2   3
ATOM      3  C   UNL     1    -103.346 -82.528  36.228  1.00  0.00     0.000 C 
BRANCH   3   4
ATOM      4  C   UNL     1    -103.931 -81.102  36.208  1.00  0.00     0.000 C 
BRANCH   4   5
ATOM      5  C   UNL     1    -105.445 -81.001  36.472  1.00  0.00     0.000 C 
BRANCH   5   6
ATOM      6  C   UNL     1    -105.787 -80.183  37.727  1.00  0.00     0.000 C 
BRANCH   6   7
ATOM      7  C   UNL     1    -104.536 -79.655  38.451  1.00  0.00     0.000 C 
BRANCH   7   8
ATOM      8  C   UNL     1    -104.704 -79.532  39.980  1.00  0.00     0.000 C 
BRANCH   8   9
ATOM      9  C   UNL     1    -103.972 -80.653  40.739  1.00  0.00     0.000 C 
BRANCH   9  10
ATOM     10  C   UNL     1    -103.125 -81.536  39.808  1.00  0.00     0.000 C 
BRANCH  10  11
ATOM     11  C   UNL     1    -103.502 -83.023  39.908  1.00  0.00     0.000 C 
BRANCH  11  12
ATOM     12  C   UNL     1    -104.971 -83.288  39.540  1.00  0.00     0.000 C 
BRANCH  12  13
ATOM     13  C   UNL     1    -105.249 -84.777  39.270  1.00  0.00     0.006 C 
BRANCH  13  14
ATOM     14  C   UNL     1    -104.192 -85.660  39.941  1.00  0.00     0.053 C 
BRANCH  14  15
ATOM     15  C   UNL     1    -103.627 -86.662  38.978  1.00  0.00     0.041 C 
ATOM     16  O   UNL     1    -104.316 -87.064  38.003  1.00  0.00    -0.550 OA
ATOM     17  O   UNL     1    -102.348 -87.172  39.173  1.00  0.00    -0.550 OA
ENDBRANCH  14  15
ENDBRANCH  13  14
ENDBRANCH  12  13
ENDBRANCH  11  12
ENDBRANCH  10  11
ENDBRANCH   9  10
ENDBRANCH   8   9
ENDBRANCH   7   8
ENDBRANCH   6   7
ENDBRANCH   5   6
ENDBRANCH   4   5
ENDBRANCH   3   4
ENDBRANCH   2   3
ENDBRANCH   1   2
BRANCH   1  18
ATOM     18  C   UNL     1    -104.543 -85.335  33.978  1.00  0.00     0.000 C 
BRANCH  18  19
ATOM     19  C   UNL     1    -103.894 -84.868  32.667  1.00  0.00     0.000 C 
BRANCH  19  20
ATOM     20  C   UNL     1    -102.591 -84.079  32.894  1.00  0.00     0.000 C 
BRANCH  20  21
ATOM     21  C   UNL     1    -102.617 -82.615  32.408  1.00  0.00     0.000 C 
BRANCH  21  22
ATOM     22  C   UNL     1    -103.971 -82.129  31.855  1.00  0.00     0.000 C 
BRANCH  22  23
ATOM     23  C   UNL     1    -104.766 -81.293  32.870  1.00  0.00     0.000 C 
BRANCH  23  24
ATOM     24  C   UNL     1    -106.280 -81.454  32.651  1.00  0.00    -0.000 C 
BRANCH  24  25
ATOM     25  C   UNL     1    -106.847 -82.693  33.365  1.00  0.00    -0.000 C 
BRANCH  25  26
ATOM     26  C   UNL     1    -107.891 -83.436  32.517  1.00  0.00    -0.000 C 
BRANCH  26  27
ATOM     27  C   UNL     1    -108.158 -82.683  31.204  1.00  0.00    -0.000 C 
BRANCH  27  28
ATOM     28  C   UNL     1    -107.585 -83.406  29.974  1.00  0.00    -0.000 C 
BRANCH  28  29
ATOM     29  C   UNL     1    -106.988 -82.435  28.939  1.00  0.00    -0.000 C 
BRANCH  29  30
ATOM     30  C   UNL     1    -105.553 -82.808  28.529  1.00  0.00    -0.000 C 
BRANCH  30  31
ATOM     31  C   UNL     1    -105.035 -84.127  29.127  1.00  0.00    -0.003 C 
ATOM     32  C   UNL     1    -103.526 -84.310  28.958  1.00  0.00     0.004 C 
ENDBRANCH  30  31
ENDBRANCH  29  30
ENDBRANCH  28  29
ENDBRANCH  27  28
ENDBRANCH  26  27
ENDBRANCH  25  26
ENDBRANCH  24  25
ENDBRANCH  23  24
ENDBRANCH  22  23
ENDBRANCH  21  22
ENDBRANCH  20  21
ENDBRANCH  19  20
ENDBRANCH  18  19
ENDBRANCH   1  18
TORSDOF 28
ENDMDL
MODEL 7
REMARK VINA RESULT:    -4.872      1.344      2.164
REMARK INTER + INTRA:         -17.740
REMARK INTER:                 -12.169
REMARK INTRA:                  -5.570
REMARK UNBOUND:                -4.894
REMARK SMILES CCCCCCCCCCCCCCCCCCCCCCCCCCCCCC(=O)[O-]
REMARK SMILES IDX 16 1 17 2 18 3 19 4 20 5 21 6 22 7 23 8 24 9 25 10 26 11
REMARK SMILES IDX 27 12 28 13 29 14 30 15 31 16 32 17 15 18 14 19 13 20 12 21
REMARK SMILES IDX 11 22 10 23 9 24 8 25 7 26 6 27 5 28 4 29 3 30 2 31 1 32
REMARK H PARENT
REMARK Flexibility Score: inf
ROOT
ATOM      1  C   UNL     1    -104.660 -85.027  34.696  1.00  0.00     0.000 C 
ENDROOT
BRANCH   1   2
ATOM      2  C   UNL     1    -105.148 -86.489  34.755  1.00  0.00     0.000 C 
BRANCH   2   3
ATOM      3  C   UNL     1    -105.656 -86.932  36.141  1.00  0.00     0.000 C 
BRANCH   3   4
ATOM      4  C   UNL     1    -104.620 -87.635  37.041  1.00  0.00     0.000 C 
BRANCH   4   5
ATOM      5  C   UNL     1    -104.120 -86.816  38.246  1.00  0.00     0.000 C 
BRANCH   5   6
ATOM      6  C   UNL     1    -105.043 -85.639  38.600  1.00  0.00     0.000 C 
BRANCH   6   7
ATOM      7  C   UNL     1    -104.346 -84.578  39.470  1.00  0.00     0.000 C 
BRANCH   7   8
ATOM      8  C   UNL     1    -102.823 -84.782  39.605  1.00  0.00     0.000 C 
BRANCH   8   9
ATOM      9  C   UNL     1    -102.062 -83.447  39.695  1.00  0.00     0.000 C 
BRANCH   9  10
ATOM     10  C   UNL     1    -102.896 -82.340  40.359  1.00  0.00     0.000 C 
BRANCH  10  11
ATOM     11  C   UNL     1    -102.878 -81.030  39.553  1.00  0.00     0.000 C 
BRANCH  11  12
ATOM     12  C   UNL     1    -103.338 -79.819  40.381  1.00  0.00     0.000 C 
BRANCH  12  13
ATOM     13  C   UNL     1    -104.637 -79.197  39.841  1.00  0.00     0.006 C 
BRANCH  13  14
ATOM     14  C   UNL     1    -104.815 -79.512  38.351  1.00  0.00     0.053 C 
BRANCH  14  15
ATOM     15  C   UNL     1    -106.009 -80.389  38.119  1.00  0.00     0.041 C 
ATOM     16  O   UNL     1    -106.947 -80.000  37.373  1.00  0.00    -0.550 OA
ATOM     17  O   UNL     1    -106.099 -81.626  38.748  1.00  0.00    -0.550 OA
ENDBRANCH  14  15
ENDBRANCH  13  14
ENDBRANCH  12  13
ENDBRANCH  11  12
ENDBRANCH  10  11
ENDBRANCH   9  10
ENDBRANCH   8   9
ENDBRANCH   7   8
ENDBRANCH   6   7
ENDBRANCH   5   6
ENDBRANCH   4   5
ENDBRANCH   3   4
ENDBRANCH   2   3
ENDBRANCH   1   2
BRANCH   1  18
ATOM     18  C   UNL     1    -103.141 -84.893  34.879  1.00  0.00     0.000 C 
BRANCH  18  19
ATOM     19  C   UNL     1    -102.816 -83.945  36.042  1.00  0.00     0.000 C 
BRANCH  19  20
ATOM     20  C   UNL     1    -103.920 -82.899  36.287  1.00  0.00     0.000 C 
BRANCH  20  21
ATOM     21  C   UNL     1    -103.832 -81.634  35.407  1.00  0.00     0.000 C 
BRANCH  21  22
ATOM     22  C   UNL     1    -105.085 -81.330  34.564  1.00  0.00     0.000 C 
BRANCH  22  23
ATOM     23  C   UNL     1    -104.851 -81.511  33.056  1.00  0.00     0.000 C 
BRANCH  23  24
ATOM     24  C   UNL     1    -103.349 -81.572  32.735  1.00  0.00    -0.000 C 
BRANCH  24  25
ATOM     25  C   UNL     1    -102.997 -82.739  31.798  1.00  0.00    -0.000 C 
BRANCH  25  26
ATOM     26  C   UNL     1    -104.218 -83.605  31.449  1.00  0.00    -0.000 C 
BRANCH  26  27
ATOM     27  C   UNL     1    -104.133 -84.099  29.996  1.00  0.00    -0.000 C 
BRANCH  27  28
ATOM     28  C   UNL     1    -105.343 -83.671  29.149  1.00  0.00    -0.000 C 
BRANCH  28  29
ATOM     29  C   UNL     1    -106.261 -82.678  29.884  1.00  0.00    -0.000 C 
BRANCH  29  30
ATOM     30  C   UNL     1    -107.592 -83.312  30.327  1.00  0.00    -0.000 C 
BRANCH  30  31
ATOM     31  C   UNL     1    -108.133 -82.800  31.672  1.00  0.00    -0.003 C 
ATOM     32  C   UNL     1    -107.846 -83.750  32.835  1.00  0.00     0.004 C 
ENDBRANCH  30  31
ENDBRANCH  29  30
ENDBRANCH  28  29
ENDBRANCH  27  28
ENDBRANCH  26  27
ENDBRANCH  25  26
ENDBRANCH  24  25
ENDBRANCH  23  24
ENDBRANCH  22  23
ENDBRANCH  21  22
ENDBRANCH  20  21
ENDBRANCH  19  20
ENDBRANCH  18  19
ENDBRANCH   1  18
TORSDOF 28
ENDMDL
MODEL 8
REMARK VINA RESULT:    -4.851      2.238      6.086
REMARK INTER + INTRA:         -17.685
REMARK INTER:                 -12.382
REMARK INTRA:                  -5.304
REMARK UNBOUND:                -4.894
REMARK SMILES CCCCCCCCCCCCCCCCCCCCCCCCCCCCCC(=O)[O-]
REMARK SMILES IDX 16 1 17 2 18 3 19 4 20 5 21 6 22 7 23 8 24 9 25 10 26 11
REMARK SMILES IDX 27 12 28 13 29 14 30 15 31 16 32 17 15 18 14 19 13 20 12 21
REMARK SMILES IDX 11 22 10 23 9 24 8 25 7 26 6 27 5 28 4 29 3 30 2 31 1 32
REMARK H PARENT
REMARK Flexibility Score: inf
ROOT
ATOM      1  C   UNL     1    -105.055 -85.803  38.350  1.00  0.00     0.000 C 
ENDROOT
BRANCH   1   2
ATOM      2  C   UNL     1    -104.756 -87.174  37.711  1.00  0.00     0.000 C 
BRANCH   2   3
ATOM      3  C   UNL     1    -105.490 -87.426  36.380  1.00  0.00     0.000 C 
BRANCH   3   4
ATOM      4  C   UNL     1    -104.836 -86.810  35.127  1.00  0.00     0.000 C 
BRANCH   4   5
ATOM      5  C   UNL     1    -105.463 -85.495  34.628  1.00  0.00     0.000 C 
BRANCH   5   6
ATOM      6  C   UNL     1    -104.611 -84.257  34.951  1.00  0.00     0.000 C 
BRANCH   6   7
ATOM      7  C   UNL     1    -103.193 -84.619  35.425  1.00  0.00     0.000 C 
BRANCH   7   8
ATOM      8  C   UNL     1    -102.090 -84.309  34.392  1.00  0.00     0.000 C 
BRANCH   8   9
ATOM      9  C   UNL     1    -102.605 -83.431  33.236  1.00  0.00     0.000 C 
BRANCH   9  10
ATOM     10  C   UNL     1    -102.359 -84.071  31.860  1.00  0.00     0.000 C 
BRANCH  10  11
ATOM     11  C   UNL     1    -103.669 -84.376  31.114  1.00  0.00     0.000 C 
BRANCH  11  12
ATOM     12  C   UNL     1    -104.460 -83.105  30.763  1.00  0.00     0.000 C 
BRANCH  12  13
ATOM     13  C   UNL     1    -105.745 -83.412  29.976  1.00  0.00     0.006 C 
BRANCH  13  14
ATOM     14  C   UNL     1    -106.291 -82.147  29.304  1.00  0.00     0.053 C 
BRANCH  14  15
ATOM     15  C   UNL     1    -107.786 -82.076  29.409  1.00  0.00     0.041 C 
ATOM     16  O   UNL     1    -108.491 -83.078  29.117  1.00  0.00    -0.550 OA
ATOM     17  O   UNL     1    -108.401 -80.893  29.802  1.00  0.00    -0.550 OA
ENDBRANCH  14  15
ENDBRANCH  13  14
ENDBRANCH  12  13
ENDBRANCH  11  12
ENDBRANCH  10  11
ENDBRANCH   9  10
ENDBRANCH   8   9
ENDBRANCH   7   8
ENDBRANCH   6   7
ENDBRANCH   5   6
ENDBRANCH   4   5
ENDBRANCH   3   4
ENDBRANCH   2   3
ENDBRANCH   1   2
BRANCH   1  18
ATOM     18  C   UNL     1    -104.410 -85.630  39.734  1.00  0.00     0.000 C 
BRANCH  18  19
ATOM     19  C   UNL     1    -102.916 -85.301  39.598  1.00  0.00     0.000 C 
BRANCH  19  20
ATOM     20  C   UNL     1    -102.664 -83.931  38.942  1.00  0.00     0.000 C 
BRANCH  20  21
ATOM     21  C   UNL     1    -102.525 -82.749  39.925  1.00  0.00     0.000 C 
BRANCH  21  22
ATOM     22  C   UNL     1    -103.772 -81.854  40.059  1.00  0.00     0.000 C 
BRANCH  22  23
ATOM     23  C   UNL     1    -104.799 -82.087  38.940  1.00  0.00     0.000 C 
BRANCH  23  24
ATOM     24  C   UNL     1    -105.028 -80.802  38.126  1.00  0.00    -0.000 C 
BRANCH  24  25
ATOM     25  C   UNL     1    -103.726 -80.252  37.521  1.00  0.00    -0.000 C 
BRANCH  25  26
ATOM     26  C   UNL     1    -103.559 -80.628  36.040  1.00  0.00    -0.000 C 
BRANCH  26  27
ATOM     27  C   UNL     1    -104.931 -80.822  35.373  1.00  0.00    -0.000 C 
BRANCH  27  28
ATOM     28  C   UNL     1    -104.915 -80.498  33.871  1.00  0.00    -0.000 C 
BRANCH  28  29
ATOM     29  C   UNL     1    -106.260 -80.797  33.184  1.00  0.00    -0.000 C 
BRANCH  29  30
ATOM     30  C   UNL     1    -106.736 -82.243  33.409  1.00  0.00    -0.000 C 
BRANCH  30  31
ATOM     31  C   UNL     1    -108.178 -82.524  32.957  1.00  0.00    -0.003 C 
ATOM     32  C   UNL     1    -108.436 -84.001  32.658  1.00  0.00     0.004 C 
ENDBRANCH  30  31
ENDBRANCH  29  30
ENDBRANCH  28  29
ENDBRANCH  27  28
ENDBRANCH  26  27
ENDBRANCH  25  26
ENDBRANCH  24  25
ENDBRANCH  23  24
ENDBRANCH  22  23
ENDBRANCH  21  22
ENDBRANCH  20  21
ENDBRANCH  19  20
ENDBRANCH  18  19
ENDBRANCH   1  18
TORSDOF 28
ENDMDL
MODEL 9
REMARK VINA RESULT:    -4.839      2.357      5.627
REMARK INTER + INTRA:         -17.654
REMARK INTER:                 -11.788
REMARK INTRA:                  -5.866
REMARK UNBOUND:                -4.894
REMARK SMILES CCCCCCCCCCCCCCCCCCCCCCCCCCCCCC(=O)[O-]
REMARK SMILES IDX 16 1 17 2 18 3 19 4 20 5 21 6 22 7 23 8 24 9 25 10 26 11
REMARK SMILES IDX 27 12 28 13 29 14 30 15 31 16 32 17 15 18 14 19 13 20 12 21
REMARK SMILES IDX 11 22 10 23 9 24 8 25 7 26 6 27 5 28 4 29 3 30 2 31 1 32
REMARK H PARENT
REMARK Flexibility Score: inf
ROOT
ATOM      1  C   UNL     1    -103.624 -86.036  39.593  1.00  0.00     0.000 C 
ENDROOT
BRANCH   1   2
ATOM      2  C   UNL     1    -103.849 -87.172  38.574  1.00  0.00     0.000 C 
BRANCH   2   3
ATOM      3  C   UNL     1    -105.065 -86.963  37.651  1.00  0.00     0.000 C 
BRANCH   3   4
ATOM      4  C   UNL     1    -105.119 -87.866  36.402  1.00  0.00     0.000 C 
BRANCH   4   5
ATOM      5  C   UNL     1    -105.893 -87.292  35.200  1.00  0.00     0.000 C 
BRANCH   5   6
ATOM      6  C   UNL     1    -105.052 -86.335  34.341  1.00  0.00     0.000 C 
BRANCH   6   7
ATOM      7  C   UNL     1    -105.400 -84.856  34.584  1.00  0.00     0.000 C 
BRANCH   7   8
ATOM      8  C   UNL     1    -104.302 -84.069  35.328  1.00  0.00     0.000 C 
BRANCH   8   9
ATOM      9  C   UNL     1    -102.996 -84.873  35.459  1.00  0.00     0.000 C 
BRANCH   9  10
ATOM     10  C   UNL     1    -101.962 -84.491  34.387  1.00  0.00     0.000 C 
BRANCH  10  11
ATOM     11  C   UNL     1    -102.210 -83.088  33.808  1.00  0.00     0.000 C 
BRANCH  11  12
ATOM     12  C   UNL     1    -102.332 -83.093  32.275  1.00  0.00     0.000 C 
BRANCH  12  13
ATOM     13  C   UNL     1    -103.093 -84.323  31.752  1.00  0.00     0.006 C 
BRANCH  13  14
ATOM     14  C   UNL     1    -104.382 -83.904  31.036  1.00  0.00     0.053 C 
BRANCH  14  15
ATOM     15  C   UNL     1    -104.088 -83.042  29.844  1.00  0.00     0.041 C 
ATOM     16  O   UNL     1    -103.504 -83.526  28.839  1.00  0.00    -0.550 OA
ATOM     17  O   UNL     1    -104.435 -81.696  29.855  1.00  0.00    -0.550 OA
ENDBRANCH  14  15
ENDBRANCH  13  14
ENDBRANCH  12  13
ENDBRANCH  11  12
ENDBRANCH  10  11
ENDBRANCH   9  10
ENDBRANCH   8   9
ENDBRANCH   7   8
ENDBRANCH   6   7
ENDBRANCH   5   6
ENDBRANCH   4   5
ENDBRANCH   3   4
ENDBRANCH   2   3
ENDBRANCH   1   2
BRANCH   1  18
ATOM     18  C   UNL     1    -102.629 -84.975  39.101  1.00  0.00     0.000 C 
BRANCH  18  19
ATOM     19  C   UNL     1    -103.114 -83.565  39.466  1.00  0.00     0.000 C 
BRANCH  19  20
ATOM     20  C   UNL     1    -104.617 -83.363  39.199  1.00  0.00     0.000 C 
BRANCH  20  21
ATOM     21  C   UNL     1    -105.066 -81.894  39.047  1.00  0.00     0.000 C 
BRANCH  21  22
ATOM     22  C   UNL     1    -105.005 -81.331  37.615  1.00  0.00     0.000 C 
BRANCH  22  23
ATOM     23  C   UNL     1    -103.638 -80.721  37.268  1.00  0.00     0.000 C 
BRANCH  23  24
ATOM     24  C   UNL     1    -103.531 -80.430  35.762  1.00  0.00    -0.000 C 
BRANCH  24  25
ATOM     25  C   UNL     1    -104.863 -79.952  35.161  1.00  0.00    -0.000 C 
BRANCH  25  26
ATOM     26  C   UNL     1    -104.903 -80.089  33.631  1.00  0.00    -0.000 C 
BRANCH  26  27
ATOM     27  C   UNL     1    -105.667 -81.360  33.222  1.00  0.00    -0.000 C 
BRANCH  27  28
ATOM     28  C   UNL     1    -106.980 -81.543  33.998  1.00  0.00    -0.000 C 
BRANCH  28  29
ATOM     29  C   UNL     1    -108.165 -81.907  33.084  1.00  0.00    -0.000 C 
BRANCH  29  30
ATOM     30  C   UNL     1    -108.029 -83.308  32.463  1.00  0.00    -0.000 C 
BRANCH  30  31
ATOM     31  C   UNL     1    -108.158 -83.350  30.932  1.00  0.00    -0.003 C 
ATOM     32  C   UNL     1    -107.950 -81.984  30.275  1.00  0.00     0.004 C 
ENDBRANCH  30  31
ENDBRANCH  29  30
ENDBRANCH  28  29
ENDBRANCH  27  28
ENDBRANCH  26  27
ENDBRANCH  25  26
ENDBRANCH  24  25
ENDBRANCH  23  24
ENDBRANCH  22  23
ENDBRANCH  21  22
ENDBRANCH  20  21
ENDBRANCH  19  20
ENDBRANCH  18  19
ENDBRANCH   1  18
TORSDOF 28
ENDMDL
