MODEL 1
REMARK VINA RESULT:    -5.850      0.000      0.000
REMARK INTER + INTRA:          -7.006
REMARK INTER:                  -6.706
REMARK INTRA:                  -0.301
REMARK UNBOUND:                -0.301
REMARK SMILES COc1ccc(C(C)=O)c(O)c1
REMARK SMILES IDX 6 1 10 2 12 3 3 4 4 5 5 6 7 7 8 8 9 9 11 10 2 12 1 13
REMARK H PARENT 11 11
REMARK Flexibility Score: inf
ROOT
ATOM      1  C   UNL     1     -14.406  61.308  38.902  1.00  0.00     0.059 A 
ATOM      2  C   UNL     1     -13.654  62.505  38.987  1.00  0.00     0.130 A 
ATOM      3  C   UNL     1     -12.325  62.462  39.426  1.00  0.00     0.093 A 
ATOM      4  C   UNL     1     -11.714  61.240  39.754  1.00  0.00     0.122 A 
ATOM      5  C   UNL     1     -12.450  60.058  39.640  1.00  0.00     0.047 A 
ATOM      6  C   UNL     1     -13.781  60.089  39.219  1.00  0.00     0.019 A 
ENDROOT
BRANCH   1   7
ATOM      7  C   UNL     1     -15.840  61.305  38.525  1.00  0.00     0.163 C 
ATOM      8  C   UNL     1     -16.759  60.217  38.985  1.00  0.00     0.093 C 
ATOM      9  O   UNL     1     -16.321  62.273  37.875  1.00  0.00    -0.294 OA
ENDBRANCH   1   7
BRANCH   2  10
ATOM     10  O   UNL     1     -14.179  63.745  38.617  1.00  0.00    -0.507 OA
ATOM     11  H   UNL     1     -13.618  64.581  38.525  1.00  0.00     0.293 HD
ENDBRANCH   2  10
BRANCH   4  12
ATOM     12  O   UNL     1     -10.384  61.154  40.191  1.00  0.00    -0.497 OA
ATOM     13  C   UNL     1      -9.639  62.248  40.717  1.00  0.00     0.278 C 
ENDBRANCH   4  12
TORSDOF 3
ENDMDL
MODEL 2
REMARK VINA RESULT:    -5.845      1.602      5.104
REMARK INTER + INTRA:          -7.000
REMARK INTER:                  -6.662
REMARK INTRA:                  -0.337
REMARK UNBOUND:                -0.301
REMARK SMILES COc1ccc(C(C)=O)c(O)c1
REMARK SMILES IDX 6 1 10 2 12 3 3 4 4 5 5 6 7 7 8 8 9 9 11 10 2 12 1 13
REMARK H PARENT 11 11
REMARK Flexibility Score: inf
ROOT
ATOM      1  C   UNL     1     -11.142  62.359  39.577  1.00  0.00     0.059 A 
ATOM      2  C   UNL     1     -11.216  61.055  40.125  1.00  0.00     0.130 A 
ATOM      3  C   UNL     1     -12.446  60.386  40.167  1.00  0.00     0.093 A 
ATOM      4  C   UNL     1     -13.606  60.979  39.642  1.00  0.00     0.122 A 
ATOM      5  C   UNL     1     -13.523  62.254  39.076  1.00  0.00     0.047 A 
ATOM      6  C   UNL     1     -12.306  62.938  39.043  1.00  0.00     0.019 A 
ENDROOT
BRANCH   1   7
ATOM      7  C   UNL     1      -9.885  63.145  39.585  1.00  0.00     0.163 C 
ATOM      8  C   UNL     1      -9.591  64.145  38.509  1.00  0.00     0.093 C 
ATOM      9  O   UNL     1      -9.082  63.037  40.550  1.00  0.00    -0.294 OA
ENDBRANCH   1   7
BRANCH   2  10
ATOM     10  O   UNL     1     -10.091  60.382  40.606  1.00  0.00    -0.507 OA
ATOM     11  H   UNL     1      -9.940  59.390  40.481  1.00  0.00     0.293 HD
ENDBRANCH   2  10
BRANCH   4  12
ATOM     12  O   UNL     1     -14.855  60.340  39.659  1.00  0.00    -0.497 OA
ATOM     13  C   UNL     1     -15.787  60.368  38.582  1.00  0.00     0.278 C 
ENDBRANCH   4  12
TORSDOF 3
ENDMDL
MODEL 3
REMARK VINA RESULT:    -5.698     17.523     19.032
REMARK INTER + INTRA:          -6.832
REMARK INTER:                  -6.553
REMARK INTRA:                  -0.279
REMARK UNBOUND:                -0.301
REMARK SMILES COc1ccc(C(C)=O)c(O)c1
REMARK SMILES IDX 6 1 10 2 12 3 3 4 4 5 5 6 7 7 8 8 9 9 11 10 2 12 1 13
REMARK H PARENT 11 11
REMARK Flexibility Score: inf
ROOT
ATOM      1  C   UNL     1     -11.725  50.105  53.809  1.00  0.00     0.059 A 
ATOM      2  C   UNL     1     -12.681  50.597  52.888  1.00  0.00     0.130 A 
ATOM      3  C   UNL     1     -13.819  49.835  52.592  1.00  0.00     0.093 A 
ATOM      4  C   UNL     1     -14.043  48.600  53.223  1.00  0.00     0.122 A 
ATOM      5  C   UNL     1     -13.111  48.132  54.154  1.00  0.00     0.047 A 
ATOM      6  C   UNL     1     -11.965  48.874  54.445  1.00  0.00     0.019 A 
ENDROOT
BRANCH   1   7
ATOM      7  C   UNL     1     -10.463  50.829  54.094  1.00  0.00     0.163 C 
ATOM      8  C   UNL     1      -9.266  50.112  54.638  1.00  0.00     0.093 C 
ATOM      9  O   UNL     1     -10.359  52.051  53.802  1.00  0.00    -0.294 OA
ENDBRANCH   1   7
BRANCH   2  10
ATOM     10  O   UNL     1     -12.554  51.844  52.272  1.00  0.00    -0.507 OA
ATOM     11  H   UNL     1     -12.398  51.961  51.280  1.00  0.00     0.293 HD
ENDBRANCH   2  10
BRANCH   4  12
ATOM     12  O   UNL     1     -15.172  47.811  52.960  1.00  0.00    -0.497 OA
ATOM     13  C   UNL     1     -16.492  48.324  52.805  1.00  0.00     0.278 C 
ENDBRANCH   4  12
TORSDOF 3
ENDMDL
MODEL 4
REMARK VINA RESULT:    -5.674      1.070      4.634
REMARK INTER + INTRA:          -6.804
REMARK INTER:                  -6.756
REMARK INTRA:                  -0.048
REMARK UNBOUND:                -0.301
REMARK SMILES COc1ccc(C(C)=O)c(O)c1
REMARK SMILES IDX 6 1 10 2 12 3 3 4 4 5 5 6 7 7 8 8 9 9 11 10 2 12 1 13
REMARK H PARENT 11 11
REMARK Flexibility Score: inf
ROOT
ATOM      1  C   UNL     1     -12.409  61.480  39.362  1.00  0.00     0.059 A 
ATOM      2  C   UNL     1     -13.194  62.643  39.172  1.00  0.00     0.130 A 
ATOM      3  C   UNL     1     -14.495  62.530  38.667  1.00  0.00     0.093 A 
ATOM      4  C   UNL     1     -15.048  61.271  38.376  1.00  0.00     0.122 A 
ATOM      5  C   UNL     1     -14.280  60.124  38.593  1.00  0.00     0.047 A 
ATOM      6  C   UNL     1     -12.975  60.225  39.080  1.00  0.00     0.019 A 
ENDROOT
BRANCH   1   7
ATOM      7  C   UNL     1     -10.998  61.548  39.813  1.00  0.00     0.163 C 
ATOM      8  C   UNL     1      -9.961  62.265  39.004  1.00  0.00     0.093 C 
ATOM      9  O   UNL     1     -10.672  61.069  40.932  1.00  0.00    -0.294 OA
ENDBRANCH   1   7
BRANCH   2  10
ATOM     10  O   UNL     1     -12.731  63.919  39.500  1.00  0.00    -0.507 OA
ATOM     11  H   UNL     1     -11.788  64.234  39.315  1.00  0.00     0.293 HD
ENDBRANCH   2  10
BRANCH   4  12
ATOM     12  O   UNL     1     -16.349  61.115  37.875  1.00  0.00    -0.497 OA
ATOM     13  C   UNL     1     -17.524  61.117  38.680  1.00  0.00     0.278 C 
ENDBRANCH   4  12
TORSDOF 3
ENDMDL
MODEL 5
REMARK VINA RESULT:    -5.611      2.631      3.945
REMARK INTER + INTRA:          -6.731
REMARK INTER:                  -6.414
REMARK INTRA:                  -0.317
REMARK UNBOUND:                -0.301
REMARK SMILES COc1ccc(C(C)=O)c(O)c1
REMARK SMILES IDX 6 1 10 2 12 3 3 4 4 5 5 6 7 7 8 8 9 9 11 10 2 12 1 13
REMARK H PARENT 11 11
REMARK Flexibility Score: inf
ROOT
ATOM      1  C   UNL     1     -11.458  61.634  39.892  1.00  0.00     0.059 A 
ATOM      2  C   UNL     1     -10.404  61.763  40.828  1.00  0.00     0.130 A 
ATOM      3  C   UNL     1      -9.347  62.646  40.571  1.00  0.00     0.093 A 
ATOM      4  C   UNL     1      -9.335  63.434  39.407  1.00  0.00     0.122 A 
ATOM      5  C   UNL     1     -10.393  63.326  38.501  1.00  0.00     0.047 A 
ATOM      6  C   UNL     1     -11.443  62.437  38.738  1.00  0.00     0.019 A 
ENDROOT
BRANCH   1   7
ATOM      7  C   UNL     1     -12.555  60.655  40.073  1.00  0.00     0.163 C 
ATOM      8  C   UNL     1     -13.188  59.976  38.898  1.00  0.00     0.093 C 
ATOM      9  O   UNL     1     -12.914  60.319  41.234  1.00  0.00    -0.294 OA
ENDBRANCH   1   7
BRANCH   2  10
ATOM     10  O   UNL     1     -10.384  61.058  42.034  1.00  0.00    -0.507 OA
ATOM     11  H   UNL     1     -10.029  61.443  42.898  1.00  0.00     0.293 HD
ENDBRANCH   2  10
BRANCH   4  12
ATOM     12  O   UNL     1      -8.300  64.335  39.117  1.00  0.00    -0.497 OA
ATOM     13  C   UNL     1      -7.386  64.847  40.082  1.00  0.00     0.278 C 
ENDBRANCH   4  12
TORSDOF 3
ENDMDL
MODEL 6
REMARK VINA RESULT:    -5.497     18.228     19.419
REMARK INTER + INTRA:          -6.601
REMARK INTER:                  -6.271
REMARK INTRA:                  -0.330
REMARK UNBOUND:                -0.301
REMARK SMILES COc1ccc(C(C)=O)c(O)c1
REMARK SMILES IDX 6 1 10 2 12 3 3 4 4 5 5 6 7 7 8 8 9 9 11 10 2 12 1 13
REMARK H PARENT 11 11
REMARK Flexibility Score: inf
ROOT
ATOM      1  C   UNL     1     -12.088  49.855  53.753  1.00  0.00     0.059 A 
ATOM      2  C   UNL     1     -11.728  48.758  54.573  1.00  0.00     0.130 A 
ATOM      3  C   UNL     1     -10.488  48.752  55.225  1.00  0.00     0.093 A 
ATOM      4  C   UNL     1      -9.605  49.839  55.102  1.00  0.00     0.122 A 
ATOM      5  C   UNL     1      -9.977  50.933  54.316  1.00  0.00     0.047 A 
ATOM      6  C   UNL     1     -11.203  50.943  53.649  1.00  0.00     0.019 A 
ENDROOT
BRANCH   1   7
ATOM      7  C   UNL     1     -13.348  49.875  52.975  1.00  0.00     0.163 C 
ATOM      8  C   UNL     1     -13.378  50.371  51.562  1.00  0.00     0.093 C 
ATOM      9  O   UNL     1     -14.402  49.394  53.472  1.00  0.00    -0.294 OA
ENDBRANCH   1   7
BRANCH   2  10
ATOM     10  O   UNL     1     -12.583  47.675  54.789  1.00  0.00    -0.507 OA
ATOM     11  H   UNL     1     -13.546  47.775  55.079  1.00  0.00     0.293 HD
ENDBRANCH   2  10
BRANCH   4  12
ATOM     12  O   UNL     1      -8.358  49.875  55.744  1.00  0.00    -0.497 OA
ATOM     13  C   UNL     1      -7.274  49.003  55.440  1.00  0.00     0.278 C 
ENDBRANCH   4  12
TORSDOF 3
ENDMDL
MODEL 7
REMARK VINA RESULT:    -5.417     14.300     17.070
REMARK INTER + INTRA:          -6.509
REMARK INTER:                  -6.176
REMARK INTRA:                  -0.333
REMARK UNBOUND:                -0.301
REMARK SMILES COc1ccc(C(C)=O)c(O)c1
REMARK SMILES IDX 6 1 10 2 12 3 3 4 4 5 5 6 7 7 8 8 9 9 11 10 2 12 1 13
REMARK H PARENT 11 11
REMARK Flexibility Score: inf
ROOT
ATOM      1  C   UNL     1      -6.290  61.418  55.029  1.00  0.00     0.059 A 
ATOM      2  C   UNL     1      -5.518  61.870  53.931  1.00  0.00     0.130 A 
ATOM      3  C   UNL     1      -6.047  62.822  53.051  1.00  0.00     0.093 A 
ATOM      4  C   UNL     1      -7.327  63.363  53.261  1.00  0.00     0.122 A 
ATOM      5  C   UNL     1      -8.074  62.937  54.362  1.00  0.00     0.047 A 
ATOM      6  C   UNL     1      -7.564  61.976  55.237  1.00  0.00     0.019 A 
ENDROOT
BRANCH   1   7
ATOM      7  C   UNL     1      -5.814  60.352  55.941  1.00  0.00     0.163 C 
ATOM      8  C   UNL     1      -6.539  59.046  56.051  1.00  0.00     0.093 C 
ATOM      9  O   UNL     1      -4.736  60.504  56.577  1.00  0.00    -0.294 OA
ENDBRANCH   1   7
BRANCH   2  10
ATOM     10  O   UNL     1      -4.215  61.421  53.700  1.00  0.00    -0.507 OA
ATOM     11  H   UNL     1      -3.606  61.081  54.431  1.00  0.00     0.293 HD
ENDBRANCH   2  10
BRANCH   4  12
ATOM     12  O   UNL     1      -7.890  64.323  52.408  1.00  0.00    -0.497 OA
ATOM     13  C   UNL     1      -7.347  64.691  51.144  1.00  0.00     0.278 C 
ENDBRANCH   4  12
TORSDOF 3
ENDMDL
MODEL 8
REMARK VINA RESULT:    -5.315     13.828     15.634
REMARK INTER + INTRA:          -6.393
REMARK INTER:                  -6.050
REMARK INTRA:                  -0.343
REMARK UNBOUND:                -0.301
REMARK SMILES COc1ccc(C(C)=O)c(O)c1
REMARK SMILES IDX 6 1 10 2 12 3 3 4 4 5 5 6 7 7 8 8 9 9 11 10 2 12 1 13
REMARK H PARENT 11 11
REMARK Flexibility Score: inf
ROOT
ATOM      1  C   UNL     1      -6.518  64.538  52.029  1.00  0.00     0.059 A 
ATOM      2  C   UNL     1      -7.464  64.796  53.051  1.00  0.00     0.130 A 
ATOM      3  C   UNL     1      -7.784  63.793  53.974  1.00  0.00     0.093 A 
ATOM      4  C   UNL     1      -7.153  62.538  53.922  1.00  0.00     0.122 A 
ATOM      5  C   UNL     1      -6.198  62.298  52.931  1.00  0.00     0.047 A 
ATOM      6  C   UNL     1      -5.883  63.284  51.994  1.00  0.00     0.019 A 
ENDROOT
BRANCH   1   7
ATOM      7  C   UNL     1      -6.206  65.533  50.977  1.00  0.00     0.163 C 
ATOM      8  C   UNL     1      -6.244  65.164  49.526  1.00  0.00     0.093 C 
ATOM      9  O   UNL     1      -5.982  66.733  51.293  1.00  0.00    -0.294 OA
ENDBRANCH   1   7
BRANCH   2  10
ATOM     10  O   UNL     1      -8.082  66.040  53.200  1.00  0.00    -0.507 OA
ATOM     11  H   UNL     1      -8.683  66.450  52.498  1.00  0.00     0.293 HD
ENDBRANCH   2  10
BRANCH   4  12
ATOM     12  O   UNL     1      -7.440  61.510  54.832  1.00  0.00    -0.497 OA
ATOM     13  C   UNL     1      -6.479  60.910  55.696  1.00  0.00     0.278 C 
ENDBRANCH   4  12
TORSDOF 3
ENDMDL
MODEL 9
REMARK VINA RESULT:    -5.306      4.433      5.762
REMARK INTER + INTRA:          -6.382
REMARK INTER:                  -6.036
REMARK INTRA:                  -0.345
REMARK UNBOUND:                -0.301
REMARK SMILES COc1ccc(C(C)=O)c(O)c1
REMARK SMILES IDX 6 1 10 2 12 3 3 4 4 5 5 6 7 7 8 8 9 9 11 10 2 12 1 13
REMARK H PARENT 11 11
REMARK Flexibility Score: inf
ROOT
ATOM      1  C   UNL     1     -10.000  62.471  42.057  1.00  0.00     0.059 A 
ATOM      2  C   UNL     1     -10.111  61.737  40.852  1.00  0.00     0.130 A 
ATOM      3  C   UNL     1      -9.900  62.377  39.624  1.00  0.00     0.093 A 
ATOM      4  C   UNL     1      -9.544  63.735  39.572  1.00  0.00     0.122 A 
ATOM      5  C   UNL     1      -9.406  64.449  40.765  1.00  0.00     0.047 A 
ATOM      6  C   UNL     1      -9.631  63.827  41.995  1.00  0.00     0.019 A 
ENDROOT
BRANCH   1   7
ATOM      7  C   UNL     1     -10.296  61.866  43.377  1.00  0.00     0.163 C 
ATOM      8  C   UNL     1      -9.437  62.151  44.570  1.00  0.00     0.093 C 
ATOM      9  O   UNL     1     -11.333  61.164  43.529  1.00  0.00    -0.294 OA
ENDBRANCH   1   7
BRANCH   2  10
ATOM     10  O   UNL     1     -10.399  60.370  40.833  1.00  0.00    -0.507 OA
ATOM     11  H   UNL     1      -9.992  59.725  40.169  1.00  0.00     0.293 HD
ENDBRANCH   2  10
BRANCH   4  12
ATOM     12  O   UNL     1      -9.317  64.411  38.364  1.00  0.00    -0.497 OA
ATOM     13  C   UNL     1      -8.523  65.586  38.237  1.00  0.00     0.278 C 
ENDBRANCH   4  12
TORSDOF 3
ENDMDL
