MODEL 1
REMARK VINA RESULT:    -7.351      0.000      0.000
REMARK INTER + INTRA:          -7.995
REMARK INTER:                  -7.995
REMARK INTRA:                   0.000
REMARK UNBOUND:                 0.000
REMARK SMILES Cc1cc(O)c2c(c1)C(=O)c1cc(O)cc(O)c1C2=O
REMARK SMILES IDX 1 1 2 2 8 3 7 4 6 5 4 6 3 7 19 8 20 9 18 10 11 11 9 12 10 13
REMARK SMILES IDX 12 14 13 15 15 16 16 17 5 18 17 20 14 22
REMARK H PARENT 5 19 17 21 14 23
REMARK Flexibility Score: inf
ROOT
ATOM      1  C   UNL     1      11.570  16.239  -4.452  1.00  0.00     0.044 C 
ATOM      2  C   UNL     1      11.997  17.425  -3.639  1.00  0.00    -0.047 A 
ATOM      3  C   UNL     1      11.526  17.591  -2.334  1.00  0.00     0.016 A 
ATOM      4  C   UNL     1      11.956  18.673  -1.546  1.00  0.00     0.038 A 
ATOM      5  C   UNL     1      12.898  19.592  -2.065  1.00  0.00     0.076 A 
ATOM      6  C   UNL     1      13.327  19.451  -3.413  1.00  0.00     0.127 A 
ATOM      7  C   UNL     1      12.903  18.351  -4.166  1.00  0.00     0.050 A 
ATOM      8  C   UNL     1      13.449  20.633  -1.153  1.00  0.00     0.201 C 
ATOM      9  O   UNL     1      14.550  21.187  -1.414  1.00  0.00    -0.288 OA
ATOM     10  C   UNL     1      12.763  20.940   0.130  1.00  0.00     0.076 A 
ATOM     11  C   UNL     1      11.779  20.051   0.613  1.00  0.00     0.041 A 
ATOM     12  C   UNL     1      11.417  18.853  -0.178  1.00  0.00     0.194 C 
ATOM     13  O   UNL     1      10.632  17.993   0.309  1.00  0.00    -0.289 OA
ATOM     14  C   UNL     1      11.149  20.308   1.843  1.00  0.00     0.059 A 
ATOM     15  C   UNL     1      11.485  21.441   2.590  1.00  0.00     0.120 A 
ATOM     16  C   UNL     1      12.451  22.325   2.112  1.00  0.00     0.093 A 
ATOM     17  C   UNL     1      13.092  22.087   0.890  1.00  0.00     0.131 A 
ENDROOT
BRANCH   6  18
ATOM     18  O   UNL     1      14.138  20.388  -4.056  1.00  0.00    -0.507 OA
ATOM     19  H   UNL     1      14.557  20.239  -4.963  1.00  0.00     0.293 HD
ENDBRANCH   6  18
BRANCH  17  20
ATOM     20  O   UNL     1      14.046  22.996   0.429  1.00  0.00    -0.507 OA
ATOM     21  H   UNL     1      14.309  23.043  -0.549  1.00  0.00     0.293 HD
ENDBRANCH  17  20
BRANCH  15  22
ATOM     22  O   UNL     1      10.861  21.698   3.809  1.00  0.00    -0.508 OA
ATOM     23  H   UNL     1      11.243  22.365   4.471  1.00  0.00     0.293 HD
ENDBRANCH  15  22
TORSDOF 3
ENDMDL
MODEL 2
REMARK VINA RESULT:    -6.949      1.623      5.572
REMARK INTER + INTRA:          -7.558
REMARK INTER:                  -7.558
REMARK INTRA:                   0.000
REMARK UNBOUND:                 0.000
REMARK SMILES Cc1cc(O)c2c(c1)C(=O)c1cc(O)cc(O)c1C2=O
REMARK SMILES IDX 1 1 2 2 8 3 7 4 6 5 4 6 3 7 19 8 20 9 18 10 11 11 9 12 10 13
REMARK SMILES IDX 12 14 13 15 15 16 16 17 5 18 17 20 14 22
REMARK H PARENT 5 19 17 21 14 23
REMARK Flexibility Score: inf
ROOT
ATOM      1  C   UNL     1      10.955  20.594   5.118  1.00  0.00     0.044 C 
ATOM      2  C   UNL     1      11.721  20.787   3.842  1.00  0.00    -0.047 A 
ATOM      3  C   UNL     1      11.313  20.142   2.672  1.00  0.00     0.016 A 
ATOM      4  C   UNL     1      11.994  20.353   1.460  1.00  0.00     0.038 A 
ATOM      5  C   UNL     1      13.088  21.248   1.413  1.00  0.00     0.076 A 
ATOM      6  C   UNL     1      13.534  21.855   2.619  1.00  0.00     0.127 A 
ATOM      7  C   UNL     1      12.823  21.648   3.805  1.00  0.00     0.050 A 
ATOM      8  C   UNL     1      13.686  21.567   0.086  1.00  0.00     0.201 C 
ATOM      9  O   UNL     1      14.349  22.627  -0.073  1.00  0.00    -0.288 OA
ATOM     10  C   UNL     1      13.406  20.698  -1.088  1.00  0.00     0.076 A 
ATOM     11  C   UNL     1      12.353  19.761  -1.013  1.00  0.00     0.041 A 
ATOM     12  C   UNL     1      11.571  19.631   0.237  1.00  0.00     0.194 C 
ATOM     13  O   UNL     1      10.551  18.887   0.265  1.00  0.00    -0.289 OA
ATOM     14  C   UNL     1      12.052  18.959  -2.128  1.00  0.00     0.059 A 
ATOM     15  C   UNL     1      12.791  19.077  -3.308  1.00  0.00     0.120 A 
ATOM     16  C   UNL     1      13.838  19.995  -3.382  1.00  0.00     0.093 A 
ATOM     17  C   UNL     1      14.153  20.806  -2.284  1.00  0.00     0.131 A 
ENDROOT
BRANCH   6  18
ATOM     18  O   UNL     1      14.689  22.636   2.697  1.00  0.00    -0.507 OA
ATOM     19  H   UNL     1      15.610  22.260   2.871  1.00  0.00     0.293 HD
ENDBRANCH   6  18
BRANCH  17  20
ATOM     20  O   UNL     1      15.214  21.707  -2.382  1.00  0.00    -0.507 OA
ATOM     21  H   UNL     1      15.928  21.769  -1.665  1.00  0.00     0.293 HD
ENDBRANCH  17  20
BRANCH  15  22
ATOM     22  O   UNL     1      12.496  18.282  -4.413  1.00  0.00    -0.508 OA
ATOM     23  H   UNL     1      11.582  17.859  -4.534  1.00  0.00     0.293 HD
ENDBRANCH  15  22
TORSDOF 3
ENDMDL
MODEL 3
REMARK VINA RESULT:    -6.816      1.784      5.843
REMARK INTER + INTRA:          -7.413
REMARK INTER:                  -7.413
REMARK INTRA:                   0.000
REMARK UNBOUND:                 0.000
REMARK SMILES Cc1cc(O)c2c(c1)C(=O)c1cc(O)cc(O)c1C2=O
REMARK SMILES IDX 1 1 2 2 8 3 7 4 6 5 4 6 3 7 19 8 20 9 18 10 11 11 9 12 10 13
REMARK SMILES IDX 12 14 13 15 15 16 16 17 5 18 17 20 14 22
REMARK H PARENT 5 19 17 21 14 23
REMARK Flexibility Score: inf
ROOT
ATOM      1  C   UNL     1      11.701  21.326   6.414  1.00  0.00     0.044 C 
ATOM      2  C   UNL     1      12.052  21.204   4.960  1.00  0.00    -0.047 A 
ATOM      3  C   UNL     1      11.286  20.397   4.115  1.00  0.00     0.016 A 
ATOM      4  C   UNL     1      11.577  20.312   2.742  1.00  0.00     0.038 A 
ATOM      5  C   UNL     1      12.639  21.073   2.199  1.00  0.00     0.076 A 
ATOM      6  C   UNL     1      13.450  21.845   3.074  1.00  0.00     0.127 A 
ATOM      7  C   UNL     1      13.123  21.932   4.431  1.00  0.00     0.050 A 
ATOM      8  C   UNL     1      12.820  21.081   0.720  1.00  0.00     0.201 C 
ATOM      9  O   UNL     1      13.443  22.023   0.163  1.00  0.00    -0.288 OA
ATOM     10  C   UNL     1      12.166  20.041  -0.118  1.00  0.00     0.076 A 
ATOM     11  C   UNL     1      11.150  19.241   0.448  1.00  0.00     0.041 A 
ATOM     12  C   UNL     1      10.777  19.421   1.869  1.00  0.00     0.194 C 
ATOM     13  O   UNL     1       9.786  18.798   2.342  1.00  0.00    -0.289 OA
ATOM     14  C   UNL     1      10.496  18.280  -0.342  1.00  0.00     0.059 A 
ATOM     15  C   UNL     1      10.849  18.105  -1.684  1.00  0.00     0.120 A 
ATOM     16  C   UNL     1      11.858  18.887  -2.243  1.00  0.00     0.093 A 
ATOM     17  C   UNL     1      12.520  19.852  -1.474  1.00  0.00     0.131 A 
ENDROOT
BRANCH   6  18
ATOM     18  O   UNL     1      14.603  22.511   2.654  1.00  0.00    -0.507 OA
ATOM     19  H   UNL     1      14.655  23.509   2.513  1.00  0.00     0.293 HD
ENDBRANCH   6  18
BRANCH  17  20
ATOM     20  O   UNL     1      13.536  20.612  -2.057  1.00  0.00    -0.507 OA
ATOM     21  H   UNL     1      13.848  20.446  -3.007  1.00  0.00     0.293 HD
ENDBRANCH  17  20
BRANCH  15  22
ATOM     22  O   UNL     1      10.203  17.152  -2.469  1.00  0.00    -0.508 OA
ATOM     23  H   UNL     1       9.362  17.374  -2.989  1.00  0.00     0.293 HD
ENDBRANCH  15  22
TORSDOF 3
ENDMDL
MODEL 4
REMARK VINA RESULT:    -6.751      2.385      6.360
REMARK INTER + INTRA:          -7.343
REMARK INTER:                  -7.343
REMARK INTRA:                   0.000
REMARK UNBOUND:                 0.000
REMARK SMILES Cc1cc(O)c2c(c1)C(=O)c1cc(O)cc(O)c1C2=O
REMARK SMILES IDX 1 1 2 2 8 3 7 4 6 5 4 6 3 7 19 8 20 9 18 10 11 11 9 12 10 13
REMARK SMILES IDX 12 14 13 15 15 16 16 17 5 18 17 20 14 22
REMARK H PARENT 5 19 17 21 14 23
REMARK Flexibility Score: inf
ROOT
ATOM      1  C   UNL     1      12.079  20.007   6.973  1.00  0.00     0.044 C 
ATOM      2  C   UNL     1      11.862  19.976   5.488  1.00  0.00    -0.047 A 
ATOM      3  C   UNL     1      12.909  20.291   4.617  1.00  0.00     0.016 A 
ATOM      4  C   UNL     1      12.731  20.220   3.224  1.00  0.00     0.038 A 
ATOM      5  C   UNL     1      11.489  19.798   2.693  1.00  0.00     0.076 A 
ATOM      6  C   UNL     1      10.413  19.537   3.584  1.00  0.00     0.127 A 
ATOM      7  C   UNL     1      10.624  19.590   4.965  1.00  0.00     0.050 A 
ATOM      8  C   UNL     1      11.385  19.584   1.222  1.00  0.00     0.201 C 
ATOM      9  O   UNL     1      10.484  18.838   0.753  1.00  0.00    -0.288 OA
ATOM     10  C   UNL     1      12.412  20.153   0.310  1.00  0.00     0.076 A 
ATOM     11  C   UNL     1      13.624  20.630   0.853  1.00  0.00     0.041 A 
ATOM     12  C   UNL     1      13.840  20.594   2.316  1.00  0.00     0.194 C 
ATOM     13  O   UNL     1      14.969  20.901   2.792  1.00  0.00    -0.289 OA
ATOM     14  C   UNL     1      14.620  21.136  -0.002  1.00  0.00     0.059 A 
ATOM     15  C   UNL     1      14.417  21.175  -1.384  1.00  0.00     0.120 A 
ATOM     16  C   UNL     1      13.217  20.712  -1.923  1.00  0.00     0.093 A 
ATOM     17  C   UNL     1      12.212  20.202  -1.090  1.00  0.00     0.131 A 
ENDROOT
BRANCH   6  18
ATOM     18  O   UNL     1       9.116  19.258   3.149  1.00  0.00    -0.507 OA
ATOM     19  H   UNL     1       8.896  18.568   2.445  1.00  0.00     0.293 HD
ENDBRANCH   6  18
BRANCH  17  20
ATOM     20  O   UNL     1      11.016  19.758  -1.654  1.00  0.00    -0.507 OA
ATOM     21  H   UNL     1      10.625  18.850  -1.429  1.00  0.00     0.293 HD
ENDBRANCH  17  20
BRANCH  15  22
ATOM     22  O   UNL     1      15.401  21.677  -2.232  1.00  0.00    -0.508 OA
ATOM     23  H   UNL     1      15.869  21.087  -2.911  1.00  0.00     0.293 HD
ENDBRANCH  15  22
TORSDOF 3
ENDMDL
MODEL 5
REMARK VINA RESULT:    -6.649      2.973      4.546
REMARK INTER + INTRA:          -7.233
REMARK INTER:                  -7.233
REMARK INTRA:                   0.000
REMARK UNBOUND:                 0.000
REMARK SMILES Cc1cc(O)c2c(c1)C(=O)c1cc(O)cc(O)c1C2=O
REMARK SMILES IDX 1 1 2 2 8 3 7 4 6 5 4 6 3 7 19 8 20 9 18 10 11 11 9 12 10 13
REMARK SMILES IDX 12 14 13 15 15 16 16 17 5 18 17 20 14 22
REMARK H PARENT 5 19 17 21 14 23
REMARK Flexibility Score: inf
ROOT
ATOM      1  C   UNL     1      13.144  20.160  -2.678  1.00  0.00     0.044 C 
ATOM      2  C   UNL     1      13.111  20.200  -1.178  1.00  0.00    -0.047 A 
ATOM      3  C   UNL     1      12.706  19.076  -0.453  1.00  0.00     0.016 A 
ATOM      4  C   UNL     1      12.716  19.086   0.953  1.00  0.00     0.038 A 
ATOM      5  C   UNL     1      13.168  20.233   1.647  1.00  0.00     0.076 A 
ATOM      6  C   UNL     1      13.522  21.392   0.903  1.00  0.00     0.127 A 
ATOM      7  C   UNL     1      13.528  21.346  -0.494  1.00  0.00     0.050 A 
ATOM      8  C   UNL     1      13.314  20.154   3.127  1.00  0.00     0.201 C 
ATOM      9  O   UNL     1      14.076  20.953   3.733  1.00  0.00    -0.288 OA
ATOM     10  C   UNL     1      12.653  19.058   3.885  1.00  0.00     0.076 A 
ATOM     11  C   UNL     1      12.147  17.945   3.181  1.00  0.00     0.041 A 
ATOM     12  C   UNL     1      12.246  17.899   1.705  1.00  0.00     0.194 C 
ATOM     13  O   UNL     1      11.911  16.851   1.085  1.00  0.00    -0.289 OA
ATOM     14  C   UNL     1      11.554  16.883   3.888  1.00  0.00     0.059 A 
ATOM     15  C   UNL     1      11.456  16.925   5.281  1.00  0.00     0.120 A 
ATOM     16  C   UNL     1      11.947  18.028   5.979  1.00  0.00     0.093 A 
ATOM     17  C   UNL     1      12.544  19.095   5.295  1.00  0.00     0.131 A 
ENDROOT
BRANCH   6  18
ATOM     18  O   UNL     1      13.840  22.613   1.501  1.00  0.00    -0.507 OA
ATOM     19  H   UNL     1      14.684  23.131   1.306  1.00  0.00     0.293 HD
ENDBRANCH   6  18
BRANCH  17  20
ATOM     20  O   UNL     1      13.015  20.192   6.017  1.00  0.00    -0.507 OA
ATOM     21  H   UNL     1      12.466  20.620   6.755  1.00  0.00     0.293 HD
ENDBRANCH  17  20
BRANCH  15  22
ATOM     22  O   UNL     1      10.868  15.875   5.983  1.00  0.00    -0.508 OA
ATOM     23  H   UNL     1      10.182  15.266   5.552  1.00  0.00     0.293 HD
ENDBRANCH  15  22
TORSDOF 3
ENDMDL
MODEL 6
REMARK VINA RESULT:    -6.624      3.315      4.603
REMARK INTER + INTRA:          -7.205
REMARK INTER:                  -7.205
REMARK INTRA:                   0.000
REMARK UNBOUND:                 0.000
REMARK SMILES Cc1cc(O)c2c(c1)C(=O)c1cc(O)cc(O)c1C2=O
REMARK SMILES IDX 1 1 2 2 8 3 7 4 6 5 4 6 3 7 19 8 20 9 18 10 11 11 9 12 10 13
REMARK SMILES IDX 12 14 13 15 15 16 16 17 5 18 17 20 14 22
REMARK H PARENT 5 19 17 21 14 23
REMARK Flexibility Score: inf
ROOT
ATOM      1  C   UNL     1      13.203  16.115  -0.479  1.00  0.00     0.044 C 
ATOM      2  C   UNL     1      13.110  17.262   0.485  1.00  0.00    -0.047 A 
ATOM      3  C   UNL     1      12.725  17.040   1.809  1.00  0.00     0.016 A 
ATOM      4  C   UNL     1      12.681  18.100   2.732  1.00  0.00     0.038 A 
ATOM      5  C   UNL     1      13.056  19.402   2.328  1.00  0.00     0.076 A 
ATOM      6  C   UNL     1      13.389  19.631   0.965  1.00  0.00     0.127 A 
ATOM      7  C   UNL     1      13.450  18.555   0.074  1.00  0.00     0.050 A 
ATOM      8  C   UNL     1      13.147  20.467   3.366  1.00  0.00     0.201 C 
ATOM      9  O   UNL     1      13.851  21.492   3.163  1.00  0.00    -0.288 OA
ATOM     10  C   UNL     1      12.506  20.273   4.694  1.00  0.00     0.076 A 
ATOM     11  C   UNL     1      12.076  18.982   5.066  1.00  0.00     0.041 A 
ATOM     12  C   UNL     1      12.233  17.852   4.123  1.00  0.00     0.194 C 
ATOM     13  O   UNL     1      11.968  16.677   4.500  1.00  0.00    -0.289 OA
ATOM     14  C   UNL     1      11.502  18.776   6.333  1.00  0.00     0.059 A 
ATOM     15  C   UNL     1      11.348  19.841   7.225  1.00  0.00     0.120 A 
ATOM     16  C   UNL     1      11.764  21.120   6.856  1.00  0.00     0.093 A 
ATOM     17  C   UNL     1      12.340  21.347   5.600  1.00  0.00     0.131 A 
ENDROOT
BRANCH   6  18
ATOM     18  O   UNL     1      13.630  20.904   0.443  1.00  0.00    -0.507 OA
ATOM     19  H   UNL     1      13.962  21.682   0.994  1.00  0.00     0.293 HD
ENDBRANCH   6  18
BRANCH  17  20
ATOM     20  O   UNL     1      12.735  22.639   5.252  1.00  0.00    -0.507 OA
ATOM     21  H   UNL     1      13.273  23.220   5.885  1.00  0.00     0.293 HD
ENDBRANCH  17  20
BRANCH  15  22
ATOM     22  O   UNL     1      10.778  19.640   8.480  1.00  0.00    -0.508 OA
ATOM     23  H   UNL     1      11.333  19.335   9.273  1.00  0.00     0.293 HD
ENDBRANCH  15  22
TORSDOF 3
ENDMDL
MODEL 7
REMARK VINA RESULT:    -6.512      1.749      3.661
REMARK INTER + INTRA:          -7.083
REMARK INTER:                  -7.083
REMARK INTRA:                   0.000
REMARK UNBOUND:                 0.000
REMARK SMILES Cc1cc(O)c2c(c1)C(=O)c1cc(O)cc(O)c1C2=O
REMARK SMILES IDX 1 1 2 2 8 3 7 4 6 5 4 6 3 7 19 8 20 9 18 10 11 11 9 12 10 13
REMARK SMILES IDX 12 14 13 15 15 16 16 17 5 18 17 20 14 22
REMARK H PARENT 5 19 17 21 14 23
REMARK Flexibility Score: inf
ROOT
ATOM      1  C   UNL     1      13.515  19.670  -4.131  1.00  0.00     0.044 C 
ATOM      2  C   UNL     1      12.833  19.581  -2.797  1.00  0.00    -0.047 A 
ATOM      3  C   UNL     1      13.213  20.430  -1.754  1.00  0.00     0.016 A 
ATOM      4  C   UNL     1      12.550  20.389  -0.515  1.00  0.00     0.038 A 
ATOM      5  C   UNL     1      11.466  19.499  -0.325  1.00  0.00     0.076 A 
ATOM      6  C   UNL     1      11.125  18.598  -1.370  1.00  0.00     0.127 A 
ATOM      7  C   UNL     1      11.784  18.678  -2.601  1.00  0.00     0.050 A 
ATOM      8  C   UNL     1      10.688  19.591   0.942  1.00  0.00     0.201 C 
ATOM      9  O   UNL     1       9.511  19.147   0.996  1.00  0.00    -0.288 OA
ATOM     10  C   UNL     1      11.252  20.313   2.113  1.00  0.00     0.076 A 
ATOM     11  C   UNL     1      12.372  21.150   1.930  1.00  0.00     0.041 A 
ATOM     12  C   UNL     1      12.992  21.270   0.591  1.00  0.00     0.194 C 
ATOM     13  O   UNL     1      13.911  22.113   0.397  1.00  0.00    -0.289 OA
ATOM     14  C   UNL     1      12.893  21.869   3.021  1.00  0.00     0.059 A 
ATOM     15  C   UNL     1      12.313  21.755   4.288  1.00  0.00     0.120 A 
ATOM     16  C   UNL     1      11.211  20.921   4.474  1.00  0.00     0.093 A 
ATOM     17  C   UNL     1      10.675  20.199   3.400  1.00  0.00     0.131 A 
ENDROOT
BRANCH   6  18
ATOM     18  O   UNL     1      10.170  17.589  -1.224  1.00  0.00    -0.507 OA
ATOM     19  H   UNL     1      10.379  16.604  -1.291  1.00  0.00     0.293 HD
ENDBRANCH   6  18
BRANCH  17  20
ATOM     20  O   UNL     1       9.580  19.362   3.618  1.00  0.00    -0.507 OA
ATOM     21  H   UNL     1       9.063  18.950   2.849  1.00  0.00     0.293 HD
ENDBRANCH  17  20
BRANCH  15  22
ATOM     22  O   UNL     1      12.828  22.464   5.371  1.00  0.00    -0.508 OA
ATOM     23  H   UNL     1      13.767  22.301   5.715  1.00  0.00     0.293 HD
ENDBRANCH  15  22
TORSDOF 3
ENDMDL
MODEL 8
REMARK VINA RESULT:    -6.440      1.333      3.411
REMARK INTER + INTRA:          -7.005
REMARK INTER:                  -7.005
REMARK INTRA:                   0.000
REMARK UNBOUND:                 0.000
REMARK SMILES Cc1cc(O)c2c(c1)C(=O)c1cc(O)cc(O)c1C2=O
REMARK SMILES IDX 1 1 2 2 8 3 7 4 6 5 4 6 3 7 19 8 20 9 18 10 11 11 9 12 10 13
REMARK SMILES IDX 12 14 13 15 15 16 16 17 5 18 17 20 14 22
REMARK H PARENT 5 19 17 21 14 23
REMARK Flexibility Score: inf
ROOT
ATOM      1  C   UNL     1      12.910  17.055  -6.461  1.00  0.00     0.044 C 
ATOM      2  C   UNL     1      12.558  17.380  -5.039  1.00  0.00    -0.047 A 
ATOM      3  C   UNL     1      13.098  18.511  -4.420  1.00  0.00     0.016 A 
ATOM      4  C   UNL     1      12.738  18.851  -3.104  1.00  0.00     0.038 A 
ATOM      5  C   UNL     1      11.798  18.060  -2.404  1.00  0.00     0.076 A 
ATOM      6  C   UNL     1      11.299  16.879  -3.018  1.00  0.00     0.127 A 
ATOM      7  C   UNL     1      11.653  16.578  -4.337  1.00  0.00     0.050 A 
ATOM      8  C   UNL     1      11.322  18.536  -1.074  1.00  0.00     0.201 C 
ATOM      9  O   UNL     1      10.226  18.125  -0.609  1.00  0.00    -0.288 OA
ATOM     10  C   UNL     1      12.080  19.585  -0.342  1.00  0.00     0.076 A 
ATOM     11  C   UNL     1      13.061  20.329  -1.030  1.00  0.00     0.041 A 
ATOM     12  C   UNL     1      13.350  20.032  -2.451  1.00  0.00     0.194 C 
ATOM     13  O   UNL     1      14.133  20.778  -3.102  1.00  0.00    -0.289 OA
ATOM     14  C   UNL     1      13.759  21.351  -0.362  1.00  0.00     0.059 A 
ATOM     15  C   UNL     1      13.492  21.631   0.981  1.00  0.00     0.120 A 
ATOM     16  C   UNL     1      12.528  20.892   1.666  1.00  0.00     0.093 A 
ATOM     17  C   UNL     1      11.821  19.872   1.019  1.00  0.00     0.131 A 
ENDROOT
BRANCH   6  18
ATOM     18  O   UNL     1      10.483  15.961  -2.353  1.00  0.00    -0.507 OA
ATOM     19  H   UNL     1      10.326  15.016  -2.671  1.00  0.00     0.293 HD
ENDBRANCH   6  18
BRANCH  17  20
ATOM     20  O   UNL     1      10.871  19.139   1.732  1.00  0.00    -0.507 OA
ATOM     21  H   UNL     1       9.885  19.177   1.501  1.00  0.00     0.293 HD
ENDBRANCH  17  20
BRANCH  15  22
ATOM     22  O   UNL     1      14.183  22.642   1.646  1.00  0.00    -0.508 OA
ATOM     23  H   UNL     1      14.927  23.163   1.196  1.00  0.00     0.293 HD
ENDBRANCH  15  22
TORSDOF 3
ENDMDL
MODEL 9
REMARK VINA RESULT:    -6.267      2.667      4.578
REMARK INTER + INTRA:          -6.816
REMARK INTER:                  -6.816
REMARK INTRA:                   0.000
REMARK UNBOUND:                 0.000
REMARK SMILES Cc1cc(O)c2c(c1)C(=O)c1cc(O)cc(O)c1C2=O
REMARK SMILES IDX 1 1 2 2 8 3 7 4 6 5 4 6 3 7 19 8 20 9 18 10 11 11 9 12 10 13
REMARK SMILES IDX 12 14 13 15 15 16 16 17 5 18 17 20 14 22
REMARK H PARENT 5 19 17 21 14 23
REMARK Flexibility Score: inf
ROOT
ATOM      1  C   UNL     1      13.170  20.377  -3.306  1.00  0.00     0.044 C 
ATOM      2  C   UNL     1      12.570  19.689  -2.115  1.00  0.00    -0.047 A 
ATOM      3  C   UNL     1      13.114  19.880  -0.843  1.00  0.00     0.016 A 
ATOM      4  C   UNL     1      12.532  19.278   0.286  1.00  0.00     0.038 A 
ATOM      5  C   UNL     1      11.365  18.491   0.142  1.00  0.00     0.076 A 
ATOM      6  C   UNL     1      10.852  18.253  -1.162  1.00  0.00     0.127 A 
ATOM      7  C   UNL     1      11.435  18.885  -2.265  1.00  0.00     0.050 A 
ATOM      8  C   UNL     1      10.686  17.999   1.374  1.00  0.00     0.201 C 
ATOM      9  O   UNL     1       9.470  17.672   1.339  1.00  0.00    -0.288 OA
ATOM     10  C   UNL     1      11.405  18.003   2.675  1.00  0.00     0.076 A 
ATOM     11  C   UNL     1      12.603  18.739   2.795  1.00  0.00     0.041 A 
ATOM     12  C   UNL     1      13.145  19.461   1.623  1.00  0.00     0.194 C 
ATOM     13  O   UNL     1      14.144  20.221   1.760  1.00  0.00    -0.289 OA
ATOM     14  C   UNL     1      13.274  18.783   4.031  1.00  0.00     0.059 A 
ATOM     15  C   UNL     1      12.767  18.098   5.139  1.00  0.00     0.120 A 
ATOM     16  C   UNL     1      11.588  17.363   5.021  1.00  0.00     0.093 A 
ATOM     17  C   UNL     1      10.903  17.308   3.801  1.00  0.00     0.131 A 
ENDROOT
BRANCH   6  18
ATOM     18  O   UNL     1       9.796  17.376  -1.417  1.00  0.00    -0.507 OA
ATOM     19  H   UNL     1       8.923  17.386  -0.908  1.00  0.00     0.293 HD
ENDBRANCH   6  18
BRANCH  17  20
ATOM     20  O   UNL     1       9.732  16.554   3.707  1.00  0.00    -0.507 OA
ATOM     21  H   UNL     1       9.661  15.756   3.087  1.00  0.00     0.293 HD
ENDBRANCH  17  20
BRANCH  15  22
ATOM     22  O   UNL     1      13.431  18.139   6.363  1.00  0.00    -0.508 OA
ATOM     23  H   UNL     1      12.943  17.984   7.238  1.00  0.00     0.293 HD
ENDBRANCH  15  22
TORSDOF 3
ENDMDL
