MODEL 1
REMARK VINA RESULT:    -3.240      0.000      0.000
REMARK INTER + INTRA:          -5.085
REMARK INTER:                  -4.945
REMARK INTRA:                  -0.140
REMARK UNBOUND:                -0.140
REMARK SMILES CC1=CCC[C@@H](C)C(=O)C[C@H](C(C)C)C(=O)C1
REMARK SMILES IDX 8 1 9 2 6 3 7 4 5 5 4 6 3 7 2 8 1 9 10 11 11 12 15 13 16 14
REMARK SMILES IDX 17 15 12 17 13 18 14 19
REMARK H PARENT
REMARK Flexibility Score: 70.00
ROOT
ATOM      1  C   UNL     1      28.412 -43.109 -21.384  1.00  0.00     0.136 C 
ATOM      2  O   UNL     1      29.373 -42.440 -21.029  1.00  0.00    -0.299 OA
ENDROOT
BRANCH   1   3
ATOM      3  C   UNL     1      27.816 -42.881 -22.760  1.00  0.00     0.053 C 
ATOM      4  C   UNL     1      27.525 -41.390 -22.975  1.00  0.00     0.016 C 
BRANCH   3   5
ATOM      5  C   UNL     1      26.533 -43.725 -22.940  1.00  0.00     0.015 C 
BRANCH   5   6
ATOM      6  C   UNL     1      25.263 -42.883 -22.704  1.00  0.00     0.028 C 
BRANCH   6   7
ATOM      7  C   UNL     1      24.201 -43.608 -21.913  1.00  0.00    -0.028 C 
ATOM      8  C   UNL     1      24.125 -43.667 -20.559  1.00  0.00    -0.070 CG0
ATOM      9  C   UNL     1      23.046 -44.534 -19.958  1.00  0.00     0.039 C 
ATOM     10  G   UNL     1      25.029 -42.872 -19.624  1.00  0.00     0.000 G0
ENDBRANCH   6   7
ENDBRANCH   5   6
ENDBRANCH   3   5
ENDBRANCH   1   3
BRANCH   1  11
ATOM     11  C   UNL     1      27.866 -44.160 -20.444  1.00  0.00     0.087 C 
BRANCH  11  12
ATOM     12  C   UNL     1      27.492 -43.564 -19.059  1.00  0.00     0.066 C 
BRANCH  12  13
ATOM     13  C   UNL     1      25.994 -43.711 -18.833  1.00  0.00     0.140 C 
ATOM     14  O   UNL     1      25.577 -44.480 -17.977  1.00  0.00    -0.299 OA
BRANCH  13  15
ATOM     15  C   UNL     1      25.023 -42.874 -19.628  1.00  0.00     0.106 CG0
ATOM     16  G   UNL     1      24.137 -43.678 -20.571  1.00  0.00     0.000 G0
ENDBRANCH  13  15
ENDBRANCH  12  13
BRANCH  12  17
ATOM     17  C   UNL     1      28.306 -44.190 -17.879  1.00  0.00    -0.006 C 
ATOM     18  C   UNL     1      29.395 -45.166 -18.364  1.00  0.00     0.008 C 
ATOM     19  C   UNL     1      28.975 -43.094 -17.026  1.00  0.00     0.008 C 
ENDBRANCH  12  17
ENDBRANCH  11  12
ENDBRANCH   1  11
TORSDOF 1
ENDMDL
MODEL 2
REMARK VINA RESULT:    -3.184      2.138      2.716
REMARK INTER + INTRA:          -5.000
REMARK INTER:                  -4.835
REMARK INTRA:                  -0.165
REMARK UNBOUND:                -0.140
REMARK SMILES CC1=CCC[C@@H](C)C(=O)C[C@H](C(C)C)C(=O)C1
REMARK SMILES IDX 8 1 9 2 6 3 7 4 5 5 4 6 3 7 2 8 1 9 10 11 11 12 15 13 16 14
REMARK SMILES IDX 17 15 12 17 13 18 14 19
REMARK H PARENT
REMARK Flexibility Score: 70.00
ROOT
ATOM      1  C   UNL     1      26.526 -43.879 -21.452  1.00  0.00     0.136 C 
ATOM      2  O   UNL     1      25.316 -43.706 -21.521  1.00  0.00    -0.299 OA
ENDROOT
BRANCH   1   3
ATOM      3  C   UNL     1      27.405 -43.442 -22.608  1.00  0.00     0.053 C 
ATOM      4  C   UNL     1      28.885 -43.506 -22.205  1.00  0.00     0.016 C 
BRANCH   3   5
ATOM      5  C   UNL     1      27.021 -42.017 -23.071  1.00  0.00     0.015 C 
BRANCH   5   6
ATOM      6  C   UNL     1      27.499 -40.947 -22.068  1.00  0.00     0.028 C 
BRANCH   6   7
ATOM      7  C   UNL     1      26.368 -40.247 -21.354  1.00  0.00    -0.028 C 
ATOM      8  C   UNL     1      26.114 -40.310 -20.023  1.00  0.00    -0.070 CG0
ATOM      9  C   UNL     1      24.869 -39.623 -19.517  1.00  0.00     0.039 C 
ATOM     10  G   UNL     1      27.036 -40.984 -19.015  1.00  0.00     0.000 G0
ENDBRANCH   6   7
ENDBRANCH   5   6
ENDBRANCH   3   5
ENDBRANCH   1   3
BRANCH   1  11
ATOM     11  C   UNL     1      27.105 -44.503 -20.203  1.00  0.00     0.087 C 
BRANCH  11  12
ATOM     12  C   UNL     1      27.832 -43.456 -19.314  1.00  0.00     0.066 C 
BRANCH  12  13
ATOM     13  C   UNL     1      26.818 -42.455 -18.780  1.00  0.00     0.140 C 
ATOM     14  O   UNL     1      25.842 -42.847 -18.153  1.00  0.00    -0.299 OA
BRANCH  13  15
ATOM     15  C   UNL     1      27.039 -40.976 -18.980  1.00  0.00     0.106 CG0
ATOM     16  G   UNL     1      26.102 -40.340 -20.000  1.00  0.00     0.000 G0
ENDBRANCH  13  15
ENDBRANCH  12  13
BRANCH  12  17
ATOM     17  C   UNL     1      28.656 -44.102 -18.151  1.00  0.00    -0.006 C 
ATOM     18  C   UNL     1      29.365 -45.401 -18.578  1.00  0.00     0.008 C 
ATOM     19  C   UNL     1      29.715 -43.119 -17.612  1.00  0.00     0.008 C 
ENDBRANCH  12  17
ENDBRANCH  11  12
ENDBRANCH   1  11
TORSDOF 1
ENDMDL
MODEL 3
REMARK VINA RESULT:    -3.158      2.196      4.901
REMARK INTER + INTRA:          -4.960
REMARK INTER:                  -4.808
REMARK INTRA:                  -0.153
REMARK UNBOUND:                -0.140
REMARK SMILES CC1=CCC[C@@H](C)C(=O)C[C@H](C(C)C)C(=O)C1
REMARK SMILES IDX 8 1 9 2 6 3 7 4 5 5 4 6 3 7 2 8 1 9 10 11 11 12 15 13 16 14
REMARK SMILES IDX 17 15 12 17 13 18 14 19
REMARK H PARENT
REMARK Flexibility Score: 70.00
ROOT
ATOM      1  C   UNL     1      28.772 -44.132 -19.814  1.00  0.00     0.136 C 
ATOM      2  O   UNL     1      28.469 -45.111 -20.482  1.00  0.00    -0.299 OA
ENDROOT
BRANCH   1   3
ATOM      3  C   UNL     1      29.344 -44.328 -18.423  1.00  0.00     0.053 C 
ATOM      4  C   UNL     1      28.522 -45.369 -17.652  1.00  0.00     0.016 C 
BRANCH   3   5
ATOM      5  C   UNL     1      29.385 -42.984 -17.661  1.00  0.00     0.015 C 
BRANCH   5   6
ATOM      6  C   UNL     1      28.292 -42.913 -16.575  1.00  0.00     0.028 C 
BRANCH   6   7
ATOM      7  C   UNL     1      27.722 -41.528 -16.390  1.00  0.00    -0.028 C 
ATOM      8  C   UNL     1      26.818 -40.928 -17.205  1.00  0.00    -0.070 CG0
ATOM      9  C   UNL     1      26.450 -39.496 -16.906  1.00  0.00     0.039 C 
ATOM     10  G   UNL     1      26.122 -41.635 -18.362  1.00  0.00     0.000 G0
ENDBRANCH   6   7
ENDBRANCH   5   6
ENDBRANCH   3   5
ENDBRANCH   1   3
BRANCH   1  11
ATOM     11  C   UNL     1      28.590 -42.755 -20.412  1.00  0.00     0.087 C 
BRANCH  11  12
ATOM     12  C   UNL     1      27.093 -42.428 -20.673  1.00  0.00     0.066 C 
BRANCH  12  13
ATOM     13  C   UNL     1      26.653 -41.303 -19.747  1.00  0.00     0.140 C 
ATOM     14  O   UNL     1      26.706 -40.141 -20.127  1.00  0.00    -0.299 OA
BRANCH  13  15
ATOM     15  C   UNL     1      26.105 -41.622 -18.378  1.00  0.00     0.106 CG0
ATOM     16  G   UNL     1      26.826 -40.911 -17.239  1.00  0.00     0.000 G0
ENDBRANCH  13  15
ENDBRANCH  12  13
BRANCH  12  17
ATOM     17  C   UNL     1      26.790 -42.081 -22.168  1.00  0.00    -0.006 C 
ATOM     18  C   UNL     1      27.664 -42.883 -23.151  1.00  0.00     0.008 C 
ATOM     19  C   UNL     1      25.308 -42.340 -22.506  1.00  0.00     0.008 C 
ENDBRANCH  12  17
ENDBRANCH  11  12
ENDBRANCH   1  11
TORSDOF 1
ENDMDL
MODEL 4
REMARK VINA RESULT:    -3.149      1.590      3.769
REMARK INTER + INTRA:          -4.946
REMARK INTER:                  -4.539
REMARK INTRA:                  -0.408
REMARK UNBOUND:                -0.140
REMARK SMILES CC1=CCC[C@@H](C)C(=O)C[C@H](C(C)C)C(=O)C1
REMARK SMILES IDX 8 1 9 2 6 3 7 4 5 5 4 6 3 7 2 8 1 9 10 11 11 12 15 13 16 14
REMARK SMILES IDX 17 15 12 17 13 18 14 19
REMARK H PARENT
REMARK Flexibility Score: 70.00
ROOT
ATOM      1  C   UNL     1      24.994 -43.801 -18.900  1.00  0.00     0.136 C 
ATOM      2  O   UNL     1      24.605 -44.875 -18.462  1.00  0.00    -0.299 OA
ENDROOT
BRANCH   1   3
ATOM      3  C   UNL     1      24.219 -43.128 -20.016  1.00  0.00     0.053 C 
ATOM      4  C   UNL     1      22.778 -42.847 -19.570  1.00  0.00     0.016 C 
BRANCH   3   5
ATOM      5  C   UNL     1      24.241 -44.001 -21.292  1.00  0.00     0.015 C 
BRANCH   5   6
ATOM      6  C   UNL     1      25.634 -44.005 -21.953  1.00  0.00     0.028 C 
BRANCH   6   7
ATOM      7  C   UNL     1      26.103 -42.632 -22.370  1.00  0.00    -0.028 C 
ATOM      8  C   UNL     1      27.263 -42.041 -21.987  1.00  0.00    -0.070 CG0
ATOM      9  C   UNL     1      27.501 -40.618 -22.429  1.00  0.00     0.039 C 
ATOM     10  G   UNL     1      28.349 -42.748 -21.186  1.00  0.00     0.000 G0
ENDBRANCH   6   7
ENDBRANCH   5   6
ENDBRANCH   3   5
ENDBRANCH   1   3
BRANCH   1  11
ATOM     11  C   UNL     1      26.226 -43.168 -18.292  1.00  0.00     0.087 C 
BRANCH  11  12
ATOM     12  C   UNL     1      27.535 -43.737 -18.905  1.00  0.00     0.066 C 
BRANCH  12  13
ATOM     13  C   UNL     1      28.246 -42.642 -19.686  1.00  0.00     0.140 C 
ATOM     14  O   UNL     1      28.745 -41.694 -19.095  1.00  0.00    -0.299 OA
BRANCH  13  15
ATOM     15  C   UNL     1      28.379 -42.747 -21.185  1.00  0.00     0.106 CG0
ATOM     16  G   UNL     1      27.273 -42.039 -21.958  1.00  0.00     0.000 G0
ENDBRANCH  13  15
ENDBRANCH  12  13
BRANCH  12  17
ATOM     17  C   UNL     1      28.484 -44.380 -17.840  1.00  0.00    -0.006 C 
ATOM     18  C   UNL     1      27.715 -45.150 -16.749  1.00  0.00     0.008 C 
ATOM     19  C   UNL     1      29.488 -45.343 -18.505  1.00  0.00     0.008 C 
ENDBRANCH  12  17
ENDBRANCH  11  12
ENDBRANCH   1  11
TORSDOF 1
ENDMDL
MODEL 5
REMARK VINA RESULT:    -3.058      2.162      4.605
REMARK INTER + INTRA:          -4.808
REMARK INTER:                  -4.494
REMARK INTRA:                  -0.314
REMARK UNBOUND:                -0.140
REMARK SMILES CC1=CCC[C@@H](C)C(=O)C[C@H](C(C)C)C(=O)C1
REMARK SMILES IDX 8 1 9 2 6 3 7 4 5 5 4 6 3 7 2 8 1 9 10 11 11 12 15 13 16 14
REMARK SMILES IDX 17 15 12 17 13 18 14 19
REMARK H PARENT
REMARK Flexibility Score: 70.00
ROOT
ATOM      1  C   UNL     1      27.194 -44.304 -17.482  1.00  0.00     0.136 C 
ATOM      2  O   UNL     1      27.274 -44.454 -16.271  1.00  0.00    -0.299 OA
ENDROOT
BRANCH   1   3
ATOM      3  C   UNL     1      28.461 -44.299 -18.316  1.00  0.00     0.053 C 
ATOM      4  C   UNL     1      29.220 -45.622 -18.141  1.00  0.00     0.016 C 
BRANCH   3   5
ATOM      5  C   UNL     1      29.355 -43.097 -17.934  1.00  0.00     0.015 C 
BRANCH   5   6
ATOM      6  C   UNL     1      28.999 -41.841 -18.756  1.00  0.00     0.028 C 
BRANCH   6   7
ATOM      7  C   UNL     1      28.917 -42.101 -20.240  1.00  0.00    -0.028 C 
ATOM      8  C   UNL     1      27.802 -41.982 -21.005  1.00  0.00    -0.070 CG0
ATOM      9  C   UNL     1      27.902 -42.390 -22.454  1.00  0.00     0.039 C 
ATOM     10  G   UNL     1      26.484 -41.413 -20.495  1.00  0.00     0.000 G0
ENDBRANCH   6   7
ENDBRANCH   5   6
ENDBRANCH   3   5
ENDBRANCH   1   3
BRANCH   1  11
ATOM     11  C   UNL     1      25.827 -44.154 -18.111  1.00  0.00     0.087 C 
BRANCH  11  12
ATOM     12  C   UNL     1      25.495 -42.670 -18.431  1.00  0.00     0.066 C 
BRANCH  12  13
ATOM     13  C   UNL     1      25.552 -42.452 -19.936  1.00  0.00     0.140 C 
ATOM     14  O   UNL     1      24.806 -43.081 -20.675  1.00  0.00    -0.299 OA
BRANCH  13  15
ATOM     15  C   UNL     1      26.493 -41.425 -20.516  1.00  0.00     0.106 CG0
ATOM     16  G   UNL     1      27.817 -42.002 -21.005  1.00  0.00     0.000 G0
ENDBRANCH  13  15
ENDBRANCH  12  13
BRANCH  12  17
ATOM     17  C   UNL     1      24.120 -42.207 -17.845  1.00  0.00    -0.006 C 
ATOM     18  C   UNL     1      23.723 -42.990 -16.578  1.00  0.00     0.008 C 
ATOM     19  C   UNL     1      24.142 -40.703 -17.505  1.00  0.00     0.008 C 
ENDBRANCH  12  17
ENDBRANCH  11  12
ENDBRANCH   1  11
TORSDOF 1
ENDMDL
MODEL 6
REMARK VINA RESULT:    -2.987     11.362     13.900
REMARK INTER + INTRA:          -4.700
REMARK INTER:                  -4.414
REMARK INTRA:                  -0.286
REMARK UNBOUND:                -0.140
REMARK SMILES CC1=CCC[C@@H](C)C(=O)C[C@H](C(C)C)C(=O)C1
REMARK SMILES IDX 8 1 9 2 6 3 7 4 5 5 4 6 3 7 2 8 1 9 10 11 11 12 15 13 16 14
REMARK SMILES IDX 17 15 12 17 13 18 14 19
REMARK H PARENT
REMARK Flexibility Score: 70.00
ROOT
ATOM      1  C   UNL     1      16.807 -43.030  -9.257  1.00  0.00     0.136 C 
ATOM      2  O   UNL     1      17.074 -42.068  -8.549  1.00  0.00    -0.299 OA
ENDROOT
BRANCH   1   3
ATOM      3  C   UNL     1      16.050 -44.203  -8.663  1.00  0.00     0.053 C 
ATOM      4  C   UNL     1      14.956 -43.703  -7.710  1.00  0.00     0.016 C 
BRANCH   3   5
ATOM      5  C   UNL     1      17.021 -45.160  -7.934  1.00  0.00     0.015 C 
BRANCH   5   6
ATOM      6  C   UNL     1      17.768 -46.074  -8.926  1.00  0.00     0.028 C 
BRANCH   6   7
ATOM      7  C   UNL     1      19.260 -45.842  -8.947  1.00  0.00    -0.028 C 
ATOM      8  C   UNL     1      19.981 -45.424 -10.017  1.00  0.00    -0.070 CG0
ATOM      9  C   UNL     1      21.480 -45.354  -9.866  1.00  0.00     0.039 C 
ATOM     10  G   UNL     1      19.359 -44.975 -11.334  1.00  0.00     0.000 G0
ENDBRANCH   6   7
ENDBRANCH   5   6
ENDBRANCH   3   5
ENDBRANCH   1   3
BRANCH   1  11
ATOM     11  C   UNL     1      17.221 -43.005 -10.711  1.00  0.00     0.087 C 
BRANCH  11  12
ATOM     12  C   UNL     1      18.669 -42.473 -10.895  1.00  0.00     0.066 C 
BRANCH  12  13
ATOM     13  C   UNL     1      19.493 -43.501 -11.657  1.00  0.00     0.140 C 
ATOM     14  O   UNL     1      20.304 -43.135 -12.496  1.00  0.00    -0.299 OA
BRANCH  13  15
ATOM     15  C   UNL     1      19.345 -44.970 -11.345  1.00  0.00     0.106 CG0
ATOM     16  G   UNL     1      19.994 -45.396 -10.034  1.00  0.00     0.000 G0
ENDBRANCH  13  15
ENDBRANCH  12  13
BRANCH  12  17
ATOM     17  C   UNL     1      18.728 -41.073 -11.591  1.00  0.00    -0.006 C 
ATOM     18  C   UNL     1      17.329 -40.483 -11.851  1.00  0.00     0.008 C 
ATOM     19  C   UNL     1      19.535 -40.069 -10.745  1.00  0.00     0.008 C 
ENDBRANCH  12  17
ENDBRANCH  11  12
ENDBRANCH   1  11
TORSDOF 1
ENDMDL
MODEL 7
REMARK VINA RESULT:    -2.817     13.455     15.398
REMARK INTER + INTRA:          -4.440
REMARK INTER:                  -4.476
REMARK INTRA:                   0.036
REMARK UNBOUND:                -0.140
REMARK SMILES CC1=CCC[C@@H](C)C(=O)C[C@H](C(C)C)C(=O)C1
REMARK SMILES IDX 8 1 9 2 6 3 7 4 5 5 4 6 3 7 2 8 1 9 10 11 11 12 15 13 16 14
REMARK SMILES IDX 17 15 12 17 13 18 14 19
REMARK H PARENT
REMARK Flexibility Score: 70.00
ROOT
ATOM      1  C   UNL     1      24.446 -30.733 -12.089  1.00  0.00     0.136 C 
ATOM      2  O   UNL     1      23.468 -30.091 -11.732  1.00  0.00    -0.299 OA
ENDROOT
BRANCH   1   3
ATOM      3  C   UNL     1      25.161 -31.618 -11.086  1.00  0.00     0.053 C 
ATOM      4  C   UNL     1      24.169 -32.585 -10.426  1.00  0.00     0.016 C 
BRANCH   3   5
ATOM      5  C   UNL     1      25.882 -30.757 -10.023  1.00  0.00     0.015 C 
BRANCH   5   6
ATOM      6  C   UNL     1      27.406 -30.732 -10.251  1.00  0.00     0.028 C 
BRANCH   6   7
ATOM      7  C   UNL     1      28.000 -32.101 -10.479  1.00  0.00    -0.028 C 
ATOM      8  C   UNL     1      28.419 -32.593 -11.672  1.00  0.00    -0.070 CG0
ATOM      9  C   UNL     1      28.886 -34.027 -11.711  1.00  0.00     0.039 C 
ATOM     10  G   UNL     1      28.492 -31.767 -12.950  1.00  0.00     0.000 G0
ENDBRANCH   6   7
ENDBRANCH   5   6
ENDBRANCH   3   5
ENDBRANCH   1   3
BRANCH   1  11
ATOM     11  C   UNL     1      24.895 -30.640 -13.530  1.00  0.00     0.087 C 
BRANCH  11  12
ATOM     12  C   UNL     1      26.412 -30.330 -13.648  1.00  0.00     0.066 C 
BRANCH  12  13
ATOM     13  C   UNL     1      27.193 -31.635 -13.707  1.00  0.00     0.140 C 
ATOM     14  O   UNL     1      26.782 -32.564 -14.390  1.00  0.00    -0.299 OA
BRANCH  13  15
ATOM     15  C   UNL     1      28.499 -31.770 -12.963  1.00  0.00     0.106 CG0
ATOM     16  G   UNL     1      28.402 -32.588 -11.681  1.00  0.00     0.000 G0
ENDBRANCH  13  15
ENDBRANCH  12  13
BRANCH  12  17
ATOM     17  C   UNL     1      26.760 -29.408 -14.863  1.00  0.00    -0.006 C 
ATOM     18  C   UNL     1      25.621 -28.428 -15.208  1.00  0.00     0.008 C 
ATOM     19  C   UNL     1      28.041 -28.594 -14.592  1.00  0.00     0.008 C 
ENDBRANCH  12  17
ENDBRANCH  11  12
ENDBRANCH   1  11
TORSDOF 1
ENDMDL
MODEL 8
REMARK VINA RESULT:    -2.785      2.424      5.054
REMARK INTER + INTRA:          -4.391
REMARK INTER:                  -4.021
REMARK INTRA:                  -0.370
REMARK UNBOUND:                -0.140
REMARK SMILES CC1=CCC[C@@H](C)C(=O)C[C@H](C(C)C)C(=O)C1
REMARK SMILES IDX 8 1 9 2 6 3 7 4 5 5 4 6 3 7 2 8 1 9 10 11 11 12 15 13 16 14
REMARK SMILES IDX 17 15 12 17 13 18 14 19
REMARK H PARENT
REMARK Flexibility Score: 70.00
ROOT
ATOM      1  C   UNL     1      24.861 -41.450 -20.974  1.00  0.00     0.136 C 
ATOM      2  O   UNL     1      24.055 -41.079 -21.817  1.00  0.00    -0.299 OA
ENDROOT
BRANCH   1   3
ATOM      3  C   UNL     1      24.737 -40.940 -19.551  1.00  0.00     0.053 C 
ATOM      4  C   UNL     1      25.535 -39.641 -19.379  1.00  0.00     0.016 C 
BRANCH   3   5
ATOM      5  C   UNL     1      25.214 -42.016 -18.548  1.00  0.00     0.015 C 
BRANCH   5   6
ATOM      6  C   UNL     1      26.588 -41.661 -17.945  1.00  0.00     0.028 C 
BRANCH   6   7
ATOM      7  C   UNL     1      27.505 -42.851 -17.802  1.00  0.00    -0.028 C 
ATOM      8  C   UNL     1      28.529 -43.165 -18.635  1.00  0.00    -0.070 CG0
ATOM      9  C   UNL     1      29.264 -44.458 -18.380  1.00  0.00     0.039 C 
ATOM     10  G   UNL     1      29.005 -42.266 -19.768  1.00  0.00     0.000 G0
ENDBRANCH   6   7
ENDBRANCH   5   6
ENDBRANCH   3   5
ENDBRANCH   1   3
BRANCH   1  11
ATOM     11  C   UNL     1      25.943 -42.427 -21.378  1.00  0.00     0.087 C 
BRANCH  11  12
ATOM     12  C   UNL     1      27.293 -41.714 -21.664  1.00  0.00     0.066 C 
BRANCH  12  13
ATOM     13  C   UNL     1      28.436 -42.555 -21.113  1.00  0.00     0.140 C 
ATOM     14  O   UNL     1      28.916 -43.454 -21.791  1.00  0.00    -0.299 OA
BRANCH  13  15
ATOM     15  C   UNL     1      29.010 -42.252 -19.751  1.00  0.00     0.106 CG0
ATOM     16  G   UNL     1      28.514 -43.178 -18.647  1.00  0.00     0.000 G0
ENDBRANCH  13  15
ENDBRANCH  12  13
BRANCH  12  17
ATOM     17  C   UNL     1      27.510 -41.389 -23.179  1.00  0.00    -0.006 C 
ATOM     18  C   UNL     1      26.708 -42.323 -24.105  1.00  0.00     0.008 C 
ATOM     19  C   UNL     1      27.117 -39.932 -23.493  1.00  0.00     0.008 C 
ENDBRANCH  12  17
ENDBRANCH  11  12
ENDBRANCH   1  11
TORSDOF 1
ENDMDL
MODEL 9
REMARK VINA RESULT:    -2.775     12.369     13.927
REMARK INTER + INTRA:          -4.375
REMARK INTER:                  -4.473
REMARK INTRA:                   0.098
REMARK UNBOUND:                -0.140
REMARK SMILES CC1=CCC[C@@H](C)C(=O)C[C@H](C(C)C)C(=O)C1
REMARK SMILES IDX 8 1 9 2 6 3 7 4 5 5 4 6 3 7 2 8 1 9 10 11 11 12 15 13 16 14
REMARK SMILES IDX 17 15 12 17 13 18 14 19
REMARK H PARENT
REMARK Flexibility Score: 70.00
ROOT
ATOM      1  C   UNL     1      27.011 -30.682 -12.871  1.00  0.00     0.136 C 
ATOM      2  O   UNL     1      25.790 -30.600 -12.835  1.00  0.00    -0.299 OA
ENDROOT
BRANCH   1   3
ATOM      3  C   UNL     1      27.745 -30.297 -14.141  1.00  0.00     0.053 C 
ATOM      4  C   UNL     1      27.251 -28.936 -14.650  1.00  0.00     0.016 C 
BRANCH   3   5
ATOM      5  C   UNL     1      27.565 -31.388 -15.222  1.00  0.00     0.015 C 
BRANCH   5   6
ATOM      6  C   UNL     1      28.467 -32.609 -14.951  1.00  0.00     0.028 C 
BRANCH   6   7
ATOM      7  C   UNL     1      27.694 -33.868 -14.643  1.00  0.00    -0.028 C 
ATOM      8  C   UNL     1      27.608 -34.467 -13.428  1.00  0.00    -0.070 CG0
ATOM      9  C   UNL     1      26.871 -35.781 -13.347  1.00  0.00     0.039 C 
ATOM     10  G   UNL     1      28.166 -33.863 -12.145  1.00  0.00     0.000 G0
ENDBRANCH   6   7
ENDBRANCH   5   6
ENDBRANCH   3   5
ENDBRANCH   1   3
BRANCH   1  11
ATOM     11  C   UNL     1      27.749 -31.143 -11.634  1.00  0.00     0.087 C 
BRANCH  11  12
ATOM     12  C   UNL     1      26.872 -32.066 -10.744  1.00  0.00     0.066 C 
BRANCH  12  13
ATOM     13  C   UNL     1      27.148 -33.520 -11.097  1.00  0.00     0.140 C 
ATOM     14  O   UNL     1      26.503 -34.413 -10.564  1.00  0.00    -0.299 OA
BRANCH  13  15
ATOM     15  C   UNL     1      28.185 -33.862 -12.139  1.00  0.00     0.106 CG0
ATOM     16  G   UNL     1      27.610 -34.473 -13.411  1.00  0.00     0.000 G0
ENDBRANCH  13  15
ENDBRANCH  12  13
BRANCH  12  17
ATOM     17  C   UNL     1      27.065 -31.810  -9.213  1.00  0.00    -0.006 C 
ATOM     18  C   UNL     1      28.549 -31.796  -8.797  1.00  0.00     0.008 C 
ATOM     19  C   UNL     1      26.426 -30.472  -8.791  1.00  0.00     0.008 C 
ENDBRANCH  12  17
ENDBRANCH  11  12
ENDBRANCH   1  11
TORSDOF 1
ENDMDL
