MODEL 1
REMARK VINA RESULT:    -5.826      0.000      0.000
REMARK INTER + INTRA:          -9.976
REMARK INTER:                  -7.869
REMARK INTRA:                  -2.106
REMARK UNBOUND:                -2.106
REMARK SMILES CC[C@@H](CC[C@@H](C)[C@H]1CC[C@H]2[C@H]3CC(=O)C4=CC(=O)CC[C@]4(C)[C@H]3CC[C@@]12C)C(C)C
REMARK SMILES IDX 4 1 3 2 2 3 1 4 29 5 30 6 31 7 5 8 6 9 7 10 8 11 9 12 27 13
REMARK SMILES IDX 10 14 11 15 26 16 28 17 12 18 25 19 24 20 13 21 22 22 14 23
REMARK SMILES IDX 16 24 21 25 23 26 15 27 17 28 20 29 18 30 19 31
REMARK H PARENT
REMARK Flexibility Score: inf
ROOT
ATOM      1  C   UNL     1     -25.085 -42.359  38.527  1.00  0.00     0.004 C 
ENDROOT
BRANCH   1   2
ATOM      2  C   UNL     1     -26.310 -43.152  39.088  1.00  0.00    -0.009 C 
BRANCH   2   3
ATOM      3  C   UNL     1     -26.625 -42.747  40.556  1.00  0.00     0.000 C 
ATOM      4  C   UNL     1     -26.991 -43.939  41.448  1.00  0.00     0.004 C 
ENDBRANCH   2   3
BRANCH   2   5
ATOM      5  C   UNL     1     -26.191 -44.712  38.934  1.00  0.00    -0.014 C 
ATOM      6  C   UNL     1     -24.758 -45.172  38.605  1.00  0.00     0.007 C 
ATOM      7  C   UNL     1     -27.131 -45.248  37.835  1.00  0.00     0.007 C 
ENDBRANCH   2   5
ENDBRANCH   1   2
BRANCH   1   8
ATOM      8  C   UNL     1     -25.122 -40.824  38.752  1.00  0.00     0.004 C 
BRANCH   8   9
ATOM      9  C   UNL     1     -26.132 -40.053  37.858  1.00  0.00    -0.011 C 
ATOM     10  C   UNL     1     -26.854 -38.972  38.686  1.00  0.00     0.008 C 
BRANCH   9  11
ATOM     11  C   UNL     1     -25.535 -39.589  36.478  1.00  0.00    -0.002 C 
ATOM     12  C   UNL     1     -24.023 -39.360  36.512  1.00  0.00     0.005 C 
ATOM     13  C   UNL     1     -25.852 -40.311  35.107  1.00  0.00    -0.026 C 
ATOM     14  C   UNL     1     -23.613 -39.269  35.052  1.00  0.00     0.005 C 
ATOM     15  C   UNL     1     -24.497 -40.280  34.315  1.00  0.00    -0.001 C 
ATOM     16  C   UNL     1     -26.387 -41.766  35.201  1.00  0.00     0.007 C 
ATOM     17  C   UNL     1     -26.908 -39.447  34.348  1.00  0.00     0.012 C 
ATOM     18  C   UNL     1     -23.795 -41.667  34.059  1.00  0.00     0.004 C 
ATOM     19  C   UNL     1     -26.259 -42.507  33.860  1.00  0.00     0.005 C 
ATOM     20  C   UNL     1     -24.775 -42.747  33.463  1.00  0.00     0.003 C 
ATOM     21  C   UNL     1     -22.944 -42.228  35.223  1.00  0.00     0.085 C 
ATOM     22  C   UNL     1     -24.305 -44.269  33.606  1.00  0.00    -0.000 C 
ATOM     23  C   UNL     1     -22.162 -43.406  34.738  1.00  0.00     0.159 C 
ATOM     24  C   UNL     1     -22.787 -44.347  33.785  1.00  0.00     0.005 C 
ATOM     25  C   UNL     1     -24.740 -45.033  32.312  1.00  0.00     0.020 C 
ATOM     26  C   UNL     1     -24.921 -44.989  34.843  1.00  0.00     0.017 C 
ATOM     27  O   UNL     1     -20.987 -43.594  35.162  1.00  0.00    -0.295 OA
ATOM     28  C   UNL     1     -22.053 -45.336  33.237  1.00  0.00     0.055 C 
ATOM     29  C   UNL     1     -24.142 -46.440  32.212  1.00  0.00     0.081 C 
ATOM     30  C   UNL     1     -22.661 -46.384  32.402  1.00  0.00     0.156 C 
ATOM     31  O   UNL     1     -21.928 -47.265  31.875  1.00  0.00    -0.295 OA
ENDBRANCH   9  11
ENDBRANCH   8   9
ENDBRANCH   1   8
TORSDOF 6
ENDMDL
MODEL 2
REMARK VINA RESULT:    -5.795      1.469      1.933
REMARK INTER + INTRA:          -9.934
REMARK INTER:                  -7.319
REMARK INTRA:                  -2.615
REMARK UNBOUND:                -2.106
REMARK SMILES CC[C@@H](CC[C@@H](C)[C@H]1CC[C@H]2[C@H]3CC(=O)C4=CC(=O)CC[C@]4(C)[C@H]3CC[C@@]12C)C(C)C
REMARK SMILES IDX 4 1 3 2 2 3 1 4 29 5 30 6 31 7 5 8 6 9 7 10 8 11 9 12 27 13
REMARK SMILES IDX 10 14 11 15 26 16 28 17 12 18 25 19 24 20 13 21 22 22 14 23
REMARK SMILES IDX 16 24 21 25 23 26 15 27 17 28 20 29 18 30 19 31
REMARK H PARENT
REMARK Flexibility Score: inf
ROOT
ATOM      1  C   UNL     1     -25.960 -42.051  39.411  1.00  0.00     0.004 C 
ENDROOT
BRANCH   1   2
ATOM      2  C   UNL     1     -25.618 -42.703  38.033  1.00  0.00    -0.009 C 
BRANCH   2   3
ATOM      3  C   UNL     1     -26.899 -42.960  37.190  1.00  0.00     0.000 C 
ATOM      4  C   UNL     1     -28.120 -43.328  38.042  1.00  0.00     0.004 C 
ENDBRANCH   2   3
BRANCH   2   5
ATOM      5  C   UNL     1     -24.729 -43.996  38.138  1.00  0.00    -0.014 C 
ATOM      6  C   UNL     1     -24.939 -44.964  36.958  1.00  0.00     0.007 C 
ATOM      7  C   UNL     1     -25.001 -44.768  39.445  1.00  0.00     0.007 C 
ENDBRANCH   2   5
ENDBRANCH   1   2
BRANCH   1   8
ATOM      8  C   UNL     1     -25.741 -40.516  39.496  1.00  0.00     0.004 C 
BRANCH   8   9
ATOM      9  C   UNL     1     -26.402 -39.694  38.356  1.00  0.00    -0.011 C 
ATOM     10  C   UNL     1     -27.506 -38.784  38.931  1.00  0.00     0.008 C 
BRANCH   9  11
ATOM     11  C   UNL     1     -25.370 -39.008  37.386  1.00  0.00    -0.002 C 
ATOM     12  C   UNL     1     -23.914 -39.355  37.697  1.00  0.00     0.005 C 
ATOM     13  C   UNL     1     -25.513 -39.028  35.810  1.00  0.00    -0.026 C 
ATOM     14  C   UNL     1     -23.137 -38.897  36.475  1.00  0.00     0.005 C 
ATOM     15  C   UNL     1     -24.046 -39.194  35.278  1.00  0.00    -0.001 C 
ATOM     16  C   UNL     1     -26.431 -40.131  35.215  1.00  0.00     0.007 C 
ATOM     17  C   UNL     1     -26.064 -37.637  35.366  1.00  0.00     0.012 C 
ATOM     18  C   UNL     1     -23.708 -40.549  34.547  1.00  0.00     0.004 C 
ATOM     19  C   UNL     1     -26.173 -40.335  33.713  1.00  0.00     0.005 C 
ATOM     20  C   UNL     1     -24.760 -40.923  33.436  1.00  0.00     0.003 C 
ATOM     21  C   UNL     1     -23.367 -41.751  35.459  1.00  0.00     0.085 C 
ATOM     22  C   UNL     1     -24.775 -42.456  32.979  1.00  0.00    -0.000 C 
ATOM     23  C   UNL     1     -22.839 -42.871  34.621  1.00  0.00     0.159 C 
ATOM     24  C   UNL     1     -23.434 -43.122  33.291  1.00  0.00     0.005 C 
ATOM     25  C   UNL     1     -25.058 -42.498  31.440  1.00  0.00     0.020 C 
ATOM     26  C   UNL     1     -25.858 -43.305  33.710  1.00  0.00     0.017 C 
ATOM     27  O   UNL     1     -21.908 -43.600  35.066  1.00  0.00    -0.295 OA
ATOM     28  C   UNL     1     -22.883 -44.039  32.471  1.00  0.00     0.055 C 
ATOM     29  C   UNL     1     -24.862 -43.890  30.829  1.00  0.00     0.081 C 
ATOM     30  C   UNL     1     -23.520 -44.431  31.203  1.00  0.00     0.156 C 
ATOM     31  O   UNL     1     -22.947 -45.262  30.448  1.00  0.00    -0.295 OA
ENDBRANCH   9  11
ENDBRANCH   8   9
ENDBRANCH   1   8
TORSDOF 6
ENDMDL
MODEL 3
REMARK VINA RESULT:    -5.609      3.322      7.895
REMARK INTER + INTRA:          -9.683
REMARK INTER:                  -7.526
REMARK INTRA:                  -2.157
REMARK UNBOUND:                -2.106
REMARK SMILES CC[C@@H](CC[C@@H](C)[C@H]1CC[C@H]2[C@H]3CC(=O)C4=CC(=O)CC[C@]4(C)[C@H]3CC[C@@]12C)C(C)C
REMARK SMILES IDX 4 1 3 2 2 3 1 4 29 5 30 6 31 7 5 8 6 9 7 10 8 11 9 12 27 13
REMARK SMILES IDX 10 14 11 15 26 16 28 17 12 18 25 19 24 20 13 21 22 22 14 23
REMARK SMILES IDX 16 24 21 25 23 26 15 27 17 28 20 29 18 30 19 31
REMARK H PARENT
REMARK Flexibility Score: inf
ROOT
ATOM      1  C   UNL     1     -24.734 -39.942  31.578  1.00  0.00     0.004 C 
ENDROOT
BRANCH   1   2
ATOM      2  C   UNL     1     -25.450 -38.784  32.346  1.00  0.00    -0.009 C 
BRANCH   2   3
ATOM      3  C   UNL     1     -26.996 -38.931  32.287  1.00  0.00     0.000 C 
ATOM      4  C   UNL     1     -27.455 -40.238  31.630  1.00  0.00     0.004 C 
ENDBRANCH   2   3
BRANCH   2   5
ATOM      5  C   UNL     1     -24.991 -37.344  31.909  1.00  0.00    -0.014 C 
ATOM      6  C   UNL     1     -25.761 -36.226  32.636  1.00  0.00     0.007 C 
ATOM      7  C   UNL     1     -25.157 -37.132  30.391  1.00  0.00     0.007 C 
ENDBRANCH   2   5
ENDBRANCH   1   2
BRANCH   1   8
ATOM      8  C   UNL     1     -23.783 -40.822  32.433  1.00  0.00     0.004 C 
BRANCH   8   9
ATOM      9  C   UNL     1     -24.296 -42.260  32.717  1.00  0.00    -0.011 C 
ATOM     10  C   UNL     1     -23.734 -43.239  31.667  1.00  0.00     0.008 C 
BRANCH   9  11
ATOM     11  C   UNL     1     -24.158 -42.699  34.221  1.00  0.00    -0.002 C 
ATOM     12  C   UNL     1     -22.826 -42.300  34.856  1.00  0.00     0.005 C 
ATOM     13  C   UNL     1     -25.275 -42.434  35.310  1.00  0.00    -0.026 C 
ATOM     14  C   UNL     1     -23.034 -42.493  36.348  1.00  0.00     0.005 C 
ATOM     15  C   UNL     1     -24.483 -42.074  36.616  1.00  0.00    -0.001 C 
ATOM     16  C   UNL     1     -26.307 -41.320  34.981  1.00  0.00     0.007 C 
ATOM     17  C   UNL     1     -26.048 -43.771  35.533  1.00  0.00     0.012 C 
ATOM     18  C   UNL     1     -24.627 -40.596  37.146  1.00  0.00     0.004 C 
ATOM     19  C   UNL     1     -27.061 -40.856  36.238  1.00  0.00     0.005 C 
ATOM     20  C   UNL     1     -26.127 -40.127  37.245  1.00  0.00     0.003 C 
ATOM     21  C   UNL     1     -23.725 -39.537  36.471  1.00  0.00     0.085 C 
ATOM     22  C   UNL     1     -26.359 -38.545  37.314  1.00  0.00    -0.000 C 
ATOM     23  C   UNL     1     -23.803 -38.259  37.242  1.00  0.00     0.159 C 
ATOM     24  C   UNL     1     -25.098 -37.840  37.819  1.00  0.00     0.005 C 
ATOM     25  C   UNL     1     -27.558 -38.274  38.281  1.00  0.00     0.020 C 
ATOM     26  C   UNL     1     -26.680 -37.910  35.928  1.00  0.00     0.017 C 
ATOM     27  O   UNL     1     -22.770 -37.545  37.376  1.00  0.00    -0.295 OA
ATOM     28  C   UNL     1     -25.157 -36.763  38.627  1.00  0.00     0.055 C 
ATOM     29  C   UNL     1     -27.733 -36.791  38.625  1.00  0.00     0.081 C 
ATOM     30  C   UNL     1     -26.438 -36.219  39.105  1.00  0.00     0.156 C 
ATOM     31  O   UNL     1     -26.443 -35.235  39.894  1.00  0.00    -0.295 OA
ENDBRANCH   9  11
ENDBRANCH   8   9
ENDBRANCH   1   8
TORSDOF 6
ENDMDL
MODEL 4
REMARK VINA RESULT:    -5.580      3.205      5.542
REMARK INTER + INTRA:          -9.643
REMARK INTER:                  -7.781
REMARK INTRA:                  -1.863
REMARK UNBOUND:                -2.106
REMARK SMILES CC[C@@H](CC[C@@H](C)[C@H]1CC[C@H]2[C@H]3CC(=O)C4=CC(=O)CC[C@]4(C)[C@H]3CC[C@@]12C)C(C)C
REMARK SMILES IDX 4 1 3 2 2 3 1 4 29 5 30 6 31 7 5 8 6 9 7 10 8 11 9 12 27 13
REMARK SMILES IDX 10 14 11 15 26 16 28 17 12 18 25 19 24 20 13 21 22 22 14 23
REMARK SMILES IDX 16 24 21 25 23 26 15 27 17 28 20 29 18 30 19 31
REMARK H PARENT
REMARK Flexibility Score: inf
ROOT
ATOM      1  C   UNL     1     -26.951 -43.715  37.143  1.00  0.00     0.004 C 
ENDROOT
BRANCH   1   2
ATOM      2  C   UNL     1     -25.873 -44.783  36.768  1.00  0.00    -0.009 C 
BRANCH   2   3
ATOM      3  C   UNL     1     -24.733 -44.835  37.824  1.00  0.00     0.000 C 
ATOM      4  C   UNL     1     -25.131 -45.570  39.109  1.00  0.00     0.004 C 
ENDBRANCH   2   3
BRANCH   2   5
ATOM      5  C   UNL     1     -25.302 -44.635  35.310  1.00  0.00    -0.014 C 
ATOM      6  C   UNL     1     -25.713 -45.797  34.387  1.00  0.00     0.007 C 
ATOM      7  C   UNL     1     -23.763 -44.542  35.309  1.00  0.00     0.007 C 
ENDBRANCH   2   5
ENDBRANCH   1   2
BRANCH   1   8
ATOM      8  C   UNL     1     -26.727 -42.301  36.542  1.00  0.00     0.004 C 
BRANCH   8   9
ATOM      9  C   UNL     1     -26.462 -41.179  37.583  1.00  0.00    -0.011 C 
ATOM     10  C   UNL     1     -26.676 -41.721  39.011  1.00  0.00     0.008 C 
BRANCH   9  11
ATOM     11  C   UNL     1     -25.130 -40.381  37.334  1.00  0.00    -0.002 C 
ATOM     12  C   UNL     1     -24.069 -41.183  36.579  1.00  0.00     0.005 C 
ATOM     13  C   UNL     1     -25.092 -38.914  36.743  1.00  0.00    -0.026 C 
ATOM     14  C   UNL     1     -23.040 -40.153  36.146  1.00  0.00     0.005 C 
ATOM     15  C   UNL     1     -23.843 -38.897  35.793  1.00  0.00    -0.001 C 
ATOM     16  C   UNL     1     -26.360 -38.448  35.975  1.00  0.00     0.007 C 
ATOM     17  C   UNL     1     -24.847 -37.930  37.930  1.00  0.00     0.012 C 
ATOM     18  C   UNL     1     -24.129 -38.740  34.251  1.00  0.00     0.004 C 
ATOM     19  C   UNL     1     -26.073 -37.218  35.099  1.00  0.00     0.005 C 
ATOM     20  C   UNL     1     -25.103 -37.545  33.929  1.00  0.00     0.003 C 
ATOM     21  C   UNL     1     -24.516 -40.032  33.493  1.00  0.00     0.085 C 
ATOM     22  C   UNL     1     -25.812 -37.591  32.495  1.00  0.00    -0.000 C 
ATOM     23  C   UNL     1     -24.512 -39.761  32.023  1.00  0.00     0.159 C 
ATOM     24  C   UNL     1     -25.006 -38.459  31.526  1.00  0.00     0.005 C 
ATOM     25  C   UNL     1     -25.911 -36.125  31.957  1.00  0.00     0.020 C 
ATOM     26  C   UNL     1     -27.242 -38.207  32.535  1.00  0.00     0.017 C 
ATOM     27  O   UNL     1     -24.106 -40.651  31.224  1.00  0.00    -0.295 OA
ATOM     28  C   UNL     1     -24.884 -38.148  30.220  1.00  0.00     0.055 C 
ATOM     29  C   UNL     1     -26.351 -36.048  30.492  1.00  0.00     0.081 C 
ATOM     30  C   UNL     1     -25.490 -36.934  29.650  1.00  0.00     0.156 C 
ATOM     31  O   UNL     1     -25.315 -36.662  28.431  1.00  0.00    -0.295 OA
ENDBRANCH   9  11
ENDBRANCH   8   9
ENDBRANCH   1   8
TORSDOF 6
ENDMDL
MODEL 5
REMARK VINA RESULT:    -5.509      3.010      7.798
REMARK INTER + INTRA:          -9.548
REMARK INTER:                  -7.639
REMARK INTRA:                  -1.909
REMARK UNBOUND:                -2.106
REMARK SMILES CC[C@@H](CC[C@@H](C)[C@H]1CC[C@H]2[C@H]3CC(=O)C4=CC(=O)CC[C@]4(C)[C@H]3CC[C@@]12C)C(C)C
REMARK SMILES IDX 4 1 3 2 2 3 1 4 29 5 30 6 31 7 5 8 6 9 7 10 8 11 9 12 27 13
REMARK SMILES IDX 10 14 11 15 26 16 28 17 12 18 25 19 24 20 13 21 22 22 14 23
REMARK SMILES IDX 16 24 21 25 23 26 15 27 17 28 20 29 18 30 19 31
REMARK H PARENT
REMARK Flexibility Score: inf
ROOT
ATOM      1  C   UNL     1     -24.336 -40.599  32.586  1.00  0.00     0.004 C 
ENDROOT
BRANCH   1   2
ATOM      2  C   UNL     1     -25.059 -39.737  31.500  1.00  0.00    -0.009 C 
BRANCH   2   3
ATOM      3  C   UNL     1     -24.331 -39.820  30.129  1.00  0.00     0.000 C 
ATOM      4  C   UNL     1     -25.161 -40.515  29.043  1.00  0.00     0.004 C 
ENDBRANCH   2   3
BRANCH   2   5
ATOM      5  C   UNL     1     -25.313 -38.245  31.928  1.00  0.00    -0.014 C 
ATOM      6  C   UNL     1     -25.069 -37.245  30.783  1.00  0.00     0.007 C 
ATOM      7  C   UNL     1     -24.422 -37.837  33.119  1.00  0.00     0.007 C 
ENDBRANCH   2   5
ENDBRANCH   1   2
BRANCH   1   8
ATOM      8  C   UNL     1     -23.717 -41.929  32.079  1.00  0.00     0.004 C 
BRANCH   8   9
ATOM      9  C   UNL     1     -24.345 -43.216  32.678  1.00  0.00    -0.011 C 
ATOM     10  C   UNL     1     -24.159 -44.398  31.705  1.00  0.00     0.008 C 
BRANCH   9  11
ATOM     11  C   UNL     1     -23.947 -43.481  34.177  1.00  0.00    -0.002 C 
ATOM     12  C   UNL     1     -22.569 -42.934  34.550  1.00  0.00     0.005 C 
ATOM     13  C   UNL     1     -24.903 -43.168  35.398  1.00  0.00    -0.026 C 
ATOM     14  C   UNL     1     -22.533 -42.978  36.068  1.00  0.00     0.005 C 
ATOM     15  C   UNL     1     -23.952 -42.620  36.520  1.00  0.00    -0.001 C 
ATOM     16  C   UNL     1     -26.056 -42.161  35.131  1.00  0.00     0.007 C 
ATOM     17  C   UNL     1     -25.528 -44.518  35.871  1.00  0.00     0.012 C 
ATOM     18  C   UNL     1     -24.127 -41.106  36.920  1.00  0.00     0.004 C 
ATOM     19  C   UNL     1     -26.644 -41.610  36.440  1.00  0.00     0.005 C 
ATOM     20  C   UNL     1     -25.627 -40.720  37.210  1.00  0.00     0.003 C 
ATOM     21  C   UNL     1     -23.422 -40.073  36.009  1.00  0.00     0.085 C 
ATOM     22  C   UNL     1     -25.966 -39.158  37.159  1.00  0.00    -0.000 C 
ATOM     23  C   UNL     1     -23.481 -38.726  36.655  1.00  0.00     0.159 C 
ATOM     24  C   UNL     1     -24.702 -38.326  37.386  1.00  0.00     0.005 C 
ATOM     25  C   UNL     1     -27.022 -38.856  38.274  1.00  0.00     0.020 C 
ATOM     26  C   UNL     1     -26.543 -38.697  35.787  1.00  0.00     0.017 C 
ATOM     27  O   UNL     1     -22.497 -37.940  36.552  1.00  0.00    -0.295 OA
ATOM     28  C   UNL     1     -24.720 -37.174  38.085  1.00  0.00     0.055 C 
ATOM     29  C   UNL     1     -27.257 -37.358  38.494  1.00  0.00     0.081 C 
ATOM     30  C   UNL     1     -25.952 -36.660  38.705  1.00  0.00     0.156 C 
ATOM     31  O   UNL     1     -25.913 -35.599  39.385  1.00  0.00    -0.295 OA
ENDBRANCH   9  11
ENDBRANCH   8   9
ENDBRANCH   1   8
TORSDOF 6
ENDMDL
MODEL 6
REMARK VINA RESULT:    -5.469      2.690      6.352
REMARK INTER + INTRA:          -9.494
REMARK INTER:                  -7.582
REMARK INTRA:                  -1.912
REMARK UNBOUND:                -2.106
REMARK SMILES CC[C@@H](CC[C@@H](C)[C@H]1CC[C@H]2[C@H]3CC(=O)C4=CC(=O)CC[C@]4(C)[C@H]3CC[C@@]12C)C(C)C
REMARK SMILES IDX 4 1 3 2 2 3 1 4 29 5 30 6 31 7 5 8 6 9 7 10 8 11 9 12 27 13
REMARK SMILES IDX 10 14 11 15 26 16 28 17 12 18 25 19 24 20 13 21 22 22 14 23
REMARK SMILES IDX 16 24 21 25 23 26 15 27 17 28 20 29 18 30 19 31
REMARK H PARENT
REMARK Flexibility Score: inf
ROOT
ATOM      1  C   UNL     1     -26.995 -45.526  34.933  1.00  0.00     0.004 C 
ENDROOT
BRANCH   1   2
ATOM      2  C   UNL     1     -26.734 -46.643  35.995  1.00  0.00    -0.009 C 
BRANCH   2   3
ATOM      3  C   UNL     1     -27.713 -47.838  35.817  1.00  0.00     0.000 C 
ATOM      4  C   UNL     1     -27.024 -49.120  35.338  1.00  0.00     0.004 C 
ENDBRANCH   2   3
BRANCH   2   5
ATOM      5  C   UNL     1     -26.719 -46.127  37.480  1.00  0.00    -0.014 C 
ATOM      6  C   UNL     1     -25.438 -45.345  37.828  1.00  0.00     0.007 C 
ATOM      7  C   UNL     1     -26.861 -47.286  38.486  1.00  0.00     0.007 C 
ENDBRANCH   2   5
ENDBRANCH   1   2
BRANCH   1   8
ATOM      8  C   UNL     1     -26.639 -45.900  33.469  1.00  0.00     0.004 C 
BRANCH   8   9
ATOM      9  C   UNL     1     -25.216 -46.488  33.269  1.00  0.00    -0.011 C 
ATOM     10  C   UNL     1     -25.304 -47.860  32.571  1.00  0.00     0.008 C 
BRANCH   9  11
ATOM     11  C   UNL     1     -24.183 -45.466  32.666  1.00  0.00    -0.002 C 
ATOM     12  C   UNL     1     -24.773 -44.573  31.574  1.00  0.00     0.005 C 
ATOM     13  C   UNL     1     -23.255 -44.542  33.553  1.00  0.00    -0.026 C 
ATOM     14  C   UNL     1     -23.752 -43.464  31.386  1.00  0.00     0.005 C 
ATOM     15  C   UNL     1     -23.203 -43.173  32.786  1.00  0.00    -0.001 C 
ATOM     16  C   UNL     1     -23.707 -44.319  35.023  1.00  0.00     0.007 C 
ATOM     17  C   UNL     1     -21.829 -45.175  33.568  1.00  0.00     0.012 C 
ATOM     18  C   UNL     1     -23.887 -41.941  33.491  1.00  0.00     0.004 C 
ATOM     19  C   UNL     1     -23.006 -43.106  35.655  1.00  0.00     0.005 C 
ATOM     20  C   UNL     1     -23.437 -41.768  34.991  1.00  0.00     0.003 C 
ATOM     21  C   UNL     1     -25.420 -41.820  33.322  1.00  0.00     0.085 C 
ATOM     22  C   UNL     1     -24.395 -40.871  35.906  1.00  0.00    -0.000 C 
ATOM     23  C   UNL     1     -25.869 -40.489  33.832  1.00  0.00     0.159 C 
ATOM     24  C   UNL     1     -25.232 -39.926  35.042  1.00  0.00     0.005 C 
ATOM     25  C   UNL     1     -23.495 -40.053  36.891  1.00  0.00     0.020 C 
ATOM     26  C   UNL     1     -25.413 -41.707  36.737  1.00  0.00     0.017 C 
ATOM     27  O   UNL     1     -26.798 -39.873  33.239  1.00  0.00    -0.295 OA
ATOM     28  C   UNL     1     -25.530 -38.672  35.436  1.00  0.00     0.055 C 
ATOM     29  C   UNL     1     -24.266 -38.975  37.660  1.00  0.00     0.081 C 
ATOM     30  C   UNL     1     -25.040 -38.120  36.709  1.00  0.00     0.156 C 
ATOM     31  O   UNL     1     -25.310 -36.927  37.017  1.00  0.00    -0.295 OA
ENDBRANCH   9  11
ENDBRANCH   8   9
ENDBRANCH   1   8
TORSDOF 6
ENDMDL
MODEL 7
REMARK VINA RESULT:    -5.457      3.185      7.075
REMARK INTER + INTRA:          -9.477
REMARK INTER:                  -7.729
REMARK INTRA:                  -1.748
REMARK UNBOUND:                -2.106
REMARK SMILES CC[C@@H](CC[C@@H](C)[C@H]1CC[C@H]2[C@H]3CC(=O)C4=CC(=O)CC[C@]4(C)[C@H]3CC[C@@]12C)C(C)C
REMARK SMILES IDX 4 1 3 2 2 3 1 4 29 5 30 6 31 7 5 8 6 9 7 10 8 11 9 12 27 13
REMARK SMILES IDX 10 14 11 15 26 16 28 17 12 18 25 19 24 20 13 21 22 22 14 23
REMARK SMILES IDX 16 24 21 25 23 26 15 27 17 28 20 29 18 30 19 31
REMARK H PARENT
REMARK Flexibility Score: inf
ROOT
ATOM      1  C   UNL     1     -23.636 -41.830  33.117  1.00  0.00     0.004 C 
ENDROOT
BRANCH   1   2
ATOM      2  C   UNL     1     -23.455 -43.055  34.071  1.00  0.00    -0.009 C 
BRANCH   2   3
ATOM      3  C   UNL     1     -22.538 -42.707  35.277  1.00  0.00     0.000 C 
ATOM      4  C   UNL     1     -23.317 -42.394  36.560  1.00  0.00     0.004 C 
ENDBRANCH   2   3
BRANCH   2   5
ATOM      5  C   UNL     1     -22.981 -44.368  33.347  1.00  0.00    -0.014 C 
ATOM      6  C   UNL     1     -24.086 -45.438  33.267  1.00  0.00     0.007 C 
ATOM      7  C   UNL     1     -21.758 -44.993  34.047  1.00  0.00     0.007 C 
ENDBRANCH   2   5
ENDBRANCH   1   2
BRANCH   1   8
ATOM      8  C   UNL     1     -23.685 -42.165  31.602  1.00  0.00     0.004 C 
BRANCH   8   9
ATOM      9  C   UNL     1     -23.761 -40.933  30.659  1.00  0.00    -0.011 C 
ATOM     10  C   UNL     1     -23.232 -41.306  29.260  1.00  0.00     0.008 C 
BRANCH   9  11
ATOM     11  C   UNL     1     -25.142 -40.181  30.703  1.00  0.00    -0.002 C 
ATOM     12  C   UNL     1     -26.327 -41.096  31.012  1.00  0.00     0.005 C 
ATOM     13  C   UNL     1     -25.378 -38.845  31.517  1.00  0.00    -0.026 C 
ATOM     14  C   UNL     1     -27.468 -40.151  31.349  1.00  0.00     0.005 C 
ATOM     15  C   UNL     1     -26.824 -38.988  32.109  1.00  0.00    -0.001 C 
ATOM     16  C   UNL     1     -24.359 -38.538  32.649  1.00  0.00     0.007 C 
ATOM     17  C   UNL     1     -25.357 -37.660  30.501  1.00  0.00     0.012 C 
ATOM     18  C   UNL     1     -26.937 -39.116  33.676  1.00  0.00     0.004 C 
ATOM     19  C   UNL     1     -24.900 -37.484  33.629  1.00  0.00     0.005 C 
ATOM     20  C   UNL     1     -26.118 -38.008  34.440  1.00  0.00     0.003 C 
ATOM     21  C   UNL     1     -26.704 -40.527  34.265  1.00  0.00     0.085 C 
ATOM     22  C   UNL     1     -25.787 -38.320  35.974  1.00  0.00    -0.000 C 
ATOM     23  C   UNL     1     -27.084 -40.527  35.711  1.00  0.00     0.159 C 
ATOM     24  C   UNL     1     -26.777 -39.342  36.539  1.00  0.00     0.005 C 
ATOM     25  C   UNL     1     -25.878 -36.977  36.771  1.00  0.00     0.020 C 
ATOM     26  C   UNL     1     -24.371 -38.932  36.186  1.00  0.00     0.017 C 
ATOM     27  O   UNL     1     -27.643 -41.543  36.211  1.00  0.00    -0.295 OA
ATOM     28  C   UNL     1     -27.230 -39.271  37.807  1.00  0.00     0.055 C 
ATOM     29  C   UNL     1     -25.820 -37.171  38.290  1.00  0.00     0.081 C 
ATOM     30  C   UNL     1     -26.830 -38.186  38.717  1.00  0.00     0.156 C 
ATOM     31  O   UNL     1     -27.313 -38.138  39.881  1.00  0.00    -0.295 OA
ENDBRANCH   9  11
ENDBRANCH   8   9
ENDBRANCH   1   8
TORSDOF 6
ENDMDL
MODEL 8
REMARK VINA RESULT:    -5.454      2.704      5.541
REMARK INTER + INTRA:          -9.473
REMARK INTER:                  -8.133
REMARK INTRA:                  -1.341
REMARK UNBOUND:                -2.106
REMARK SMILES CC[C@@H](CC[C@@H](C)[C@H]1CC[C@H]2[C@H]3CC(=O)C4=CC(=O)CC[C@]4(C)[C@H]3CC[C@@]12C)C(C)C
REMARK SMILES IDX 4 1 3 2 2 3 1 4 29 5 30 6 31 7 5 8 6 9 7 10 8 11 9 12 27 13
REMARK SMILES IDX 10 14 11 15 26 16 28 17 12 18 25 19 24 20 13 21 22 22 14 23
REMARK SMILES IDX 16 24 21 25 23 26 15 27 17 28 20 29 18 30 19 31
REMARK H PARENT
REMARK Flexibility Score: inf
ROOT
ATOM      1  C   UNL     1     -25.811 -45.975  38.178  1.00  0.00     0.004 C 
ENDROOT
BRANCH   1   2
ATOM      2  C   UNL     1     -26.673 -45.832  39.474  1.00  0.00    -0.009 C 
BRANCH   2   3
ATOM      3  C   UNL     1     -26.284 -44.559  40.278  1.00  0.00     0.000 C 
ATOM      4  C   UNL     1     -27.183 -43.355  39.977  1.00  0.00     0.004 C 
ENDBRANCH   2   3
BRANCH   2   5
ATOM      5  C   UNL     1     -26.676 -47.112  40.388  1.00  0.00    -0.014 C 
ATOM      6  C   UNL     1     -26.827 -46.778  41.884  1.00  0.00     0.007 C 
ATOM      7  C   UNL     1     -25.389 -47.941  40.209  1.00  0.00     0.007 C 
ENDBRANCH   2   5
ENDBRANCH   1   2
BRANCH   1   8
ATOM      8  C   UNL     1     -26.431 -45.364  36.893  1.00  0.00     0.004 C 
BRANCH   8   9
ATOM      9  C   UNL     1     -25.458 -45.237  35.689  1.00  0.00    -0.011 C 
ATOM     10  C   UNL     1     -26.248 -44.944  34.398  1.00  0.00     0.008 C 
BRANCH   9  11
ATOM     11  C   UNL     1     -24.216 -44.313  35.970  1.00  0.00    -0.002 C 
ATOM     12  C   UNL     1     -23.200 -44.291  34.826  1.00  0.00     0.005 C 
ATOM     13  C   UNL     1     -24.339 -42.826  36.494  1.00  0.00    -0.026 C 
ATOM     14  C   UNL     1     -22.295 -43.110  35.136  1.00  0.00     0.005 C 
ATOM     15  C   UNL     1     -23.212 -42.040  35.737  1.00  0.00    -0.001 C 
ATOM     16  C   UNL     1     -25.714 -42.133  36.284  1.00  0.00     0.007 C 
ATOM     17  C   UNL     1     -24.021 -42.833  38.022  1.00  0.00     0.012 C 
ATOM     18  C   UNL     1     -23.683 -40.953  34.697  1.00  0.00     0.004 C 
ATOM     19  C   UNL     1     -25.608 -40.606  36.427  1.00  0.00     0.005 C 
ATOM     20  C   UNL     1     -24.761 -39.968  35.289  1.00  0.00     0.003 C 
ATOM     21  C   UNL     1     -24.072 -41.473  33.294  1.00  0.00     0.085 C 
ATOM     22  C   UNL     1     -25.625 -39.156  34.217  1.00  0.00    -0.000 C 
ATOM     23  C   UNL     1     -24.254 -40.311  32.371  1.00  0.00     0.159 C 
ATOM     24  C   UNL     1     -24.883 -39.074  32.881  1.00  0.00     0.005 C 
ATOM     25  C   UNL     1     -25.878 -37.721  34.786  1.00  0.00     0.020 C 
ATOM     26  C   UNL     1     -27.000 -39.819  33.904  1.00  0.00     0.017 C 
ATOM     27  O   UNL     1     -23.888 -40.406  31.166  1.00  0.00    -0.295 OA
ATOM     28  C   UNL     1     -24.933 -37.975  32.102  1.00  0.00     0.055 C 
ATOM     29  C   UNL     1     -26.488 -36.762  33.759  1.00  0.00     0.081 C 
ATOM     30  C   UNL     1     -25.676 -36.770  32.504  1.00  0.00     0.156 C 
ATOM     31  O   UNL     1     -25.660 -35.750  31.762  1.00  0.00    -0.295 OA
ENDBRANCH   9  11
ENDBRANCH   8   9
ENDBRANCH   1   8
TORSDOF 6
ENDMDL
MODEL 9
REMARK VINA RESULT:    -5.444      3.263      6.867
REMARK INTER + INTRA:          -9.460
REMARK INTER:                  -8.169
REMARK INTRA:                  -1.292
REMARK UNBOUND:                -2.106
REMARK SMILES CC[C@@H](CC[C@@H](C)[C@H]1CC[C@H]2[C@H]3CC(=O)C4=CC(=O)CC[C@]4(C)[C@H]3CC[C@@]12C)C(C)C
REMARK SMILES IDX 4 1 3 2 2 3 1 4 29 5 30 6 31 7 5 8 6 9 7 10 8 11 9 12 27 13
REMARK SMILES IDX 10 14 11 15 26 16 28 17 12 18 25 19 24 20 13 21 22 22 14 23
REMARK SMILES IDX 16 24 21 25 23 26 15 27 17 28 20 29 18 30 19 31
REMARK H PARENT
REMARK Flexibility Score: inf
ROOT
ATOM      1  C   UNL     1     -26.551 -36.454  32.963  1.00  0.00     0.004 C 
ENDROOT
BRANCH   1   2
ATOM      2  C   UNL     1     -26.463 -36.854  31.454  1.00  0.00    -0.009 C 
BRANCH   2   3
ATOM      3  C   UNL     1     -25.125 -37.577  31.134  1.00  0.00     0.000 C 
ATOM      4  C   UNL     1     -25.282 -39.091  30.956  1.00  0.00     0.004 C 
ENDBRANCH   2   3
BRANCH   2   5
ATOM      5  C   UNL     1     -26.729 -35.666  30.459  1.00  0.00    -0.014 C 
ATOM      6  C   UNL     1     -26.164 -35.929  29.051  1.00  0.00     0.007 C 
ATOM      7  C   UNL     1     -26.128 -34.344  30.978  1.00  0.00     0.007 C 
ENDBRANCH   2   5
ENDBRANCH   1   2
BRANCH   1   8
ATOM      8  C   UNL     1     -27.196 -37.513  33.898  1.00  0.00     0.004 C 
BRANCH   8   9
ATOM      9  C   UNL     1     -26.940 -37.294  35.414  1.00  0.00    -0.011 C 
ATOM     10  C   UNL     1     -28.074 -37.933  36.240  1.00  0.00     0.008 C 
BRANCH   9  11
ATOM     11  C   UNL     1     -25.472 -37.635  35.867  1.00  0.00    -0.002 C 
ATOM     12  C   UNL     1     -25.217 -37.382  37.353  1.00  0.00     0.005 C 
ATOM     13  C   UNL     1     -24.745 -38.994  35.508  1.00  0.00    -0.026 C 
ATOM     14  C   UNL     1     -23.902 -38.085  37.645  1.00  0.00     0.005 C 
ATOM     15  C   UNL     1     -23.922 -39.358  36.794  1.00  0.00    -0.001 C 
ATOM     16  C   UNL     1     -25.663 -40.180  35.102  1.00  0.00     0.007 C 
ATOM     17  C   UNL     1     -23.759 -38.709  34.333  1.00  0.00     0.012 C 
ATOM     18  C   UNL     1     -24.378 -40.643  37.586  1.00  0.00     0.004 C 
ATOM     19  C   UNL     1     -24.924 -41.525  35.190  1.00  0.00     0.005 C 
ATOM     20  C   UNL     1     -24.562 -41.900  36.655  1.00  0.00     0.003 C 
ATOM     21  C   UNL     1     -25.562 -40.459  38.563  1.00  0.00     0.085 C 
ATOM     22  C   UNL     1     -25.449 -43.088  37.256  1.00  0.00    -0.000 C 
ATOM     23  C   UNL     1     -25.706 -41.689  39.400  1.00  0.00     0.159 C 
ATOM     24  C   UNL     1     -25.480 -43.014  38.785  1.00  0.00     0.005 C 
ATOM     25  C   UNL     1     -24.822 -44.443  36.791  1.00  0.00     0.020 C 
ATOM     26  C   UNL     1     -26.936 -43.040  36.795  1.00  0.00     0.017 C 
ATOM     27  O   UNL     1     -26.036 -41.584  40.615  1.00  0.00    -0.295 OA
ATOM     28  C   UNL     1     -25.473 -44.120  39.554  1.00  0.00     0.055 C 
ATOM     29  C   UNL     1     -25.431 -45.662  37.491  1.00  0.00     0.081 C 
ATOM     30  C   UNL     1     -25.401 -45.471  38.973  1.00  0.00     0.156 C 
ATOM     31  O   UNL     1     -25.356 -46.475  39.734  1.00  0.00    -0.295 OA
ENDBRANCH   9  11
ENDBRANCH   8   9
ENDBRANCH   1   8
TORSDOF 6
ENDMDL
