MODEL 1
REMARK VINA RESULT:    -3.458      0.000      0.000
REMARK INTER + INTRA:          -3.898
REMARK INTER:                  -3.863
REMARK INTRA:                  -0.035
REMARK UNBOUND:                -0.035
REMARK SMILES CC(C)CC=O
REMARK SMILES IDX 4 1 2 2 1 3 3 4 5 5 6 6
REMARK H PARENT
REMARK Flexibility Score: inf
ROOT
ATOM      1  C   UNL     1      17.458  35.119  12.102  1.00  0.00     0.075 C 
ENDROOT
BRANCH   1   2
ATOM      2  C   UNL     1      16.965  36.366  11.339  1.00  0.00    -0.010 C 
ATOM      3  C   UNL     1      15.477  36.609  11.628  1.00  0.00     0.008 C 
ATOM      4  C   UNL     1      17.186  36.222   9.825  1.00  0.00     0.008 C 
ENDBRANCH   1   2
BRANCH   1   5
ATOM      5  C   UNL     1      16.501  34.689  13.177  1.00  0.00     0.224 C 
ATOM      6  O   UNL     1      16.471  33.524  13.536  1.00  0.00    -0.303 OA
ENDBRANCH   1   5
TORSDOF 2
ENDMDL
MODEL 2
REMARK VINA RESULT:    -3.385      2.174      3.482
REMARK INTER + INTRA:          -3.816
REMARK INTER:                  -3.811
REMARK INTRA:                  -0.005
REMARK UNBOUND:                -0.035
REMARK SMILES CC(C)CC=O
REMARK SMILES IDX 4 1 2 2 1 3 3 4 5 5 6 6
REMARK H PARENT
REMARK Flexibility Score: inf
ROOT
ATOM      1  C   UNL     1      16.726  35.402  12.760  1.00  0.00     0.075 C 
ENDROOT
BRANCH   1   2
ATOM      2  C   UNL     1      15.947  34.291  13.495  1.00  0.00    -0.010 C 
ATOM      3  C   UNL     1      15.668  34.710  14.945  1.00  0.00     0.008 C 
ATOM      4  C   UNL     1      16.714  32.960  13.476  1.00  0.00     0.008 C 
ENDBRANCH   1   2
BRANCH   1   5
ATOM      5  C   UNL     1      15.826  36.294  11.953  1.00  0.00     0.224 C 
ATOM      6  O   UNL     1      16.306  37.085  11.159  1.00  0.00    -0.303 OA
ENDBRANCH   1   5
TORSDOF 2
ENDMDL
MODEL 3
REMARK VINA RESULT:    -3.360      2.218      3.409
REMARK INTER + INTRA:          -3.789
REMARK INTER:                  -3.814
REMARK INTRA:                   0.026
REMARK UNBOUND:                -0.035
REMARK SMILES CC(C)CC=O
REMARK SMILES IDX 4 1 2 2 1 3 3 4 5 5 6 6
REMARK H PARENT
REMARK Flexibility Score: inf
ROOT
ATOM      1  C   UNL     1      15.833  35.795  12.335  1.00  0.00     0.075 C 
ENDROOT
BRANCH   1   2
ATOM      2  C   UNL     1      16.938  34.953  13.005  1.00  0.00    -0.010 C 
ATOM      3  C   UNL     1      18.082  34.696  12.014  1.00  0.00     0.008 C 
ATOM      4  C   UNL     1      16.389  33.616  13.526  1.00  0.00     0.008 C 
ENDBRANCH   1   2
BRANCH   1   5
ATOM      5  C   UNL     1      16.381  37.005  11.632  1.00  0.00     0.224 C 
ATOM      6  O   UNL     1      16.349  37.067  10.414  1.00  0.00    -0.303 OA
ENDBRANCH   1   5
TORSDOF 2
ENDMDL
MODEL 4
REMARK VINA RESULT:    -3.337      2.065      2.801
REMARK INTER + INTRA:          -3.763
REMARK INTER:                  -3.726
REMARK INTRA:                  -0.037
REMARK UNBOUND:                -0.035
REMARK SMILES CC(C)CC=O
REMARK SMILES IDX 4 1 2 2 1 3 3 4 5 5 6 6
REMARK H PARENT
REMARK Flexibility Score: inf
ROOT
ATOM      1  C   UNL     1      18.158  34.833  11.643  1.00  0.00     0.075 C 
ENDROOT
BRANCH   1   2
ATOM      2  C   UNL     1      17.084  35.624  12.418  1.00  0.00    -0.010 C 
ATOM      3  C   UNL     1      16.295  34.683  13.338  1.00  0.00     0.008 C 
ATOM      4  C   UNL     1      16.122  36.349  11.464  1.00  0.00     0.008 C 
ENDBRANCH   1   2
BRANCH   1   5
ATOM      5  C   UNL     1      18.131  35.122  10.169  1.00  0.00     0.224 C 
ATOM      6  O   UNL     1      18.383  34.236   9.370  1.00  0.00    -0.303 OA
ENDBRANCH   1   5
TORSDOF 2
ENDMDL
MODEL 5
REMARK VINA RESULT:    -3.303     12.280     13.248
REMARK INTER + INTRA:          -3.725
REMARK INTER:                  -3.692
REMARK INTRA:                  -0.032
REMARK UNBOUND:                -0.035
REMARK SMILES CC(C)CC=O
REMARK SMILES IDX 4 1 2 2 1 3 3 4 5 5 6 6
REMARK H PARENT
REMARK Flexibility Score: inf
ROOT
ATOM      1  C   UNL     1      16.617  35.497  24.052  1.00  0.00     0.075 C 
ENDROOT
BRANCH   1   2
ATOM      2  C   UNL     1      15.939  34.549  25.062  1.00  0.00    -0.010 C 
ATOM      3  C   UNL     1      14.709  35.226  25.681  1.00  0.00     0.008 C 
ATOM      4  C   UNL     1      16.911  34.119  26.171  1.00  0.00     0.008 C 
ENDBRANCH   1   2
BRANCH   1   5
ATOM      5  C   UNL     1      18.108  35.553  24.231  1.00  0.00     0.224 C 
ATOM      6  O   UNL     1      18.737  36.507  23.804  1.00  0.00    -0.303 OA
ENDBRANCH   1   5
TORSDOF 2
ENDMDL
MODEL 6
REMARK VINA RESULT:    -3.303     13.240     13.992
REMARK INTER + INTRA:          -3.724
REMARK INTER:                  -3.705
REMARK INTRA:                  -0.019
REMARK UNBOUND:                -0.035
REMARK SMILES CC(C)CC=O
REMARK SMILES IDX 4 1 2 2 1 3 3 4 5 5 6 6
REMARK H PARENT
REMARK Flexibility Score: inf
ROOT
ATOM      1  C   UNL     1      16.038  34.895  24.999  1.00  0.00     0.075 C 
ENDROOT
BRANCH   1   2
ATOM      2  C   UNL     1      14.663  34.712  25.674  1.00  0.00    -0.010 C 
ATOM      3  C   UNL     1      13.706  35.830  25.238  1.00  0.00     0.008 C 
ATOM      4  C   UNL     1      14.787  34.699  27.206  1.00  0.00     0.008 C 
ENDBRANCH   1   2
BRANCH   1   5
ATOM      5  C   UNL     1      17.095  34.015  25.603  1.00  0.00     0.224 C 
ATOM      6  O   UNL     1      18.230  34.031  25.155  1.00  0.00    -0.303 OA
ENDBRANCH   1   5
TORSDOF 2
ENDMDL
MODEL 7
REMARK VINA RESULT:    -3.223      2.506      3.285
REMARK INTER + INTRA:          -3.635
REMARK INTER:                  -3.600
REMARK INTRA:                  -0.035
REMARK UNBOUND:                -0.035
REMARK SMILES CC(C)CC=O
REMARK SMILES IDX 4 1 2 2 1 3 3 4 5 5 6 6
REMARK H PARENT
REMARK Flexibility Score: inf
ROOT
ATOM      1  C   UNL     1      17.874  35.284  10.777  1.00  0.00     0.075 C 
ENDROOT
BRANCH   1   2
ATOM      2  C   UNL     1      17.107  35.867  11.982  1.00  0.00    -0.010 C 
ATOM      3  C   UNL     1      16.697  34.744  12.944  1.00  0.00     0.008 C 
ATOM      4  C   UNL     1      15.864  36.649  11.532  1.00  0.00     0.008 C 
ENDBRANCH   1   2
BRANCH   1   5
ATOM      5  C   UNL     1      17.451  35.901   9.475  1.00  0.00     0.224 C 
ATOM      6  O   UNL     1      18.293  36.275   8.676  1.00  0.00    -0.303 OA
ENDBRANCH   1   5
TORSDOF 2
ENDMDL
MODEL 8
REMARK VINA RESULT:    -3.198     12.736     13.430
REMARK INTER + INTRA:          -3.608
REMARK INTER:                  -3.570
REMARK INTRA:                  -0.037
REMARK UNBOUND:                -0.035
REMARK SMILES CC(C)CC=O
REMARK SMILES IDX 4 1 2 2 1 3 3 4 5 5 6 6
REMARK H PARENT
REMARK Flexibility Score: inf
ROOT
ATOM      1  C   UNL     1      15.653  35.512  24.695  1.00  0.00     0.075 C 
ENDROOT
BRANCH   1   2
ATOM      2  C   UNL     1      16.998  34.818  24.394  1.00  0.00    -0.010 C 
ATOM      3  C   UNL     1      17.429  33.958  25.590  1.00  0.00     0.008 C 
ATOM      4  C   UNL     1      18.096  35.840  24.063  1.00  0.00     0.008 C 
ENDBRANCH   1   2
BRANCH   1   5
ATOM      5  C   UNL     1      14.848  34.778  25.728  1.00  0.00     0.224 C 
ATOM      6  O   UNL     1      14.168  35.401  26.526  1.00  0.00    -0.303 OA
ENDBRANCH   1   5
TORSDOF 2
ENDMDL
MODEL 9
REMARK VINA RESULT:    -3.009      2.225      3.041
REMARK INTER + INTRA:          -3.397
REMARK INTER:                  -3.373
REMARK INTRA:                  -0.023
REMARK UNBOUND:                -0.035
REMARK SMILES CC(C)CC=O
REMARK SMILES IDX 4 1 2 2 1 3 3 4 5 5 6 6
REMARK H PARENT
REMARK Flexibility Score: inf
ROOT
ATOM      1  C   UNL     1      17.166  36.263  10.058  1.00  0.00     0.075 C 
ENDROOT
BRANCH   1   2
ATOM      2  C   UNL     1      17.985  34.956  10.086  1.00  0.00    -0.010 C 
ATOM      3  C   UNL     1      18.632  34.766  11.465  1.00  0.00     0.008 C 
ATOM      4  C   UNL     1      19.068  34.947   8.996  1.00  0.00     0.008 C 
ENDBRANCH   1   2
BRANCH   1   5
ATOM      5  C   UNL     1      16.534  36.572  11.385  1.00  0.00     0.224 C 
ATOM      6  O   UNL     1      15.537  37.272  11.436  1.00  0.00    -0.303 OA
ENDBRANCH   1   5
TORSDOF 2
ENDMDL
