MODEL 1
REMARK VINA RESULT:    -3.373      0.000      0.000
REMARK INTER + INTRA:          -4.088
REMARK INTER:                  -3.964
REMARK INTRA:                  -0.123
REMARK UNBOUND:                -0.123
REMARK SMILES O=C([O-])CCC(=O)[O-]
REMARK SMILES IDX 4 1 2 2 1 3 3 4 5 5 6 6 7 7 8 8
REMARK H PARENT
REMARK Flexibility Score: inf
ROOT
ATOM      1  C   UNL     1      51.900 -51.964  -8.952  1.00  0.00     0.059 C 
ENDROOT
BRANCH   1   2
ATOM      2  C   UNL     1      51.335 -51.064  -7.896  1.00  0.00     0.042 C 
ATOM      3  O   UNL     1      50.648 -51.544  -6.957  1.00  0.00    -0.550 OA
ATOM      4  O   UNL     1      51.601 -49.701  -7.927  1.00  0.00    -0.550 OA
ENDBRANCH   1   2
BRANCH   1   5
ATOM      5  C   UNL     1      53.132 -51.344  -9.621  1.00  0.00     0.059 C 
BRANCH   5   6
ATOM      6  C   UNL     1      52.860 -50.982 -11.050  1.00  0.00     0.042 C 
ATOM      7  O   UNL     1      52.035 -50.073 -11.327  1.00  0.00    -0.550 OA
ATOM      8  O   UNL     1      53.490 -51.676 -12.074  1.00  0.00    -0.550 OA
ENDBRANCH   5   6
ENDBRANCH   1   5
TORSDOF 3
ENDMDL
MODEL 2
REMARK VINA RESULT:    -3.357      0.052      3.973
REMARK INTER + INTRA:          -4.069
REMARK INTER:                  -3.949
REMARK INTRA:                  -0.121
REMARK UNBOUND:                -0.123
REMARK SMILES O=C([O-])CCC(=O)[O-]
REMARK SMILES IDX 4 1 2 2 1 3 3 4 5 5 6 6 7 7 8 8
REMARK H PARENT
REMARK Flexibility Score: inf
ROOT
ATOM      1  C   UNL     1      53.087 -51.354  -9.656  1.00  0.00     0.059 C 
ENDROOT
BRANCH   1   2
ATOM      2  C   UNL     1      52.821 -50.998 -11.086  1.00  0.00     0.042 C 
ATOM      3  O   UNL     1      52.024 -50.065 -11.368  1.00  0.00    -0.550 OA
ATOM      4  O   UNL     1      53.484 -51.668 -12.106  1.00  0.00    -0.550 OA
ENDBRANCH   1   2
BRANCH   1   5
ATOM      5  C   UNL     1      51.850 -51.965  -8.987  1.00  0.00     0.059 C 
BRANCH   5   6
ATOM      6  C   UNL     1      51.339 -51.098  -7.877  1.00  0.00     0.042 C 
ATOM      7  O   UNL     1      50.675 -51.602  -6.934  1.00  0.00    -0.550 OA
ATOM      8  O   UNL     1      51.562 -49.727  -7.906  1.00  0.00    -0.550 OA
ENDBRANCH   5   6
ENDBRANCH   1   5
TORSDOF 3
ENDMDL
MODEL 3
REMARK VINA RESULT:    -3.253      2.410      3.239
REMARK INTER + INTRA:          -3.947
REMARK INTER:                  -3.826
REMARK INTRA:                  -0.121
REMARK UNBOUND:                -0.123
REMARK SMILES O=C([O-])CCC(=O)[O-]
REMARK SMILES IDX 4 1 2 2 1 3 3 4 5 5 6 6 7 7 8 8
REMARK H PARENT
REMARK Flexibility Score: inf
ROOT
ATOM      1  C   UNL     1      51.753 -49.109  -8.342  1.00  0.00     0.059 C 
ENDROOT
BRANCH   1   2
ATOM      2  C   UNL     1      51.125 -48.253  -9.399  1.00  0.00     0.042 C 
ATOM      3  O   UNL     1      50.654 -47.124  -9.102  1.00  0.00    -0.550 OA
ATOM      4  O   UNL     1      51.096 -48.685 -10.719  1.00  0.00    -0.550 OA
ENDBRANCH   1   2
BRANCH   1   5
ATOM      5  C   UNL     1      53.087 -49.700  -8.814  1.00  0.00     0.059 C 
BRANCH   5   6
ATOM      6  C   UNL     1      53.005 -51.187  -8.977  1.00  0.00     0.042 C 
ATOM      7  O   UNL     1      54.051 -51.886  -8.952  1.00  0.00    -0.550 OA
ATOM      8  O   UNL     1      51.775 -51.795  -9.197  1.00  0.00    -0.550 OA
ENDBRANCH   5   6
ENDBRANCH   1   5
TORSDOF 3
ENDMDL
MODEL 4
REMARK VINA RESULT:    -3.249      2.393      3.249
REMARK INTER + INTRA:          -3.942
REMARK INTER:                  -3.825
REMARK INTRA:                  -0.116
REMARK UNBOUND:                -0.123
REMARK SMILES O=C([O-])CCC(=O)[O-]
REMARK SMILES IDX 4 1 2 2 1 3 3 4 5 5 6 6 7 7 8 8
REMARK H PARENT
REMARK Flexibility Score: inf
ROOT
ATOM      1  C   UNL     1      53.097 -49.704  -8.702  1.00  0.00     0.059 C 
ENDROOT
BRANCH   1   2
ATOM      2  C   UNL     1      53.023 -51.188  -8.896  1.00  0.00     0.042 C 
ATOM      3  O   UNL     1      54.077 -51.874  -8.940  1.00  0.00    -0.550 OA
ATOM      4  O   UNL     1      51.788 -51.817  -8.988  1.00  0.00    -0.550 OA
ENDBRANCH   1   2
BRANCH   1   5
ATOM      5  C   UNL     1      51.735 -49.117  -8.315  1.00  0.00     0.059 C 
BRANCH   5   6
ATOM      6  C   UNL     1      51.171 -48.264  -9.410  1.00  0.00     0.042 C 
ATOM      7  O   UNL     1      50.596 -47.179  -9.136  1.00  0.00    -0.550 OA
ATOM      8  O   UNL     1      51.246 -48.689 -10.731  1.00  0.00    -0.550 OA
ENDBRANCH   5   6
ENDBRANCH   1   5
TORSDOF 3
ENDMDL
MODEL 5
REMARK VINA RESULT:    -3.195      1.921      3.442
REMARK INTER + INTRA:          -3.878
REMARK INTER:                  -3.703
REMARK INTRA:                  -0.176
REMARK UNBOUND:                -0.123
REMARK SMILES O=C([O-])CCC(=O)[O-]
REMARK SMILES IDX 4 1 2 2 1 3 3 4 5 5 6 6 7 7 8 8
REMARK H PARENT
REMARK Flexibility Score: inf
ROOT
ATOM      1  C   UNL     1      52.863 -49.197  -8.752  1.00  0.00     0.059 C 
ENDROOT
BRANCH   1   2
ATOM      2  C   UNL     1      51.873 -48.646  -9.732  1.00  0.00     0.042 C 
ATOM      3  O   UNL     1      51.984 -48.908 -10.958  1.00  0.00    -0.550 OA
ATOM      4  O   UNL     1      50.806 -47.877  -9.286  1.00  0.00    -0.550 OA
ENDBRANCH   1   2
BRANCH   1   5
ATOM      5  C   UNL     1      52.974 -50.722  -8.859  1.00  0.00     0.059 C 
BRANCH   5   6
ATOM      6  C   UNL     1      51.668 -51.393  -8.560  1.00  0.00     0.042 C 
ATOM      7  O   UNL     1      51.119 -52.123  -9.425  1.00  0.00    -0.550 OA
ATOM      8  O   UNL     1      51.040 -51.178  -7.340  1.00  0.00    -0.550 OA
ENDBRANCH   5   6
ENDBRANCH   1   5
TORSDOF 3
ENDMDL
MODEL 6
REMARK VINA RESULT:    -3.193      2.087      2.833
REMARK INTER + INTRA:          -3.877
REMARK INTER:                  -3.751
REMARK INTRA:                  -0.125
REMARK UNBOUND:                -0.123
REMARK SMILES O=C([O-])CCC(=O)[O-]
REMARK SMILES IDX 4 1 2 2 1 3 3 4 5 5 6 6 7 7 8 8
REMARK H PARENT
REMARK Flexibility Score: inf
ROOT
ATOM      1  C   UNL     1      52.644 -50.429  -8.576  1.00  0.00     0.059 C 
ENDROOT
BRANCH   1   2
ATOM      2  C   UNL     1      51.579 -51.481  -8.517  1.00  0.00     0.042 C 
ATOM      3  O   UNL     1      51.200 -52.058  -9.570  1.00  0.00    -0.550 OA
ATOM      4  O   UNL     1      51.034 -51.853  -7.295  1.00  0.00    -0.550 OA
ENDBRANCH   1   2
BRANCH   1   5
ATOM      5  C   UNL     1      52.104 -49.055  -8.163  1.00  0.00     0.059 C 
BRANCH   5   6
ATOM      6  C   UNL     1      51.514 -48.320  -9.328  1.00  0.00     0.042 C 
ATOM      7  O   UNL     1      50.656 -47.420  -9.140  1.00  0.00    -0.550 OA
ATOM      8  O   UNL     1      51.886 -48.659 -10.623  1.00  0.00    -0.550 OA
ENDBRANCH   5   6
ENDBRANCH   1   5
TORSDOF 3
ENDMDL
MODEL 7
REMARK VINA RESULT:    -3.135      2.171      3.169
REMARK INTER + INTRA:          -3.808
REMARK INTER:                  -3.678
REMARK INTRA:                  -0.130
REMARK UNBOUND:                -0.123
REMARK SMILES O=C([O-])CCC(=O)[O-]
REMARK SMILES IDX 4 1 2 2 1 3 3 4 5 5 6 6 7 7 8 8
REMARK H PARENT
REMARK Flexibility Score: inf
ROOT
ATOM      1  C   UNL     1      51.816 -51.083  -8.871  1.00  0.00     0.059 C 
ENDROOT
BRANCH   1   2
ATOM      2  C   UNL     1      53.122 -51.363  -9.549  1.00  0.00     0.042 C 
ATOM      3  O   UNL     1      54.131 -51.687  -8.869  1.00  0.00    -0.550 OA
ATOM      4  O   UNL     1      53.215 -51.304 -10.933  1.00  0.00    -0.550 OA
ENDBRANCH   1   2
BRANCH   1   5
ATOM      5  C   UNL     1      51.786 -49.677  -8.262  1.00  0.00     0.059 C 
BRANCH   5   6
ATOM      6  C   UNL     1      51.685 -48.619  -9.318  1.00  0.00     0.042 C 
ATOM      7  O   UNL     1      50.579 -48.373  -9.865  1.00  0.00    -0.550 OA
ATOM      8  O   UNL     1      52.823 -47.935  -9.726  1.00  0.00    -0.550 OA
ENDBRANCH   5   6
ENDBRANCH   1   5
TORSDOF 3
ENDMDL
MODEL 8
REMARK VINA RESULT:    -3.121      1.929      2.619
REMARK INTER + INTRA:          -3.791
REMARK INTER:                  -3.673
REMARK INTRA:                  -0.118
REMARK UNBOUND:                -0.123
REMARK SMILES O=C([O-])CCC(=O)[O-]
REMARK SMILES IDX 4 1 2 2 1 3 3 4 5 5 6 6 7 7 8 8
REMARK H PARENT
REMARK Flexibility Score: inf
ROOT
ATOM      1  C   UNL     1      51.751 -49.700  -8.093  1.00  0.00     0.059 C 
ENDROOT
BRANCH   1   2
ATOM      2  C   UNL     1      51.375 -51.150  -8.106  1.00  0.00     0.042 C 
ATOM      3  O   UNL     1      51.669 -51.871  -9.095  1.00  0.00    -0.550 OA
ATOM      4  O   UNL     1      50.737 -51.714  -7.009  1.00  0.00    -0.550 OA
ENDBRANCH   1   2
BRANCH   1   5
ATOM      5  C   UNL     1      52.737 -49.362  -9.217  1.00  0.00     0.059 C 
BRANCH   5   6
ATOM      6  C   UNL     1      52.083 -48.567 -10.304  1.00  0.00     0.042 C 
ATOM      7  O   UNL     1      51.501 -49.152 -11.255  1.00  0.00    -0.550 OA
ATOM      8  O   UNL     1      52.151 -47.179 -10.288  1.00  0.00    -0.550 OA
ENDBRANCH   5   6
ENDBRANCH   1   5
TORSDOF 3
ENDMDL
MODEL 9
REMARK VINA RESULT:    -2.800      1.956      4.027
REMARK INTER + INTRA:          -3.414
REMARK INTER:                  -3.318
REMARK INTRA:                  -0.096
REMARK UNBOUND:                -0.123
REMARK SMILES O=C([O-])CCC(=O)[O-]
REMARK SMILES IDX 4 1 2 2 1 3 3 4 5 5 6 6 7 7 8 8
REMARK H PARENT
REMARK Flexibility Score: inf
ROOT
ATOM      1  C   UNL     1      52.050 -50.413 -11.315  1.00  0.00     0.059 C 
ENDROOT
BRANCH   1   2
ATOM      2  C   UNL     1      52.462 -51.223 -12.507  1.00  0.00     0.042 C 
ATOM      3  O   UNL     1      53.569 -51.822 -12.512  1.00  0.00    -0.550 OA
ATOM      4  O   UNL     1      51.606 -51.348 -13.593  1.00  0.00    -0.550 OA
ENDBRANCH   1   2
BRANCH   1   5
ATOM      5  C   UNL     1      52.002 -51.265 -10.042  1.00  0.00     0.059 C 
BRANCH   5   6
ATOM      6  C   UNL     1      53.144 -50.951  -9.125  1.00  0.00     0.042 C 
ATOM      7  O   UNL     1      53.243 -49.810  -8.604  1.00  0.00    -0.550 OA
ATOM      8  O   UNL     1      54.121 -51.908  -8.878  1.00  0.00    -0.550 OA
ENDBRANCH   5   6
ENDBRANCH   1   5
TORSDOF 3
ENDMDL
