MODEL 1
REMARK VINA RESULT:    -2.648      0.000      0.000
REMARK INTER + INTRA:          -3.169
REMARK INTER:                  -3.113
REMARK INTRA:                  -0.056
REMARK UNBOUND:                -0.056
REMARK SMILES O=C([O-])CCC(=O)[O-]
REMARK SMILES IDX 4 1 2 2 1 3 3 4 5 5 6 6 7 7 8 8
REMARK H PARENT
REMARK Flexibility Score: inf
ROOT
ATOM      1  C   UNL     1      19.462   0.558  -2.562  1.00  0.00     0.059 C 
ENDROOT
BRANCH   1   2
ATOM      2  C   UNL     1      20.683   1.232  -2.021  1.00  0.00     0.042 C 
ATOM      3  O   UNL     1      20.995   2.387  -2.413  1.00  0.00    -0.550 OA
ATOM      4  O   UNL     1      21.504   0.565  -1.120  1.00  0.00    -0.550 OA
ENDBRANCH   1   2
BRANCH   1   5
ATOM      5  C   UNL     1      18.482   1.592  -3.120  1.00  0.00     0.059 C 
BRANCH   5   6
ATOM      6  C   UNL     1      17.147   1.457  -2.461  1.00  0.00     0.042 C 
ATOM      7  O   UNL     1      16.756   2.324  -1.636  1.00  0.00    -0.550 OA
ATOM      8  O   UNL     1      16.311   0.398  -2.794  1.00  0.00    -0.550 OA
ENDBRANCH   5   6
ENDBRANCH   1   5
TORSDOF 3
ENDMDL
MODEL 2
REMARK VINA RESULT:    -2.631     15.894     17.060
REMARK INTER + INTRA:          -3.148
REMARK INTER:                  -3.063
REMARK INTRA:                  -0.086
REMARK UNBOUND:                -0.056
REMARK SMILES O=C([O-])CCC(=O)[O-]
REMARK SMILES IDX 4 1 2 2 1 3 3 4 5 5 6 6 7 7 8 8
REMARK H PARENT
REMARK Flexibility Score: inf
ROOT
ATOM      1  C   UNL     1      23.908  16.227  -0.623  1.00  0.00     0.059 C 
ENDROOT
BRANCH   1   2
ATOM      2  C   UNL     1      23.401  16.913  -1.851  1.00  0.00     0.042 C 
ATOM      3  O   UNL     1      24.116  17.764  -2.443  1.00  0.00    -0.550 OA
ATOM      4  O   UNL     1      22.118  16.649  -2.316  1.00  0.00    -0.550 OA
ENDBRANCH   1   2
BRANCH   1   5
ATOM      5  C   UNL     1      23.469  16.983   0.633  1.00  0.00     0.059 C 
BRANCH   5   6
ATOM      6  C   UNL     1      24.646  17.267   1.511  1.00  0.00     0.042 C 
ATOM      7  O   UNL     1      25.662  17.844   1.042  1.00  0.00    -0.550 OA
ATOM      8  O   UNL     1      24.602  16.937   2.860  1.00  0.00    -0.550 OA
ENDBRANCH   5   6
ENDBRANCH   1   5
TORSDOF 3
ENDMDL
MODEL 3
REMARK VINA RESULT:    -2.607     15.838     16.812
REMARK INTER + INTRA:          -3.120
REMARK INTER:                  -2.999
REMARK INTRA:                  -0.121
REMARK UNBOUND:                -0.056
REMARK SMILES O=C([O-])CCC(=O)[O-]
REMARK SMILES IDX 4 1 2 2 1 3 3 4 5 5 6 6 7 7 8 8
REMARK H PARENT
REMARK Flexibility Score: inf
ROOT
ATOM      1  C   UNL     1      23.384  17.014   1.036  1.00  0.00     0.059 C 
ENDROOT
BRANCH   1   2
ATOM      2  C   UNL     1      24.708  17.312   1.663  1.00  0.00     0.042 C 
ATOM      3  O   UNL     1      24.880  17.130   2.897  1.00  0.00    -0.550 OA
ATOM      4  O   UNL     1      25.740  17.837   0.894  1.00  0.00    -0.550 OA
ENDBRANCH   1   2
BRANCH   1   5
ATOM      5  C   UNL     1      23.277  17.687  -0.334  1.00  0.00     0.059 C 
BRANCH   5   6
ATOM      6  C   UNL     1      23.236  16.659  -1.420  1.00  0.00     0.042 C 
ATOM      7  O   UNL     1      24.180  15.837  -1.551  1.00  0.00    -0.550 OA
ATOM      8  O   UNL     1      22.131  16.578  -2.259  1.00  0.00    -0.550 OA
ENDBRANCH   5   6
ENDBRANCH   1   5
TORSDOF 3
ENDMDL
MODEL 4
REMARK VINA RESULT:    -2.598      1.082      1.259
REMARK INTER + INTRA:          -3.110
REMARK INTER:                  -3.057
REMARK INTRA:                  -0.052
REMARK UNBOUND:                -0.056
REMARK SMILES O=C([O-])CCC(=O)[O-]
REMARK SMILES IDX 4 1 2 2 1 3 3 4 5 5 6 6 7 7 8 8
REMARK H PARENT
REMARK Flexibility Score: inf
ROOT
ATOM      1  C   UNL     1      19.557   1.280  -2.610  1.00  0.00     0.059 C 
ENDROOT
BRANCH   1   2
ATOM      2  C   UNL     1      20.617   0.338  -2.135  1.00  0.00     0.042 C 
ATOM      3  O   UNL     1      20.976  -0.629  -2.856  1.00  0.00    -0.550 OA
ATOM      4  O   UNL     1      21.176   0.500  -0.873  1.00  0.00    -0.550 OA
ENDBRANCH   1   2
BRANCH   1   5
ATOM      5  C   UNL     1      18.343   0.505  -3.125  1.00  0.00     0.059 C 
BRANCH   5   6
ATOM      6  C   UNL     1      17.080   1.081  -2.570  1.00  0.00     0.042 C 
ATOM      7  O   UNL     1      17.125   2.043  -1.758  1.00  0.00    -0.550 OA
ATOM      8  O   UNL     1      15.849   0.588  -2.985  1.00  0.00    -0.550 OA
ENDBRANCH   5   6
ENDBRANCH   1   5
TORSDOF 3
ENDMDL
MODEL 5
REMARK VINA RESULT:    -2.565      4.187      5.821
REMARK INTER + INTRA:          -3.071
REMARK INTER:                  -3.041
REMARK INTRA:                  -0.030
REMARK UNBOUND:                -0.056
REMARK SMILES O=C([O-])CCC(=O)[O-]
REMARK SMILES IDX 4 1 2 2 1 3 3 4 5 5 6 6 7 7 8 8
REMARK H PARENT
REMARK Flexibility Score: inf
ROOT
ATOM      1  C   UNL     1      14.592   3.499  -1.213  1.00  0.00     0.059 C 
ENDROOT
BRANCH   1   2
ATOM      2  C   UNL     1      15.392   2.487  -1.969  1.00  0.00     0.042 C 
ATOM      3  O   UNL     1      15.816   2.748  -3.125  1.00  0.00    -0.550 OA
ATOM      4  O   UNL     1      15.629   1.234  -1.416  1.00  0.00    -0.550 OA
ENDBRANCH   1   2
BRANCH   1   5
ATOM      5  C   UNL     1      13.333   3.879  -1.994  1.00  0.00     0.059 C 
BRANCH   5   6
ATOM      6  C   UNL     1      12.698   5.097  -1.404  1.00  0.00     0.042 C 
ATOM      7  O   UNL     1      12.776   6.204  -1.999  1.00  0.00    -0.550 OA
ATOM      8  O   UNL     1      11.977   5.002  -0.220  1.00  0.00    -0.550 OA
ENDBRANCH   5   6
ENDBRANCH   1   5
TORSDOF 3
ENDMDL
MODEL 6
REMARK VINA RESULT:    -2.562      0.844      3.924
REMARK INTER + INTRA:          -3.067
REMARK INTER:                  -2.991
REMARK INTRA:                  -0.076
REMARK UNBOUND:                -0.056
REMARK SMILES O=C([O-])CCC(=O)[O-]
REMARK SMILES IDX 4 1 2 2 1 3 3 4 5 5 6 6 7 7 8 8
REMARK H PARENT
REMARK Flexibility Score: inf
ROOT
ATOM      1  C   UNL     1      17.943   0.637  -3.024  1.00  0.00     0.059 C 
ENDROOT
BRANCH   1   2
ATOM      2  C   UNL     1      16.715   1.243  -2.423  1.00  0.00     0.042 C 
ATOM      3  O   UNL     1      15.577   0.785  -2.708  1.00  0.00    -0.550 OA
ATOM      4  O   UNL     1      16.822   2.345  -1.583  1.00  0.00    -0.550 OA
ENDBRANCH   1   2
BRANCH   1   5
ATOM      5  C   UNL     1      19.072   1.668  -3.088  1.00  0.00     0.059 C 
BRANCH   5   6
ATOM      6  C   UNL     1      20.272   1.178  -2.342  1.00  0.00     0.042 C 
ATOM      7  O   UNL     1      21.183   1.980  -2.010  1.00  0.00    -0.550 OA
ATOM      8  O   UNL     1      20.362  -0.159  -1.971  1.00  0.00    -0.550 OA
ENDBRANCH   5   6
ENDBRANCH   1   5
TORSDOF 3
ENDMDL
MODEL 7
REMARK VINA RESULT:    -2.561      4.027      6.576
REMARK INTER + INTRA:          -3.066
REMARK INTER:                  -3.034
REMARK INTRA:                  -0.032
REMARK UNBOUND:                -0.056
REMARK SMILES O=C([O-])CCC(=O)[O-]
REMARK SMILES IDX 4 1 2 2 1 3 3 4 5 5 6 6 7 7 8 8
REMARK H PARENT
REMARK Flexibility Score: inf
ROOT
ATOM      1  C   UNL     1      13.465   3.767  -1.986  1.00  0.00     0.059 C 
ENDROOT
BRANCH   1   2
ATOM      2  C   UNL     1      12.792   4.972  -1.411  1.00  0.00     0.042 C 
ATOM      3  O   UNL     1      12.885   6.086  -1.990  1.00  0.00    -0.550 OA
ATOM      4  O   UNL     1      12.102   4.877  -0.208  1.00  0.00    -0.550 OA
ENDBRANCH   1   2
BRANCH   1   5
ATOM      5  C   UNL     1      14.701   3.399  -1.163  1.00  0.00     0.059 C 
BRANCH   5   6
ATOM      6  C   UNL     1      15.465   2.299  -1.829  1.00  0.00     0.042 C 
ATOM      7  O   UNL     1      14.882   1.512  -2.620  1.00  0.00    -0.550 OA
ATOM      8  O   UNL     1      16.832   2.172  -1.612  1.00  0.00    -0.550 OA
ENDBRANCH   5   6
ENDBRANCH   1   5
TORSDOF 3
ENDMDL
MODEL 8
REMARK VINA RESULT:    -2.535      2.644      4.192
REMARK INTER + INTRA:          -3.035
REMARK INTER:                  -2.972
REMARK INTRA:                  -0.063
REMARK UNBOUND:                -0.056
REMARK SMILES O=C([O-])CCC(=O)[O-]
REMARK SMILES IDX 4 1 2 2 1 3 3 4 5 5 6 6 7 7 8 8
REMARK H PARENT
REMARK Flexibility Score: inf
ROOT
ATOM      1  C   UNL     1      15.502   1.472  -1.573  1.00  0.00     0.059 C 
ENDROOT
BRANCH   1   2
ATOM      2  C   UNL     1      16.707   1.046  -2.349  1.00  0.00     0.042 C 
ATOM      3  O   UNL     1      16.644   0.055  -3.124  1.00  0.00    -0.550 OA
ATOM      4  O   UNL     1      17.914   1.714  -2.182  1.00  0.00    -0.550 OA
ENDBRANCH   1   2
BRANCH   1   5
ATOM      5  C   UNL     1      15.432   2.997  -1.486  1.00  0.00     0.059 C 
BRANCH   5   6
ATOM      6  C   UNL     1      14.104   3.489  -1.965  1.00  0.00     0.042 C 
ATOM      7  O   UNL     1      13.643   3.095  -3.069  1.00  0.00    -0.550 OA
ATOM      8  O   UNL     1      13.352   4.346  -1.171  1.00  0.00    -0.550 OA
ENDBRANCH   5   6
ENDBRANCH   1   5
TORSDOF 3
ENDMDL
MODEL 9
REMARK VINA RESULT:    -2.494      5.935      7.685
REMARK INTER + INTRA:          -2.987
REMARK INTER:                  -2.893
REMARK INTRA:                  -0.094
REMARK UNBOUND:                -0.056
REMARK SMILES O=C([O-])CCC(=O)[O-]
REMARK SMILES IDX 4 1 2 2 1 3 3 4 5 5 6 6 7 7 8 8
REMARK H PARENT
REMARK Flexibility Score: inf
ROOT
ATOM      1  C   UNL     1      13.077   5.047  -1.688  1.00  0.00     0.059 C 
ENDROOT
BRANCH   1   2
ATOM      2  C   UNL     1      13.653   3.694  -1.956  1.00  0.00     0.042 C 
ATOM      3  O   UNL     1      13.095   2.917  -2.775  1.00  0.00    -0.550 OA
ATOM      4  O   UNL     1      14.782   3.270  -1.265  1.00  0.00    -0.550 OA
ENDBRANCH   1   2
BRANCH   1   5
ATOM      5  C   UNL     1      12.087   4.987  -0.523  1.00  0.00     0.059 C 
BRANCH   5   6
ATOM      6  C   UNL     1      10.749   5.503  -0.945  1.00  0.00     0.042 C 
ATOM      7  O   UNL     1      10.302   6.577  -0.464  1.00  0.00    -0.550 OA
ATOM      8  O   UNL     1      10.013   4.822  -1.908  1.00  0.00    -0.550 OA
ENDBRANCH   5   6
ENDBRANCH   1   5
TORSDOF 3
ENDMDL
