MODEL 1
REMARK VINA RESULT:    -5.639      0.000      0.000
REMARK INTER + INTRA:          -6.604
REMARK INTER:                  -6.464
REMARK INTRA:                  -0.141
REMARK UNBOUND:                -0.141
REMARK SMILES O=C([O-])C=Cc1ccc(O)cc1
REMARK SMILES IDX 6 1 7 2 12 3 8 4 11 5 9 6 5 7 4 8 2 9 1 10 3 11 10 12
REMARK H PARENT 10 13
REMARK Flexibility Score: inf
ROOT
ATOM      1  C   UNL     1      14.236  43.134   5.574  1.00  0.00    -0.025 A 
ATOM      2  C   UNL     1      14.612  43.638   4.318  1.00  0.00     0.012 A 
ATOM      3  C   UNL     1      13.044  42.386   5.677  1.00  0.00     0.012 A 
ATOM      4  C   UNL     1      13.833  43.384   3.185  1.00  0.00     0.047 A 
ATOM      5  C   UNL     1      12.267  42.136   4.542  1.00  0.00     0.047 A 
ATOM      6  C   UNL     1      12.658  42.630   3.294  1.00  0.00     0.115 A 
ENDROOT
BRANCH   1   7
ATOM      7  C   UNL     1      15.091  43.439   6.747  1.00  0.00     0.010 C 
ATOM      8  C   UNL     1      16.411  43.204   6.789  1.00  0.00     0.025 C 
BRANCH   8   9
ATOM      9  C   UNL     1      17.229  43.532   7.968  1.00  0.00     0.064 C 
ATOM     10  O   UNL     1      17.870  42.641   8.587  1.00  0.00    -0.545 OA
ATOM     11  O   UNL     1      17.299  44.849   8.405  1.00  0.00    -0.545 OA
ENDBRANCH   8   9
ENDBRANCH   1   7
BRANCH   6  12
ATOM     12  O   UNL     1      11.874  42.370   2.174  1.00  0.00    -0.508 OA
ATOM     13  H   UNL     1      12.183  42.619   1.241  1.00  0.00     0.293 HD
ENDBRANCH   6  12
TORSDOF 3
ENDMDL
MODEL 2
REMARK VINA RESULT:    -5.282      1.370      5.946
REMARK INTER + INTRA:          -6.195
REMARK INTER:                  -6.042
REMARK INTRA:                  -0.153
REMARK UNBOUND:                -0.141
REMARK SMILES O=C([O-])C=Cc1ccc(O)cc1
REMARK SMILES IDX 6 1 7 2 12 3 8 4 11 5 9 6 5 7 4 8 2 9 1 10 3 11 10 12
REMARK H PARENT 10 13
REMARK Flexibility Score: inf
ROOT
ATOM      1  C   UNL     1      15.565  44.092   6.522  1.00  0.00    -0.025 A 
ATOM      2  C   UNL     1      15.893  42.784   6.917  1.00  0.00     0.012 A 
ATOM      3  C   UNL     1      16.118  45.176   7.236  1.00  0.00     0.012 A 
ATOM      4  C   UNL     1      16.771  42.560   7.982  1.00  0.00     0.047 A 
ATOM      5  C   UNL     1      16.994  44.947   8.302  1.00  0.00     0.047 A 
ATOM      6  C   UNL     1      17.327  43.642   8.676  1.00  0.00     0.115 A 
ENDROOT
BRANCH   1   7
ATOM      7  C   UNL     1      14.621  44.277   5.393  1.00  0.00     0.010 C 
ATOM      8  C   UNL     1      14.018  43.265   4.752  1.00  0.00     0.025 C 
BRANCH   8   9
ATOM      9  C   UNL     1      13.077  43.489   3.642  1.00  0.00     0.064 C 
ATOM     10  O   UNL     1      12.497  44.598   3.491  1.00  0.00    -0.545 OA
ATOM     11  O   UNL     1      12.824  42.460   2.744  1.00  0.00    -0.545 OA
ENDBRANCH   8   9
ENDBRANCH   1   7
BRANCH   6  12
ATOM     12  O   UNL     1      18.202  43.432   9.737  1.00  0.00    -0.508 OA
ATOM     13  H   UNL     1      17.869  43.360  10.692  1.00  0.00     0.293 HD
ENDBRANCH   6  12
TORSDOF 3
ENDMDL
MODEL 3
REMARK VINA RESULT:    -5.232      2.620      5.843
REMARK INTER + INTRA:          -6.138
REMARK INTER:                  -5.996
REMARK INTRA:                  -0.142
REMARK UNBOUND:                -0.141
REMARK SMILES O=C([O-])C=Cc1ccc(O)cc1
REMARK SMILES IDX 6 1 7 2 12 3 8 4 11 5 9 6 5 7 4 8 2 9 1 10 3 11 10 12
REMARK H PARENT 10 13
REMARK Flexibility Score: inf
ROOT
ATOM      1  C   UNL     1      15.166  44.365   6.396  1.00  0.00    -0.025 A 
ATOM      2  C   UNL     1      15.366  42.988   6.597  1.00  0.00     0.012 A 
ATOM      3  C   UNL     1      16.036  45.276   7.030  1.00  0.00     0.012 A 
ATOM      4  C   UNL     1      16.421  42.529   7.390  1.00  0.00     0.047 A 
ATOM      5  C   UNL     1      17.089  44.813   7.824  1.00  0.00     0.047 A 
ATOM      6  C   UNL     1      17.288  43.441   8.004  1.00  0.00     0.115 A 
ENDROOT
BRANCH   1   7
ATOM      7  C   UNL     1      14.026  44.802   5.554  1.00  0.00     0.010 C 
ATOM      8  C   UNL     1      13.431  45.999   5.668  1.00  0.00     0.025 C 
BRANCH   8   9
ATOM      9  C   UNL     1      12.309  46.403   4.805  1.00  0.00     0.064 C 
ATOM     10  O   UNL     1      12.353  46.240   3.556  1.00  0.00    -0.545 OA
ATOM     11  O   UNL     1      11.178  46.971   5.378  1.00  0.00    -0.545 OA
ENDBRANCH   8   9
ENDBRANCH   1   7
BRANCH   6  12
ATOM     12  O   UNL     1      18.343  42.996   8.796  1.00  0.00    -0.508 OA
ATOM     13  H   UNL     1      18.864  42.158   8.563  1.00  0.00     0.293 HD
ENDBRANCH   6  12
TORSDOF 3
ENDMDL
MODEL 4
REMARK VINA RESULT:    -5.029      7.802      8.971
REMARK INTER + INTRA:          -5.905
REMARK INTER:                  -5.760
REMARK INTRA:                  -0.145
REMARK UNBOUND:                -0.141
REMARK SMILES O=C([O-])C=Cc1ccc(O)cc1
REMARK SMILES IDX 6 1 7 2 12 3 8 4 11 5 9 6 5 7 4 8 2 9 1 10 3 11 10 12
REMARK H PARENT 10 13
REMARK Flexibility Score: inf
ROOT
ATOM      1  C   UNL     1      13.629  37.463  11.719  1.00  0.00    -0.025 A 
ATOM      2  C   UNL     1      12.231  37.611  11.712  1.00  0.00     0.012 A 
ATOM      3  C   UNL     1      14.188  36.329  12.344  1.00  0.00     0.012 A 
ATOM      4  C   UNL     1      11.409  36.641  12.291  1.00  0.00     0.047 A 
ATOM      5  C   UNL     1      13.361  35.361  12.924  1.00  0.00     0.047 A 
ATOM      6  C   UNL     1      11.972  35.511  12.897  1.00  0.00     0.115 A 
ENDROOT
BRANCH   1   7
ATOM      7  C   UNL     1      14.459  38.526  11.101  1.00  0.00     0.010 C 
ATOM      8  C   UNL     1      14.124  39.172   9.974  1.00  0.00     0.025 C 
BRANCH   8   9
ATOM      9  C   UNL     1      14.969  40.230   9.396  1.00  0.00     0.064 C 
ATOM     10  O   UNL     1      14.489  41.354   9.089  1.00  0.00    -0.545 OA
ATOM     11  O   UNL     1      16.320  39.987   9.187  1.00  0.00    -0.545 OA
ENDBRANCH   8   9
ENDBRANCH   1   7
BRANCH   6  12
ATOM     12  O   UNL     1      11.164  34.538  13.477  1.00  0.00    -0.508 OA
ATOM     13  H   UNL     1      10.154  34.563  13.384  1.00  0.00     0.293 HD
ENDBRANCH   6  12
TORSDOF 3
ENDMDL
MODEL 5
REMARK VINA RESULT:    -4.988      2.549      3.073
REMARK INTER + INTRA:          -5.858
REMARK INTER:                  -5.720
REMARK INTRA:                  -0.138
REMARK UNBOUND:                -0.141
REMARK SMILES O=C([O-])C=Cc1ccc(O)cc1
REMARK SMILES IDX 6 1 7 2 12 3 8 4 11 5 9 6 5 7 4 8 2 9 1 10 3 11 10 12
REMARK H PARENT 10 13
REMARK Flexibility Score: inf
ROOT
ATOM      1  C   UNL     1      14.547  45.571   5.958  1.00  0.00    -0.025 A 
ATOM      2  C   UNL     1      13.501  46.422   6.356  1.00  0.00     0.012 A 
ATOM      3  C   UNL     1      14.579  45.113   4.624  1.00  0.00     0.012 A 
ATOM      4  C   UNL     1      12.524  46.827   5.441  1.00  0.00     0.047 A 
ATOM      5  C   UNL     1      13.598  45.520   3.713  1.00  0.00     0.047 A 
ATOM      6  C   UNL     1      12.572  46.379   4.116  1.00  0.00     0.115 A 
ENDROOT
BRANCH   1   7
ATOM      7  C   UNL     1      15.553  45.162   6.967  1.00  0.00     0.010 C 
ATOM      8  C   UNL     1      15.776  43.888   7.324  1.00  0.00     0.025 C 
BRANCH   8   9
ATOM      9  C   UNL     1      16.793  43.519   8.322  1.00  0.00     0.064 C 
ATOM     10  O   UNL     1      17.483  44.397   8.906  1.00  0.00    -0.545 OA
ATOM     11  O   UNL     1      16.994  42.179   8.627  1.00  0.00    -0.545 OA
ENDBRANCH   8   9
ENDBRANCH   1   7
BRANCH   6  12
ATOM     12  O   UNL     1      11.605  46.775   3.196  1.00  0.00    -0.508 OA
ATOM     13  H   UNL     1      11.689  47.644   2.681  1.00  0.00     0.293 HD
ENDBRANCH   6  12
TORSDOF 3
ENDMDL
MODEL 6
REMARK VINA RESULT:    -4.953      1.999      2.391
REMARK INTER + INTRA:          -5.818
REMARK INTER:                  -5.672
REMARK INTRA:                  -0.146
REMARK UNBOUND:                -0.141
REMARK SMILES O=C([O-])C=Cc1ccc(O)cc1
REMARK SMILES IDX 6 1 7 2 12 3 8 4 11 5 9 6 5 7 4 8 2 9 1 10 3 11 10 12
REMARK H PARENT 10 13
REMARK Flexibility Score: inf
ROOT
ATOM      1  C   UNL     1      14.553  43.945   5.440  1.00  0.00    -0.025 A 
ATOM      2  C   UNL     1      14.526  45.331   5.672  1.00  0.00     0.012 A 
ATOM      3  C   UNL     1      13.667  43.399   4.487  1.00  0.00     0.012 A 
ATOM      4  C   UNL     1      13.656  46.157   4.955  1.00  0.00     0.047 A 
ATOM      5  C   UNL     1      12.797  44.229   3.774  1.00  0.00     0.047 A 
ATOM      6  C   UNL     1      12.790  45.608   4.001  1.00  0.00     0.115 A 
ENDROOT
BRANCH   1   7
ATOM      7  C   UNL     1      15.487  43.110   6.233  1.00  0.00     0.010 C 
ATOM      8  C   UNL     1      15.803  43.356   7.514  1.00  0.00     0.025 C 
BRANCH   8   9
ATOM      9  C   UNL     1      16.726  42.496   8.273  1.00  0.00     0.064 C 
ATOM     10  O   UNL     1      17.865  42.908   8.621  1.00  0.00    -0.545 OA
ATOM     11  O   UNL     1      16.333  41.208   8.614  1.00  0.00    -0.545 OA
ENDBRANCH   8   9
ENDBRANCH   1   7
BRANCH   6  12
ATOM     12  O   UNL     1      11.919  46.421   3.281  1.00  0.00    -0.508 OA
ATOM     13  H   UNL     1      12.259  47.181   2.703  1.00  0.00     0.293 HD
ENDBRANCH   6  12
TORSDOF 3
ENDMDL
MODEL 7
REMARK VINA RESULT:    -4.938      3.589      3.777
REMARK INTER + INTRA:          -5.801
REMARK INTER:                  -5.662
REMARK INTRA:                  -0.138
REMARK UNBOUND:                -0.141
REMARK SMILES O=C([O-])C=Cc1ccc(O)cc1
REMARK SMILES IDX 6 1 7 2 12 3 8 4 11 5 9 6 5 7 4 8 2 9 1 10 3 11 10 12
REMARK H PARENT 10 13
REMARK Flexibility Score: inf
ROOT
ATOM      1  C   UNL     1      13.535  46.246   5.882  1.00  0.00    -0.025 A 
ATOM      2  C   UNL     1      13.180  46.229   4.522  1.00  0.00     0.012 A 
ATOM      3  C   UNL     1      12.599  46.728   6.821  1.00  0.00     0.012 A 
ATOM      4  C   UNL     1      11.915  46.659   4.109  1.00  0.00     0.047 A 
ATOM      5  C   UNL     1      11.336  47.158   6.404  1.00  0.00     0.047 A 
ATOM      6  C   UNL     1      10.988  47.122   5.050  1.00  0.00     0.115 A 
ENDROOT
BRANCH   1   7
ATOM      7  C   UNL     1      14.892  45.789   6.268  1.00  0.00     0.010 C 
ATOM      8  C   UNL     1      15.183  45.238   7.456  1.00  0.00     0.025 C 
BRANCH   8   9
ATOM      9  C   UNL     1      16.541  44.786   7.799  1.00  0.00     0.064 C 
ATOM     10  O   UNL     1      17.517  45.009   7.033  1.00  0.00    -0.545 OA
ATOM     11  O   UNL     1      16.752  44.103   8.990  1.00  0.00    -0.545 OA
ENDBRANCH   8   9
ENDBRANCH   1   7
BRANCH   6  12
ATOM     12  O   UNL     1       9.726  47.553   4.652  1.00  0.00    -0.508 OA
ATOM     13  H   UNL     1       9.486  47.656   3.672  1.00  0.00     0.293 HD
ENDBRANCH   6  12
TORSDOF 3
ENDMDL
MODEL 8
REMARK VINA RESULT:    -4.896      2.225      2.777
REMARK INTER + INTRA:          -5.753
REMARK INTER:                  -5.607
REMARK INTRA:                  -0.145
REMARK UNBOUND:                -0.141
REMARK SMILES O=C([O-])C=Cc1ccc(O)cc1
REMARK SMILES IDX 6 1 7 2 12 3 8 4 11 5 9 6 5 7 4 8 2 9 1 10 3 11 10 12
REMARK H PARENT 10 13
REMARK Flexibility Score: inf
ROOT
ATOM      1  C   UNL     1      14.641  44.573   5.854  1.00  0.00    -0.025 A 
ATOM      2  C   UNL     1      13.981  43.818   4.869  1.00  0.00     0.012 A 
ATOM      3  C   UNL     1      14.371  45.954   5.945  1.00  0.00     0.012 A 
ATOM      4  C   UNL     1      13.055  44.419   4.012  1.00  0.00     0.047 A 
ATOM      5  C   UNL     1      13.445  46.552   5.083  1.00  0.00     0.047 A 
ATOM      6  C   UNL     1      12.783  45.788   4.118  1.00  0.00     0.115 A 
ENDROOT
BRANCH   1   7
ATOM      7  C   UNL     1      15.623  43.891   6.733  1.00  0.00     0.010 C 
ATOM      8  C   UNL     1      15.403  42.702   7.314  1.00  0.00     0.025 C 
BRANCH   8   9
ATOM      9  C   UNL     1      16.407  42.050   8.171  1.00  0.00     0.064 C 
ATOM     10  O   UNL     1      17.441  42.664   8.549  1.00  0.00    -0.545 OA
ATOM     11  O   UNL     1      16.210  40.736   8.574  1.00  0.00    -0.545 OA
ENDBRANCH   8   9
ENDBRANCH   1   7
BRANCH   6  12
ATOM     12  O   UNL     1      11.863  46.398   3.270  1.00  0.00    -0.508 OA
ATOM     13  H   UNL     1      12.009  47.338   2.919  1.00  0.00     0.293 HD
ENDBRANCH   6  12
TORSDOF 3
ENDMDL
MODEL 9
REMARK VINA RESULT:    -4.860      3.919      5.414
REMARK INTER + INTRA:          -5.711
REMARK INTER:                  -5.560
REMARK INTRA:                  -0.151
REMARK UNBOUND:                -0.141
REMARK SMILES O=C([O-])C=Cc1ccc(O)cc1
REMARK SMILES IDX 6 1 7 2 12 3 8 4 11 5 9 6 5 7 4 8 2 9 1 10 3 11 10 12
REMARK H PARENT 10 13
REMARK Flexibility Score: inf
ROOT
ATOM      1  C   UNL     1      13.749  45.184   4.960  1.00  0.00    -0.025 A 
ATOM      2  C   UNL     1      14.746  45.338   5.939  1.00  0.00     0.012 A 
ATOM      3  C   UNL     1      14.041  44.423   3.809  1.00  0.00     0.012 A 
ATOM      4  C   UNL     1      15.994  44.727   5.788  1.00  0.00     0.047 A 
ATOM      5  C   UNL     1      15.292  43.815   3.661  1.00  0.00     0.047 A 
ATOM      6  C   UNL     1      16.270  43.961   4.649  1.00  0.00     0.115 A 
ENDROOT
BRANCH   1   7
ATOM      7  C   UNL     1      12.445  45.860   5.161  1.00  0.00     0.010 C 
ATOM      8  C   UNL     1      12.029  46.341   6.343  1.00  0.00     0.025 C 
BRANCH   8   9
ATOM      9  C   UNL     1      10.731  47.017   6.501  1.00  0.00     0.064 C 
ATOM     10  O   UNL     1      10.298  47.814   5.626  1.00  0.00    -0.545 OA
ATOM     11  O   UNL     1       9.967  46.771   7.635  1.00  0.00    -0.545 OA
ENDBRANCH   8   9
ENDBRANCH   1   7
BRANCH   6  12
ATOM     12  O   UNL     1      17.509  43.349   4.487  1.00  0.00    -0.508 OA
ATOM     13  H   UNL     1      18.199  43.344   5.230  1.00  0.00     0.293 HD
ENDBRANCH   6  12
TORSDOF 3
ENDMDL
