MODEL 1
REMARK VINA RESULT:    -0.754      0.000      0.000
REMARK INTER + INTRA:          -1.349
REMARK INTER:                  -1.018
REMARK INTRA:                  -0.331
REMARK UNBOUND:                -0.331
REMARK SMILES CC[C@H](CC[C@@H](C)[C@H]1CC[C@H]2[C@H]3CC(=O)C4=CC(=O)CC[C@]4(C)[C@H]3CC[C@@]12C)C(C)C
REMARK SMILES IDX 4 1 3 2 2 3 1 4 29 5 30 6 31 7 5 8 6 9 7 10 8 11 9 12 27 13
REMARK SMILES IDX 10 14 11 15 26 16 28 17 12 18 25 19 24 20 13 21 22 22 14 23
REMARK SMILES IDX 16 24 21 25 23 26 15 27 17 28 20 29 18 30 19 31
REMARK H PARENT
REMARK Flexibility Score: inf
ROOT
ATOM      1  C   UNL     1     -13.844 -17.405  28.107  1.00  0.00     0.004 C 
ENDROOT
BRANCH   1   2
ATOM      2  C   UNL     1     -12.944 -16.361  27.369  1.00  0.00    -0.009 C 
BRANCH   2   3
ATOM      3  C   UNL     1     -12.789 -15.082  28.241  1.00  0.00     0.000 C 
ATOM      4  C   UNL     1     -14.119 -14.399  28.589  1.00  0.00     0.004 C 
ENDBRANCH   2   3
BRANCH   2   5
ATOM      5  C   UNL     1     -11.565 -16.963  26.919  1.00  0.00    -0.014 C 
ATOM      6  C   UNL     1     -11.316 -16.770  25.413  1.00  0.00     0.007 C 
ATOM      7  C   UNL     1     -10.385 -16.342  27.694  1.00  0.00     0.007 C 
ENDBRANCH   2   5
ENDBRANCH   1   2
BRANCH   1   8
ATOM      8  C   UNL     1     -13.300 -18.850  28.003  1.00  0.00     0.004 C 
BRANCH   8   9
ATOM      9  C   UNL     1     -13.315 -19.654  29.336  1.00  0.00    -0.011 C 
ATOM     10  C   UNL     1     -13.359 -21.163  29.053  1.00  0.00     0.008 C 
BRANCH   9  11
ATOM     11  C   UNL     1     -12.159 -19.222  30.314  1.00  0.00    -0.002 C 
ATOM     12  C   UNL     1     -11.204 -18.218  29.648  1.00  0.00     0.005 C 
ATOM     13  C   UNL     1     -12.504 -18.567  31.694  1.00  0.00    -0.026 C 
ATOM     14  C   UNL     1     -10.579 -17.387  30.766  1.00  0.00     0.005 C 
ATOM     15  C   UNL     1     -11.146 -17.936  32.085  1.00  0.00    -0.001 C 
ATOM     16  C   UNL     1     -13.628 -17.476  31.564  1.00  0.00     0.007 C 
ATOM     17  C   UNL     1     -12.878 -19.640  32.757  1.00  0.00     0.012 C 
ATOM     18  C   UNL     1     -11.182 -16.955  33.315  1.00  0.00     0.004 C 
ATOM     19  C   UNL     1     -13.326 -16.119  32.225  1.00  0.00     0.005 C 
ATOM     20  C   UNL     1     -12.588 -16.284  33.571  1.00  0.00     0.003 C 
ATOM     21  C   UNL     1      -9.968 -15.979  33.323  1.00  0.00     0.085 C 
ATOM     22  C   UNL     1     -12.543 -14.983  34.494  1.00  0.00    -0.000 C 
ATOM     23  C   UNL     1     -10.396 -14.562  33.180  1.00  0.00     0.159 C 
ATOM     24  C   UNL     1     -11.360 -14.085  34.162  1.00  0.00     0.005 C 
ATOM     25  C   UNL     1     -12.397 -15.410  35.987  1.00  0.00     0.020 C 
ATOM     26  C   UNL     1     -13.845 -14.146  34.342  1.00  0.00     0.017 C 
ATOM     27  O   UNL     1      -9.875 -13.792  32.328  1.00  0.00    -0.295 OA
ATOM     28  C   UNL     1     -10.971 -13.119  35.008  1.00  0.00     0.055 C 
ATOM     29  C   UNL     1     -12.296 -14.210  36.957  1.00  0.00     0.081 C 
ATOM     30  C   UNL     1     -11.505 -13.062  36.381  1.00  0.00     0.156 C 
ATOM     31  O   UNL     1     -11.256 -12.059  37.100  1.00  0.00    -0.295 OA
ENDBRANCH   9  11
ENDBRANCH   8   9
ENDBRANCH   1   8
TORSDOF 6
ENDMDL
MODEL 2
REMARK VINA RESULT:     0.824      1.204      2.373
REMARK INTER + INTRA:           0.783
REMARK INTER:                  -1.246
REMARK INTRA:                   2.029
REMARK UNBOUND:                -0.331
REMARK SMILES CC[C@H](CC[C@@H](C)[C@H]1CC[C@H]2[C@H]3CC(=O)C4=CC(=O)CC[C@]4(C)[C@H]3CC[C@@]12C)C(C)C
REMARK SMILES IDX 4 1 3 2 2 3 1 4 29 5 30 6 31 7 5 8 6 9 7 10 8 11 9 12 27 13
REMARK SMILES IDX 10 14 11 15 26 16 28 17 12 18 25 19 24 20 13 21 22 22 14 23
REMARK SMILES IDX 16 24 21 25 23 26 15 27 17 28 20 29 18 30 19 31
REMARK H PARENT
REMARK Flexibility Score: inf
ROOT
ATOM      1  C   UNL     1     -12.934 -15.452  28.595  1.00  0.00     0.004 C 
ENDROOT
BRANCH   1   2
ATOM      2  C   UNL     1     -13.893 -14.539  27.763  1.00  0.00    -0.009 C 
BRANCH   2   3
ATOM      3  C   UNL     1     -14.355 -15.286  26.479  1.00  0.00     0.000 C 
ATOM      4  C   UNL     1     -13.373 -16.359  25.992  1.00  0.00     0.004 C 
ENDBRANCH   2   3
BRANCH   2   5
ATOM      5  C   UNL     1     -15.092 -13.987  28.613  1.00  0.00    -0.014 C 
ATOM      6  C   UNL     1     -14.799 -14.035  30.122  1.00  0.00     0.007 C 
ATOM      7  C   UNL     1     -15.450 -12.537  28.229  1.00  0.00     0.007 C 
ENDBRANCH   2   5
ENDBRANCH   1   2
BRANCH   1   8
ATOM      8  C   UNL     1     -12.922 -16.919  28.102  1.00  0.00     0.004 C 
BRANCH   8   9
ATOM      9  C   UNL     1     -12.911 -17.990  29.233  1.00  0.00    -0.011 C 
ATOM     10  C   UNL     1     -12.836 -19.402  28.634  1.00  0.00     0.008 C 
BRANCH   9  11
ATOM     11  C   UNL     1     -11.815 -17.701  30.326  1.00  0.00    -0.002 C 
ATOM     12  C   UNL     1     -10.885 -16.553  29.902  1.00  0.00     0.005 C 
ATOM     13  C   UNL     1     -12.243 -17.330  31.786  1.00  0.00    -0.026 C 
ATOM     14  C   UNL     1     -10.344 -15.920  31.182  1.00  0.00     0.005 C 
ATOM     15  C   UNL     1     -10.933 -16.728  32.349  1.00  0.00    -0.001 C 
ATOM     16  C   UNL     1     -13.413 -16.281  31.809  1.00  0.00     0.007 C 
ATOM     17  C   UNL     1     -12.604 -18.598  32.614  1.00  0.00     0.012 C 
ATOM     18  C   UNL     1     -11.063 -15.997  33.736  1.00  0.00     0.004 C 
ATOM     19  C   UNL     1     -13.202 -15.060  32.722  1.00  0.00     0.005 C 
ATOM     20  C   UNL     1     -12.508 -15.444  34.047  1.00  0.00     0.003 C 
ATOM     21  C   UNL     1      -9.899 -14.991  33.980  1.00  0.00     0.085 C 
ATOM     22  C   UNL     1     -12.562 -14.337  35.196  1.00  0.00    -0.000 C 
ATOM     23  C   UNL     1     -10.389 -13.590  34.082  1.00  0.00     0.159 C 
ATOM     24  C   UNL     1     -11.412 -13.346  35.090  1.00  0.00     0.005 C 
ATOM     25  C   UNL     1     -12.451 -15.030  36.589  1.00  0.00     0.020 C 
ATOM     26  C   UNL     1     -13.896 -13.541  35.142  1.00  0.00     0.017 C 
ATOM     27  O   UNL     1      -9.875 -12.655  33.412  1.00  0.00    -0.295 OA
ATOM     28  C   UNL     1     -11.102 -12.540  36.118  1.00  0.00     0.055 C 
ATOM     29  C   UNL     1     -12.445 -14.029  37.768  1.00  0.00     0.081 C 
ATOM     30  C   UNL     1     -11.690 -12.762  37.452  1.00  0.00     0.156 C 
ATOM     31  O   UNL     1     -11.517 -11.902  38.354  1.00  0.00    -0.295 OA
ENDBRANCH   9  11
ENDBRANCH   8   9
ENDBRANCH   1   8
TORSDOF 6
ENDMDL
MODEL 3
REMARK VINA RESULT:     2.040      2.726      8.058
REMARK INTER + INTRA:           2.425
REMARK INTER:                   2.141
REMARK INTRA:                   0.284
REMARK UNBOUND:                -0.331
REMARK SMILES CC[C@H](CC[C@@H](C)[C@H]1CC[C@H]2[C@H]3CC(=O)C4=CC(=O)CC[C@]4(C)[C@H]3CC[C@@]12C)C(C)C
REMARK SMILES IDX 4 1 3 2 2 3 1 4 29 5 30 6 31 7 5 8 6 9 7 10 8 11 9 12 27 13
REMARK SMILES IDX 10 14 11 15 26 16 28 17 12 18 25 19 24 20 13 21 22 22 14 23
REMARK SMILES IDX 16 24 21 25 23 26 15 27 17 28 20 29 18 30 19 31
REMARK H PARENT
REMARK Flexibility Score: inf
ROOT
ATOM      1  C   UNL     1     -10.649 -13.791  35.257  1.00  0.00     0.004 C 
ENDROOT
BRANCH   1   2
ATOM      2  C   UNL     1     -10.642 -13.335  36.753  1.00  0.00    -0.009 C 
BRANCH   2   3
ATOM      3  C   UNL     1     -11.175 -11.878  36.866  1.00  0.00     0.000 C 
ATOM      4  C   UNL     1     -10.739 -10.962  35.714  1.00  0.00     0.004 C 
ENDBRANCH   2   3
BRANCH   2   5
ATOM      5  C   UNL     1     -11.401 -14.337  37.694  1.00  0.00    -0.014 C 
ATOM      6  C   UNL     1     -10.433 -15.152  38.569  1.00  0.00     0.007 C 
ATOM      7  C   UNL     1     -12.405 -13.614  38.615  1.00  0.00     0.007 C 
ENDBRANCH   2   5
ENDBRANCH   1   2
BRANCH   1   8
ATOM      8  C   UNL     1     -11.502 -15.060  35.018  1.00  0.00     0.004 C 
BRANCH   8   9
ATOM      9  C   UNL     1     -13.037 -14.811  34.930  1.00  0.00    -0.011 C 
ATOM     10  C   UNL     1     -13.340 -13.306  34.983  1.00  0.00     0.008 C 
BRANCH   9  11
ATOM     11  C   UNL     1     -13.699 -15.553  33.709  1.00  0.00    -0.002 C 
ATOM     12  C   UNL     1     -14.627 -14.618  32.917  1.00  0.00     0.005 C 
ATOM     13  C   UNL     1     -12.797 -16.217  32.614  1.00  0.00    -0.026 C 
ATOM     14  C   UNL     1     -14.679 -15.147  31.486  1.00  0.00     0.005 C 
ATOM     15  C   UNL     1     -13.808 -16.413  31.458  1.00  0.00    -0.001 C 
ATOM     16  C   UNL     1     -11.608 -15.284  32.185  1.00  0.00     0.007 C 
ATOM     17  C   UNL     1     -12.284 -17.614  33.068  1.00  0.00     0.012 C 
ATOM     18  C   UNL     1     -13.184 -16.826  30.074  1.00  0.00     0.004 C 
ATOM     19  C   UNL     1     -11.422 -15.088  30.669  1.00  0.00     0.005 C 
ATOM     20  C   UNL     1     -11.678 -16.391  29.883  1.00  0.00     0.003 C 
ATOM     21  C   UNL     1     -14.129 -16.492  28.882  1.00  0.00     0.085 C 
ATOM     22  C   UNL     1     -11.176 -16.390  28.368  1.00  0.00    -0.000 C 
ATOM     23  C   UNL     1     -13.530 -15.487  27.964  1.00  0.00     0.159 C 
ATOM     24  C   UNL     1     -12.222 -15.824  27.418  1.00  0.00     0.005 C 
ATOM     25  C   UNL     1     -10.884 -17.854  27.917  1.00  0.00     0.020 C 
ATOM     26  C   UNL     1      -9.875 -15.553  28.212  1.00  0.00     0.017 C 
ATOM     27  O   UNL     1     -14.161 -14.459  27.598  1.00  0.00    -0.295 OA
ATOM     28  C   UNL     1     -12.124 -16.016  26.093  1.00  0.00     0.055 C 
ATOM     29  C   UNL     1     -10.435 -17.959  26.440  1.00  0.00     0.081 C 
ATOM     30  C   UNL     1     -11.156 -16.983  25.543  1.00  0.00     0.156 C 
ATOM     31  O   UNL     1     -10.965 -17.026  24.300  1.00  0.00    -0.295 OA
ENDBRANCH   9  11
ENDBRANCH   8   9
ENDBRANCH   1   8
TORSDOF 6
ENDMDL
MODEL 4
REMARK VINA RESULT:     2.133      1.571      2.891
REMARK INTER + INTRA:           2.551
REMARK INTER:                   2.842
REMARK INTRA:                  -0.291
REMARK UNBOUND:                -0.331
REMARK SMILES CC[C@H](CC[C@@H](C)[C@H]1CC[C@H]2[C@H]3CC(=O)C4=CC(=O)CC[C@]4(C)[C@H]3CC[C@@]12C)C(C)C
REMARK SMILES IDX 4 1 3 2 2 3 1 4 29 5 30 6 31 7 5 8 6 9 7 10 8 11 9 12 27 13
REMARK SMILES IDX 10 14 11 15 26 16 28 17 12 18 25 19 24 20 13 21 22 22 14 23
REMARK SMILES IDX 16 24 21 25 23 26 15 27 17 28 20 29 18 30 19 31
REMARK H PARENT
REMARK Flexibility Score: inf
ROOT
ATOM      1  C   UNL     1     -13.527 -18.152  28.251  1.00  0.00     0.004 C 
ENDROOT
BRANCH   1   2
ATOM      2  C   UNL     1     -13.061 -17.175  27.122  1.00  0.00    -0.009 C 
BRANCH   2   3
ATOM      3  C   UNL     1     -13.576 -15.737  27.419  1.00  0.00     0.000 C 
ATOM      4  C   UNL     1     -14.281 -15.068  26.232  1.00  0.00     0.004 C 
ENDBRANCH   2   3
BRANCH   2   5
ATOM      5  C   UNL     1     -11.511 -17.230  26.876  1.00  0.00    -0.014 C 
ATOM      6  C   UNL     1     -11.151 -16.957  25.405  1.00  0.00     0.007 C 
ATOM      7  C   UNL     1     -10.751 -16.223  27.762  1.00  0.00     0.007 C 
ENDBRANCH   2   5
ENDBRANCH   1   2
BRANCH   1   8
ATOM      8  C   UNL     1     -12.398 -19.094  28.735  1.00  0.00     0.004 C 
BRANCH   8   9
ATOM      9  C   UNL     1     -12.009 -18.934  30.235  1.00  0.00    -0.011 C 
ATOM     10  C   UNL     1     -10.529 -18.547  30.367  1.00  0.00     0.008 C 
BRANCH   9  11
ATOM     11  C   UNL     1     -12.991 -17.980  31.013  1.00  0.00    -0.002 C 
ATOM     12  C   UNL     1     -13.580 -18.668  32.255  1.00  0.00     0.005 C 
ATOM     13  C   UNL     1     -12.482 -16.597  31.545  1.00  0.00    -0.026 C 
ATOM     14  C   UNL     1     -13.935 -17.567  33.251  1.00  0.00     0.005 C 
ATOM     15  C   UNL     1     -13.585 -16.235  32.568  1.00  0.00    -0.001 C 
ATOM     16  C   UNL     1     -11.075 -16.713  32.234  1.00  0.00     0.007 C 
ATOM     17  C   UNL     1     -12.474 -15.522  30.420  1.00  0.00     0.012 C 
ATOM     18  C   UNL     1     -13.267 -15.010  33.503  1.00  0.00     0.004 C 
ATOM     19  C   UNL     1     -10.954 -16.066  33.626  1.00  0.00     0.005 C 
ATOM     20  C   UNL     1     -11.727 -14.732  33.710  1.00  0.00     0.003 C 
ATOM     21  C   UNL     1     -14.121 -15.029  34.805  1.00  0.00     0.085 C 
ATOM     22  C   UNL     1     -11.383 -13.817  34.972  1.00  0.00    -0.000 C 
ATOM     23  C   UNL     1     -13.275 -15.172  36.021  1.00  0.00     0.159 C 
ATOM     24  C   UNL     1     -12.227 -14.175  36.187  1.00  0.00     0.005 C 
ATOM     25  C   UNL     1     -11.677 -12.325  34.627  1.00  0.00     0.020 C 
ATOM     26  C   UNL     1      -9.885 -13.950  35.365  1.00  0.00     0.017 C 
ATOM     27  O   UNL     1     -13.520 -16.038  36.904  1.00  0.00    -0.295 OA
ATOM     28  C   UNL     1     -12.312 -13.342  37.235  1.00  0.00     0.055 C 
ATOM     29  C   UNL     1     -11.417 -11.363  35.810  1.00  0.00     0.081 C 
ATOM     30  C   UNL     1     -11.807 -11.959  37.140  1.00  0.00     0.156 C 
ATOM     31  O   UNL     1     -11.746 -11.251  38.178  1.00  0.00    -0.295 OA
ENDBRANCH   9  11
ENDBRANCH   8   9
ENDBRANCH   1   8
TORSDOF 6
ENDMDL
