MODEL 1
REMARK VINA RESULT:    -3.786      0.000      0.000
REMARK INTER + INTRA:          -3.897
REMARK INTER:                  -3.897
REMARK INTRA:                   0.000
REMARK UNBOUND:                 0.000
REMARK SMILES CC1(C)[C@@H]2CC[C@@](C)(C2)[C@H]1O
REMARK SMILES IDX 1 1 2 2 4 3 5 4 6 5 7 6 9 7 10 8 8 9 3 10 11 11
REMARK H PARENT 11 12
REMARK Flexibility Score: inf
ROOT
ATOM      1  C   UNL     1       8.375   0.997  -2.444  1.00  0.00     0.014 C 
ATOM      2  C   UNL     1       7.674   2.197  -1.755  1.00  0.00    -0.006 C 
ATOM      3  C   UNL     1       6.219   1.791  -1.339  1.00  0.00    -0.002 C 
ATOM      4  C   UNL     1       5.389   3.022  -0.918  1.00  0.00     0.005 C 
ATOM      5  C   UNL     1       6.065   3.455   0.392  1.00  0.00     0.010 C 
ATOM      6  C   UNL     1       7.125   2.351   0.612  1.00  0.00    -0.006 C 
ATOM      7  C   UNL     1       6.437   1.142   0.017  1.00  0.00     0.013 C 
ATOM      8  C   UNL     1       8.304   2.582  -0.372  1.00  0.00     0.126 C 
ATOM      9  C   UNL     1       7.531   2.184   2.082  1.00  0.00     0.014 C 
ATOM     10  C   UNL     1       7.726   3.388  -2.741  1.00  0.00     0.014 C 
ENDROOT
BRANCH   8  11
ATOM     11  O   UNL     1       9.395   1.758  -0.036  1.00  0.00    -0.392 OA
ATOM     12  H   UNL     1       9.254   0.896  -0.506  1.00  0.00     0.211 HD
ENDBRANCH   8  11
TORSDOF 1
ENDMDL
MODEL 2
REMARK VINA RESULT:    -3.671      1.698      2.755
REMARK INTER + INTRA:          -3.778
REMARK INTER:                  -3.778
REMARK INTRA:                   0.000
REMARK UNBOUND:                 0.000
REMARK SMILES CC1(C)[C@@H]2CC[C@@](C)(C2)[C@H]1O
REMARK SMILES IDX 1 1 2 2 4 3 5 4 6 5 7 6 9 7 10 8 8 9 3 10 11 11
REMARK H PARENT 11 12
REMARK Flexibility Score: inf
ROOT
ATOM      1  C   UNL     1       6.369   4.006  -2.435  1.00  0.00     0.014 C 
ATOM      2  C   UNL     1       7.052   3.082  -1.392  1.00  0.00    -0.006 C 
ATOM      3  C   UNL     1       6.362   3.262   0.003  1.00  0.00    -0.002 C 
ATOM      4  C   UNL     1       7.181   2.592   1.126  1.00  0.00     0.005 C 
ATOM      5  C   UNL     1       7.036   1.096   0.807  1.00  0.00     0.010 C 
ATOM      6  C   UNL     1       6.061   1.096  -0.393  1.00  0.00    -0.006 C 
ATOM      7  C   UNL     1       5.193   2.296  -0.084  1.00  0.00     0.013 C 
ATOM      8  C   UNL     1       6.826   1.555  -1.664  1.00  0.00     0.126 C 
ATOM      9  C   UNL     1       5.286  -0.220  -0.544  1.00  0.00     0.014 C 
ATOM     10  C   UNL     1       8.560   3.430  -1.387  1.00  0.00     0.014 C 
ENDROOT
BRANCH   8  11
ATOM     11  O   UNL     1       6.050   1.328  -2.817  1.00  0.00    -0.392 OA
ATOM     12  H   UNL     1       5.103   1.447  -2.547  1.00  0.00     0.211 HD
ENDBRANCH   8  11
TORSDOF 1
ENDMDL
MODEL 3
REMARK VINA RESULT:    -3.492      1.734      3.331
REMARK INTER + INTRA:          -3.594
REMARK INTER:                  -3.594
REMARK INTRA:                   0.000
REMARK UNBOUND:                 0.000
REMARK SMILES CC1(C)[C@@H]2CC[C@@](C)(C2)[C@H]1O
REMARK SMILES IDX 1 1 2 2 4 3 5 4 6 5 7 6 9 7 10 8 8 9 3 10 11 11
REMARK H PARENT 11 12
REMARK Flexibility Score: inf
ROOT
ATOM      1  C   UNL     1       7.509   2.038   1.077  1.00  0.00     0.014 C 
ATOM      2  C   UNL     1       6.634   2.354  -0.165  1.00  0.00    -0.006 C 
ATOM      3  C   UNL     1       7.526   2.350  -1.453  1.00  0.00    -0.002 C 
ATOM      4  C   UNL     1       6.771   2.939  -2.663  1.00  0.00     0.005 C 
ATOM      5  C   UNL     1       5.687   1.883  -2.933  1.00  0.00     0.010 C 
ATOM      6  C   UNL     1       6.030   0.772  -1.913  1.00  0.00    -0.006 C 
ATOM      7  C   UNL     1       7.537   0.880  -1.837  1.00  0.00     0.013 C 
ATOM      8  C   UNL     1       5.589   1.234  -0.498  1.00  0.00     0.126 C 
ATOM      9  C   UNL     1       5.518  -0.613  -2.332  1.00  0.00     0.014 C 
ATOM     10  C   UNL     1       5.934   3.708   0.099  1.00  0.00     0.014 C 
ENDROOT
BRANCH   8  11
ATOM     11  O   UNL     1       5.650   0.161   0.412  1.00  0.00    -0.392 OA
ATOM     12  H   UNL     1       5.367  -0.649  -0.086  1.00  0.00     0.211 HD
ENDBRANCH   8  11
TORSDOF 1
ENDMDL
MODEL 4
REMARK VINA RESULT:    -3.475      1.756      3.112
REMARK INTER + INTRA:          -3.577
REMARK INTER:                  -3.577
REMARK INTRA:                   0.000
REMARK UNBOUND:                 0.000
REMARK SMILES CC1(C)[C@@H]2CC[C@@](C)(C2)[C@H]1O
REMARK SMILES IDX 1 1 2 2 4 3 5 4 6 5 7 6 9 7 10 8 8 9 3 10 11 11
REMARK H PARENT 11 12
REMARK Flexibility Score: inf
ROOT
ATOM      1  C   UNL     1       8.013   0.297  -2.085  1.00  0.00     0.014 C 
ATOM      2  C   UNL     1       6.992   1.026  -1.172  1.00  0.00    -0.006 C 
ATOM      3  C   UNL     1       7.707   2.191  -0.406  1.00  0.00    -0.002 C 
ATOM      4  C   UNL     1       6.816   2.755   0.720  1.00  0.00     0.005 C 
ATOM      5  C   UNL     1       5.678   3.436  -0.056  1.00  0.00     0.010 C 
ATOM      6  C   UNL     1       6.121   3.270  -1.528  1.00  0.00    -0.006 C 
ATOM      7  C   UNL     1       7.628   3.333  -1.404  1.00  0.00     0.013 C 
ATOM      8  C   UNL     1       5.882   1.800  -1.964  1.00  0.00     0.126 C 
ATOM      9  C   UNL     1       5.522   4.329  -2.464  1.00  0.00     0.014 C 
ATOM     10  C   UNL     1       6.370  -0.038  -0.236  1.00  0.00     0.014 C 
ENDROOT
BRANCH   8  11
ATOM     11  O   UNL     1       6.033   1.667  -3.358  1.00  0.00    -0.392 OA
ATOM     12  H   UNL     1       6.993   1.817  -3.554  1.00  0.00     0.211 HD
ENDBRANCH   8  11
TORSDOF 1
ENDMDL
MODEL 5
REMARK VINA RESULT:    -3.474      1.321      1.684
REMARK INTER + INTRA:          -3.575
REMARK INTER:                  -3.575
REMARK INTRA:                   0.000
REMARK UNBOUND:                 0.000
REMARK SMILES CC1(C)[C@@H]2CC[C@@](C)(C2)[C@H]1O
REMARK SMILES IDX 1 1 2 2 4 3 5 4 6 5 7 6 9 7 10 8 8 9 3 10 11 11
REMARK H PARENT 11 12
REMARK Flexibility Score: inf
ROOT
ATOM      1  C   UNL     1       5.954   1.386  -3.135  1.00  0.00     0.014 C 
ATOM      2  C   UNL     1       6.567   2.159  -1.937  1.00  0.00    -0.006 C 
ATOM      3  C   UNL     1       5.484   2.345  -0.821  1.00  0.00    -0.002 C 
ATOM      4  C   UNL     1       5.950   3.347   0.255  1.00  0.00     0.005 C 
ATOM      5  C   UNL     1       7.099   2.596   0.945  1.00  0.00     0.010 C 
ATOM      6  C   UNL     1       7.071   1.215   0.249  1.00  0.00    -0.006 C 
ATOM      7  C   UNL     1       5.595   1.047  -0.039  1.00  0.00     0.013 C 
ATOM      8  C   UNL     1       7.676   1.355  -1.174  1.00  0.00     0.126 C 
ATOM      9  C   UNL     1       7.678   0.094   1.103  1.00  0.00     0.014 C 
ATOM     10  C   UNL     1       7.124   3.493  -2.487  1.00  0.00     0.014 C 
ENDROOT
BRANCH   8  11
ATOM     11  O   UNL     1       7.901   0.087  -1.742  1.00  0.00    -0.392 OA
ATOM     12  H   UNL     1       7.149  -0.080  -2.367  1.00  0.00     0.211 HD
ENDBRANCH   8  11
TORSDOF 1
ENDMDL
MODEL 6
REMARK VINA RESULT:    -3.401      1.534      2.222
REMARK INTER + INTRA:          -3.501
REMARK INTER:                  -3.501
REMARK INTRA:                   0.000
REMARK UNBOUND:                 0.000
REMARK SMILES CC1(C)[C@@H]2CC[C@@](C)(C2)[C@H]1O
REMARK SMILES IDX 1 1 2 2 4 3 5 4 6 5 7 6 9 7 10 8 8 9 3 10 11 11
REMARK H PARENT 11 12
REMARK Flexibility Score: inf
ROOT
ATOM      1  C   UNL     1       5.199  -0.424  -1.452  1.00  0.00     0.014 C 
ATOM      2  C   UNL     1       6.370   0.591  -1.511  1.00  0.00    -0.006 C 
ATOM      3  C   UNL     1       5.802   2.052  -1.511  1.00  0.00    -0.002 C 
ATOM      4  C   UNL     1       6.897   3.082  -1.859  1.00  0.00     0.005 C 
ATOM      5  C   UNL     1       7.823   3.021  -0.635  1.00  0.00     0.010 C 
ATOM      6  C   UNL     1       7.080   2.045   0.307  1.00  0.00    -0.006 C 
ATOM      7  C   UNL     1       5.634   2.335  -0.028  1.00  0.00     0.013 C 
ATOM      8  C   UNL     1       7.263   0.597  -0.222  1.00  0.00     0.126 C 
ATOM      9  C   UNL     1       7.436   2.243   1.787  1.00  0.00     0.014 C 
ATOM     10  C   UNL     1       7.208   0.254  -2.768  1.00  0.00     0.014 C 
ENDROOT
BRANCH   8  11
ATOM     11  O   UNL     1       6.822  -0.338   0.734  1.00  0.00    -0.392 OA
ATOM     12  H   UNL     1       6.743   0.152   1.593  1.00  0.00     0.211 HD
ENDBRANCH   8  11
TORSDOF 1
ENDMDL
MODEL 7
REMARK VINA RESULT:    -3.394     10.824     12.015
REMARK INTER + INTRA:          -3.493
REMARK INTER:                  -3.493
REMARK INTRA:                   0.000
REMARK UNBOUND:                 0.000
REMARK SMILES CC1(C)[C@@H]2CC[C@@](C)(C2)[C@H]1O
REMARK SMILES IDX 1 1 2 2 4 3 5 4 6 5 7 6 9 7 10 8 8 9 3 10 11 11
REMARK H PARENT 11 12
REMARK Flexibility Score: inf
ROOT
ATOM      1  C   UNL     1      -1.342  -2.132  -6.635  1.00  0.00     0.014 C 
ATOM      2  C   UNL     1      -1.679  -3.447  -5.884  1.00  0.00    -0.006 C 
ATOM      3  C   UNL     1      -1.598  -4.656  -6.877  1.00  0.00    -0.002 C 
ATOM      4  C   UNL     1      -2.201  -5.934  -6.258  1.00  0.00     0.005 C 
ATOM      5  C   UNL     1      -1.202  -6.275  -5.142  1.00  0.00     0.010 C 
ATOM      6  C   UNL     1      -0.096  -5.212  -5.336  1.00  0.00    -0.006 C 
ATOM      7  C   UNL     1      -0.122  -5.013  -6.835  1.00  0.00     0.013 C 
ATOM      8  C   UNL     1      -0.612  -3.846  -4.808  1.00  0.00     0.126 C 
ATOM      9  C   UNL     1       1.267  -5.648  -4.781  1.00  0.00     0.014 C 
ATOM     10  C   UNL     1      -3.076  -3.265  -5.244  1.00  0.00     0.014 C 
ENDROOT
BRANCH   8  11
ATOM     11  O   UNL     1       0.442  -2.916  -4.732  1.00  0.00    -0.392 OA
ATOM     12  H   UNL     1       0.738  -2.901  -3.785  1.00  0.00     0.211 HD
ENDBRANCH   8  11
TORSDOF 1
ENDMDL
MODEL 8
REMARK VINA RESULT:    -3.269      9.359     10.922
REMARK INTER + INTRA:          -3.365
REMARK INTER:                  -3.365
REMARK INTRA:                   0.000
REMARK UNBOUND:                 0.000
REMARK SMILES CC1(C)[C@@H]2CC[C@@](C)(C2)[C@H]1O
REMARK SMILES IDX 1 1 2 2 4 3 5 4 6 5 7 6 9 7 10 8 8 9 3 10 11 11
REMARK H PARENT 11 12
REMARK Flexibility Score: inf
ROOT
ATOM      1  C   UNL     1      -4.623   2.841  -4.232  1.00  0.00     0.014 C 
ATOM      2  C   UNL     1      -3.580   3.988  -4.181  1.00  0.00    -0.006 C 
ATOM      3  C   UNL     1      -4.101   5.134  -3.249  1.00  0.00    -0.002 C 
ATOM      4  C   UNL     1      -3.245   6.410  -3.392  1.00  0.00     0.005 C 
ATOM      5  C   UNL     1      -1.901   5.987  -2.780  1.00  0.00     0.010 C 
ATOM      6  C   UNL     1      -2.193   4.560  -2.265  1.00  0.00    -0.006 C 
ATOM      7  C   UNL     1      -3.651   4.667  -1.875  1.00  0.00     0.013 C 
ATOM      8  C   UNL     1      -2.240   3.587  -3.473  1.00  0.00     0.126 C 
ATOM      9  C   UNL     1      -1.266   4.127  -1.121  1.00  0.00     0.014 C 
ATOM     10  C   UNL     1      -3.326   4.443  -5.638  1.00  0.00     0.014 C 
ENDROOT
BRANCH   8  11
ATOM     11  O   UNL     1      -2.251   2.250  -3.031  1.00  0.00    -0.392 OA
ATOM     12  H   UNL     1      -2.178   1.683  -3.842  1.00  0.00     0.211 HD
ENDBRANCH   8  11
TORSDOF 1
ENDMDL
MODEL 9
REMARK VINA RESULT:    -3.248     10.872     11.996
REMARK INTER + INTRA:          -3.343
REMARK INTER:                  -3.343
REMARK INTRA:                   0.000
REMARK UNBOUND:                 0.000
REMARK SMILES CC1(C)[C@@H]2CC[C@@](C)(C2)[C@H]1O
REMARK SMILES IDX 1 1 2 2 4 3 5 4 6 5 7 6 9 7 10 8 8 9 3 10 11 11
REMARK H PARENT 11 12
REMARK Flexibility Score: inf
ROOT
ATOM      1  C   UNL     1       1.156  -5.244  -4.501  1.00  0.00     0.014 C 
ATOM      2  C   UNL     1       0.356  -4.770  -5.743  1.00  0.00    -0.006 C 
ATOM      3  C   UNL     1      -0.734  -5.836  -6.106  1.00  0.00    -0.002 C 
ATOM      4  C   UNL     1      -1.356  -5.556  -7.490  1.00  0.00     0.005 C 
ATOM      5  C   UNL     1      -2.141  -4.257  -7.253  1.00  0.00     0.010 C 
ATOM      6  C   UNL     1      -1.959  -4.019  -5.736  1.00  0.00    -0.006 C 
ATOM      7  C   UNL     1      -1.892  -5.436  -5.209  1.00  0.00     0.013 C 
ATOM      8  C   UNL     1      -0.520  -3.497  -5.477  1.00  0.00     0.126 C 
ATOM      9  C   UNL     1      -3.077  -3.169  -5.117  1.00  0.00     0.014 C 
ATOM     10  C   UNL     1       1.377  -4.517  -6.879  1.00  0.00     0.014 C 
ENDROOT
BRANCH   8  11
ATOM     11  O   UNL     1      -0.394  -3.031  -4.154  1.00  0.00    -0.392 OA
ATOM     12  H   UNL     1      -1.192  -2.470  -3.975  1.00  0.00     0.211 HD
ENDBRANCH   8  11
TORSDOF 1
ENDMDL
