MODEL 1
REMARK VINA RESULT:    -5.260      0.000      0.000
REMARK INTER + INTRA:          -6.138
REMARK INTER:                  -5.874
REMARK INTRA:                  -0.263
REMARK UNBOUND:                -0.263
REMARK SMILES O=C([O-])C=Cc1ccccc1
REMARK SMILES IDX 4 1 5 2 2 3 1 4 3 5 6 6 7 7 11 8 8 9 10 10 9 11
REMARK H PARENT
REMARK Flexibility Score: inf
ROOT
ATOM      1  C   UNL     1       5.495  -2.793 -25.332  1.00  0.00     0.025 C 
ATOM      2  C   UNL     1       5.653  -2.633 -24.009  1.00  0.00     0.010 C 
ENDROOT
BRANCH   1   3
ATOM      3  C   UNL     1       4.842  -1.830 -26.239  1.00  0.00     0.064 C 
ATOM      4  O   UNL     1       5.546  -0.988 -26.853  1.00  0.00    -0.545 OA
ATOM      5  O   UNL     1       3.459  -1.784 -26.373  1.00  0.00    -0.545 OA
ENDBRANCH   1   3
BRANCH   2   6
ATOM      6  C   UNL     1       5.038  -1.562 -23.197  1.00  0.00    -0.026 A 
ATOM      7  C   UNL     1       3.699  -1.688 -22.797  1.00  0.00     0.008 A 
ATOM      8  C   UNL     1       5.735  -0.375 -22.907  1.00  0.00     0.008 A 
ATOM      9  C   UNL     1       3.082  -0.663 -22.071  1.00  0.00     0.001 A 
ATOM     10  C   UNL     1       5.114   0.645 -22.181  1.00  0.00     0.001 A 
ATOM     11  C   UNL     1       3.790   0.500 -21.760  1.00  0.00     0.000 A 
ENDBRANCH   2   6
TORSDOF 2
ENDMDL
MODEL 2
REMARK VINA RESULT:    -5.194      2.089      3.539
REMARK INTER + INTRA:          -6.064
REMARK INTER:                  -5.792
REMARK INTRA:                  -0.272
REMARK UNBOUND:                -0.263
REMARK SMILES O=C([O-])C=Cc1ccccc1
REMARK SMILES IDX 4 1 5 2 2 3 1 4 3 5 6 6 7 7 11 8 8 9 10 10 9 11
REMARK H PARENT
REMARK Flexibility Score: inf
ROOT
ATOM      1  C   UNL     1       5.613   1.977 -22.888  1.00  0.00     0.025 C 
ATOM      2  C   UNL     1       5.459   0.890 -22.116  1.00  0.00     0.010 C 
ENDROOT
BRANCH   1   3
ATOM      3  C   UNL     1       4.942   2.211 -24.181  1.00  0.00     0.064 C 
ATOM      4  O   UNL     1       3.880   2.885 -24.212  1.00  0.00    -0.545 OA
ATOM      5  O   UNL     1       5.416   1.640 -25.357  1.00  0.00    -0.545 OA
ENDBRANCH   1   3
BRANCH   2   6
ATOM      6  C   UNL     1       4.747  -0.343 -22.509  1.00  0.00    -0.026 A 
ATOM      7  C   UNL     1       3.433  -0.550 -22.060  1.00  0.00     0.008 A 
ATOM      8  C   UNL     1       5.393  -1.360 -23.236  1.00  0.00     0.008 A 
ATOM      9  C   UNL     1       2.758  -1.733 -22.378  1.00  0.00     0.001 A 
ATOM     10  C   UNL     1       4.714  -2.540 -23.551  1.00  0.00     0.001 A 
ATOM     11  C   UNL     1       3.396  -2.725 -23.126  1.00  0.00     0.000 A 
ENDBRANCH   2   6
TORSDOF 2
ENDMDL
MODEL 3
REMARK VINA RESULT:    -4.873      3.825      5.130
REMARK INTER + INTRA:          -5.706
REMARK INTER:                  -5.422
REMARK INTRA:                  -0.284
REMARK UNBOUND:                -0.263
REMARK SMILES O=C([O-])C=Cc1ccccc1
REMARK SMILES IDX 4 1 5 2 2 3 1 4 3 5 6 6 7 7 11 8 8 9 10 10 9 11
REMARK H PARENT
REMARK Flexibility Score: inf
ROOT
ATOM      1  C   UNL     1       5.105   1.242 -23.493  1.00  0.00     0.025 C 
ATOM      2  C   UNL     1       5.432   2.121 -22.533  1.00  0.00     0.010 C 
ENDROOT
BRANCH   1   3
ATOM      3  C   UNL     1       4.632   1.589 -24.847  1.00  0.00     0.064 C 
ATOM      4  O   UNL     1       5.474   1.817 -25.754  1.00  0.00    -0.545 OA
ATOM      5  O   UNL     1       3.278   1.741 -25.125  1.00  0.00    -0.545 OA
ENDBRANCH   1   3
BRANCH   2   6
ATOM      6  C   UNL     1       5.197   3.579 -22.593  1.00  0.00    -0.026 A 
ATOM      7  C   UNL     1       6.241   4.426 -22.996  1.00  0.00     0.008 A 
ATOM      8  C   UNL     1       3.984   4.141 -22.156  1.00  0.00     0.008 A 
ATOM      9  C   UNL     1       6.057   5.813 -23.012  1.00  0.00     0.001 A 
ATOM     10  C   UNL     1       3.804   5.527 -22.174  1.00  0.00     0.001 A 
ATOM     11  C   UNL     1       4.838   6.362 -22.605  1.00  0.00     0.000 A 
ENDBRANCH   2   6
TORSDOF 2
ENDMDL
MODEL 4
REMARK VINA RESULT:    -4.871      2.515      3.673
REMARK INTER + INTRA:          -5.703
REMARK INTER:                  -5.728
REMARK INTRA:                   0.025
REMARK UNBOUND:                -0.263
REMARK SMILES O=C([O-])C=Cc1ccccc1
REMARK SMILES IDX 4 1 5 2 2 3 1 4 3 5 6 6 7 7 11 8 8 9 10 10 9 11
REMARK H PARENT
REMARK Flexibility Score: inf
ROOT
ATOM      1  C   UNL     1       1.458  -4.162 -23.397  1.00  0.00     0.025 C 
ATOM      2  C   UNL     1       2.725  -3.979 -22.992  1.00  0.00     0.010 C 
ENDROOT
BRANCH   1   3
ATOM      3  C   UNL     1       0.585  -3.121 -23.972  1.00  0.00     0.064 C 
ATOM      4  O   UNL     1      -0.563  -2.944 -23.488  1.00  0.00    -0.545 OA
ATOM      5  O   UNL     1       0.972  -2.382 -25.083  1.00  0.00    -0.545 OA
ENDBRANCH   1   3
BRANCH   2   6
ATOM      6  C   UNL     1       3.404  -2.672 -22.871  1.00  0.00    -0.026 A 
ATOM      7  C   UNL     1       4.660  -2.494 -23.471  1.00  0.00     0.008 A 
ATOM      8  C   UNL     1       2.865  -1.640 -22.082  1.00  0.00     0.008 A 
ATOM      9  C   UNL     1       5.343  -1.282 -23.328  1.00  0.00     0.001 A 
ATOM     10  C   UNL     1       3.552  -0.431 -21.942  1.00  0.00     0.001 A 
ATOM     11  C   UNL     1       4.788  -0.250 -22.567  1.00  0.00     0.000 A 
ENDBRANCH   2   6
TORSDOF 2
ENDMDL
MODEL 5
REMARK VINA RESULT:    -4.837      2.468      3.623
REMARK INTER + INTRA:          -5.666
REMARK INTER:                  -5.511
REMARK INTRA:                  -0.155
REMARK UNBOUND:                -0.263
REMARK SMILES O=C([O-])C=Cc1ccccc1
REMARK SMILES IDX 4 1 5 2 2 3 1 4 3 5 6 6 7 7 11 8 8 9 10 10 9 11
REMARK H PARENT
REMARK Flexibility Score: inf
ROOT
ATOM      1  C   UNL     1       5.139  -1.872 -23.643  1.00  0.00     0.025 C 
ATOM      2  C   UNL     1       4.033  -1.823 -22.886  1.00  0.00     0.010 C 
ENDROOT
BRANCH   1   3
ATOM      3  C   UNL     1       5.254  -2.549 -24.949  1.00  0.00     0.064 C 
ATOM      4  O   UNL     1       6.116  -3.452 -25.101  1.00  0.00    -0.545 OA
ATOM      5  O   UNL     1       4.480  -2.161 -26.037  1.00  0.00    -0.545 OA
ENDBRANCH   1   3
BRANCH   2   6
ATOM      6  C   UNL     1       2.796  -2.593 -23.128  1.00  0.00    -0.026 A 
ATOM      7  C   UNL     1       1.611  -1.909 -23.442  1.00  0.00     0.008 A 
ATOM      8  C   UNL     1       2.757  -3.988 -22.950  1.00  0.00     0.008 A 
ATOM      9  C   UNL     1       0.417  -2.615 -23.627  1.00  0.00     0.001 A 
ATOM     10  C   UNL     1       1.562  -4.689 -23.136  1.00  0.00     0.001 A 
ATOM     11  C   UNL     1       0.394  -4.003 -23.478  1.00  0.00     0.000 A 
ENDBRANCH   2   6
TORSDOF 2
ENDMDL
MODEL 6
REMARK VINA RESULT:    -4.832      3.659      4.870
REMARK INTER + INTRA:          -5.660
REMARK INTER:                  -5.391
REMARK INTRA:                  -0.268
REMARK UNBOUND:                -0.263
REMARK SMILES O=C([O-])C=Cc1ccccc1
REMARK SMILES IDX 4 1 5 2 2 3 1 4 3 5 6 6 7 7 11 8 8 9 10 10 9 11
REMARK H PARENT
REMARK Flexibility Score: inf
ROOT
ATOM      1  C   UNL     1       5.102   1.091 -23.480  1.00  0.00     0.025 C 
ATOM      2  C   UNL     1       5.483   1.932 -22.506  1.00  0.00     0.010 C 
ENDROOT
BRANCH   1   3
ATOM      3  C   UNL     1       4.556   1.491 -24.791  1.00  0.00     0.064 C 
ATOM      4  O   UNL     1       3.328   1.343 -25.018  1.00  0.00    -0.545 OA
ATOM      5  O   UNL     1       5.381   1.959 -25.808  1.00  0.00    -0.545 OA
ENDBRANCH   1   3
BRANCH   2   6
ATOM      6  C   UNL     1       5.249   3.391 -22.496  1.00  0.00    -0.026 A 
ATOM      7  C   UNL     1       4.009   3.884 -22.063  1.00  0.00     0.008 A 
ATOM      8  C   UNL     1       6.205   4.287 -23.008  1.00  0.00     0.008 A 
ATOM      9  C   UNL     1       3.748   5.258 -22.092  1.00  0.00     0.001 A 
ATOM     10  C   UNL     1       5.940   5.659 -23.034  1.00  0.00     0.001 A 
ATOM     11  C   UNL     1       4.714   6.145 -22.573  1.00  0.00     0.000 A 
ENDBRANCH   2   6
TORSDOF 2
ENDMDL
MODEL 7
REMARK VINA RESULT:    -4.797      1.721      2.601
REMARK INTER + INTRA:          -5.621
REMARK INTER:                  -5.468
REMARK INTRA:                  -0.153
REMARK UNBOUND:                -0.263
REMARK SMILES O=C([O-])C=Cc1ccccc1
REMARK SMILES IDX 4 1 5 2 2 3 1 4 3 5 6 6 7 7 11 8 8 9 10 10 9 11
REMARK H PARENT
REMARK Flexibility Score: inf
ROOT
ATOM      1  C   UNL     1       2.145  -3.276 -24.137  1.00  0.00     0.025 C 
ATOM      2  C   UNL     1       3.177  -3.166 -23.287  1.00  0.00     0.010 C 
ENDROOT
BRANCH   1   3
ATOM      3  C   UNL     1       1.589  -2.180 -24.955  1.00  0.00     0.064 C 
ATOM      4  O   UNL     1       0.489  -1.665 -24.628  1.00  0.00    -0.545 OA
ATOM      5  O   UNL     1       2.217  -1.755 -26.120  1.00  0.00    -0.545 OA
ENDBRANCH   1   3
BRANCH   2   6
ATOM      6  C   UNL     1       3.816  -1.899 -22.876  1.00  0.00    -0.026 A 
ATOM      7  C   UNL     1       3.074  -0.965 -22.137  1.00  0.00     0.008 A 
ATOM      8  C   UNL     1       5.116  -1.566 -23.298  1.00  0.00     0.008 A 
ATOM      9  C   UNL     1       3.642   0.263 -21.780  1.00  0.00     0.001 A 
ATOM     10  C   UNL     1       5.679  -0.338 -22.938  1.00  0.00     0.001 A 
ATOM     11  C   UNL     1       4.945   0.574 -22.177  1.00  0.00     0.000 A 
ENDBRANCH   2   6
TORSDOF 2
ENDMDL
MODEL 8
REMARK VINA RESULT:    -4.774      2.352      3.066
REMARK INTER + INTRA:          -5.596
REMARK INTER:                  -5.346
REMARK INTRA:                  -0.249
REMARK UNBOUND:                -0.263
REMARK SMILES O=C([O-])C=Cc1ccccc1
REMARK SMILES IDX 4 1 5 2 2 3 1 4 3 5 6 6 7 7 11 8 8 9 10 10 9 11
REMARK H PARENT
REMARK Flexibility Score: inf
ROOT
ATOM      1  C   UNL     1       4.061  -2.956 -23.262  1.00  0.00     0.025 C 
ATOM      2  C   UNL     1       4.983  -2.061 -23.647  1.00  0.00     0.010 C 
ENDROOT
BRANCH   1   3
ATOM      3  C   UNL     1       2.700  -2.635 -22.791  1.00  0.00     0.064 C 
ATOM      4  O   UNL     1       1.765  -2.541 -23.628  1.00  0.00    -0.545 OA
ATOM      5  O   UNL     1       2.442  -2.359 -21.453  1.00  0.00    -0.545 OA
ENDBRANCH   1   3
BRANCH   2   6
ATOM      6  C   UNL     1       4.872  -0.596 -23.490  1.00  0.00    -0.026 A 
ATOM      7  C   UNL     1       4.227   0.154 -24.485  1.00  0.00     0.008 A 
ATOM      8  C   UNL     1       5.488   0.072 -22.416  1.00  0.00     0.008 A 
ATOM      9  C   UNL     1       4.153   1.547 -24.381  1.00  0.00     0.001 A 
ATOM     10  C   UNL     1       5.412   1.463 -22.317  1.00  0.00     0.001 A 
ATOM     11  C   UNL     1       4.742   2.200 -23.296  1.00  0.00     0.000 A 
ENDBRANCH   2   6
TORSDOF 2
ENDMDL
MODEL 9
REMARK VINA RESULT:    -4.766      2.967      4.434
REMARK INTER + INTRA:          -5.586
REMARK INTER:                  -5.369
REMARK INTRA:                  -0.217
REMARK UNBOUND:                -0.263
REMARK SMILES O=C([O-])C=Cc1ccccc1
REMARK SMILES IDX 4 1 5 2 2 3 1 4 3 5 6 6 7 7 11 8 8 9 10 10 9 11
REMARK H PARENT
REMARK Flexibility Score: inf
ROOT
ATOM      1  C   UNL     1       2.095  -2.881 -22.067  1.00  0.00     0.025 C 
ATOM      2  C   UNL     1       3.157  -2.134 -22.406  1.00  0.00     0.010 C 
ENDROOT
BRANCH   1   3
ATOM      3  C   UNL     1       1.537  -3.989 -22.866  1.00  0.00     0.064 C 
ATOM      4  O   UNL     1       0.337  -3.935 -23.240  1.00  0.00    -0.545 OA
ATOM      5  O   UNL     1       2.286  -5.125 -23.153  1.00  0.00    -0.545 OA
ENDBRANCH   1   3
BRANCH   2   6
ATOM      6  C   UNL     1       3.836  -2.158 -23.718  1.00  0.00    -0.026 A 
ATOM      7  C   UNL     1       5.061  -2.830 -23.844  1.00  0.00     0.008 A 
ATOM      8  C   UNL     1       3.331  -1.436 -24.815  1.00  0.00     0.008 A 
ATOM      9  C   UNL     1       5.746  -2.824 -25.064  1.00  0.00     0.001 A 
ATOM     10  C   UNL     1       4.019  -1.433 -26.032  1.00  0.00     0.001 A 
ATOM     11  C   UNL     1       5.223  -2.130 -26.158  1.00  0.00     0.000 A 
ENDBRANCH   2   6
TORSDOF 2
ENDMDL
