MODEL 1
REMARK VINA RESULT:    -3.132      0.000      0.000
REMARK INTER + INTRA:          -5.193
REMARK INTER:                  -4.780
REMARK INTRA:                  -0.413
REMARK UNBOUND:                -0.413
REMARK SMILES CC1=CCC[C@H](C)C(=O)C[C@H](C(C)C)C(=O)C1
REMARK SMILES IDX 8 1 9 2 6 3 7 4 5 5 4 6 3 7 2 8 1 9 10 11 11 12 15 13 16 14
REMARK SMILES IDX 17 15 12 17 13 18 14 19
REMARK H PARENT
REMARK Flexibility Score: 70.00
ROOT
ATOM      1  C   UNL     1     152.509 161.017 201.431  1.00  0.00     0.136 C 
ATOM      2  O   UNL     1     152.284 162.077 201.999  1.00  0.00    -0.299 OA
ENDROOT
BRANCH   1   3
ATOM      3  C   UNL     1     151.440 159.936 201.392  1.00  0.00     0.053 C 
ATOM      4  C   UNL     1     151.038 159.517 202.814  1.00  0.00     0.016 C 
BRANCH   3   5
ATOM      5  C   UNL     1     150.205 160.413 200.589  1.00  0.00     0.015 C 
BRANCH   5   6
ATOM      6  C   UNL     1     150.437 160.362 199.066  1.00  0.00     0.028 C 
BRANCH   6   7
ATOM      7  C   UNL     1     150.783 158.967 198.607  1.00  0.00    -0.028 C 
ATOM      8  C   UNL     1     151.962 158.612 198.042  1.00  0.00    -0.070 CG0
ATOM      9  C   UNL     1     152.128 157.183 197.592  1.00  0.00     0.039 C 
ATOM     10  G   UNL     1     153.114 159.589 197.846  1.00  0.00     0.000 G0
ENDBRANCH   6   7
ENDBRANCH   5   6
ENDBRANCH   3   5
ENDBRANCH   1   3
BRANCH   1  11
ATOM     11  C   UNL     1     153.846 160.811 200.757  1.00  0.00     0.087 C 
BRANCH  11  12
ATOM     12  C   UNL     1     154.101 159.352 200.279  1.00  0.00     0.066 C 
BRANCH  12  13
ATOM     13  C   UNL     1     154.294 159.314 198.768  1.00  0.00     0.140 C 
ATOM     14  O   UNL     1     155.382 159.000 198.303  1.00  0.00    -0.299 OA
BRANCH  13  15
ATOM     15  C   UNL     1     153.141 159.592 197.837  1.00  0.00     0.106 CG0
ATOM     16  G   UNL     1     151.987 158.621 198.045  1.00  0.00     0.000 G0
ENDBRANCH  13  15
ENDBRANCH  12  13
BRANCH  12  17
ATOM     17  C   UNL     1     155.266 158.617 201.024  1.00  0.00    -0.006 C 
ATOM     18  C   UNL     1     154.715 157.725 202.153  1.00  0.00     0.008 C 
ATOM     19  C   UNL     1     156.298 159.590 201.622  1.00  0.00     0.008 C 
ENDBRANCH  12  17
ENDBRANCH  11  12
ENDBRANCH   1  11
TORSDOF 1
ENDMDL
MODEL 2
REMARK VINA RESULT:    -2.978      2.350      3.062
REMARK INTER + INTRA:          -4.958
REMARK INTER:                  -4.837
REMARK INTRA:                  -0.121
REMARK UNBOUND:                -0.413
REMARK SMILES CC1=CCC[C@H](C)C(=O)C[C@H](C(C)C)C(=O)C1
REMARK SMILES IDX 8 1 9 2 6 3 7 4 5 5 4 6 3 7 2 8 1 9 10 11 11 12 15 13 16 14
REMARK SMILES IDX 17 15 12 17 13 18 14 19
REMARK H PARENT
REMARK Flexibility Score: 70.00
ROOT
ATOM      1  C   UNL     1     152.542 160.763 200.482  1.00  0.00     0.136 C 
ATOM      2  O   UNL     1     151.512 160.912 199.840  1.00  0.00    -0.299 OA
ENDROOT
BRANCH   1   3
ATOM      3  C   UNL     1     152.507 160.843 202.001  1.00  0.00     0.053 C 
ATOM      4  C   UNL     1     152.131 162.259 202.463  1.00  0.00     0.016 C 
BRANCH   3   5
ATOM      5  C   UNL     1     151.528 159.795 202.583  1.00  0.00     0.015 C 
BRANCH   5   6
ATOM      6  C   UNL     1     152.253 158.544 203.119  1.00  0.00     0.028 C 
BRANCH   6   7
ATOM      7  C   UNL     1     151.803 157.296 202.402  1.00  0.00    -0.028 C 
ATOM      8  C   UNL     1     152.564 156.590 201.532  1.00  0.00    -0.070 CG0
ATOM      9  C   UNL     1     151.943 155.393 200.859  1.00  0.00     0.039 C 
ATOM     10  G   UNL     1     154.008 156.954 201.210  1.00  0.00     0.000 G0
ENDBRANCH   6   7
ENDBRANCH   5   6
ENDBRANCH   3   5
ENDBRANCH   1   3
BRANCH   1  11
ATOM     11  C   UNL     1     153.834 160.480 199.750  1.00  0.00     0.087 C 
BRANCH  11  12
ATOM     12  C   UNL     1     154.700 159.361 200.394  1.00  0.00     0.066 C 
BRANCH  12  13
ATOM     13  C   UNL     1     154.092 157.991 200.117  1.00  0.00     0.140 C 
ATOM     14  O   UNL     1     153.724 157.709 198.984  1.00  0.00    -0.299 OA
BRANCH  13  15
ATOM     15  C   UNL     1     153.999 156.955 201.207  1.00  0.00     0.106 CG0
ATOM     16  G   UNL     1     152.557 156.601 201.544  1.00  0.00     0.000 G0
ENDBRANCH  13  15
ENDBRANCH  12  13
BRANCH  12  17
ATOM     17  C   UNL     1     156.216 159.403 200.002  1.00  0.00    -0.006 C 
ATOM     18  C   UNL     1     157.100 158.988 201.195  1.00  0.00     0.008 C 
ATOM     19  C   UNL     1     156.666 160.792 199.514  1.00  0.00     0.008 C 
ENDBRANCH  12  17
ENDBRANCH  11  12
ENDBRANCH   1  11
TORSDOF 1
ENDMDL
MODEL 3
REMARK VINA RESULT:    -2.933      2.416      3.836
REMARK INTER + INTRA:          -4.889
REMARK INTER:                  -4.555
REMARK INTRA:                  -0.334
REMARK UNBOUND:                -0.413
REMARK SMILES CC1=CCC[C@H](C)C(=O)C[C@H](C(C)C)C(=O)C1
REMARK SMILES IDX 8 1 9 2 6 3 7 4 5 5 4 6 3 7 2 8 1 9 10 11 11 12 15 13 16 14
REMARK SMILES IDX 17 15 12 17 13 18 14 19
REMARK H PARENT
REMARK Flexibility Score: 70.00
ROOT
ATOM      1  C   UNL     1     153.714 160.449 200.128  1.00  0.00     0.136 C 
ATOM      2  O   UNL     1     154.727 161.129 200.041  1.00  0.00    -0.299 OA
ENDROOT
BRANCH   1   3
ATOM      3  C   UNL     1     152.398 161.097 200.530  1.00  0.00     0.053 C 
ATOM      4  C   UNL     1     151.226 160.468 199.763  1.00  0.00     0.016 C 
BRANCH   3   5
ATOM      5  C   UNL     1     152.177 160.989 202.059  1.00  0.00     0.015 C 
BRANCH   5   6
ATOM      6  C   UNL     1     151.198 159.858 202.434  1.00  0.00     0.028 C 
BRANCH   6   7
ATOM      7  C   UNL     1     151.787 158.941 203.476  1.00  0.00    -0.028 C 
ATOM      8  C   UNL     1     152.319 157.722 203.217  1.00  0.00    -0.070 CG0
ATOM      9  C   UNL     1     152.820 156.908 204.383  1.00  0.00     0.039 C 
ATOM     10  G   UNL     1     152.429 157.148 201.811  1.00  0.00     0.000 G0
ENDBRANCH   6   7
ENDBRANCH   5   6
ENDBRANCH   3   5
ENDBRANCH   1   3
BRANCH   1  11
ATOM     11  C   UNL     1     153.787 158.973 199.812  1.00  0.00     0.087 C 
BRANCH  11  12
ATOM     12  C   UNL     1     154.636 158.146 200.820  1.00  0.00     0.066 C 
BRANCH  12  13
ATOM     13  C   UNL     1     153.838 156.954 201.334  1.00  0.00     0.140 C 
ATOM     14  O   UNL     1     154.375 155.858 201.422  1.00  0.00    -0.299 OA
BRANCH  13  15
ATOM     15  C   UNL     1     152.414 157.123 201.799  1.00  0.00     0.106 CG0
ATOM     16  G   UNL     1     152.333 157.728 203.194  1.00  0.00     0.000 G0
ENDBRANCH  13  15
ENDBRANCH  12  13
BRANCH  12  17
ATOM     17  C   UNL     1     156.040 157.707 200.283  1.00  0.00    -0.006 C 
ATOM     18  C   UNL     1     157.126 158.715 200.707  1.00  0.00     0.008 C 
ATOM     19  C   UNL     1     156.072 157.561 198.751  1.00  0.00     0.008 C 
ENDBRANCH  12  17
ENDBRANCH  11  12
ENDBRANCH   1  11
TORSDOF 1
ENDMDL
MODEL 4
REMARK VINA RESULT:    -2.931      1.899      3.436
REMARK INTER + INTRA:          -4.886
REMARK INTER:                  -4.482
REMARK INTRA:                  -0.405
REMARK UNBOUND:                -0.413
REMARK SMILES CC1=CCC[C@H](C)C(=O)C[C@H](C(C)C)C(=O)C1
REMARK SMILES IDX 8 1 9 2 6 3 7 4 5 5 4 6 3 7 2 8 1 9 10 11 11 12 15 13 16 14
REMARK SMILES IDX 17 15 12 17 13 18 14 19
REMARK H PARENT
REMARK Flexibility Score: 70.00
ROOT
ATOM      1  C   UNL     1     151.618 160.588 198.100  1.00  0.00     0.136 C 
ATOM      2  O   UNL     1     151.691 161.146 197.014  1.00  0.00    -0.299 OA
ENDROOT
BRANCH   1   3
ATOM      3  C   UNL     1     150.781 159.326 198.248  1.00  0.00     0.053 C 
ATOM      4  C   UNL     1     149.288 159.640 198.072  1.00  0.00     0.016 C 
BRANCH   3   5
ATOM      5  C   UNL     1     151.239 158.243 197.241  1.00  0.00     0.015 C 
BRANCH   5   6
ATOM      6  C   UNL     1     152.391 157.377 197.790  1.00  0.00     0.028 C 
BRANCH   6   7
ATOM      7  C   UNL     1     153.722 157.811 197.230  1.00  0.00    -0.028 C 
ATOM      8  C   UNL     1     154.755 158.277 197.972  1.00  0.00    -0.070 CG0
ATOM      9  C   UNL     1     156.002 158.719 197.249  1.00  0.00     0.039 C 
ATOM     10  G   UNL     1     154.707 158.372 199.491  1.00  0.00     0.000 G0
ENDBRANCH   6   7
ENDBRANCH   5   6
ENDBRANCH   3   5
ENDBRANCH   1   3
BRANCH   1  11
ATOM     11  C   UNL     1     152.382 161.155 199.274  1.00  0.00     0.087 C 
BRANCH  11  12
ATOM     12  C   UNL     1     152.887 160.084 200.283  1.00  0.00     0.066 C 
BRANCH  12  13
ATOM     13  C   UNL     1     154.342 159.730 199.998  1.00  0.00     0.140 C 
ATOM     14  O   UNL     1     155.221 160.551 200.219  1.00  0.00    -0.299 OA
BRANCH  13  15
ATOM     15  C   UNL     1     154.718 158.354 199.510  1.00  0.00     0.106 CG0
ATOM     16  G   UNL     1     154.773 158.278 197.990  1.00  0.00     0.000 G0
ENDBRANCH  13  15
ENDBRANCH  12  13
BRANCH  12  17
ATOM     17  C   UNL     1     152.673 160.455 201.789  1.00  0.00    -0.006 C 
ATOM     18  C   UNL     1     151.669 159.492 202.451  1.00  0.00     0.008 C 
ATOM     19  C   UNL     1     152.173 161.898 201.981  1.00  0.00     0.008 C 
ENDBRANCH  12  17
ENDBRANCH  11  12
ENDBRANCH   1  11
TORSDOF 1
ENDMDL
MODEL 5
REMARK VINA RESULT:    -2.789      1.933      3.850
REMARK INTER + INTRA:          -4.668
REMARK INTER:                  -4.509
REMARK INTRA:                  -0.159
REMARK UNBOUND:                -0.413
REMARK SMILES CC1=CCC[C@H](C)C(=O)C[C@H](C(C)C)C(=O)C1
REMARK SMILES IDX 8 1 9 2 6 3 7 4 5 5 4 6 3 7 2 8 1 9 10 11 11 12 15 13 16 14
REMARK SMILES IDX 17 15 12 17 13 18 14 19
REMARK H PARENT
REMARK Flexibility Score: 70.00
ROOT
ATOM      1  C   UNL     1     154.051 158.616 201.469  1.00  0.00     0.136 C 
ATOM      2  O   UNL     1     154.166 158.078 202.561  1.00  0.00    -0.299 OA
ENDROOT
BRANCH   1   3
ATOM      3  C   UNL     1     155.281 159.160 200.759  1.00  0.00     0.053 C 
ATOM      4  C   UNL     1     156.565 158.699 201.465  1.00  0.00     0.016 C 
BRANCH   3   5
ATOM      5  C   UNL     1     155.289 158.735 199.270  1.00  0.00     0.015 C 
BRANCH   5   6
ATOM      6  C   UNL     1     154.986 159.912 198.320  1.00  0.00     0.028 C 
BRANCH   6   7
ATOM      7  C   UNL     1     154.062 159.495 197.203  1.00  0.00    -0.028 C 
ATOM      8  C   UNL     1     152.779 159.908 197.069  1.00  0.00    -0.070 CG0
ATOM      9  C   UNL     1     151.974 159.354 195.921  1.00  0.00     0.039 C 
ATOM     10  G   UNL     1     152.125 160.900 198.022  1.00  0.00     0.000 G0
ENDBRANCH   6   7
ENDBRANCH   5   6
ENDBRANCH   3   5
ENDBRANCH   1   3
BRANCH   1  11
ATOM     11  C   UNL     1     152.683 158.711 200.834  1.00  0.00     0.087 C 
BRANCH  11  12
ATOM     12  C   UNL     1     152.216 160.165 200.538  1.00  0.00     0.066 C 
BRANCH  12  13
ATOM     13  C   UNL     1     151.480 160.227 199.205  1.00  0.00     0.140 C 
ATOM     14  O   UNL     1     150.349 159.768 199.114  1.00  0.00    -0.299 OA
BRANCH  13  15
ATOM     15  C   UNL     1     152.102 160.908 198.013  1.00  0.00     0.106 CG0
ATOM     16  G   UNL     1     152.785 159.920 197.077  1.00  0.00     0.000 G0
ENDBRANCH  13  15
ENDBRANCH  12  13
BRANCH  12  17
ATOM     17  C   UNL     1     151.379 160.827 201.685  1.00  0.00    -0.006 C 
ATOM     18  C   UNL     1     152.193 161.932 202.386  1.00  0.00     0.008 C 
ATOM     19  C   UNL     1     150.912 159.811 202.743  1.00  0.00     0.008 C 
ENDBRANCH  12  17
ENDBRANCH  11  12
ENDBRANCH   1  11
TORSDOF 1
ENDMDL
MODEL 6
REMARK VINA RESULT:    -2.782      2.167      3.625
REMARK INTER + INTRA:          -4.659
REMARK INTER:                  -4.500
REMARK INTRA:                  -0.159
REMARK UNBOUND:                -0.413
REMARK SMILES CC1=CCC[C@H](C)C(=O)C[C@H](C(C)C)C(=O)C1
REMARK SMILES IDX 8 1 9 2 6 3 7 4 5 5 4 6 3 7 2 8 1 9 10 11 11 12 15 13 16 14
REMARK SMILES IDX 17 15 12 17 13 18 14 19
REMARK H PARENT
REMARK Flexibility Score: 70.00
ROOT
ATOM      1  C   UNL     1     151.394 160.152 201.369  1.00  0.00     0.136 C 
ATOM      2  O   UNL     1     150.546 160.696 202.062  1.00  0.00    -0.299 OA
ENDROOT
BRANCH   1   3
ATOM      3  C   UNL     1     151.288 160.212 199.853  1.00  0.00     0.053 C 
ATOM      4  C   UNL     1     149.866 160.600 199.422  1.00  0.00     0.016 C 
BRANCH   3   5
ATOM      5  C   UNL     1     152.329 161.199 199.269  1.00  0.00     0.015 C 
BRANCH   5   6
ATOM      6  C   UNL     1     153.504 160.476 198.580  1.00  0.00     0.028 C 
BRANCH   6   7
ATOM      7  C   UNL     1     154.831 160.934 199.129  1.00  0.00    -0.028 C 
ATOM      8  C   UNL     1     155.715 160.136 199.776  1.00  0.00    -0.070 CG0
ATOM      9  C   UNL     1     156.976 160.765 200.310  1.00  0.00     0.039 C 
ATOM     10  G   UNL     1     155.486 158.645 199.982  1.00  0.00     0.000 G0
ENDBRANCH   6   7
ENDBRANCH   5   6
ENDBRANCH   3   5
ENDBRANCH   1   3
BRANCH   1  11
ATOM     11  C   UNL     1     152.550 159.444 202.039  1.00  0.00     0.087 C 
BRANCH  11  12
ATOM     12  C   UNL     1     153.170 158.295 201.194  1.00  0.00     0.066 C 
BRANCH  12  13
ATOM     13  C   UNL     1     154.691 158.364 201.236  1.00  0.00     0.140 C 
ATOM     14  O   UNL     1     155.280 158.141 202.285  1.00  0.00    -0.299 OA
BRANCH  13  15
ATOM     15  C   UNL     1     155.484 158.638 199.983  1.00  0.00     0.106 CG0
ATOM     16  G   UNL     1     155.716 160.127 199.763  1.00  0.00     0.000 G0
ENDBRANCH  13  15
ENDBRANCH  12  13
BRANCH  12  17
ATOM     17  C   UNL     1     152.652 156.863 201.562  1.00  0.00    -0.006 C 
ATOM     18  C   UNL     1     151.839 156.260 200.400  1.00  0.00     0.008 C 
ATOM     19  C   UNL     1     151.781 156.854 202.831  1.00  0.00     0.008 C 
ENDBRANCH  12  17
ENDBRANCH  11  12
ENDBRANCH   1  11
TORSDOF 1
ENDMDL
MODEL 7
REMARK VINA RESULT:    -2.751      2.126      3.790
REMARK INTER + INTRA:          -4.612
REMARK INTER:                  -4.357
REMARK INTRA:                  -0.255
REMARK UNBOUND:                -0.413
REMARK SMILES CC1=CCC[C@H](C)C(=O)C[C@H](C(C)C)C(=O)C1
REMARK SMILES IDX 8 1 9 2 6 3 7 4 5 5 4 6 3 7 2 8 1 9 10 11 11 12 15 13 16 14
REMARK SMILES IDX 17 15 12 17 13 18 14 19
REMARK H PARENT
REMARK Flexibility Score: 70.00
ROOT
ATOM      1  C   UNL     1     151.145 159.971 200.228  1.00  0.00     0.136 C 
ATOM      2  O   UNL     1     150.015 160.429 200.131  1.00  0.00    -0.299 OA
ENDROOT
BRANCH   1   3
ATOM      3  C   UNL     1     151.981 160.270 201.464  1.00  0.00     0.053 C 
ATOM      4  C   UNL     1     152.235 161.779 201.596  1.00  0.00     0.016 C 
BRANCH   3   5
ATOM      5  C   UNL     1     151.297 159.713 202.736  1.00  0.00     0.015 C 
BRANCH   5   6
ATOM      6  C   UNL     1     151.604 158.219 202.964  1.00  0.00     0.028 C 
BRANCH   6   7
ATOM      7  C   UNL     1     153.085 157.945 202.908  1.00  0.00    -0.028 C 
ATOM      8  C   UNL     1     153.690 157.161 201.984  1.00  0.00    -0.070 CG0
ATOM      9  C   UNL     1     155.178 156.948 202.101  1.00  0.00     0.039 C 
ATOM     10  G   UNL     1     152.935 156.493 200.843  1.00  0.00     0.000 G0
ENDBRANCH   6   7
ENDBRANCH   5   6
ENDBRANCH   3   5
ENDBRANCH   1   3
BRANCH   1  11
ATOM     11  C   UNL     1     151.683 159.094 199.121  1.00  0.00     0.087 C 
BRANCH  11  12
ATOM     12  C   UNL     1     153.162 158.654 199.318  1.00  0.00     0.066 C 
BRANCH  12  13
ATOM     13  C   UNL     1     153.249 157.143 199.489  1.00  0.00     0.140 C 
ATOM     14  O   UNL     1     153.632 156.447 198.558  1.00  0.00    -0.299 OA
BRANCH  13  15
ATOM     15  C   UNL     1     152.934 156.499 200.815  1.00  0.00     0.106 CG0
ATOM     16  G   UNL     1     153.683 157.155 201.966  1.00  0.00     0.000 G0
ENDBRANCH  13  15
ENDBRANCH  12  13
BRANCH  12  17
ATOM     17  C   UNL     1     154.146 159.162 198.210  1.00  0.00    -0.006 C 
ATOM     18  C   UNL     1     154.836 160.469 198.650  1.00  0.00     0.008 C 
ATOM     19  C   UNL     1     153.449 159.402 196.859  1.00  0.00     0.008 C 
ENDBRANCH  12  17
ENDBRANCH  11  12
ENDBRANCH   1  11
TORSDOF 1
ENDMDL
MODEL 8
REMARK VINA RESULT:    -2.675      1.906      4.228
REMARK INTER + INTRA:          -4.495
REMARK INTER:                  -4.497
REMARK INTRA:                   0.003
REMARK UNBOUND:                -0.413
REMARK SMILES CC1=CCC[C@H](C)C(=O)C[C@H](C(C)C)C(=O)C1
REMARK SMILES IDX 8 1 9 2 6 3 7 4 5 5 4 6 3 7 2 8 1 9 10 11 11 12 15 13 16 14
REMARK SMILES IDX 17 15 12 17 13 18 14 19
REMARK H PARENT
REMARK Flexibility Score: 70.00
ROOT
ATOM      1  C   UNL     1     150.179 160.285 199.940  1.00  0.00     0.136 C 
ATOM      2  O   UNL     1     149.041 160.731 199.892  1.00  0.00    -0.299 OA
ENDROOT
BRANCH   1   3
ATOM      3  C   UNL     1     151.113 160.709 201.063  1.00  0.00     0.053 C 
ATOM      4  C   UNL     1     151.505 159.502 201.929  1.00  0.00     0.016 C 
BRANCH   3   5
ATOM      5  C   UNL     1     152.371 161.411 200.496  1.00  0.00     0.015 C 
BRANCH   5   6
ATOM      6  C   UNL     1     153.678 160.705 200.911  1.00  0.00     0.028 C 
BRANCH   6   7
ATOM      7  C   UNL     1     154.695 160.732 199.798  1.00  0.00    -0.028 C 
ATOM      8  C   UNL     1     154.751 159.837 198.783  1.00  0.00    -0.070 CG0
ATOM      9  C   UNL     1     155.866 159.976 197.778  1.00  0.00     0.039 C 
ATOM     10  G   UNL     1     153.742 158.709 198.617  1.00  0.00     0.000 G0
ENDBRANCH   6   7
ENDBRANCH   5   6
ENDBRANCH   3   5
ENDBRANCH   1   3
BRANCH   1  11
ATOM     11  C   UNL     1     150.629 159.298 198.887  1.00  0.00     0.087 C 
BRANCH  11  12
ATOM     12  C   UNL     1     151.548 159.908 197.792  1.00  0.00     0.066 C 
BRANCH  12  13
ATOM     13  C   UNL     1     152.743 158.999 197.531  1.00  0.00     0.140 C 
ATOM     14  O   UNL     1     152.927 158.544 196.410  1.00  0.00    -0.299 OA
BRANCH  13  15
ATOM     15  C   UNL     1     153.739 158.705 198.624  1.00  0.00     0.106 CG0
ATOM     16  G   UNL     1     154.741 159.837 198.808  1.00  0.00     0.000 G0
ENDBRANCH  13  15
ENDBRANCH  12  13
BRANCH  12  17
ATOM     17  C   UNL     1     150.815 160.284 196.460  1.00  0.00    -0.006 C 
ATOM     18  C   UNL     1     150.429 161.777 196.451  1.00  0.00     0.008 C 
ATOM     19  C   UNL     1     149.546 159.445 196.223  1.00  0.00     0.008 C 
ENDBRANCH  12  17
ENDBRANCH  11  12
ENDBRANCH   1  11
TORSDOF 1
ENDMDL
MODEL 9
REMARK VINA RESULT:    -2.639      2.317      4.266
REMARK INTER + INTRA:          -4.441
REMARK INTER:                  -4.099
REMARK INTRA:                  -0.341
REMARK UNBOUND:                -0.413
REMARK SMILES CC1=CCC[C@H](C)C(=O)C[C@H](C(C)C)C(=O)C1
REMARK SMILES IDX 8 1 9 2 6 3 7 4 5 5 4 6 3 7 2 8 1 9 10 11 11 12 15 13 16 14
REMARK SMILES IDX 17 15 12 17 13 18 14 19
REMARK H PARENT
REMARK Flexibility Score: 70.00
ROOT
ATOM      1  C   UNL     1     152.219 157.219 201.778  1.00  0.00     0.136 C 
ATOM      2  O   UNL     1     151.570 156.202 201.982  1.00  0.00    -0.299 OA
ENDROOT
BRANCH   1   3
ATOM      3  C   UNL     1     153.273 157.660 202.782  1.00  0.00     0.053 C 
ATOM      4  C   UNL     1     152.801 157.391 204.219  1.00  0.00     0.016 C 
BRANCH   3   5
ATOM      5  C   UNL     1     154.624 156.955 202.506  1.00  0.00     0.015 C 
BRANCH   5   6
ATOM      6  C   UNL     1     155.703 157.931 201.995  1.00  0.00     0.028 C 
BRANCH   6   7
ATOM      7  C   UNL     1     156.169 157.561 200.609  1.00  0.00    -0.028 C 
ATOM      8  C   UNL     1     155.911 158.281 199.491  1.00  0.00    -0.070 CG0
ATOM      9  C   UNL     1     156.407 157.744 198.173  1.00  0.00     0.039 C 
ATOM     10  G   UNL     1     155.149 159.599 199.513  1.00  0.00     0.000 G0
ENDBRANCH   6   7
ENDBRANCH   5   6
ENDBRANCH   3   5
ENDBRANCH   1   3
BRANCH   1  11
ATOM     11  C   UNL     1     151.973 158.009 200.514  1.00  0.00     0.087 C 
BRANCH  11  12
ATOM     12  C   UNL     1     152.710 159.378 200.464  1.00  0.00     0.066 C 
BRANCH  12  13
ATOM     13  C   UNL     1     153.669 159.423 199.281  1.00  0.00     0.140 C 
ATOM     14  O   UNL     1     153.230 159.361 198.140  1.00  0.00    -0.299 OA
BRANCH  13  15
ATOM     15  C   UNL     1     155.150 159.611 199.496  1.00  0.00     0.106 CG0
ATOM     16  G   UNL     1     155.906 158.289 199.480  1.00  0.00     0.000 G0
ENDBRANCH  13  15
ENDBRANCH  12  13
BRANCH  12  17
ATOM     17  C   UNL     1     151.767 160.628 200.483  1.00  0.00    -0.006 C 
ATOM     18  C   UNL     1     151.490 161.081 201.930  1.00  0.00     0.008 C 
ATOM     19  C   UNL     1     150.422 160.368 199.781  1.00  0.00     0.008 C 
ENDBRANCH  12  17
ENDBRANCH  11  12
ENDBRANCH   1  11
TORSDOF 1
ENDMDL
