MODEL 1
REMARK VINA RESULT:    -5.551      0.000      0.000
REMARK INTER + INTRA:          -8.187
REMARK INTER:                  -7.498
REMARK INTRA:                  -0.690
REMARK UNBOUND:                -0.690
REMARK SMILES COc1ccc(-c2cc(=O)c3c(OC)c(OC)c(OC)c(OC)c3o2)cc1
REMARK SMILES IDX 7 1 8 2 9 3 10 4 11 5 24 6 25 7 21 8 18 9 15 10 12 11 6 12
REMARK SMILES IDX 3 13 4 14 27 15 5 16 26 17 2 18 1 19 22 20 23 21 13 22 14 23
REMARK SMILES IDX 19 24 20 25 16 26 17 27
REMARK H PARENT
REMARK Flexibility Score: inf
ROOT
ATOM      1  C   UNL     1      69.107  51.692  -2.208  1.00  0.00     0.138 A 
ATOM      2  C   UNL     1      67.915  51.616  -1.473  1.00  0.00     0.100 A 
ATOM      3  C   UNL     1      66.773  52.254  -1.956  1.00  0.00     0.197 A 
ATOM      4  O   UNL     1      65.708  52.182  -1.283  1.00  0.00    -0.289 OA
ATOM      5  C   UNL     1      66.832  52.970  -3.171  1.00  0.00     0.115 A 
ATOM      6  C   UNL     1      68.067  53.006  -3.850  1.00  0.00     0.188 A 
ATOM      7  O   UNL     1      69.128  52.379  -3.347  1.00  0.00    -0.452 OA
ATOM      8  C   UNL     1      68.205  53.687  -5.066  1.00  0.00     0.209 A 
ATOM      9  C   UNL     1      67.096  54.379  -5.617  1.00  0.00     0.211 A 
ATOM     10  C   UNL     1      65.864  54.385  -4.912  1.00  0.00     0.208 A 
ATOM     11  C   UNL     1      65.717  53.629  -3.729  1.00  0.00     0.179 A 
ENDROOT
BRANCH   1  12
ATOM     12  C   UNL     1      70.357  51.036  -1.747  1.00  0.00     0.018 A 
ATOM     13  C   UNL     1      72.697  49.735  -0.848  1.00  0.00     0.118 A 
ATOM     14  C   UNL     1      72.664  51.135  -0.968  1.00  0.00     0.047 A 
ATOM     15  C   UNL     1      71.555  48.996  -1.172  1.00  0.00     0.047 A 
ATOM     16  C   UNL     1      71.504  51.779  -1.409  1.00  0.00     0.016 A 
ATOM     17  C   UNL     1      70.394  49.637  -1.612  1.00  0.00     0.016 A 
BRANCH  13  18
ATOM     18  O   UNL     1      73.838  49.043  -0.412  1.00  0.00    -0.497 OA
ATOM     19  C   UNL     1      73.852  48.118   0.670  1.00  0.00     0.278 C 
ENDBRANCH  13  18
ENDBRANCH   1  12
BRANCH   8  20
ATOM     20  O   UNL     1      69.477  53.636  -5.670  1.00  0.00    -0.490 OA
ATOM     21  C   UNL     1      69.925  52.709  -6.654  1.00  0.00     0.278 C 
ENDBRANCH   8  20
BRANCH  11  22
ATOM     22  O   UNL     1      64.466  53.521  -3.109  1.00  0.00    -0.492 OA
ATOM     23  C   UNL     1      63.428  52.693  -3.623  1.00  0.00     0.278 C 
ENDBRANCH  11  22
BRANCH   9  24
ATOM     24  O   UNL     1      67.267  55.049  -6.843  1.00  0.00    -0.490 OA
ATOM     25  C   UNL     1      67.020  54.536  -8.148  1.00  0.00     0.279 C 
ENDBRANCH   9  24
BRANCH  10  26
ATOM     26  O   UNL     1      64.795  55.156  -5.377  1.00  0.00    -0.490 OA
ATOM     27  C   UNL     1      64.630  56.527  -5.024  1.00  0.00     0.278 C 
ENDBRANCH  10  26
TORSDOF 6
ENDMDL
MODEL 2
REMARK VINA RESULT:    -5.496      2.207      7.810
REMARK INTER + INTRA:          -8.113
REMARK INTER:                  -7.445
REMARK INTRA:                  -0.668
REMARK UNBOUND:                -0.690
REMARK SMILES COc1ccc(-c2cc(=O)c3c(OC)c(OC)c(OC)c(OC)c3o2)cc1
REMARK SMILES IDX 7 1 8 2 9 3 10 4 11 5 24 6 25 7 21 8 18 9 15 10 12 11 6 12
REMARK SMILES IDX 3 13 4 14 27 15 5 16 26 17 2 18 1 19 22 20 23 21 13 22 14 23
REMARK SMILES IDX 19 24 20 25 16 26 17 27
REMARK H PARENT
REMARK Flexibility Score: inf
ROOT
ATOM      1  C   UNL     1      67.455  51.484  -2.643  1.00  0.00     0.138 A 
ATOM      2  C   UNL     1      66.724  50.316  -2.383  1.00  0.00     0.100 A 
ATOM      3  C   UNL     1      67.400  49.158  -1.998  1.00  0.00     0.197 A 
ATOM      4  O   UNL     1      66.732  48.113  -1.772  1.00  0.00    -0.289 OA
ATOM      5  C   UNL     1      68.807  49.176  -1.880  1.00  0.00     0.115 A 
ATOM      6  C   UNL     1      69.472  50.386  -2.163  1.00  0.00     0.188 A 
ATOM      7  O   UNL     1      68.780  51.464  -2.527  1.00  0.00    -0.452 OA
ATOM      8  C   UNL     1      70.865  50.487  -2.060  1.00  0.00     0.209 A 
ATOM      9  C   UNL     1      71.630  49.351  -1.692  1.00  0.00     0.211 A 
ATOM     10  C   UNL     1      70.967  48.119  -1.453  1.00  0.00     0.208 A 
ATOM     11  C   UNL     1      69.558  48.051  -1.483  1.00  0.00     0.179 A 
ENDROOT
BRANCH   1  12
ATOM     12  C   UNL     1      66.794  52.747  -3.059  1.00  0.00     0.018 A 
ATOM     13  C   UNL     1      65.600  55.178  -3.861  1.00  0.00     0.118 A 
ATOM     14  C   UNL     1      64.912  54.294  -3.010  1.00  0.00     0.047 A 
ATOM     15  C   UNL     1      66.885  54.842  -4.297  1.00  0.00     0.047 A 
ATOM     16  C   UNL     1      65.505  53.093  -2.610  1.00  0.00     0.016 A 
ATOM     17  C   UNL     1      67.481  53.642  -3.897  1.00  0.00     0.016 A 
BRANCH  13  18
ATOM     18  O   UNL     1      65.046  56.393  -4.291  1.00  0.00    -0.497 OA
ATOM     19  C   UNL     1      64.883  56.764  -5.656  1.00  0.00     0.278 C 
ENDBRANCH  13  18
ENDBRANCH   1  12
BRANCH   8  20
ATOM     20  O   UNL     1      71.422  51.751  -2.341  1.00  0.00    -0.490 OA
ATOM     21  C   UNL     1      71.981  52.671  -1.409  1.00  0.00     0.278 C 
ENDBRANCH   8  20
BRANCH  11  22
ATOM     22  O   UNL     1      68.898  46.873  -1.111  1.00  0.00    -0.492 OA
ATOM     23  C   UNL     1      68.956  46.350   0.213  1.00  0.00     0.278 C 
ENDBRANCH  11  22
BRANCH   9  24
ATOM     24  O   UNL     1      73.027  49.488  -1.592  1.00  0.00    -0.490 OA
ATOM     25  C   UNL     1      73.982  49.375  -2.641  1.00  0.00     0.279 C 
ENDBRANCH   9  24
BRANCH  10  26
ATOM     26  O   UNL     1      71.710  46.961  -1.204  1.00  0.00    -0.490 OA
ATOM     27  C   UNL     1      72.152  46.097  -2.248  1.00  0.00     0.278 C 
ENDBRANCH  10  26
TORSDOF 6
ENDMDL
MODEL 3
REMARK VINA RESULT:    -5.440      3.553      6.862
REMARK INTER + INTRA:          -8.038
REMARK INTER:                  -7.446
REMARK INTRA:                  -0.592
REMARK UNBOUND:                -0.690
REMARK SMILES COc1ccc(-c2cc(=O)c3c(OC)c(OC)c(OC)c(OC)c3o2)cc1
REMARK SMILES IDX 7 1 8 2 9 3 10 4 11 5 24 6 25 7 21 8 18 9 15 10 12 11 6 12
REMARK SMILES IDX 3 13 4 14 27 15 5 16 26 17 2 18 1 19 22 20 23 21 13 22 14 23
REMARK SMILES IDX 19 24 20 25 16 26 17 27
REMARK H PARENT
REMARK Flexibility Score: inf
ROOT
ATOM      1  C   UNL     1      72.108  53.977  -5.452  1.00  0.00     0.138 A 
ATOM      2  C   UNL     1      72.786  53.154  -4.541  1.00  0.00     0.100 A 
ATOM      3  C   UNL     1      72.053  52.377  -3.645  1.00  0.00     0.197 A 
ATOM      4  O   UNL     1      72.675  51.645  -2.828  1.00  0.00    -0.289 OA
ATOM      5  C   UNL     1      70.642  52.433  -3.661  1.00  0.00     0.115 A 
ATOM      6  C   UNL     1      70.032  53.289  -4.601  1.00  0.00     0.188 A 
ATOM      7  O   UNL     1      70.778  54.009  -5.436  1.00  0.00    -0.452 OA
ATOM      8  C   UNL     1      68.639  53.393  -4.687  1.00  0.00     0.209 A 
ATOM      9  C   UNL     1      67.819  52.651  -3.798  1.00  0.00     0.211 A 
ATOM     10  C   UNL     1      68.431  51.826  -2.819  1.00  0.00     0.208 A 
ATOM     11  C   UNL     1      69.834  51.668  -2.796  1.00  0.00     0.179 A 
ENDROOT
BRANCH   1  12
ATOM     12  C   UNL     1      72.831  54.829  -6.430  1.00  0.00     0.018 A 
ATOM     13  C   UNL     1      74.219  56.495  -8.240  1.00  0.00     0.118 A 
ATOM     14  C   UNL     1      73.253  55.586  -8.708  1.00  0.00     0.047 A 
ATOM     15  C   UNL     1      74.477  56.568  -6.868  1.00  0.00     0.047 A 
ATOM     16  C   UNL     1      72.563  54.764  -7.811  1.00  0.00     0.016 A 
ATOM     17  C   UNL     1      73.789  55.749  -5.969  1.00  0.00     0.016 A 
BRANCH  13  18
ATOM     18  O   UNL     1      74.938  57.338  -9.101  1.00  0.00    -0.497 OA
ATOM     19  C   UNL     1      74.369  58.424  -9.823  1.00  0.00     0.278 C 
ENDBRANCH  13  18
ENDBRANCH   1  12
BRANCH   8  20
ATOM     20  O   UNL     1      68.137  54.259  -5.680  1.00  0.00    -0.490 OA
ATOM     21  C   UNL     1      67.618  53.894  -6.955  1.00  0.00     0.278 C 
ENDBRANCH   8  20
BRANCH  11  22
ATOM     22  O   UNL     1      70.428  50.749  -1.923  1.00  0.00    -0.492 OA
ATOM     23  C   UNL     1      70.435  49.348  -2.178  1.00  0.00     0.278 C 
ENDBRANCH  11  22
BRANCH   9  24
ATOM     24  O   UNL     1      66.422  52.775  -3.915  1.00  0.00    -0.490 OA
ATOM     25  C   UNL     1      65.582  53.716  -3.257  1.00  0.00     0.279 C 
ENDBRANCH   9  24
BRANCH  10  26
ATOM     26  O   UNL     1      67.647  51.179  -1.860  1.00  0.00    -0.490 OA
ATOM     27  C   UNL     1      66.862  50.029  -2.163  1.00  0.00     0.278 C 
ENDBRANCH  10  26
TORSDOF 6
ENDMDL
MODEL 4
REMARK VINA RESULT:    -5.351      2.118      8.239
REMARK INTER + INTRA:          -7.918
REMARK INTER:                  -7.211
REMARK INTRA:                  -0.707
REMARK UNBOUND:                -0.690
REMARK SMILES COc1ccc(-c2cc(=O)c3c(OC)c(OC)c(OC)c(OC)c3o2)cc1
REMARK SMILES IDX 7 1 8 2 9 3 10 4 11 5 24 6 25 7 21 8 18 9 15 10 12 11 6 12
REMARK SMILES IDX 3 13 4 14 27 15 5 16 26 17 2 18 1 19 22 20 23 21 13 22 14 23
REMARK SMILES IDX 19 24 20 25 16 26 17 27
REMARK H PARENT
REMARK Flexibility Score: inf
ROOT
ATOM      1  C   UNL     1      68.781  53.566  -4.674  1.00  0.00     0.138 A 
ATOM      2  C   UNL     1      70.087  53.772  -5.143  1.00  0.00     0.100 A 
ATOM      3  C   UNL     1      71.112  52.937  -4.701  1.00  0.00     0.197 A 
ATOM      4  O   UNL     1      72.282  53.136  -5.126  1.00  0.00    -0.289 OA
ATOM      5  C   UNL     1      70.824  51.899  -3.787  1.00  0.00     0.115 A 
ATOM      6  C   UNL     1      69.489  51.757  -3.357  1.00  0.00     0.188 A 
ATOM      7  O   UNL     1      68.547  52.582  -3.810  1.00  0.00    -0.452 OA
ATOM      8  C   UNL     1      69.122  50.748  -2.460  1.00  0.00     0.209 A 
ATOM      9  C   UNL     1      70.107  49.866  -1.947  1.00  0.00     0.211 A 
ATOM     10  C   UNL     1      71.460  50.036  -2.340  1.00  0.00     0.208 A 
ATOM     11  C   UNL     1      71.804  51.007  -3.307  1.00  0.00     0.179 A 
ENDROOT
BRANCH   1  12
ATOM     12  C   UNL     1      67.647  54.422  -5.105  1.00  0.00     0.018 A 
ATOM     13  C   UNL     1      65.525  56.067  -5.982  1.00  0.00     0.118 A 
ATOM     14  C   UNL     1      65.711  55.818  -4.611  1.00  0.00     0.047 A 
ATOM     15  C   UNL     1      66.408  55.497  -6.904  1.00  0.00     0.047 A 
ATOM     16  C   UNL     1      66.765  55.007  -4.177  1.00  0.00     0.016 A 
ATOM     17  C   UNL     1      67.462  54.687  -6.473  1.00  0.00     0.016 A 
BRANCH  13  18
ATOM     18  O   UNL     1      64.482  56.871  -6.466  1.00  0.00    -0.497 OA
ATOM     19  C   UNL     1      64.056  58.087  -5.859  1.00  0.00     0.278 C 
ENDBRANCH  13  18
ENDBRANCH   1  12
BRANCH   8  20
ATOM     20  O   UNL     1      67.755  50.682  -2.118  1.00  0.00    -0.490 OA
ATOM     21  C   UNL     1      66.773  49.812  -2.670  1.00  0.00     0.278 C 
ENDBRANCH   8  20
BRANCH  11  22
ATOM     22  O   UNL     1      73.113  51.083  -3.798  1.00  0.00    -0.492 OA
ATOM     23  C   UNL     1      73.652  50.110  -4.688  1.00  0.00     0.278 C 
ENDBRANCH  11  22
BRANCH   9  24
ATOM     24  O   UNL     1      69.703  48.858  -1.051  1.00  0.00    -0.490 OA
ATOM     25  C   UNL     1      69.424  47.496  -1.354  1.00  0.00     0.279 C 
ENDBRANCH   9  24
BRANCH  10  26
ATOM     26  O   UNL     1      72.462  49.255  -1.759  1.00  0.00    -0.490 OA
ATOM     27  C   UNL     1      73.137  49.641  -0.564  1.00  0.00     0.278 C 
ENDBRANCH  10  26
TORSDOF 6
ENDMDL
MODEL 5
REMARK VINA RESULT:    -5.339      8.134     10.740
REMARK INTER + INTRA:          -7.901
REMARK INTER:                  -7.207
REMARK INTRA:                  -0.694
REMARK UNBOUND:                -0.690
REMARK SMILES COc1ccc(-c2cc(=O)c3c(OC)c(OC)c(OC)c(OC)c3o2)cc1
REMARK SMILES IDX 7 1 8 2 9 3 10 4 11 5 24 6 25 7 21 8 18 9 15 10 12 11 6 12
REMARK SMILES IDX 3 13 4 14 27 15 5 16 26 17 2 18 1 19 22 20 23 21 13 22 14 23
REMARK SMILES IDX 19 24 20 25 16 26 17 27
REMARK H PARENT
REMARK Flexibility Score: inf
ROOT
ATOM      1  C   UNL     1      65.351  46.253  -9.782  1.00  0.00     0.138 A 
ATOM      2  C   UNL     1      66.346  45.975  -8.834  1.00  0.00     0.100 A 
ATOM      3  C   UNL     1      67.412  46.861  -8.682  1.00  0.00     0.197 A 
ATOM      4  O   UNL     1      68.303  46.597  -7.830  1.00  0.00    -0.289 OA
ATOM      5  C   UNL     1      67.478  48.021  -9.485  1.00  0.00     0.115 A 
ATOM      6  C   UNL     1      66.443  48.229 -10.420  1.00  0.00     0.188 A 
ATOM      7  O   UNL     1      65.447  47.352 -10.525  1.00  0.00    -0.452 OA
ATOM      8  C   UNL     1      66.431  49.359 -11.246  1.00  0.00     0.209 A 
ATOM      9  C   UNL     1      67.489  50.301 -11.169  1.00  0.00     0.211 A 
ATOM     10  C   UNL     1      68.557  50.070 -10.263  1.00  0.00     0.208 A 
ATOM     11  C   UNL     1      68.516  48.969  -9.380  1.00  0.00     0.179 A 
ENDROOT
BRANCH   1  12
ATOM     12  C   UNL     1      64.192  45.348  -9.993  1.00  0.00     0.018 A 
ATOM     13  C   UNL     1      61.982  43.621 -10.326  1.00  0.00     0.118 A 
ATOM     14  C   UNL     1      62.949  43.741 -11.339  1.00  0.00     0.047 A 
ATOM     15  C   UNL     1      62.133  44.360  -9.148  1.00  0.00     0.047 A 
ATOM     16  C   UNL     1      64.045  44.593 -11.172  1.00  0.00     0.016 A 
ATOM     17  C   UNL     1      63.229  45.211  -8.979  1.00  0.00     0.016 A 
BRANCH  13  18
ATOM     18  O   UNL     1      60.864  42.781 -10.447  1.00  0.00    -0.497 OA
ATOM     19  C   UNL     1      60.432  42.189 -11.668  1.00  0.00     0.278 C 
ENDBRANCH  13  18
ENDBRANCH   1  12
BRANCH   8  20
ATOM     20  O   UNL     1      65.336  49.479 -12.125  1.00  0.00    -0.490 OA
ATOM     21  C   UNL     1      64.179  50.291 -11.950  1.00  0.00     0.278 C 
ENDBRANCH   8  20
BRANCH  11  22
ATOM     22  O   UNL     1      69.497  48.817  -8.392  1.00  0.00    -0.492 OA
ATOM     23  C   UNL     1      69.545  49.639  -7.231  1.00  0.00     0.278 C 
ENDBRANCH  11  22
BRANCH   9  24
ATOM     24  O   UNL     1      67.444  51.429 -12.009  1.00  0.00    -0.490 OA
ATOM     25  C   UNL     1      66.998  52.738 -11.673  1.00  0.00     0.279 C 
ENDBRANCH   9  24
BRANCH  10  26
ATOM     26  O   UNL     1      69.664  50.922 -10.253  1.00  0.00    -0.490 OA
ATOM     27  C   UNL     1      70.809  50.698 -11.071  1.00  0.00     0.278 C 
ENDBRANCH  10  26
TORSDOF 6
ENDMDL
MODEL 6
REMARK VINA RESULT:    -5.243      2.270      4.043
REMARK INTER + INTRA:          -7.772
REMARK INTER:                  -7.075
REMARK INTRA:                  -0.697
REMARK UNBOUND:                -0.690
REMARK SMILES COc1ccc(-c2cc(=O)c3c(OC)c(OC)c(OC)c(OC)c3o2)cc1
REMARK SMILES IDX 7 1 8 2 9 3 10 4 11 5 24 6 25 7 21 8 18 9 15 10 12 11 6 12
REMARK SMILES IDX 3 13 4 14 27 15 5 16 26 17 2 18 1 19 22 20 23 21 13 22 14 23
REMARK SMILES IDX 19 24 20 25 16 26 17 27
REMARK H PARENT
REMARK Flexibility Score: inf
ROOT
ATOM      1  C   UNL     1      65.879  52.879  -3.217  1.00  0.00     0.138 A 
ATOM      2  C   UNL     1      64.772  52.135  -2.784  1.00  0.00     0.100 A 
ATOM      3  C   UNL     1      63.493  52.516  -3.188  1.00  0.00     0.197 A 
ATOM      4  O   UNL     1      62.505  51.842  -2.788  1.00  0.00    -0.289 OA
ATOM      5  C   UNL     1      63.329  53.645  -4.021  1.00  0.00     0.115 A 
ATOM      6  C   UNL     1      64.489  54.346  -4.410  1.00  0.00     0.188 A 
ATOM      7  O   UNL     1      65.688  53.940  -3.997  1.00  0.00    -0.452 OA
ATOM      8  C   UNL     1      64.411  55.469  -5.241  1.00  0.00     0.209 A 
ATOM      9  C   UNL     1      63.146  55.935  -5.682  1.00  0.00     0.211 A 
ATOM     10  C   UNL     1      61.972  55.260  -5.253  1.00  0.00     0.208 A 
ATOM     11  C   UNL     1      62.070  54.083  -4.481  1.00  0.00     0.179 A 
ENDROOT
BRANCH   1  12
ATOM     12  C   UNL     1      67.266  52.526  -2.820  1.00  0.00     0.018 A 
ATOM     13  C   UNL     1      69.917  51.836  -2.130  1.00  0.00     0.118 A 
ATOM     14  C   UNL     1      68.907  51.845  -1.151  1.00  0.00     0.047 A 
ATOM     15  C   UNL     1      69.590  52.164  -3.449  1.00  0.00     0.047 A 
ATOM     16  C   UNL     1      67.594  52.183  -1.495  1.00  0.00     0.016 A 
ATOM     17  C   UNL     1      68.278  52.501  -3.795  1.00  0.00     0.016 A 
BRANCH  13  18
ATOM     18  O   UNL     1      71.248  51.506  -1.835  1.00  0.00    -0.497 OA
ATOM     19  C   UNL     1      72.125  52.318  -1.061  1.00  0.00     0.278 C 
ENDBRANCH  13  18
ENDBRANCH   1  12
BRANCH   8  20
ATOM     20  O   UNL     1      65.635  56.076  -5.588  1.00  0.00    -0.490 OA
ATOM     21  C   UNL     1      66.401  55.853  -6.767  1.00  0.00     0.278 C 
ENDBRANCH   8  20
BRANCH  11  22
ATOM     22  O   UNL     1      60.923  53.340  -4.175  1.00  0.00    -0.492 OA
ATOM     23  C   UNL     1      60.242  52.552  -5.146  1.00  0.00     0.278 C 
ENDBRANCH  11  22
BRANCH   9  24
ATOM     24  O   UNL     1      63.102  57.063  -6.522  1.00  0.00    -0.490 OA
ATOM     25  C   UNL     1      63.060  57.078  -7.945  1.00  0.00     0.279 C 
ENDBRANCH   9  24
BRANCH  10  26
ATOM     26  O   UNL     1      60.713  55.770  -5.579  1.00  0.00    -0.490 OA
ATOM     27  C   UNL     1      60.048  56.740  -4.773  1.00  0.00     0.278 C 
ENDBRANCH  10  26
TORSDOF 6
ENDMDL
MODEL 7
REMARK VINA RESULT:    -5.181      2.392      8.897
REMARK INTER + INTRA:          -7.688
REMARK INTER:                  -6.976
REMARK INTRA:                  -0.713
REMARK UNBOUND:                -0.690
REMARK SMILES COc1ccc(-c2cc(=O)c3c(OC)c(OC)c(OC)c(OC)c3o2)cc1
REMARK SMILES IDX 7 1 8 2 9 3 10 4 11 5 24 6 25 7 21 8 18 9 15 10 12 11 6 12
REMARK SMILES IDX 3 13 4 14 27 15 5 16 26 17 2 18 1 19 22 20 23 21 13 22 14 23
REMARK SMILES IDX 19 24 20 25 16 26 17 27
REMARK H PARENT
REMARK Flexibility Score: inf
ROOT
ATOM      1  C   UNL     1      65.866  55.479  -6.304  1.00  0.00     0.138 A 
ATOM      2  C   UNL     1      66.819  55.262  -7.310  1.00  0.00     0.100 A 
ATOM      3  C   UNL     1      67.829  54.324  -7.102  1.00  0.00     0.197 A 
ATOM      4  O   UNL     1      68.683  54.141  -8.012  1.00  0.00    -0.289 OA
ATOM      5  C   UNL     1      67.883  53.610  -5.885  1.00  0.00     0.115 A 
ATOM      6  C   UNL     1      66.893  53.888  -4.920  1.00  0.00     0.188 A 
ATOM      7  O   UNL     1      65.949  54.793  -5.168  1.00  0.00    -0.452 OA
ATOM      8  C   UNL     1      66.872  53.216  -3.692  1.00  0.00     0.209 A 
ATOM      9  C   UNL     1      67.875  52.259  -3.393  1.00  0.00     0.211 A 
ATOM     10  C   UNL     1      68.901  52.012  -4.343  1.00  0.00     0.208 A 
ATOM     11  C   UNL     1      68.865  52.637  -5.608  1.00  0.00     0.179 A 
ENDROOT
BRANCH   1  12
ATOM     12  C   UNL     1      64.767  56.465  -6.464  1.00  0.00     0.018 A 
ATOM     13  C   UNL     1      62.678  58.352  -6.699  1.00  0.00     0.118 A 
ATOM     14  C   UNL     1      62.850  57.356  -7.677  1.00  0.00     0.047 A 
ATOM     15  C   UNL     1      63.549  58.391  -5.606  1.00  0.00     0.047 A 
ATOM     16  C   UNL     1      63.882  56.420  -7.558  1.00  0.00     0.016 A 
ATOM     17  C   UNL     1      64.580  57.455  -5.484  1.00  0.00     0.016 A 
BRANCH  13  18
ATOM     18  O   UNL     1      61.659  59.314  -6.775  1.00  0.00    -0.497 OA
ATOM     19  C   UNL     1      60.862  59.730  -5.672  1.00  0.00     0.278 C 
ENDBRANCH  13  18
ENDBRANCH   1  12
BRANCH   8  20
ATOM     20  O   UNL     1      65.822  53.553  -2.813  1.00  0.00    -0.490 OA
ATOM     21  C   UNL     1      64.640  52.802  -2.559  1.00  0.00     0.278 C 
ENDBRANCH   8  20
BRANCH  11  22
ATOM     22  O   UNL     1      69.795  52.290  -6.595  1.00  0.00    -0.492 OA
ATOM     23  C   UNL     1      69.736  51.054  -7.300  1.00  0.00     0.278 C 
ENDBRANCH  11  22
BRANCH   9  24
ATOM     24  O   UNL     1      67.821  51.597  -2.152  1.00  0.00    -0.490 OA
ATOM     25  C   UNL     1      68.402  52.021  -0.923  1.00  0.00     0.279 C 
ENDBRANCH   9  24
BRANCH  10  26
ATOM     26  O   UNL     1      69.962  51.162  -4.022  1.00  0.00    -0.490 OA
ATOM     27  C   UNL     1      71.169  51.634  -3.431  1.00  0.00     0.278 C 
ENDBRANCH  10  26
TORSDOF 6
ENDMDL
MODEL 8
REMARK VINA RESULT:    -5.142      2.296      8.445
REMARK INTER + INTRA:          -7.634
REMARK INTER:                  -7.102
REMARK INTRA:                  -0.532
REMARK UNBOUND:                -0.690
REMARK SMILES COc1ccc(-c2cc(=O)c3c(OC)c(OC)c(OC)c(OC)c3o2)cc1
REMARK SMILES IDX 7 1 8 2 9 3 10 4 11 5 24 6 25 7 21 8 18 9 15 10 12 11 6 12
REMARK SMILES IDX 3 13 4 14 27 15 5 16 26 17 2 18 1 19 22 20 23 21 13 22 14 23
REMARK SMILES IDX 19 24 20 25 16 26 17 27
REMARK H PARENT
REMARK Flexibility Score: inf
ROOT
ATOM      1  C   UNL     1      65.122  55.686  -5.302  1.00  0.00     0.138 A 
ATOM      2  C   UNL     1      64.600  55.216  -4.088  1.00  0.00     0.100 A 
ATOM      3  C   UNL     1      65.316  54.268  -3.358  1.00  0.00     0.197 A 
ATOM      4  O   UNL     1      64.833  53.849  -2.271  1.00  0.00    -0.289 OA
ATOM      5  C   UNL     1      66.551  53.792  -3.850  1.00  0.00     0.115 A 
ATOM      6  C   UNL     1      67.008  54.307  -5.080  1.00  0.00     0.188 A 
ATOM      7  O   UNL     1      66.286  55.212  -5.738  1.00  0.00    -0.452 OA
ATOM      8  C   UNL     1      68.227  53.893  -5.629  1.00  0.00     0.209 A 
ATOM      9  C   UNL     1      69.009  52.917  -4.959  1.00  0.00     0.211 A 
ATOM     10  C   UNL     1      68.528  52.361  -3.745  1.00  0.00     0.208 A 
ATOM     11  C   UNL     1      67.337  52.845  -3.161  1.00  0.00     0.179 A 
ENDROOT
BRANCH   1  12
ATOM     12  C   UNL     1      64.408  56.692  -6.127  1.00  0.00     0.018 A 
ATOM     13  C   UNL     1      63.041  58.647  -7.641  1.00  0.00     0.118 A 
ATOM     14  C   UNL     1      63.047  57.303  -8.055  1.00  0.00     0.047 A 
ATOM     15  C   UNL     1      63.713  59.001  -6.467  1.00  0.00     0.047 A 
ATOM     16  C   UNL     1      63.720  56.335  -7.303  1.00  0.00     0.016 A 
ATOM     17  C   UNL     1      64.386  58.035  -5.713  1.00  0.00     0.016 A 
BRANCH  13  18
ATOM     18  O   UNL     1      62.382  59.654  -8.362  1.00  0.00    -0.497 OA
ATOM     19  C   UNL     1      61.018  60.015  -8.176  1.00  0.00     0.278 C 
ENDBRANCH  13  18
ENDBRANCH   1  12
BRANCH   8  20
ATOM     20  O   UNL     1      68.598  54.493  -6.850  1.00  0.00    -0.490 OA
ATOM     21  C   UNL     1      68.448  53.947  -8.156  1.00  0.00     0.278 C 
ENDBRANCH   8  20
BRANCH  11  22
ATOM     22  O   UNL     1      66.936  52.397  -1.897  1.00  0.00    -0.492 OA
ATOM     23  C   UNL     1      66.407  51.093  -1.681  1.00  0.00     0.278 C 
ENDBRANCH  11  22
BRANCH   9  24
ATOM     24  O   UNL     1      70.232  52.527  -5.536  1.00  0.00    -0.490 OA
ATOM     25  C   UNL     1      71.507  53.129  -5.343  1.00  0.00     0.279 C 
ENDBRANCH   9  24
BRANCH  10  26
ATOM     26  O   UNL     1      69.224  51.317  -3.130  1.00  0.00    -0.490 OA
ATOM     27  C   UNL     1      70.242  51.543  -2.158  1.00  0.00     0.278 C 
ENDBRANCH  10  26
TORSDOF 6
ENDMDL
MODEL 9
REMARK VINA RESULT:    -5.113      6.967      9.926
REMARK INTER + INTRA:          -7.595
REMARK INTER:                  -6.854
REMARK INTRA:                  -0.741
REMARK UNBOUND:                -0.690
REMARK SMILES COc1ccc(-c2cc(=O)c3c(OC)c(OC)c(OC)c(OC)c3o2)cc1
REMARK SMILES IDX 7 1 8 2 9 3 10 4 11 5 24 6 25 7 21 8 18 9 15 10 12 11 6 12
REMARK SMILES IDX 3 13 4 14 27 15 5 16 26 17 2 18 1 19 22 20 23 21 13 22 14 23
REMARK SMILES IDX 19 24 20 25 16 26 17 27
REMARK H PARENT
REMARK Flexibility Score: inf
ROOT
ATOM      1  C   UNL     1      64.843  54.907  -8.201  1.00  0.00     0.138 A 
ATOM      2  C   UNL     1      66.220  54.653  -8.121  1.00  0.00     0.100 A 
ATOM      3  C   UNL     1      66.770  53.619  -8.877  1.00  0.00     0.197 A 
ATOM      4  O   UNL     1      68.008  53.397  -8.793  1.00  0.00    -0.289 OA
ATOM      5  C   UNL     1      65.935  52.839  -9.708  1.00  0.00     0.115 A 
ATOM      6  C   UNL     1      64.560  53.151  -9.731  1.00  0.00     0.188 A 
ATOM      7  O   UNL     1      64.086  54.150  -8.990  1.00  0.00    -0.452 OA
ATOM      8  C   UNL     1      63.669  52.431 -10.536  1.00  0.00     0.209 A 
ATOM      9  C   UNL     1      64.143  51.350 -11.323  1.00  0.00     0.211 A 
ATOM     10  C   UNL     1      65.518  51.003 -11.264  1.00  0.00     0.208 A 
ATOM     11  C   UNL     1      66.419  51.787 -10.511  1.00  0.00     0.179 A 
ENDROOT
BRANCH   1  12
ATOM     12  C   UNL     1      64.198  55.992  -7.420  1.00  0.00     0.018 A 
ATOM     13  C   UNL     1      62.924  58.064  -5.983  1.00  0.00     0.118 A 
ATOM     14  C   UNL     1      64.278  57.765  -5.748  1.00  0.00     0.047 A 
ATOM     15  C   UNL     1      62.220  57.329  -6.942  1.00  0.00     0.047 A 
ATOM     16  C   UNL     1      64.909  56.741  -6.463  1.00  0.00     0.016 A 
ATOM     17  C   UNL     1      62.849  56.307  -7.658  1.00  0.00     0.016 A 
BRANCH  13  18
ATOM     18  O   UNL     1      62.247  59.080  -5.291  1.00  0.00    -0.497 OA
ATOM     19  C   UNL     1      60.963  59.579  -5.650  1.00  0.00     0.278 C 
ENDBRANCH  13  18
ENDBRANCH   1  12
BRANCH   8  20
ATOM     20  O   UNL     1      62.322  52.845 -10.501  1.00  0.00    -0.490 OA
ATOM     21  C   UNL     1      61.648  53.659 -11.456  1.00  0.00     0.278 C 
ENDBRANCH   8  20
BRANCH  11  22
ATOM     22  O   UNL     1      67.795  51.530 -10.564  1.00  0.00    -0.492 OA
ATOM     23  C   UNL     1      68.591  51.863 -11.697  1.00  0.00     0.278 C 
ENDBRANCH  11  22
BRANCH   9  24
ATOM     24  O   UNL     1      63.222  50.651 -12.125  1.00  0.00    -0.490 OA
ATOM     25  C   UNL     1      62.423  49.534 -11.748  1.00  0.00     0.279 C 
ENDBRANCH   9  24
BRANCH  10  26
ATOM     26  O   UNL     1      65.984  49.872 -11.939  1.00  0.00    -0.490 OA
ATOM     27  C   UNL     1      66.021  48.581 -11.334  1.00  0.00     0.278 C 
ENDBRANCH  10  26
TORSDOF 6
ENDMDL
