MODEL 1
REMARK VINA RESULT:    -4.844      0.000      0.000
REMARK INTER + INTRA:          -5.798
REMARK INTER:                  -6.826
REMARK INTRA:                   1.029
REMARK UNBOUND:                 1.029
REMARK SMILES CC1=CCC(=C(C)C)C(=O)CC(C)=CCC1
REMARK SMILES IDX 12 1 14 2 13 3 15 4 16 5 2 6 1 7 3 8 11 10 9 11 10 12 5 13
REMARK SMILES IDX 6 14 7 15 8 16 4 17
REMARK H PARENT
REMARK Flexibility Score: 60.00
ROOT
ATOM      1  C   UNL     1      47.060   2.777  18.608  1.00  0.00    -0.070 C 
ATOM      2  C   UNL     1      47.299   2.021  17.511  1.00  0.00    -0.027 C 
ATOM      3  C   UNL     1      45.715   3.455  18.706  1.00  0.00     0.039 C 
ENDROOT
BRANCH   2   4
ATOM      4  C   UNL     1      48.602   1.344  17.158  1.00  0.00     0.032 C 
BRANCH   4   5
ATOM      5  C   UNL     1      49.089   1.701  15.741  1.00  0.00     0.034 C 
BRANCH   5   6
ATOM      6  C   UNL     1      49.748   3.065  15.689  1.00  0.00    -0.077 C 
ATOM      7  C   UNL     1      49.451   3.959  14.511  1.00  0.00     0.039 C 
ATOM      8  C   UNL     1      50.570   3.539  16.652  1.00  0.00    -0.023 CG0
ATOM      9  G   UNL     1      50.958   2.812  17.918  1.00  0.00     0.000 G0
ENDBRANCH   5   6
ENDBRANCH   4   5
ENDBRANCH   2   4
BRANCH   1  10
ATOM     10  C   UNL     1      48.087   3.031  19.699  1.00  0.00     0.111 C 
BRANCH  10  11
ATOM     11  C   UNL     1      49.139   4.016  19.254  1.00  0.00     0.163 C 
ATOM     12  O   UNL     1      48.782   5.204  19.026  1.00  0.00    -0.294 OA
BRANCH  11  13
ATOM     13  C   UNL     1      50.581   3.635  19.132  1.00  0.00    -0.002 C 
ATOM     14  C   UNL     1      51.517   4.063  20.034  1.00  0.00    -0.069 C 
ATOM     15  C   UNL     1      51.158   5.002  21.163  1.00  0.00     0.039 C 
ATOM     16  C   UNL     1      52.966   3.642  19.924  1.00  0.00     0.039 C 
BRANCH  13  17
ATOM     17  C   UNL     1      50.977   2.815  17.919  1.00  0.00     0.066 CG0
ATOM     18  G   UNL     1      50.587   3.546  16.655  1.00  0.00     0.000 G0
ENDBRANCH  13  17
ENDBRANCH  11  13
ENDBRANCH  10  11
ENDBRANCH   1  10
TORSDOF 0
ENDMDL
MODEL 2
REMARK VINA RESULT:    -4.669      1.610      3.295
REMARK INTER + INTRA:          -5.550
REMARK INTER:                  -6.246
REMARK INTRA:                   0.696
REMARK UNBOUND:                 1.029
REMARK SMILES CC1=CCC(=C(C)C)C(=O)CC(C)=CCC1
REMARK SMILES IDX 12 1 14 2 13 3 15 4 16 5 2 6 1 7 3 8 11 10 9 11 10 12 5 13
REMARK SMILES IDX 6 14 7 15 8 16 4 17
REMARK H PARENT
REMARK Flexibility Score: 60.00
ROOT
ATOM      1  C   UNL     1      49.719   2.731  16.423  1.00  0.00    -0.070 C 
ATOM      2  C   UNL     1      48.802   1.875  16.931  1.00  0.00    -0.027 C 
ATOM      3  C   UNL     1      49.568   3.134  14.977  1.00  0.00     0.039 C 
ENDROOT
BRANCH   2   4
ATOM      4  C   UNL     1      48.819   1.260  18.311  1.00  0.00     0.032 C 
BRANCH   4   5
ATOM      5  C   UNL     1      47.567   1.617  19.134  1.00  0.00     0.034 C 
BRANCH   5   6
ATOM      6  C   UNL     1      47.245   3.098  19.074  1.00  0.00    -0.077 C 
ATOM      7  C   UNL     1      45.885   3.515  18.573  1.00  0.00     0.039 C 
ATOM      8  C   UNL     1      48.099   4.068  19.469  1.00  0.00    -0.023 CG0
ATOM      9  G   UNL     1      49.484   3.850  20.030  1.00  0.00     0.000 G0
ENDBRANCH   5   6
ENDBRANCH   4   5
ENDBRANCH   2   4
BRANCH   1  10
ATOM     10  C   UNL     1      50.916   3.247  17.204  1.00  0.00     0.111 C 
BRANCH  10  11
ATOM     11  C   UNL     1      50.623   4.577  17.854  1.00  0.00     0.163 C 
ATOM     12  O   UNL     1      50.429   5.573  17.106  1.00  0.00    -0.294 OA
BRANCH  11  13
ATOM     13  C   UNL     1      50.507   4.725  19.339  1.00  0.00    -0.002 C 
ATOM     14  C   UNL     1      51.328   5.561  20.045  1.00  0.00    -0.069 C 
ATOM     15  C   UNL     1      52.445   6.327  19.373  1.00  0.00     0.039 C 
ATOM     16  C   UNL     1      51.179   5.733  21.540  1.00  0.00     0.039 C 
BRANCH  13  17
ATOM     17  C   UNL     1      49.487   3.848  20.041  1.00  0.00     0.066 CG0
ATOM     18  G   UNL     1      48.114   4.094  19.462  1.00  0.00     0.000 G0
ENDBRANCH  13  17
ENDBRANCH  11  13
ENDBRANCH  10  11
ENDBRANCH   1  10
TORSDOF 0
ENDMDL
MODEL 3
REMARK VINA RESULT:    -4.559      2.110      5.168
REMARK INTER + INTRA:          -5.395
REMARK INTER:                  -5.671
REMARK INTRA:                   0.276
REMARK UNBOUND:                 1.029
REMARK SMILES CC1=CCC(=C(C)C)C(=O)CC(C)=CCC1
REMARK SMILES IDX 12 1 14 2 13 3 15 4 16 5 2 6 1 7 3 8 11 10 9 11 10 12 5 13
REMARK SMILES IDX 6 14 7 15 8 16 4 17
REMARK H PARENT
REMARK Flexibility Score: 60.00
ROOT
ATOM      1  C   UNL     1      51.883   3.503  19.144  1.00  0.00    -0.070 C 
ATOM      2  C   UNL     1      51.916   4.448  20.112  1.00  0.00    -0.027 C 
ATOM      3  C   UNL     1      53.014   2.504  19.108  1.00  0.00     0.039 C 
ENDROOT
BRANCH   2   4
ATOM      4  C   UNL     1      50.954   5.602  20.268  1.00  0.00     0.032 C 
BRANCH   4   5
ATOM      5  C   UNL     1      49.609   5.171  20.884  1.00  0.00     0.034 C 
BRANCH   5   6
ATOM      6  C   UNL     1      48.428   5.589  20.030  1.00  0.00    -0.077 C 
ATOM      7  C   UNL     1      48.198   7.061  19.799  1.00  0.00     0.039 C 
ATOM      8  C   UNL     1      47.582   4.716  19.441  1.00  0.00    -0.023 CG0
ATOM      9  G   UNL     1      47.668   3.210  19.523  1.00  0.00     0.000 G0
ENDBRANCH   5   6
ENDBRANCH   4   5
ENDBRANCH   2   4
BRANCH   1  10
ATOM     10  C   UNL     1      50.817   3.437  18.063  1.00  0.00     0.111 C 
BRANCH  10  11
ATOM     11  C   UNL     1      49.798   2.362  18.353  1.00  0.00     0.163 C 
ATOM     12  O   UNL     1      50.217   1.230  18.718  1.00  0.00    -0.294 OA
BRANCH  11  13
ATOM     13  C   UNL     1      48.327   2.622  18.271  1.00  0.00    -0.002 C 
ATOM     14  C   UNL     1      47.625   2.425  17.114  1.00  0.00    -0.069 C 
ATOM     15  C   UNL     1      48.311   2.003  15.834  1.00  0.00     0.039 C 
ATOM     16  C   UNL     1      46.131   2.655  17.049  1.00  0.00     0.039 C 
BRANCH  13  17
ATOM     17  C   UNL     1      47.657   3.188  19.509  1.00  0.00     0.066 CG0
ATOM     18  G   UNL     1      47.599   4.695  19.417  1.00  0.00     0.000 G0
ENDBRANCH  13  17
ENDBRANCH  11  13
ENDBRANCH  10  11
ENDBRANCH   1  10
TORSDOF 0
ENDMDL
MODEL 4
REMARK VINA RESULT:    -4.502      1.500      4.002
REMARK INTER + INTRA:          -5.315
REMARK INTER:                  -6.558
REMARK INTRA:                   1.243
REMARK UNBOUND:                 1.029
REMARK SMILES CC1=CCC(=C(C)C)C(=O)CC(C)=CCC1
REMARK SMILES IDX 12 1 14 2 13 3 15 4 16 5 2 6 1 7 3 8 11 10 9 11 10 12 5 13
REMARK SMILES IDX 6 14 7 15 8 16 4 17
REMARK H PARENT
REMARK Flexibility Score: 60.00
ROOT
ATOM      1  C   UNL     1      47.389   2.999  18.855  1.00  0.00    -0.070 C 
ATOM      2  C   UNL     1      47.514   4.235  19.394  1.00  0.00    -0.027 C 
ATOM      3  C   UNL     1      46.213   2.753  17.942  1.00  0.00     0.039 C 
ENDROOT
BRANCH   2   4
ATOM      4  C   UNL     1      48.544   4.669  20.408  1.00  0.00     0.032 C 
BRANCH   4   5
ATOM      5  C   UNL     1      49.676   5.506  19.782  1.00  0.00     0.034 C 
BRANCH   5   6
ATOM      6  C   UNL     1      50.972   4.727  19.671  1.00  0.00    -0.077 C 
ATOM      7  C   UNL     1      51.857   4.633  20.888  1.00  0.00     0.039 C 
ATOM      8  C   UNL     1      51.369   4.087  18.548  1.00  0.00    -0.023 CG0
ATOM      9  G   UNL     1      50.606   4.035  17.245  1.00  0.00     0.000 G0
ENDBRANCH   5   6
ENDBRANCH   4   5
ENDBRANCH   2   4
BRANCH   1  10
ATOM     10  C   UNL     1      48.322   1.842  19.171  1.00  0.00     0.111 C 
BRANCH  10  11
ATOM     11  C   UNL     1      49.642   1.980  18.454  1.00  0.00     0.163 C 
ATOM     12  O   UNL     1      50.641   1.373  18.926  1.00  0.00    -0.294 OA
BRANCH  11  13
ATOM     13  C   UNL     1      49.777   2.764  17.186  1.00  0.00    -0.002 C 
ATOM     14  C   UNL     1      49.245   2.321  16.006  1.00  0.00    -0.069 C 
ATOM     15  C   UNL     1      48.554   0.980  15.903  1.00  0.00     0.039 C 
ATOM     16  C   UNL     1      49.354   3.137  14.738  1.00  0.00     0.039 C 
BRANCH  13  17
ATOM     17  C   UNL     1      50.597   4.039  17.248  1.00  0.00     0.066 CG0
ATOM     18  G   UNL     1      51.379   4.084  18.540  1.00  0.00     0.000 G0
ENDBRANCH  13  17
ENDBRANCH  11  13
ENDBRANCH  10  11
ENDBRANCH   1  10
TORSDOF 0
ENDMDL
MODEL 5
REMARK VINA RESULT:    -4.425      1.928      2.559
REMARK INTER + INTRA:          -5.208
REMARK INTER:                  -5.558
REMARK INTRA:                   0.351
REMARK UNBOUND:                 1.029
REMARK SMILES CC1=CCC(=C(C)C)C(=O)CC(C)=CCC1
REMARK SMILES IDX 12 1 14 2 13 3 15 4 16 5 2 6 1 7 3 8 11 10 9 11 10 12 5 13
REMARK SMILES IDX 6 14 7 15 8 16 4 17
REMARK H PARENT
REMARK Flexibility Score: 60.00
ROOT
ATOM      1  C   UNL     1      48.761   2.240  16.639  1.00  0.00    -0.070 C 
ATOM      2  C   UNL     1      48.828   2.345  15.291  1.00  0.00    -0.027 C 
ATOM      3  C   UNL     1      48.013   1.059  17.208  1.00  0.00     0.039 C 
ENDROOT
BRANCH   2   4
ATOM      4  C   UNL     1      49.428   3.492  14.513  1.00  0.00     0.032 C 
BRANCH   4   5
ATOM      5  C   UNL     1      50.969   3.473  14.524  1.00  0.00     0.034 C 
BRANCH   5   6
ATOM      6  C   UNL     1      51.554   4.785  15.012  1.00  0.00    -0.077 C 
ATOM      7  C   UNL     1      51.232   6.041  14.243  1.00  0.00     0.039 C 
ATOM      8  C   UNL     1      52.328   4.897  16.114  1.00  0.00    -0.023 CG0
ATOM      9  G   UNL     1      52.729   3.766  17.031  1.00  0.00     0.000 G0
ENDBRANCH   5   6
ENDBRANCH   4   5
ENDBRANCH   2   4
BRANCH   1  10
ATOM     10  C   UNL     1      49.333   3.272  17.597  1.00  0.00     0.111 C 
BRANCH  10  11
ATOM     11  C   UNL     1      50.651   2.821  18.177  1.00  0.00     0.163 C 
ATOM     12  O   UNL     1      50.751   1.625  18.563  1.00  0.00    -0.294 OA
BRANCH  11  13
ATOM     13  C   UNL     1      51.836   3.731  18.253  1.00  0.00    -0.002 C 
ATOM     14  C   UNL     1      52.056   4.538  19.335  1.00  0.00    -0.069 C 
ATOM     15  C   UNL     1      51.074   4.608  20.483  1.00  0.00     0.039 C 
ATOM     16  C   UNL     1      53.276   5.428  19.420  1.00  0.00     0.039 C 
BRANCH  13  17
ATOM     17  C   UNL     1      52.748   3.778  17.040  1.00  0.00     0.066 CG0
ATOM     18  G   UNL     1      52.336   4.914  16.133  1.00  0.00     0.000 G0
ENDBRANCH  13  17
ENDBRANCH  11  13
ENDBRANCH  10  11
ENDBRANCH   1  10
TORSDOF 0
ENDMDL
MODEL 6
REMARK VINA RESULT:    -4.383      1.799      3.633
REMARK INTER + INTRA:          -5.148
REMARK INTER:                  -5.510
REMARK INTRA:                   0.362
REMARK UNBOUND:                 1.029
REMARK SMILES CC1=CCC(=C(C)C)C(=O)CC(C)=CCC1
REMARK SMILES IDX 12 1 14 2 13 3 15 4 16 5 2 6 1 7 3 8 11 10 9 11 10 12 5 13
REMARK SMILES IDX 6 14 7 15 8 16 4 17
REMARK H PARENT
REMARK Flexibility Score: 60.00
ROOT
ATOM      1  C   UNL     1      50.521   3.692  14.581  1.00  0.00    -0.070 C 
ATOM      2  C   UNL     1      49.490   2.829  14.426  1.00  0.00    -0.027 C 
ATOM      3  C   UNL     1      51.668   3.588  13.606  1.00  0.00     0.039 C 
ENDROOT
BRANCH   2   4
ATOM      4  C   UNL     1      48.298   2.685  15.342  1.00  0.00     0.032 C 
BRANCH   4   5
ATOM      5  C   UNL     1      48.577   1.749  16.533  1.00  0.00     0.034 C 
BRANCH   5   6
ATOM      6  C   UNL     1      48.202   2.382  17.859  1.00  0.00    -0.077 C 
ATOM      7  C   UNL     1      46.739   2.518  18.199  1.00  0.00     0.039 C 
ATOM      8  C   UNL     1      49.106   2.811  18.768  1.00  0.00    -0.023 CG0
ATOM      9  G   UNL     1      50.608   2.728  18.627  1.00  0.00     0.000 G0
ENDBRANCH   5   6
ENDBRANCH   4   5
ENDBRANCH   2   4
BRANCH   1  10
ATOM     10  C   UNL     1      50.615   4.701  15.713  1.00  0.00     0.111 C 
BRANCH  10  11
ATOM     11  C   UNL     1      51.576   4.248  16.784  1.00  0.00     0.163 C 
ATOM     12  O   UNL     1      52.772   4.028  16.454  1.00  0.00    -0.294 OA
BRANCH  11  13
ATOM     13  C   UNL     1      51.160   4.109  18.215  1.00  0.00    -0.002 C 
ATOM     14  C   UNL     1      51.318   5.129  19.112  1.00  0.00    -0.069 C 
ATOM     15  C   UNL     1      51.988   6.429  18.724  1.00  0.00     0.039 C 
ATOM     16  C   UNL     1      50.862   4.994  20.548  1.00  0.00     0.039 C 
BRANCH  13  17
ATOM     17  C   UNL     1      50.625   2.758  18.650  1.00  0.00     0.066 CG0
ATOM     18  G   UNL     1      49.119   2.813  18.755  1.00  0.00     0.000 G0
ENDBRANCH  13  17
ENDBRANCH  11  13
ENDBRANCH  10  11
ENDBRANCH   1  10
TORSDOF 0
ENDMDL
MODEL 7
REMARK VINA RESULT:    -4.255      1.590      4.276
REMARK INTER + INTRA:          -4.968
REMARK INTER:                  -5.623
REMARK INTRA:                   0.655
REMARK UNBOUND:                 1.029
REMARK SMILES CC1=CCC(=C(C)C)C(=O)CC(C)=CCC1
REMARK SMILES IDX 12 1 14 2 13 3 15 4 16 5 2 6 1 7 3 8 11 10 9 11 10 12 5 13
REMARK SMILES IDX 6 14 7 15 8 16 4 17
REMARK H PARENT
REMARK Flexibility Score: 60.00
ROOT
ATOM      1  C   UNL     1      50.637   5.011  20.239  1.00  0.00    -0.070 C 
ATOM      2  C   UNL     1      49.404   4.875  20.782  1.00  0.00    -0.027 C 
ATOM      3  C   UNL     1      51.776   5.341  21.173  1.00  0.00     0.039 C 
ENDROOT
BRANCH   2   4
ATOM      4  C   UNL     1      48.115   4.654  20.029  1.00  0.00     0.032 C 
BRANCH   4   5
ATOM      5  C   UNL     1      47.749   3.162  19.906  1.00  0.00     0.034 C 
BRANCH   5   6
ATOM      6  C   UNL     1      47.161   2.826  18.550  1.00  0.00    -0.077 C 
ATOM      7  C   UNL     1      45.736   3.231  18.267  1.00  0.00     0.039 C 
ATOM      8  C   UNL     1      47.850   2.206  17.566  1.00  0.00    -0.023 CG0
ATOM      9  G   UNL     1      49.291   1.758  17.644  1.00  0.00     0.000 G0
ENDBRANCH   5   6
ENDBRANCH   4   5
ENDBRANCH   2   4
BRANCH   1  10
ATOM     10  C   UNL     1      50.918   4.917  18.749  1.00  0.00     0.111 C 
BRANCH  10  11
ATOM     11  C   UNL     1      51.089   3.485  18.305  1.00  0.00     0.163 C 
ATOM     12  O   UNL     1      51.949   2.779  18.898  1.00  0.00    -0.294 OA
BRANCH  11  13
ATOM     13  C   UNL     1      50.239   2.880  17.233  1.00  0.00    -0.002 C 
ATOM     14  C   UNL     1      50.251   3.356  15.951  1.00  0.00    -0.069 C 
ATOM     15  C   UNL     1      51.071   4.566  15.563  1.00  0.00     0.039 C 
ATOM     16  C   UNL     1      49.416   2.716  14.865  1.00  0.00     0.039 C 
BRANCH  13  17
ATOM     17  C   UNL     1      49.301   1.762  17.646  1.00  0.00     0.066 CG0
ATOM     18  G   UNL     1      47.869   2.239  17.575  1.00  0.00     0.000 G0
ENDBRANCH  13  17
ENDBRANCH  11  13
ENDBRANCH  10  11
ENDBRANCH   1  10
TORSDOF 0
ENDMDL
MODEL 8
REMARK VINA RESULT:    -4.071      2.276      4.040
REMARK INTER + INTRA:          -4.709
REMARK INTER:                  -5.029
REMARK INTRA:                   0.320
REMARK UNBOUND:                 1.029
REMARK SMILES CC1=CCC(=C(C)C)C(=O)CC(C)=CCC1
REMARK SMILES IDX 12 1 14 2 13 3 15 4 16 5 2 6 1 7 3 8 11 10 9 11 10 12 5 13
REMARK SMILES IDX 6 14 7 15 8 16 4 17
REMARK H PARENT
REMARK Flexibility Score: 60.00
ROOT
ATOM      1  C   UNL     1      48.948   2.335  18.335  1.00  0.00    -0.070 C 
ATOM      2  C   UNL     1      48.217   2.901  19.323  1.00  0.00    -0.027 C 
ATOM      3  C   UNL     1      48.283   1.267  17.502  1.00  0.00     0.039 C 
ENDROOT
BRANCH   2   4
ATOM      4  C   UNL     1      48.710   3.905  20.338  1.00  0.00     0.032 C 
BRANCH   4   5
ATOM      5  C   UNL     1      48.812   5.330  19.761  1.00  0.00     0.034 C 
BRANCH   5   6
ATOM      6  C   UNL     1      50.174   5.950  20.001  1.00  0.00    -0.077 C 
ATOM      7  C   UNL     1      50.619   6.171  21.425  1.00  0.00     0.039 C 
ATOM      8  C   UNL     1      51.028   6.292  19.010  1.00  0.00    -0.023 CG0
ATOM      9  G   UNL     1      50.779   6.116  17.531  1.00  0.00     0.000 G0
ENDBRANCH   5   6
ENDBRANCH   4   5
ENDBRANCH   2   4
BRANCH   1  10
ATOM     10  C   UNL     1      50.407   2.665  18.068  1.00  0.00     0.111 C 
BRANCH  10  11
ATOM     11  C   UNL     1      50.556   3.635  16.922  1.00  0.00     0.163 C 
ATOM     12  O   UNL     1      49.881   3.428  15.877  1.00  0.00    -0.294 OA
BRANCH  11  13
ATOM     13  C   UNL     1      51.431   4.845  17.016  1.00  0.00    -0.002 C 
ATOM     14  C   UNL     1      52.766   4.792  16.725  1.00  0.00    -0.069 C 
ATOM     15  C   UNL     1      53.447   3.492  16.362  1.00  0.00     0.039 C 
ATOM     16  C   UNL     1      53.636   6.028  16.788  1.00  0.00     0.039 C 
BRANCH  13  17
ATOM     17  C   UNL     1      50.788   6.122  17.524  1.00  0.00     0.066 CG0
ATOM     18  G   UNL     1      51.021   6.259  19.010  1.00  0.00     0.000 G0
ENDBRANCH  13  17
ENDBRANCH  11  13
ENDBRANCH  10  11
ENDBRANCH   1  10
TORSDOF 0
ENDMDL
MODEL 9
REMARK VINA RESULT:    -3.965      1.463      4.173
REMARK INTER + INTRA:          -4.560
REMARK INTER:                  -5.380
REMARK INTRA:                   0.820
REMARK UNBOUND:                 1.029
REMARK SMILES CC1=CCC(=C(C)C)C(=O)CC(C)=CCC1
REMARK SMILES IDX 12 1 14 2 13 3 15 4 16 5 2 6 1 7 3 8 11 10 9 11 10 12 5 13
REMARK SMILES IDX 6 14 7 15 8 16 4 17
REMARK H PARENT
REMARK Flexibility Score: 60.00
ROOT
ATOM      1  C   UNL     1      50.613   5.566  20.959  1.00  0.00    -0.070 C 
ATOM      2  C   UNL     1      51.930   5.300  20.803  1.00  0.00    -0.027 C 
ATOM      3  C   UNL     1      50.222   6.995  21.250  1.00  0.00     0.039 C 
ENDROOT
BRANCH   2   4
ATOM      4  C   UNL     1      52.550   3.936  20.614  1.00  0.00     0.032 C 
BRANCH   4   5
ATOM      5  C   UNL     1      53.101   3.729  19.190  1.00  0.00     0.034 C 
BRANCH   5   6
ATOM      6  C   UNL     1      52.295   4.480  18.149  1.00  0.00    -0.077 C 
ATOM      7  C   UNL     1      52.890   5.726  17.544  1.00  0.00     0.039 C 
ATOM      8  C   UNL     1      51.079   4.082  17.710  1.00  0.00    -0.023 CG0
ATOM      9  G   UNL     1      50.337   2.848  18.166  1.00  0.00     0.000 G0
ENDBRANCH   5   6
ENDBRANCH   4   5
ENDBRANCH   2   4
BRANCH   1  10
ATOM     10  C   UNL     1      49.526   4.505  20.923  1.00  0.00     0.111 C 
BRANCH  10  11
ATOM     11  C   UNL     1      48.857   4.439  19.572  1.00  0.00     0.163 C 
ATOM     12  O   UNL     1      48.241   5.461  19.164  1.00  0.00    -0.294 OA
BRANCH  11  13
ATOM     13  C   UNL     1      48.954   3.229  18.698  1.00  0.00    -0.002 C 
ATOM     14  C   UNL     1      47.864   2.451  18.422  1.00  0.00    -0.069 C 
ATOM     15  C   UNL     1      46.514   2.730  19.045  1.00  0.00     0.039 C 
ATOM     16  C   UNL     1      47.963   1.250  17.508  1.00  0.00     0.039 C 
BRANCH  13  17
ATOM     17  C   UNL     1      50.334   2.855  18.189  1.00  0.00     0.066 CG0
ATOM     18  G   UNL     1      51.065   4.095  17.730  1.00  0.00     0.000 G0
ENDBRANCH  13  17
ENDBRANCH  11  13
ENDBRANCH  10  11
ENDBRANCH   1  10
TORSDOF 0
ENDMDL
