MODEL 1
REMARK VINA RESULT:    -1.166      0.000      0.000
REMARK INTER + INTRA:          -1.893
REMARK INTER:                  -1.439
REMARK INTRA:                  -0.455
REMARK UNBOUND:                -0.455
REMARK SMILES CC(C)=CCC[C@@H](C)c1ccc(C)cc1
REMARK SMILES IDX 6 1 7 2 8 3 9 4 13 5 12 6 11 7 14 8 10 9 15 10 5 11 4 12
REMARK SMILES IDX 2 13 1 14 3 15
REMARK H PARENT
REMARK Flexibility Score: inf
ROOT
ATOM      1  C   UNL     1      19.975 -16.053  21.612  1.00  0.00     0.012 C 
ENDROOT
BRANCH   1   2
ATOM      2  C   UNL     1      20.344 -14.875  20.681  1.00  0.00     0.016 C 
ATOM      3  C   UNL     1      21.827 -14.895  20.276  1.00  0.00     0.013 C 
BRANCH   2   4
ATOM      4  C   UNL     1      19.462 -14.883  19.444  1.00  0.00    -0.045 A 
ATOM      5  C   UNL     1      16.926 -14.946  15.948  1.00  0.00     0.044 C 
ATOM      6  C   UNL     1      17.806 -14.893  17.161  1.00  0.00    -0.051 A 
ATOM      7  C   UNL     1      17.242 -14.897  18.445  1.00  0.00     0.004 A 
ATOM      8  C   UNL     1      19.202 -14.910  17.023  1.00  0.00     0.004 A 
ATOM      9  C   UNL     1      18.062 -14.886  19.577  1.00  0.00     0.004 A 
ATOM     10  C   UNL     1      20.023 -14.899  18.153  1.00  0.00     0.004 A 
ENDBRANCH   2   4
ENDBRANCH   1   2
BRANCH   1  11
ATOM     11  C   UNL     1      19.123 -15.612  22.812  1.00  0.00     0.028 C 
BRANCH  11  12
ATOM     12  C   UNL     1      17.972 -16.563  23.025  1.00  0.00    -0.028 C 
ATOM     13  C   UNL     1      18.093 -17.802  23.555  1.00  0.00    -0.080 C 
ATOM     14  C   UNL     1      19.412 -18.332  24.062  1.00  0.00     0.039 C 
ATOM     15  C   UNL     1      16.876 -18.678  23.698  1.00  0.00     0.039 C 
ENDBRANCH  11  12
ENDBRANCH   1  11
TORSDOF 4
ENDMDL
