MODEL 1
REMARK VINA RESULT:    -1.657      0.000      0.000
REMARK INTER + INTRA:          -3.082
REMARK INTER:                  -2.917
REMARK INTRA:                  -0.165
REMARK UNBOUND:                -0.165
REMARK SMILES CCCCCCC=CCCCCCCCC(=O)[O-]
REMARK SMILES IDX 10 1 11 2 12 3 13 4 14 5 15 6 16 7 17 8 18 9 9 10 8 11 7 12
REMARK SMILES IDX 6 13 5 14 4 15 3 16 2 17 1 18
REMARK H PARENT
REMARK Flexibility Score: inf
ROOT
ATOM      1  C   UNL     1      15.770  12.759  37.960  1.00  0.00     0.004 C 
ENDROOT
BRANCH   1   2
ATOM      2  C   UNL     1      14.346  12.557  37.411  1.00  0.00     0.000 C 
BRANCH   2   3
ATOM      3  C   UNL     1      13.788  13.820  36.738  1.00  0.00     0.000 C 
BRANCH   3   4
ATOM      4  C   UNL     1      14.428  14.088  35.364  1.00  0.00     0.000 C 
BRANCH   4   5
ATOM      5  C   UNL     1      13.484  13.757  34.198  1.00  0.00     0.006 C 
BRANCH   5   6
ATOM      6  C   UNL     1      14.027  12.639  33.298  1.00  0.00     0.053 C 
BRANCH   6   7
ATOM      7  C   UNL     1      13.619  11.299  33.825  1.00  0.00     0.041 C 
ATOM      8  O   UNL     1      13.243  11.176  35.020  1.00  0.00    -0.550 OA
ATOM      9  O   UNL     1      13.703  10.177  33.011  1.00  0.00    -0.550 OA
ENDBRANCH   6   7
ENDBRANCH   5   6
ENDBRANCH   4   5
ENDBRANCH   3   4
ENDBRANCH   2   3
ENDBRANCH   1   2
BRANCH   1  10
ATOM     10  C   UNL     1      15.920  14.102  38.690  1.00  0.00     0.027 C 
BRANCH  10  11
ATOM     11  C   UNL     1      15.251  14.093  40.042  1.00  0.00    -0.031 C 
ATOM     12  C   UNL     1      15.735  13.482  41.139  1.00  0.00    -0.031 C 
BRANCH  12  13
ATOM     13  C   UNL     1      17.001  12.658  41.191  1.00  0.00     0.027 C 
BRANCH  13  14
ATOM     14  C   UNL     1      18.130  13.413  41.910  1.00  0.00     0.004 C 
BRANCH  14  15
ATOM     15  C   UNL     1      18.522  12.790  43.263  1.00  0.00     0.000 C 
BRANCH  15  16
ATOM     16  C   UNL     1      19.378  13.741  44.120  1.00  0.00    -0.000 C 
BRANCH  16  17
ATOM     17  C   UNL     1      20.697  14.124  43.434  1.00  0.00    -0.003 C 
ATOM     18  C   UNL     1      21.917  13.476  44.090  1.00  0.00     0.004 C 
ENDBRANCH  16  17
ENDBRANCH  15  16
ENDBRANCH  14  15
ENDBRANCH  13  14
ENDBRANCH  12  13
ENDBRANCH  10  11
ENDBRANCH   1  10
TORSDOF 13
ENDMDL
MODEL 2
REMARK VINA RESULT:    -1.304      4.044      9.075
REMARK INTER + INTRA:          -2.460
REMARK INTER:                  -2.873
REMARK INTRA:                   0.413
REMARK UNBOUND:                -0.165
REMARK SMILES CCCCCCC=CCCCCCCCC(=O)[O-]
REMARK SMILES IDX 10 1 11 2 12 3 13 4 14 5 15 6 16 7 17 8 18 9 9 10 8 11 7 12
REMARK SMILES IDX 6 13 5 14 4 15 3 16 2 17 1 18
REMARK H PARENT
REMARK Flexibility Score: inf
ROOT
ATOM      1  C   UNL     1      16.901  12.767  38.854  1.00  0.00     0.004 C 
ENDROOT
BRANCH   1   2
ATOM      2  C   UNL     1      15.936  12.527  40.028  1.00  0.00     0.000 C 
BRANCH   2   3
ATOM      3  C   UNL     1      15.637  13.811  40.818  1.00  0.00     0.000 C 
BRANCH   3   4
ATOM      4  C   UNL     1      16.719  14.124  41.866  1.00  0.00     0.000 C 
BRANCH   4   5
ATOM      5  C   UNL     1      18.034  13.374  41.599  1.00  0.00     0.006 C 
BRANCH   5   6
ATOM      6  C   UNL     1      19.252  14.086  42.204  1.00  0.00     0.053 C 
BRANCH   6   7
ATOM      7  C   UNL     1      19.630  13.458  43.508  1.00  0.00     0.041 C 
ATOM      8  O   UNL     1      20.748  13.706  44.030  1.00  0.00    -0.550 OA
ATOM      9  O   UNL     1      18.767  12.559  44.122  1.00  0.00    -0.550 OA
ENDBRANCH   6   7
ENDBRANCH   5   6
ENDBRANCH   4   5
ENDBRANCH   3   4
ENDBRANCH   2   3
ENDBRANCH   1   2
BRANCH   1  10
ATOM     10  C   UNL     1      16.159  13.183  37.575  1.00  0.00     0.027 C 
BRANCH  10  11
ATOM     11  C   UNL     1      14.661  13.079  37.726  1.00  0.00    -0.031 C 
ATOM     12  C   UNL     1      13.842  12.438  36.871  1.00  0.00    -0.031 C 
BRANCH  12  13
ATOM     13  C   UNL     1      14.274  11.762  35.591  1.00  0.00     0.027 C 
BRANCH  13  14
ATOM     14  C   UNL     1      14.697  12.790  34.530  1.00  0.00     0.004 C 
BRANCH  14  15
ATOM     15  C   UNL     1      13.934  14.125  34.629  1.00  0.00     0.000 C 
BRANCH  15  16
ATOM     16  C   UNL     1      12.433  13.966  34.329  1.00  0.00    -0.000 C 
BRANCH  16  17
ATOM     17  C   UNL     1      12.119  14.070  32.830  1.00  0.00    -0.003 C 
ATOM     18  C   UNL     1      13.377  14.124  31.963  1.00  0.00     0.004 C 
ENDBRANCH  16  17
ENDBRANCH  15  16
ENDBRANCH  14  15
ENDBRANCH  13  14
ENDBRANCH  12  13
ENDBRANCH  10  11
ENDBRANCH   1  10
TORSDOF 13
ENDMDL
MODEL 3
REMARK VINA RESULT:    -1.050      1.715      3.019
REMARK INTER + INTRA:          -2.012
REMARK INTER:                  -2.692
REMARK INTRA:                   0.680
REMARK UNBOUND:                -0.165
REMARK SMILES CCCCCCC=CCCCCCCCC(=O)[O-]
REMARK SMILES IDX 10 1 11 2 12 3 13 4 14 5 15 6 16 7 17 8 18 9 9 10 8 11 7 12
REMARK SMILES IDX 6 13 5 14 4 15 3 16 2 17 1 18
REMARK H PARENT
REMARK Flexibility Score: inf
ROOT
ATOM      1  C   UNL     1      13.924  10.798  36.522  1.00  0.00     0.004 C 
ENDROOT
BRANCH   1   2
ATOM      2  C   UNL     1      14.740  11.039  35.239  1.00  0.00     0.000 C 
BRANCH   2   3
ATOM      3  C   UNL     1      13.906  11.683  34.122  1.00  0.00     0.000 C 
BRANCH   3   4
ATOM      4  C   UNL     1      14.778  12.377  33.060  1.00  0.00     0.000 C 
BRANCH   4   5
ATOM      5  C   UNL     1      14.454  13.872  32.915  1.00  0.00     0.006 C 
BRANCH   5   6
ATOM      6  C   UNL     1      12.988  14.125  32.537  1.00  0.00     0.053 C 
BRANCH   6   7
ATOM      7  C   UNL     1      12.123  14.100  33.757  1.00  0.00     0.041 C 
ATOM      8  O   UNL     1      10.869  14.120  33.644  1.00  0.00    -0.550 OA
ATOM      9  O   UNL     1      12.701  14.105  35.019  1.00  0.00    -0.550 OA
ENDBRANCH   6   7
ENDBRANCH   5   6
ENDBRANCH   4   5
ENDBRANCH   3   4
ENDBRANCH   2   3
ENDBRANCH   1   2
BRANCH   1  10
ATOM     10  C   UNL     1      14.239  11.836  37.609  1.00  0.00     0.027 C 
BRANCH  10  11
ATOM     11  C   UNL     1      14.714  13.144  37.025  1.00  0.00    -0.031 C 
ATOM     12  C   UNL     1      15.341  14.115  37.715  1.00  0.00    -0.031 C 
BRANCH  12  13
ATOM     13  C   UNL     1      15.631  14.083  39.198  1.00  0.00     0.027 C 
BRANCH  13  14
ATOM     14  C   UNL     1      16.652  12.989  39.545  1.00  0.00     0.004 C 
BRANCH  14  15
ATOM     15  C   UNL     1      16.955  12.887  41.052  1.00  0.00     0.000 C 
BRANCH  15  16
ATOM     16  C   UNL     1      18.313  13.512  41.420  1.00  0.00    -0.000 C 
BRANCH  16  17
ATOM     17  C   UNL     1      18.385  13.936  42.894  1.00  0.00    -0.003 C 
ATOM     18  C   UNL     1      19.607  13.367  43.616  1.00  0.00     0.004 C 
ENDBRANCH  16  17
ENDBRANCH  15  16
ENDBRANCH  14  15
ENDBRANCH  13  14
ENDBRANCH  12  13
ENDBRANCH  10  11
ENDBRANCH   1  10
TORSDOF 13
ENDMDL
MODEL 4
REMARK VINA RESULT:    -1.047      3.942      9.736
REMARK INTER + INTRA:          -2.008
REMARK INTER:                  -1.220
REMARK INTRA:                  -0.788
REMARK UNBOUND:                -0.165
REMARK SMILES CCCCCCC=CCCCCCCCC(=O)[O-]
REMARK SMILES IDX 10 1 11 2 12 3 13 4 14 5 15 6 16 7 17 8 18 9 9 10 8 11 7 12
REMARK SMILES IDX 6 13 5 14 4 15 3 16 2 17 1 18
REMARK H PARENT
REMARK Flexibility Score: inf
ROOT
ATOM      1  C   UNL     1      15.941  13.957  37.700  1.00  0.00     0.004 C 
ENDROOT
BRANCH   1   2
ATOM      2  C   UNL     1      15.452  13.049  38.842  1.00  0.00     0.000 C 
BRANCH   2   3
ATOM      3  C   UNL     1      14.898  13.845  40.034  1.00  0.00     0.000 C 
BRANCH   3   4
ATOM      4  C   UNL     1      15.967  14.125  41.104  1.00  0.00     0.000 C 
BRANCH   4   5
ATOM      5  C   UNL     1      17.258  13.324  40.873  1.00  0.00     0.006 C 
BRANCH   5   6
ATOM      6  C   UNL     1      18.513  14.085  41.321  1.00  0.00     0.053 C 
BRANCH   6   7
ATOM      7  C   UNL     1      19.046  13.510  42.595  1.00  0.00     0.041 C 
ATOM      8  O   UNL     1      20.089  13.984  43.116  1.00  0.00    -0.550 OA
ATOM      9  O   UNL     1      18.418  12.419  43.181  1.00  0.00    -0.550 OA
ENDBRANCH   6   7
ENDBRANCH   5   6
ENDBRANCH   4   5
ENDBRANCH   3   4
ENDBRANCH   2   3
ENDBRANCH   1   2
BRANCH   1  10
ATOM     10  C   UNL     1      15.014  13.896  36.478  1.00  0.00     0.027 C 
BRANCH  10  11
ATOM     11  C   UNL     1      13.910  12.882  36.651  1.00  0.00    -0.031 C 
ATOM     12  C   UNL     1      13.425  12.094  35.673  1.00  0.00    -0.031 C 
BRANCH  12  13
ATOM     13  C   UNL     1      13.864  12.128  34.227  1.00  0.00     0.027 C 
BRANCH  13  14
ATOM     14  C   UNL     1      12.676  12.379  33.287  1.00  0.00     0.004 C 
BRANCH  14  15
ATOM     15  C   UNL     1      12.308  13.868  33.145  1.00  0.00     0.000 C 
BRANCH  15  16
ATOM     16  C   UNL     1      11.343  14.124  31.973  1.00  0.00    -0.000 C 
BRANCH  16  17
ATOM     17  C   UNL     1      12.044  14.061  30.609  1.00  0.00    -0.003 C 
ATOM     18  C   UNL     1      11.093  13.690  29.470  1.00  0.00     0.004 C 
ENDBRANCH  16  17
ENDBRANCH  15  16
ENDBRANCH  14  15
ENDBRANCH  13  14
ENDBRANCH  12  13
ENDBRANCH  10  11
ENDBRANCH   1  10
TORSDOF 13
ENDMDL
MODEL 5
REMARK VINA RESULT:     0.035      4.003      9.304
REMARK INTER + INTRA:          -0.102
REMARK INTER:                   0.690
REMARK INTRA:                  -0.792
REMARK UNBOUND:                -0.165
REMARK SMILES CCCCCCC=CCCCCCCCC(=O)[O-]
REMARK SMILES IDX 10 1 11 2 12 3 13 4 14 5 15 6 16 7 17 8 18 9 9 10 8 11 7 12
REMARK SMILES IDX 6 13 5 14 4 15 3 16 2 17 1 18
REMARK H PARENT
REMARK Flexibility Score: inf
ROOT
ATOM      1  C   UNL     1      16.220  13.345  37.879  1.00  0.00     0.004 C 
ENDROOT
BRANCH   1   2
ATOM      2  C   UNL     1      16.417  12.928  39.347  1.00  0.00     0.000 C 
BRANCH   2   3
ATOM      3  C   UNL     1      15.901  13.985  40.335  1.00  0.00     0.000 C 
BRANCH   3   4
ATOM      4  C   UNL     1      16.741  14.047  41.624  1.00  0.00     0.000 C 
BRANCH   4   5
ATOM      5  C   UNL     1      18.062  13.271  41.506  1.00  0.00     0.006 C 
BRANCH   5   6
ATOM      6  C   UNL     1      19.259  14.055  42.059  1.00  0.00     0.053 C 
BRANCH   6   7
ATOM      7  C   UNL     1      19.588  13.598  43.445  1.00  0.00     0.041 C 
ATOM      8  O   UNL     1      20.543  14.122  44.075  1.00  0.00    -0.550 OA
ATOM      9  O   UNL     1      18.870  12.558  44.022  1.00  0.00    -0.550 OA
ENDBRANCH   6   7
ENDBRANCH   5   6
ENDBRANCH   4   5
ENDBRANCH   3   4
ENDBRANCH   2   3
ENDBRANCH   1   2
BRANCH   1  10
ATOM     10  C   UNL     1      14.793  13.844  37.608  1.00  0.00     0.027 C 
BRANCH  10  11
ATOM     11  C   UNL     1      13.916  12.766  37.019  1.00  0.00    -0.031 C 
ATOM     12  C   UNL     1      13.211  12.881  35.878  1.00  0.00    -0.031 C 
BRANCH  12  13
ATOM     13  C   UNL     1      13.136  14.125  35.022  1.00  0.00     0.027 C 
BRANCH  13  14
ATOM     14  C   UNL     1      14.102  14.042  33.830  1.00  0.00     0.004 C 
BRANCH  14  15
ATOM     15  C   UNL     1      13.713  12.967  32.797  1.00  0.00     0.000 C 
BRANCH  15  16
ATOM     16  C   UNL     1      14.489  11.653  32.998  1.00  0.00    -0.000 C 
BRANCH  16  17
ATOM     17  C   UNL     1      13.562  10.457  33.256  1.00  0.00    -0.003 C 
ATOM     18  C   UNL     1      13.223   9.683  31.982  1.00  0.00     0.004 C 
ENDBRANCH  16  17
ENDBRANCH  15  16
ENDBRANCH  14  15
ENDBRANCH  13  14
ENDBRANCH  12  13
ENDBRANCH  10  11
ENDBRANCH   1  10
TORSDOF 13
ENDMDL
MODEL 6
REMARK VINA RESULT:     0.315      1.925      2.573
REMARK INTER + INTRA:           0.390
REMARK INTER:                   0.062
REMARK INTRA:                   0.328
REMARK UNBOUND:                -0.165
REMARK SMILES CCCCCCC=CCCCCCCCC(=O)[O-]
REMARK SMILES IDX 10 1 11 2 12 3 13 4 14 5 15 6 16 7 17 8 18 9 9 10 8 11 7 12
REMARK SMILES IDX 6 13 5 14 4 15 3 16 2 17 1 18
REMARK H PARENT
REMARK Flexibility Score: inf
ROOT
ATOM      1  C   UNL     1      14.884  13.293  37.534  1.00  0.00     0.004 C 
ENDROOT
BRANCH   1   2
ATOM      2  C   UNL     1      15.254  11.807  37.385  1.00  0.00     0.000 C 
BRANCH   2   3
ATOM      3  C   UNL     1      14.081  10.955  36.877  1.00  0.00     0.000 C 
BRANCH   3   4
ATOM      4  C   UNL     1      14.151  10.698  35.361  1.00  0.00     0.000 C 
BRANCH   4   5
ATOM      5  C   UNL     1      14.179  11.999  34.543  1.00  0.00     0.006 C 
BRANCH   5   6
ATOM      6  C   UNL     1      12.781  12.444  34.093  1.00  0.00     0.053 C 
BRANCH   6   7
ATOM      7  C   UNL     1      12.881  13.571  33.115  1.00  0.00     0.041 C 
ATOM      8  O   UNL     1      11.852  13.990  32.523  1.00  0.00    -0.550 OA
ATOM      9  O   UNL     1      14.119  14.125  32.817  1.00  0.00    -0.550 OA
ENDBRANCH   6   7
ENDBRANCH   5   6
ENDBRANCH   4   5
ENDBRANCH   3   4
ENDBRANCH   2   3
ENDBRANCH   1   2
BRANCH   1  10
ATOM     10  C   UNL     1      13.429  13.482  37.990  1.00  0.00     0.027 C 
BRANCH  10  11
ATOM     11  C   UNL     1      13.339  14.120  39.355  1.00  0.00    -0.031 C 
ATOM     12  C   UNL     1      14.321  14.114  40.276  1.00  0.00    -0.031 C 
BRANCH  12  13
ATOM     13  C   UNL     1      15.658  13.425  40.121  1.00  0.00     0.027 C 
BRANCH  13  14
ATOM     14  C   UNL     1      16.727  14.072  41.015  1.00  0.00     0.004 C 
BRANCH  14  15
ATOM     15  C   UNL     1      18.166  13.856  40.507  1.00  0.00     0.000 C 
BRANCH  15  16
ATOM     16  C   UNL     1      19.074  13.219  41.575  1.00  0.00    -0.000 C 
BRANCH  16  17
ATOM     17  C   UNL     1      19.009  13.959  42.918  1.00  0.00    -0.003 C 
ATOM     18  C   UNL     1      18.372  13.121  44.027  1.00  0.00     0.004 C 
ENDBRANCH  16  17
ENDBRANCH  15  16
ENDBRANCH  14  15
ENDBRANCH  13  14
ENDBRANCH  12  13
ENDBRANCH  10  11
ENDBRANCH   1  10
TORSDOF 13
ENDMDL
MODEL 7
REMARK VINA RESULT:     0.996      4.165      9.154
REMARK INTER + INTRA:           1.588
REMARK INTER:                   0.463
REMARK INTRA:                   1.124
REMARK UNBOUND:                -0.165
REMARK SMILES CCCCCCC=CCCCCCCCC(=O)[O-]
REMARK SMILES IDX 10 1 11 2 12 3 13 4 14 5 15 6 16 7 17 8 18 9 9 10 8 11 7 12
REMARK SMILES IDX 6 13 5 14 4 15 3 16 2 17 1 18
REMARK H PARENT
REMARK Flexibility Score: inf
ROOT
ATOM      1  C   UNL     1      16.691  12.229  38.811  1.00  0.00     0.004 C 
ENDROOT
BRANCH   1   2
ATOM      2  C   UNL     1      17.547  12.753  39.977  1.00  0.00     0.000 C 
BRANCH   2   3
ATOM      3  C   UNL     1      17.039  12.272  41.345  1.00  0.00     0.000 C 
BRANCH   3   4
ATOM      4  C   UNL     1      16.864  13.426  42.348  1.00  0.00     0.000 C 
BRANCH   4   5
ATOM      5  C   UNL     1      18.193  14.121  42.686  1.00  0.00     0.006 C 
BRANCH   5   6
ATOM      6  C   UNL     1      18.657  13.840  44.121  1.00  0.00     0.053 C 
BRANCH   6   7
ATOM      7  C   UNL     1      19.911  13.024  44.115  1.00  0.00     0.041 C 
ATOM      8  O   UNL     1      21.035  13.590  44.097  1.00  0.00    -0.550 OA
ATOM      9  O   UNL     1      19.837  11.638  44.076  1.00  0.00    -0.550 OA
ENDBRANCH   6   7
ENDBRANCH   5   6
ENDBRANCH   4   5
ENDBRANCH   3   4
ENDBRANCH   2   3
ENDBRANCH   1   2
BRANCH   1  10
ATOM     10  C   UNL     1      16.411  13.319  37.766  1.00  0.00     0.027 C 
BRANCH  10  11
ATOM     11  C   UNL     1      15.178  14.123  38.099  1.00  0.00    -0.031 C 
ATOM     12  C   UNL     1      14.020  14.080  37.414  1.00  0.00    -0.031 C 
BRANCH  12  13
ATOM     13  C   UNL     1      13.775  13.262  36.167  1.00  0.00     0.027 C 
BRANCH  13  14
ATOM     14  C   UNL     1      14.422  11.872  36.273  1.00  0.00     0.004 C 
BRANCH  14  15
ATOM     15  C   UNL     1      14.105  10.953  35.078  1.00  0.00     0.000 C 
BRANCH  15  16
ATOM     16  C   UNL     1      13.084  11.580  34.112  1.00  0.00    -0.000 C 
BRANCH  16  17
ATOM     17  C   UNL     1      13.505  12.977  33.636  1.00  0.00    -0.003 C 
ATOM     18  C   UNL     1      12.391  13.710  32.889  1.00  0.00     0.004 C 
ENDBRANCH  16  17
ENDBRANCH  15  16
ENDBRANCH  14  15
ENDBRANCH  13  14
ENDBRANCH  12  13
ENDBRANCH  10  11
ENDBRANCH   1  10
TORSDOF 13
ENDMDL
