MODEL 1
REMARK VINA RESULT:    49.764      0.000      0.000
REMARK INTER + INTRA:          60.391
REMARK INTER:                  59.947
REMARK INTRA:                   0.444
REMARK UNBOUND:                 0.444
REMARK SMILES O=c1c(O)c(-c2ccc(O)c(O)c2)oc2cc(O)cc(O)c12
REMARK SMILES IDX 5 1 3 2 2 3 1 4 22 5 20 6 19 7 17 8 16 9 15 10 14 11 6 12
REMARK SMILES IDX 7 13 8 14 9 15 13 16 11 17 10 18 12 20 4 22 21 24 18 26
REMARK H PARENT 10 19 12 21 4 23 21 25 18 27
REMARK Flexibility Score: inf
ROOT
ATOM      1  C   UNL     1     -30.842  28.594 -17.540  1.00  0.00     0.180 A 
ATOM      2  C   UNL     1     -31.480  29.164 -16.426  1.00  0.00     0.208 A 
ATOM      3  C   UNL     1     -31.436  28.488 -15.196  1.00  0.00     0.238 A 
ATOM      4  O   UNL     1     -32.072  28.968 -14.222  1.00  0.00    -0.285 OA
ATOM      5  C   UNL     1     -30.707  27.280 -15.080  1.00  0.00     0.111 A 
ATOM      6  C   UNL     1     -30.556  26.534 -13.872  1.00  0.00     0.134 A 
ATOM      7  C   UNL     1     -29.901  25.297 -13.902  1.00  0.00     0.093 A 
ATOM      8  C   UNL     1     -29.335  24.809 -15.082  1.00  0.00     0.123 A 
ATOM      9  C   UNL     1     -29.429  25.555 -16.254  1.00  0.00     0.094 A 
ATOM     10  C   UNL     1     -30.110  26.774 -16.265  1.00  0.00     0.146 A 
ATOM     11  O   UNL     1     -30.193  27.442 -17.410  1.00  0.00    -0.452 OA
ENDROOT
BRANCH   1  12
ATOM     12  C   UNL     1     -30.856  29.238 -18.874  1.00  0.00     0.025 A 
ATOM     13  C   UNL     1     -31.318  30.555 -19.045  1.00  0.00     0.016 A 
ATOM     14  C   UNL     1     -31.345  31.134 -20.317  1.00  0.00     0.051 A 
ATOM     15  C   UNL     1     -30.926  30.401 -21.435  1.00  0.00     0.157 A 
ATOM     16  C   UNL     1     -30.458  28.502 -20.001  1.00  0.00     0.062 A 
ATOM     17  C   UNL     1     -30.485  29.082 -21.277  1.00  0.00     0.158 A 
BRANCH  15  18
ATOM     18  O   UNL     1     -30.950  30.976 -22.704  1.00  0.00    -0.504 OA
ATOM     19  H   UNL     1     -30.156  30.911 -23.330  1.00  0.00     0.293 HD
ENDBRANCH  15  18
BRANCH  17  20
ATOM     20  O   UNL     1     -30.076  28.353 -22.393  1.00  0.00    -0.504 OA
ATOM     21  H   UNL     1     -29.313  28.668 -22.981  1.00  0.00     0.293 HD
ENDBRANCH  17  20
ENDBRANCH   1  12
BRANCH   2  22
ATOM     22  O   UNL     1     -32.131  30.396 -16.542  1.00  0.00    -0.502 OA
ATOM     23  H   UNL     1     -33.077  30.480 -16.893  1.00  0.00     0.293 HD
ENDBRANCH   2  22
BRANCH   6  24
ATOM     24  O   UNL     1     -31.005  26.970 -12.622  1.00  0.00    -0.507 OA
ATOM     25  H   UNL     1     -31.112  27.935 -12.350  1.00  0.00     0.293 HD
ENDBRANCH   6  24
BRANCH   8  26
ATOM     26  O   UNL     1     -28.670  23.585 -15.098  1.00  0.00    -0.508 OA
ATOM     27  H   UNL     1     -28.164  23.246 -14.288  1.00  0.00     0.293 HD
ENDBRANCH   8  26
TORSDOF 6
ENDMDL
MODEL 2
REMARK VINA RESULT:    51.638      1.047      6.441
REMARK INTER + INTRA:          62.648
REMARK INTER:                  62.177
REMARK INTRA:                   0.471
REMARK UNBOUND:                 0.444
REMARK SMILES O=c1c(O)c(-c2ccc(O)c(O)c2)oc2cc(O)cc(O)c12
REMARK SMILES IDX 5 1 3 2 2 3 1 4 22 5 20 6 19 7 17 8 16 9 15 10 14 11 6 12
REMARK SMILES IDX 7 13 8 14 9 15 13 16 11 17 10 18 12 20 4 22 21 24 18 26
REMARK H PARENT 10 19 12 21 4 23 21 25 18 27
REMARK Flexibility Score: inf
ROOT
ATOM      1  C   UNL     1     -30.614  27.864 -16.668  1.00  0.00     0.180 A 
ATOM      2  C   UNL     1     -31.392  28.822 -15.997  1.00  0.00     0.208 A 
ATOM      3  C   UNL     1     -31.826  29.960 -16.697  1.00  0.00     0.238 A 
ATOM      4  O   UNL     1     -32.459  30.849 -16.070  1.00  0.00    -0.285 OA
ATOM      5  C   UNL     1     -31.525  30.098 -18.073  1.00  0.00     0.111 A 
ATOM      6  C   UNL     1     -31.952  31.186 -18.893  1.00  0.00     0.134 A 
ATOM      7  C   UNL     1     -31.505  31.270 -20.218  1.00  0.00     0.093 A 
ATOM      8  C   UNL     1     -30.699  30.272 -20.771  1.00  0.00     0.123 A 
ATOM      9  C   UNL     1     -30.322  29.179 -19.995  1.00  0.00     0.094 A 
ATOM     10  C   UNL     1     -30.720  29.086 -18.660  1.00  0.00     0.146 A 
ATOM     11  O   UNL     1     -30.320  28.037 -17.951  1.00  0.00    -0.452 OA
ENDROOT
BRANCH   1  12
ATOM     12  C   UNL     1     -30.107  26.647 -15.994  1.00  0.00     0.025 A 
ATOM     13  C   UNL     1     -30.438  26.358 -14.659  1.00  0.00     0.016 A 
ATOM     14  C   UNL     1     -29.928  25.215 -14.036  1.00  0.00     0.051 A 
ATOM     15  C   UNL     1     -29.071  24.354 -14.734  1.00  0.00     0.157 A 
ATOM     16  C   UNL     1     -29.230  25.791 -16.681  1.00  0.00     0.062 A 
ATOM     17  C   UNL     1     -28.719  24.645 -16.057  1.00  0.00     0.158 A 
BRANCH  15  18
ATOM     18  O   UNL     1     -28.562  23.213 -14.117  1.00  0.00    -0.504 OA
ATOM     19  H   UNL     1     -27.733  23.250 -13.536  1.00  0.00     0.293 HD
ENDBRANCH  15  18
BRANCH  17  20
ATOM     20  O   UNL     1     -27.859  23.791 -16.746  1.00  0.00    -0.504 OA
ATOM     21  H   UNL     1     -27.864  22.790 -16.585  1.00  0.00     0.293 HD
ENDBRANCH  17  20
ENDBRANCH   1  12
BRANCH   2  22
ATOM     22  O   UNL     1     -31.742  28.631 -14.657  1.00  0.00    -0.502 OA
ATOM     23  H   UNL     1     -31.491  27.796 -14.143  1.00  0.00     0.293 HD
ENDBRANCH   2  22
BRANCH   6  24
ATOM     24  O   UNL     1     -32.828  32.189 -18.469  1.00  0.00    -0.507 OA
ATOM     25  H   UNL     1     -32.933  32.501 -17.515  1.00  0.00     0.293 HD
ENDBRANCH   6  24
BRANCH   8  26
ATOM     26  O   UNL     1     -30.273  30.356 -22.094  1.00  0.00    -0.508 OA
ATOM     27  H   UNL     1     -29.289  30.409 -22.332  1.00  0.00     0.293 HD
ENDBRANCH   8  26
TORSDOF 6
ENDMDL
MODEL 3
REMARK VINA RESULT:    51.873     10.463     12.017
REMARK INTER + INTRA:          62.931
REMARK INTER:                  63.204
REMARK INTRA:                  -0.273
REMARK UNBOUND:                 0.444
REMARK SMILES O=c1c(O)c(-c2ccc(O)c(O)c2)oc2cc(O)cc(O)c12
REMARK SMILES IDX 5 1 3 2 2 3 1 4 22 5 20 6 19 7 17 8 16 9 15 10 14 11 6 12
REMARK SMILES IDX 7 13 8 14 9 15 13 16 11 17 10 18 12 20 4 22 21 24 18 26
REMARK H PARENT 10 19 12 21 4 23 21 25 18 27
REMARK Flexibility Score: inf
ROOT
ATOM      1  C   UNL     1     -41.036  29.590 -21.879  1.00  0.00     0.180 A 
ATOM      2  C   UNL     1     -39.868  29.931 -21.178  1.00  0.00     0.208 A 
ATOM      3  C   UNL     1     -38.819  28.999 -21.106  1.00  0.00     0.238 A 
ATOM      4  O   UNL     1     -37.807  29.282 -20.414  1.00  0.00    -0.285 OA
ATOM      5  C   UNL     1     -38.929  27.761 -21.784  1.00  0.00     0.111 A 
ATOM      6  C   UNL     1     -37.911  26.760 -21.818  1.00  0.00     0.134 A 
ATOM      7  C   UNL     1     -38.173  25.530 -22.433  1.00  0.00     0.093 A 
ATOM      8  C   UNL     1     -39.392  25.287 -23.070  1.00  0.00     0.123 A 
ATOM      9  C   UNL     1     -40.371  26.278 -23.090  1.00  0.00     0.094 A 
ATOM     10  C   UNL     1     -40.154  27.501 -22.452  1.00  0.00     0.146 A 
ATOM     11  O   UNL     1     -41.124  28.408 -22.477  1.00  0.00    -0.452 OA
ENDROOT
BRANCH   1  12
ATOM     12  C   UNL     1     -42.189  30.513 -21.987  1.00  0.00     0.025 A 
ATOM     13  C   UNL     1     -42.410  31.277 -23.146  1.00  0.00     0.016 A 
ATOM     14  C   UNL     1     -43.492  32.159 -23.215  1.00  0.00     0.051 A 
ATOM     15  C   UNL     1     -44.358  32.301 -22.123  1.00  0.00     0.157 A 
ATOM     16  C   UNL     1     -43.048  30.676 -20.887  1.00  0.00     0.062 A 
ATOM     17  C   UNL     1     -44.133  31.561 -20.956  1.00  0.00     0.158 A 
BRANCH  15  18
ATOM     18  O   UNL     1     -45.438  33.179 -22.189  1.00  0.00    -0.504 OA
ATOM     19  H   UNL     1     -45.308  34.166 -22.379  1.00  0.00     0.293 HD
ENDBRANCH  15  18
BRANCH  17  20
ATOM     20  O   UNL     1     -44.992  31.711 -19.868  1.00  0.00    -0.504 OA
ATOM     21  H   UNL     1     -45.745  31.056 -19.693  1.00  0.00     0.293 HD
ENDBRANCH  17  20
ENDBRANCH   1  12
BRANCH   2  22
ATOM     22  O   UNL     1     -39.748  31.188 -20.578  1.00  0.00    -0.502 OA
ATOM     23  H   UNL     1     -40.423  31.928 -20.726  1.00  0.00     0.293 HD
ENDBRANCH   2  22
BRANCH   6  24
ATOM     24  O   UNL     1     -36.628  26.931 -21.291  1.00  0.00    -0.507 OA
ATOM     25  H   UNL     1     -35.827  26.363 -21.523  1.00  0.00     0.293 HD
ENDBRANCH   6  24
BRANCH   8  26
ATOM     26  O   UNL     1     -39.637  24.066 -23.694  1.00  0.00    -0.508 OA
ATOM     27  H   UNL     1     -40.155  23.328 -23.231  1.00  0.00     0.293 HD
ENDBRANCH   8  26
TORSDOF 6
ENDMDL
