MODEL 1
REMARK VINA RESULT:    -8.905      0.000      0.000
REMARK INTER + INTRA:         -12.234
REMARK INTER:                 -11.247
REMARK INTRA:                  -0.987
REMARK UNBOUND:                -0.987
REMARK SMILES CC(C)[C@@H](C)C=C[C@H](C)[C@@H]1CC[C@@H]2C3=CC=C4C[C@@H](O)CC[C@]4(C)[C@H]3CC[C@]21C
REMARK SMILES IDX 8 1 9 2 7 3 6 4 4 5 5 6 2 7 1 8 3 9 10 10 11 11 28 12 12 13
REMARK SMILES IDX 13 14 27 15 29 16 14 17 26 18 25 19 15 20 23 21 16 22 17 23
REMARK SMILES IDX 22 24 24 25 18 26 21 27 19 28 20 29
REMARK H PARENT 20 30
REMARK Flexibility Score: inf
ROOT
ATOM      1  C   UNL     1      19.029 -34.221  22.361  1.00  0.00     0.012 C 
ATOM      2  C   UNL     1      20.082 -34.625  23.407  1.00  0.00     0.012 C 
ENDROOT
BRANCH   1   3
ATOM      3  C   UNL     1      17.740 -34.967  22.659  1.00  0.00    -0.028 C 
ATOM      4  C   UNL     1      17.117 -35.807  21.808  1.00  0.00    -0.028 C 
BRANCH   4   5
ATOM      5  C   UNL     1      17.558 -36.097  20.382  1.00  0.00     0.011 C 
ATOM      6  C   UNL     1      16.743 -35.230  19.412  1.00  0.00     0.012 C 
BRANCH   5   7
ATOM      7  C   UNL     1      17.485 -37.626  20.078  1.00  0.00    -0.011 C 
ATOM      8  C   UNL     1      17.914 -38.003  18.648  1.00  0.00     0.008 C 
ATOM      9  C   UNL     1      18.291 -38.448  21.099  1.00  0.00     0.008 C 
ENDBRANCH   5   7
ENDBRANCH   4   5
ENDBRANCH   1   3
BRANCH   1  10
ATOM     10  C   UNL     1      18.773 -32.678  22.364  1.00  0.00     0.002 C 
ATOM     11  C   UNL     1      17.576 -32.265  21.459  1.00  0.00     0.005 C 
ATOM     12  C   UNL     1      19.931 -31.747  21.882  1.00  0.00    -0.023 C 
ATOM     13  C   UNL     1      17.893 -30.863  20.906  1.00  0.00     0.009 C 
ATOM     14  C   UNL     1      19.140 -30.450  21.676  1.00  0.00     0.021 C 
ATOM     15  C   UNL     1      21.055 -31.471  22.936  1.00  0.00     0.008 C 
ATOM     16  C   UNL     1      20.530 -32.306  20.544  1.00  0.00     0.012 C 
ATOM     17  C   UNL     1      19.977 -29.272  21.210  1.00  0.00    -0.063 C 
ATOM     18  C   UNL     1      21.620 -30.013  22.926  1.00  0.00     0.009 C 
ATOM     19  C   UNL     1      21.470 -29.294  21.547  1.00  0.00     0.025 C 
ATOM     20  C   UNL     1      19.335 -28.121  20.986  1.00  0.00    -0.000 C 
ATOM     21  C   UNL     1      22.238 -27.903  21.348  1.00  0.00    -0.005 C 
ATOM     22  C   UNL     1      19.998 -26.827  21.045  1.00  0.00    -0.000 C 
ATOM     23  C   UNL     1      21.304 -26.690  21.299  1.00  0.00    -0.061 C 
ATOM     24  C   UNL     1      22.960 -27.918  19.958  1.00  0.00     0.014 C 
ATOM     25  C   UNL     1      23.308 -27.701  22.458  1.00  0.00     0.017 C 
ATOM     26  C   UNL     1      21.927 -25.338  21.034  1.00  0.00     0.063 C 
ATOM     27  C   UNL     1      23.618 -26.573  19.569  1.00  0.00     0.033 C 
ATOM     28  C   UNL     1      22.635 -25.386  19.667  1.00  0.00     0.118 C 
BRANCH  28  29
ATOM     29  O   UNL     1      23.291 -24.171  19.405  1.00  0.00    -0.393 OA
ATOM     30  H   UNL     1      22.619 -23.542  19.032  1.00  0.00     0.210 HD
ENDBRANCH  28  29
ENDBRANCH   1  10
TORSDOF 5
ENDMDL
MODEL 2
REMARK VINA RESULT:    -8.152      1.182      1.728
REMARK INTER + INTRA:         -11.284
REMARK INTER:                 -10.569
REMARK INTRA:                  -0.715
REMARK UNBOUND:                -0.987
REMARK SMILES CC(C)[C@@H](C)C=C[C@H](C)[C@@H]1CC[C@@H]2C3=CC=C4C[C@@H](O)CC[C@]4(C)[C@H]3CC[C@]21C
REMARK SMILES IDX 8 1 9 2 7 3 6 4 4 5 5 6 2 7 1 8 3 9 10 10 11 11 28 12 12 13
REMARK SMILES IDX 13 14 27 15 29 16 14 17 26 18 25 19 15 20 23 21 16 22 17 23
REMARK SMILES IDX 22 24 24 25 18 26 21 27 19 28 20 29
REMARK H PARENT 20 30
REMARK Flexibility Score: inf
ROOT
ATOM      1  C   UNL     1      19.319 -33.973  22.537  1.00  0.00     0.012 C 
ATOM      2  C   UNL     1      20.405 -34.307  23.573  1.00  0.00     0.012 C 
ENDROOT
BRANCH   1   3
ATOM      3  C   UNL     1      18.050 -34.722  22.905  1.00  0.00    -0.028 C 
ATOM      4  C   UNL     1      17.897 -36.060  22.852  1.00  0.00    -0.028 C 
BRANCH   4   5
ATOM      5  C   UNL     1      18.942 -37.042  22.347  1.00  0.00     0.011 C 
ATOM      6  C   UNL     1      18.414 -37.742  21.086  1.00  0.00     0.012 C 
BRANCH   5   7
ATOM      7  C   UNL     1      19.375 -38.024  23.480  1.00  0.00    -0.011 C 
ATOM      8  C   UNL     1      20.891 -38.289  23.536  1.00  0.00     0.008 C 
ATOM      9  C   UNL     1      18.875 -37.557  24.858  1.00  0.00     0.008 C 
ENDBRANCH   5   7
ENDBRANCH   4   5
ENDBRANCH   1   3
BRANCH   1  10
ATOM     10  C   UNL     1      19.039 -32.435  22.468  1.00  0.00     0.002 C 
ATOM     11  C   UNL     1      17.844 -32.084  21.534  1.00  0.00     0.005 C 
ATOM     12  C   UNL     1      20.186 -31.509  21.955  1.00  0.00    -0.023 C 
ATOM     13  C   UNL     1      18.143 -30.702  20.922  1.00  0.00     0.009 C 
ATOM     14  C   UNL     1      19.377 -30.235  21.684  1.00  0.00     0.021 C 
ATOM     15  C   UNL     1      21.295 -31.167  23.005  1.00  0.00     0.008 C 
ATOM     16  C   UNL     1      20.807 -32.117  20.649  1.00  0.00     0.012 C 
ATOM     17  C   UNL     1      20.198 -29.066  21.172  1.00  0.00    -0.063 C 
ATOM     18  C   UNL     1      21.837 -29.702  22.935  1.00  0.00     0.009 C 
ATOM     19  C   UNL     1      21.689 -29.048  21.524  1.00  0.00     0.025 C 
ATOM     20  C   UNL     1      19.540 -27.937  20.891  1.00  0.00    -0.000 C 
ATOM     21  C   UNL     1      22.436 -27.655  21.269  1.00  0.00    -0.005 C 
ATOM     22  C   UNL     1      20.183 -26.630  20.899  1.00  0.00    -0.000 C 
ATOM     23  C   UNL     1      21.483 -26.461  21.157  1.00  0.00    -0.061 C 
ATOM     24  C   UNL     1      23.171 -27.720  19.888  1.00  0.00     0.014 C 
ATOM     25  C   UNL     1      23.492 -27.386  22.379  1.00  0.00     0.017 C 
ATOM     26  C   UNL     1      22.087 -25.112  20.837  1.00  0.00     0.063 C 
ATOM     27  C   UNL     1      23.812 -26.383  19.445  1.00  0.00     0.033 C 
ATOM     28  C   UNL     1      22.808 -25.209  19.480  1.00  0.00     0.118 C 
BRANCH  28  29
ATOM     29  O   UNL     1      23.447 -23.997  19.170  1.00  0.00    -0.393 OA
ATOM     30  H   UNL     1      23.343 -23.844  18.195  1.00  0.00     0.210 HD
ENDBRANCH  28  29
ENDBRANCH   1  10
TORSDOF 5
ENDMDL
MODEL 3
REMARK VINA RESULT:    -8.079      1.417      2.730
REMARK INTER + INTRA:         -11.191
REMARK INTER:                 -10.346
REMARK INTRA:                  -0.845
REMARK UNBOUND:                -0.987
REMARK SMILES CC(C)[C@@H](C)C=C[C@H](C)[C@@H]1CC[C@@H]2C3=CC=C4C[C@@H](O)CC[C@]4(C)[C@H]3CC[C@]21C
REMARK SMILES IDX 8 1 9 2 7 3 6 4 4 5 5 6 2 7 1 8 3 9 10 10 11 11 28 12 12 13
REMARK SMILES IDX 13 14 27 15 29 16 14 17 26 18 25 19 15 20 23 21 16 22 17 23
REMARK SMILES IDX 22 24 24 25 18 26 21 27 19 28 20 29
REMARK H PARENT 20 30
REMARK Flexibility Score: inf
ROOT
ATOM      1  C   UNL     1      19.159 -34.353  22.198  1.00  0.00     0.012 C 
ATOM      2  C   UNL     1      19.943 -34.747  23.460  1.00  0.00     0.012 C 
ENDROOT
BRANCH   1   3
ATOM      3  C   UNL     1      17.873 -35.161  22.154  1.00  0.00    -0.028 C 
ATOM      4  C   UNL     1      16.872 -35.073  23.052  1.00  0.00    -0.028 C 
BRANCH   4   5
ATOM      5  C   UNL     1      16.888 -34.206  24.301  1.00  0.00     0.011 C 
ATOM      6  C   UNL     1      16.905 -35.106  25.545  1.00  0.00     0.012 C 
BRANCH   5   7
ATOM      7  C   UNL     1      15.713 -33.179  24.280  1.00  0.00    -0.011 C 
ATOM      8  C   UNL     1      16.164 -31.710  24.201  1.00  0.00     0.008 C 
ATOM      9  C   UNL     1      14.716 -33.481  23.147  1.00  0.00     0.008 C 
ENDBRANCH   5   7
ENDBRANCH   4   5
ENDBRANCH   1   3
BRANCH   1  10
ATOM     10  C   UNL     1      18.837 -32.823  22.170  1.00  0.00     0.002 C 
ATOM     11  C   UNL     1      17.706 -32.465  21.162  1.00  0.00     0.005 C 
ATOM     12  C   UNL     1      19.990 -31.843  21.785  1.00  0.00    -0.023 C 
ATOM     13  C   UNL     1      18.007 -31.051  20.632  1.00  0.00     0.009 C 
ATOM     14  C   UNL     1      19.164 -30.582  21.504  1.00  0.00     0.021 C 
ATOM     15  C   UNL     1      21.005 -31.516  22.930  1.00  0.00     0.008 C 
ATOM     16  C   UNL     1      20.727 -32.377  20.507  1.00  0.00     0.012 C 
ATOM     17  C   UNL     1      19.986 -29.370  21.106  1.00  0.00    -0.063 C 
ATOM     18  C   UNL     1      21.505 -30.035  22.962  1.00  0.00     0.009 C 
ATOM     19  C   UNL     1      21.444 -29.326  21.571  1.00  0.00     0.025 C 
ATOM     20  C   UNL     1      19.316 -28.248  20.821  1.00  0.00    -0.000 C 
ATOM     21  C   UNL     1      22.165 -27.902  21.431  1.00  0.00    -0.005 C 
ATOM     22  C   UNL     1      19.915 -26.926  20.931  1.00  0.00    -0.000 C 
ATOM     23  C   UNL     1      21.186 -26.732  21.296  1.00  0.00    -0.061 C 
ATOM     24  C   UNL     1      23.004 -27.888  20.109  1.00  0.00     0.014 C 
ATOM     25  C   UNL     1      23.125 -27.652  22.629  1.00  0.00     0.017 C 
ATOM     26  C   UNL     1      21.770 -25.354  21.078  1.00  0.00     0.063 C 
ATOM     27  C   UNL     1      23.634 -26.516  19.772  1.00  0.00     0.033 C 
ATOM     28  C   UNL     1      22.595 -25.373  19.778  1.00  0.00     0.118 C 
BRANCH  28  29
ATOM     29  O   UNL     1      23.217 -24.131  19.567  1.00  0.00    -0.393 OA
ATOM     30  H   UNL     1      23.103 -23.594  20.395  1.00  0.00     0.210 HD
ENDBRANCH  28  29
ENDBRANCH   1  10
TORSDOF 5
ENDMDL
MODEL 4
REMARK VINA RESULT:    -7.468      1.672      2.908
REMARK INTER + INTRA:         -10.420
REMARK INTER:                 -10.387
REMARK INTRA:                  -0.033
REMARK UNBOUND:                -0.987
REMARK SMILES CC(C)[C@@H](C)C=C[C@H](C)[C@@H]1CC[C@@H]2C3=CC=C4C[C@@H](O)CC[C@]4(C)[C@H]3CC[C@]21C
REMARK SMILES IDX 8 1 9 2 7 3 6 4 4 5 5 6 2 7 1 8 3 9 10 10 11 11 28 12 12 13
REMARK SMILES IDX 13 14 27 15 29 16 14 17 26 18 25 19 15 20 23 21 16 22 17 23
REMARK SMILES IDX 22 24 24 25 18 26 21 27 19 28 20 29
REMARK H PARENT 20 30
REMARK Flexibility Score: inf
ROOT
ATOM      1  C   UNL     1      19.205 -34.287  22.358  1.00  0.00     0.012 C 
ATOM      2  C   UNL     1      19.853 -34.752  21.043  1.00  0.00     0.012 C 
ENDROOT
BRANCH   1   3
ATOM      3  C   UNL     1      20.144 -34.619  23.505  1.00  0.00    -0.028 C 
ATOM      4  C   UNL     1      19.892 -34.379  24.807  1.00  0.00    -0.028 C 
BRANCH   4   5
ATOM      5  C   UNL     1      18.658 -33.672  25.346  1.00  0.00     0.011 C 
ATOM      6  C   UNL     1      19.072 -32.715  26.474  1.00  0.00     0.012 C 
BRANCH   5   7
ATOM      7  C   UNL     1      17.564 -34.704  25.763  1.00  0.00    -0.011 C 
ATOM      8  C   UNL     1      16.475 -34.929  24.698  1.00  0.00     0.008 C 
ATOM      9  C   UNL     1      18.182 -36.053  26.172  1.00  0.00     0.008 C 
ENDBRANCH   5   7
ENDBRANCH   4   5
ENDBRANCH   1   3
BRANCH   1  10
ATOM     10  C   UNL     1      18.893 -32.755  22.340  1.00  0.00     0.002 C 
ATOM     11  C   UNL     1      17.721 -32.391  21.384  1.00  0.00     0.005 C 
ATOM     12  C   UNL     1      20.036 -31.785  21.900  1.00  0.00    -0.023 C 
ATOM     13  C   UNL     1      18.009 -30.981  20.836  1.00  0.00     0.009 C 
ATOM     14  C   UNL     1      19.208 -30.519  21.653  1.00  0.00     0.021 C 
ATOM     15  C   UNL     1      21.104 -31.463  22.998  1.00  0.00     0.008 C 
ATOM     16  C   UNL     1      20.709 -32.329  20.592  1.00  0.00     0.012 C 
ATOM     17  C   UNL     1      20.019 -29.313  21.214  1.00  0.00    -0.063 C 
ATOM     18  C   UNL     1      21.616 -29.985  23.002  1.00  0.00     0.009 C 
ATOM     19  C   UNL     1      21.497 -29.280  21.613  1.00  0.00     0.025 C 
ATOM     20  C   UNL     1      19.346 -28.188  20.957  1.00  0.00    -0.000 C 
ATOM     21  C   UNL     1      22.222 -27.862  21.437  1.00  0.00    -0.005 C 
ATOM     22  C   UNL     1      19.959 -26.870  21.035  1.00  0.00    -0.000 C 
ATOM     23  C   UNL     1      21.247 -26.685  21.341  1.00  0.00    -0.061 C 
ATOM     24  C   UNL     1      23.001 -27.858  20.078  1.00  0.00     0.014 C 
ATOM     25  C   UNL     1      23.237 -27.616  22.589  1.00  0.00     0.017 C 
ATOM     26  C   UNL     1      21.831 -25.312  21.093  1.00  0.00     0.063 C 
ATOM     27  C   UNL     1      23.626 -26.492  19.708  1.00  0.00     0.033 C 
ATOM     28  C   UNL     1      22.596 -25.341  19.757  1.00  0.00     0.118 C 
BRANCH  28  29
ATOM     29  O   UNL     1      23.218 -24.105  19.515  1.00  0.00    -0.393 OA
ATOM     30  H   UNL     1      23.264 -23.617  20.379  1.00  0.00     0.210 HD
ENDBRANCH  28  29
ENDBRANCH   1  10
TORSDOF 5
ENDMDL
MODEL 5
REMARK VINA RESULT:    -7.299      4.462      7.680
REMARK INTER + INTRA:         -10.206
REMARK INTER:                  -8.683
REMARK INTRA:                  -1.523
REMARK UNBOUND:                -0.987
REMARK SMILES CC(C)[C@@H](C)C=C[C@H](C)[C@@H]1CC[C@@H]2C3=CC=C4C[C@@H](O)CC[C@]4(C)[C@H]3CC[C@]21C
REMARK SMILES IDX 8 1 9 2 7 3 6 4 4 5 5 6 2 7 1 8 3 9 10 10 11 11 28 12 12 13
REMARK SMILES IDX 13 14 27 15 29 16 14 17 26 18 25 19 15 20 23 21 16 22 17 23
REMARK SMILES IDX 22 24 24 25 18 26 21 27 19 28 20 29
REMARK H PARENT 20 30
REMARK Flexibility Score: inf
ROOT
ATOM      1  C   UNL     1      20.940 -34.719  22.798  1.00  0.00     0.012 C 
ATOM      2  C   UNL     1      21.231 -36.216  22.994  1.00  0.00     0.012 C 
ENDROOT
BRANCH   1   3
ATOM      3  C   UNL     1      22.091 -34.099  22.024  1.00  0.00    -0.028 C 
ATOM      4  C   UNL     1      22.898 -33.122  22.485  1.00  0.00    -0.028 C 
BRANCH   4   5
ATOM      5  C   UNL     1      22.751 -32.424  23.827  1.00  0.00     0.011 C 
ATOM      6  C   UNL     1      22.908 -30.909  23.632  1.00  0.00     0.012 C 
BRANCH   5   7
ATOM      7  C   UNL     1      23.731 -33.030  24.880  1.00  0.00    -0.011 C 
ATOM      8  C   UNL     1      23.082 -34.063  25.820  1.00  0.00     0.008 C 
ATOM      9  C   UNL     1      24.975 -33.641  24.211  1.00  0.00     0.008 C 
ENDBRANCH   5   7
ENDBRANCH   4   5
ENDBRANCH   1   3
BRANCH   1  10
ATOM     10  C   UNL     1      19.592 -34.484  22.041  1.00  0.00     0.002 C 
ATOM     11  C   UNL     1      19.786 -33.761  20.677  1.00  0.00     0.005 C 
ATOM     12  C   UNL     1      18.497 -33.629  22.754  1.00  0.00    -0.023 C 
ATOM     13  C   UNL     1      18.525 -32.909  20.437  1.00  0.00     0.009 C 
ATOM     14  C   UNL     1      17.586 -33.340  21.555  1.00  0.00     0.021 C 
ATOM     15  C   UNL     1      17.653 -34.383  23.836  1.00  0.00     0.008 C 
ATOM     16  C   UNL     1      19.147 -32.329  23.343  1.00  0.00     0.012 C 
ATOM     17  C   UNL     1      16.355 -32.515  21.885  1.00  0.00    -0.063 C 
ATOM     18  C   UNL     1      16.138 -33.997  23.873  1.00  0.00     0.009 C 
ATOM     19  C   UNL     1      15.845 -32.563  23.328  1.00  0.00     0.025 C 
ATOM     20  C   UNL     1      15.539 -32.207  20.873  1.00  0.00    -0.000 C 
ATOM     21  C   UNL     1      14.375 -31.968  23.555  1.00  0.00    -0.005 C 
ATOM     22  C   UNL     1      14.129 -31.900  21.065  1.00  0.00    -0.000 C 
ATOM     23  C   UNL     1      13.549 -31.873  22.269  1.00  0.00    -0.061 C 
ATOM     24  C   UNL     1      14.499 -30.495  24.070  1.00  0.00     0.014 C 
ATOM     25  C   UNL     1      13.603 -32.800  24.619  1.00  0.00     0.017 C 
ATOM     26  C   UNL     1      12.174 -31.250  22.366  1.00  0.00     0.063 C 
ATOM     27  C   UNL     1      13.150 -29.747  24.188  1.00  0.00     0.033 C 
ATOM     28  C   UNL     1      12.328 -29.807  22.882  1.00  0.00     0.118 C 
BRANCH  28  29
ATOM     29  O   UNL     1      11.069 -29.207  23.056  1.00  0.00    -0.393 OA
ATOM     30  H   UNL     1      11.131 -28.276  22.715  1.00  0.00     0.210 HD
ENDBRANCH  28  29
ENDBRANCH   1  10
TORSDOF 5
ENDMDL
MODEL 6
REMARK VINA RESULT:    -7.289      2.063      3.698
REMARK INTER + INTRA:         -10.194
REMARK INTER:                  -8.735
REMARK INTRA:                  -1.458
REMARK UNBOUND:                -0.987
REMARK SMILES CC(C)[C@@H](C)C=C[C@H](C)[C@@H]1CC[C@@H]2C3=CC=C4C[C@@H](O)CC[C@]4(C)[C@H]3CC[C@]21C
REMARK SMILES IDX 8 1 9 2 7 3 6 4 4 5 5 6 2 7 1 8 3 9 10 10 11 11 28 12 12 13
REMARK SMILES IDX 13 14 27 15 29 16 14 17 26 18 25 19 15 20 23 21 16 22 17 23
REMARK SMILES IDX 22 24 24 25 18 26 21 27 19 28 20 29
REMARK H PARENT 20 30
REMARK Flexibility Score: inf
ROOT
ATOM      1  C   UNL     1      18.198 -32.904  21.758  1.00  0.00     0.012 C 
ATOM      2  C   UNL     1      17.139 -33.416  20.768  1.00  0.00     0.012 C 
ENDROOT
BRANCH   1   3
ATOM      3  C   UNL     1      18.817 -34.097  22.466  1.00  0.00    -0.028 C 
ATOM      4  C   UNL     1      18.631 -34.409  23.764  1.00  0.00    -0.028 C 
BRANCH   4   5
ATOM      5  C   UNL     1      17.831 -33.584  24.759  1.00  0.00     0.011 C 
ATOM      6  C   UNL     1      18.726 -33.218  25.953  1.00  0.00     0.012 C 
BRANCH   5   7
ATOM      7  C   UNL     1      16.514 -34.319  25.159  1.00  0.00    -0.011 C 
ATOM      8  C   UNL     1      15.378 -34.176  24.130  1.00  0.00     0.008 C 
ATOM      9  C   UNL     1      16.763 -35.807  25.459  1.00  0.00     0.008 C 
ENDBRANCH   5   7
ENDBRANCH   4   5
ENDBRANCH   1   3
BRANCH   1  10
ATOM     10  C   UNL     1      19.307 -32.067  21.039  1.00  0.00     0.002 C 
ATOM     11  C   UNL     1      20.723 -32.697  21.182  1.00  0.00     0.005 C 
ATOM     12  C   UNL     1      19.517 -30.590  21.499  1.00  0.00    -0.023 C 
ATOM     13  C   UNL     1      21.732 -31.534  21.196  1.00  0.00     0.009 C 
ATOM     14  C   UNL     1      20.881 -30.319  20.853  1.00  0.00     0.021 C 
ATOM     15  C   UNL     1      18.493 -29.555  20.926  1.00  0.00     0.008 C 
ATOM     16  C   UNL     1      19.571 -30.532  23.066  1.00  0.00     0.012 C 
ATOM     17  C   UNL     1      21.416 -28.916  21.080  1.00  0.00    -0.063 C 
ATOM     18  C   UNL     1      19.102 -28.162  20.558  1.00  0.00     0.009 C 
ATOM     19  C   UNL     1      20.393 -27.813  21.365  1.00  0.00     0.025 C 
ATOM     20  C   UNL     1      22.616 -28.632  20.564  1.00  0.00    -0.000 C 
ATOM     21  C   UNL     1      20.953 -26.316  21.258  1.00  0.00    -0.005 C 
ATOM     22  C   UNL     1      23.030 -27.274  20.240  1.00  0.00    -0.000 C 
ATOM     23  C   UNL     1      22.257 -26.206  20.461  1.00  0.00    -0.061 C 
ATOM     24  C   UNL     1      21.309 -25.805  22.694  1.00  0.00     0.014 C 
ATOM     25  C   UNL     1      19.880 -25.369  20.648  1.00  0.00     0.017 C 
ATOM     26  C   UNL     1      22.908 -24.845  20.370  1.00  0.00     0.063 C 
ATOM     27  C   UNL     1      22.004 -24.423  22.723  1.00  0.00     0.033 C 
ATOM     28  C   UNL     1      23.239 -24.366  21.796  1.00  0.00     0.118 C 
BRANCH  28  29
ATOM     29  O   UNL     1      23.783 -23.071  21.770  1.00  0.00    -0.393 OA
ATOM     30  H   UNL     1      24.313 -22.951  22.601  1.00  0.00     0.210 HD
ENDBRANCH  28  29
ENDBRANCH   1  10
TORSDOF 5
ENDMDL
MODEL 7
REMARK VINA RESULT:    -6.876      5.745      9.235
REMARK INTER + INTRA:          -9.672
REMARK INTER:                  -8.385
REMARK INTRA:                  -1.287
REMARK UNBOUND:                -0.987
REMARK SMILES CC(C)[C@@H](C)C=C[C@H](C)[C@@H]1CC[C@@H]2C3=CC=C4C[C@@H](O)CC[C@]4(C)[C@H]3CC[C@]21C
REMARK SMILES IDX 8 1 9 2 7 3 6 4 4 5 5 6 2 7 1 8 3 9 10 10 11 11 28 12 12 13
REMARK SMILES IDX 13 14 27 15 29 16 14 17 26 18 25 19 15 20 23 21 16 22 17 23
REMARK SMILES IDX 22 24 24 25 18 26 21 27 19 28 20 29
REMARK H PARENT 20 30
REMARK Flexibility Score: inf
ROOT
ATOM      1  C   UNL     1      21.360 -25.811  21.470  1.00  0.00     0.012 C 
ATOM      2  C   UNL     1      20.634 -25.642  20.125  1.00  0.00     0.012 C 
ENDROOT
BRANCH   1   3
ATOM      3  C   UNL     1      22.648 -26.581  21.232  1.00  0.00    -0.028 C 
ATOM      4  C   UNL     1      22.827 -27.890  21.495  1.00  0.00    -0.028 C 
BRANCH   4   5
ATOM      5  C   UNL     1      21.798 -28.804  22.141  1.00  0.00     0.011 C 
ATOM      6  C   UNL     1      22.505 -29.760  23.114  1.00  0.00     0.012 C 
BRANCH   5   7
ATOM      7  C   UNL     1      20.939 -29.528  21.057  1.00  0.00    -0.011 C 
ATOM      8  C   UNL     1      20.950 -31.063  21.169  1.00  0.00     0.008 C 
ATOM      9  C   UNL     1      19.488 -29.014  21.047  1.00  0.00     0.008 C 
ENDBRANCH   5   7
ENDBRANCH   4   5
ENDBRANCH   1   3
BRANCH   1  10
ATOM     10  C   UNL     1      21.671 -24.431  22.137  1.00  0.00     0.002 C 
ATOM     11  C   UNL     1      23.188 -24.083  22.120  1.00  0.00     0.005 C 
ATOM     12  C   UNL     1      21.271 -24.239  23.634  1.00  0.00    -0.023 C 
ATOM     13  C   UNL     1      23.472 -23.249  23.383  1.00  0.00     0.009 C 
ATOM     14  C   UNL     1      22.086 -22.980  23.952  1.00  0.00     0.021 C 
ATOM     15  C   UNL     1      19.760 -23.920  23.891  1.00  0.00     0.008 C 
ATOM     16  C   UNL     1      21.739 -25.485  24.465  1.00  0.00     0.012 C 
ATOM     17  C   UNL     1      21.923 -22.468  25.372  1.00  0.00    -0.063 C 
ATOM     18  C   UNL     1      19.492 -22.887  25.034  1.00  0.00     0.009 C 
ATOM     19  C   UNL     1      20.628 -22.832  26.104  1.00  0.00     0.025 C 
ATOM     20  C   UNL     1      22.632 -21.389  25.714  1.00  0.00    -0.000 C 
ATOM     21  C   UNL     1      20.344 -22.003  27.445  1.00  0.00    -0.005 C 
ATOM     22  C   UNL     1      22.232 -20.495  26.791  1.00  0.00    -0.000 C 
ATOM     23  C   UNL     1      21.143 -20.700  27.539  1.00  0.00    -0.061 C 
ATOM     24  C   UNL     1      20.809 -22.855  28.674  1.00  0.00     0.014 C 
ATOM     25  C   UNL     1      18.825 -21.704  27.597  1.00  0.00     0.017 C 
ATOM     26  C   UNL     1      21.005 -19.884  28.805  1.00  0.00     0.063 C 
ATOM     27  C   UNL     1      20.732 -22.111  30.029  1.00  0.00     0.033 C 
ATOM     28  C   UNL     1      21.460 -20.750  29.995  1.00  0.00     0.118 C 
BRANCH  28  29
ATOM     29  O   UNL     1      21.284 -20.059  31.206  1.00  0.00    -0.393 OA
ATOM     30  H   UNL     1      20.426 -19.563  31.147  1.00  0.00     0.210 HD
ENDBRANCH  28  29
ENDBRANCH   1  10
TORSDOF 5
ENDMDL
MODEL 8
REMARK VINA RESULT:    -6.836      4.562      6.374
REMARK INTER + INTRA:          -9.622
REMARK INTER:                  -8.298
REMARK INTRA:                  -1.324
REMARK UNBOUND:                -0.987
REMARK SMILES CC(C)[C@@H](C)C=C[C@H](C)[C@@H]1CC[C@@H]2C3=CC=C4C[C@@H](O)CC[C@]4(C)[C@H]3CC[C@]21C
REMARK SMILES IDX 8 1 9 2 7 3 6 4 4 5 5 6 2 7 1 8 3 9 10 10 11 11 28 12 12 13
REMARK SMILES IDX 13 14 27 15 29 16 14 17 26 18 25 19 15 20 23 21 16 22 17 23
REMARK SMILES IDX 22 24 24 25 18 26 21 27 19 28 20 29
REMARK H PARENT 20 30
REMARK Flexibility Score: inf
ROOT
ATOM      1  C   UNL     1      17.316 -34.146  20.494  1.00  0.00     0.012 C 
ATOM      2  C   UNL     1      17.661 -34.281  19.001  1.00  0.00     0.012 C 
ENDROOT
BRANCH   1   3
ATOM      3  C   UNL     1      15.967 -34.800  20.741  1.00  0.00    -0.028 C 
ATOM      4  C   UNL     1      14.998 -34.301  21.533  1.00  0.00    -0.028 C 
BRANCH   4   5
ATOM      5  C   UNL     1      15.114 -33.038  22.371  1.00  0.00     0.011 C 
ATOM      6  C   UNL     1      14.792 -33.368  23.836  1.00  0.00     0.012 C 
BRANCH   5   7
ATOM      7  C   UNL     1      14.236 -31.893  21.774  1.00  0.00    -0.011 C 
ATOM      8  C   UNL     1      15.013 -30.598  21.473  1.00  0.00     0.008 C 
ATOM      9  C   UNL     1      13.480 -32.354  20.515  1.00  0.00     0.008 C 
ENDBRANCH   5   7
ENDBRANCH   4   5
ENDBRANCH   1   3
BRANCH   1  10
ATOM     10  C   UNL     1      18.408 -34.800  21.402  1.00  0.00     0.002 C 
ATOM     11  C   UNL     1      17.801 -35.672  22.540  1.00  0.00     0.005 C 
ATOM     12  C   UNL     1      19.391 -33.851  22.157  1.00  0.00    -0.023 C 
ATOM     13  C   UNL     1      18.764 -35.582  23.738  1.00  0.00     0.009 C 
ATOM     14  C   UNL     1      19.970 -34.844  23.171  1.00  0.00     0.021 C 
ATOM     15  C   UNL     1      20.573 -33.286  21.300  1.00  0.00     0.008 C 
ATOM     16  C   UNL     1      18.581 -32.695  22.842  1.00  0.00     0.012 C 
ATOM     17  C   UNL     1      21.018 -34.256  24.099  1.00  0.00    -0.063 C 
ATOM     18  C   UNL     1      21.938 -33.176  22.054  1.00  0.00     0.009 C 
ATOM     19  C   UNL     1      21.786 -33.029  23.602  1.00  0.00     0.025 C 
ATOM     20  C   UNL     1      21.537 -35.070  25.024  1.00  0.00    -0.000 C 
ATOM     21  C   UNL     1      23.096 -32.654  24.444  1.00  0.00    -0.005 C 
ATOM     22  C   UNL     1      22.849 -34.852  25.615  1.00  0.00    -0.000 C 
ATOM     23  C   UNL     1      23.623 -33.807  25.302  1.00  0.00    -0.061 C 
ATOM     24  C   UNL     1      22.736 -31.520  25.461  1.00  0.00     0.014 C 
ATOM     25  C   UNL     1      24.224 -32.136  23.505  1.00  0.00     0.017 C 
ATOM     26  C   UNL     1      24.811 -33.529  26.196  1.00  0.00     0.063 C 
ATOM     27  C   UNL     1      23.875 -31.164  26.446  1.00  0.00     0.033 C 
ATOM     28  C   UNL     1      24.429 -32.406  27.178  1.00  0.00     0.118 C 
BRANCH  28  29
ATOM     29  O   UNL     1      25.526 -32.061  27.986  1.00  0.00    -0.393 OA
ATOM     30  H   UNL     1      25.781 -31.127  27.764  1.00  0.00     0.210 HD
ENDBRANCH  28  29
ENDBRANCH   1  10
TORSDOF 5
ENDMDL
MODEL 9
REMARK VINA RESULT:    -6.791      6.326     11.400
REMARK INTER + INTRA:          -9.564
REMARK INTER:                  -8.439
REMARK INTRA:                  -1.126
REMARK UNBOUND:                -0.987
REMARK SMILES CC(C)[C@@H](C)C=C[C@H](C)[C@@H]1CC[C@@H]2C3=CC=C4C[C@@H](O)CC[C@]4(C)[C@H]3CC[C@]21C
REMARK SMILES IDX 8 1 9 2 7 3 6 4 4 5 5 6 2 7 1 8 3 9 10 10 11 11 28 12 12 13
REMARK SMILES IDX 13 14 27 15 29 16 14 17 26 18 25 19 15 20 23 21 16 22 17 23
REMARK SMILES IDX 22 24 24 25 18 26 21 27 19 28 20 29
REMARK H PARENT 20 30
REMARK Flexibility Score: inf
ROOT
ATOM      1  C   UNL     1      20.319 -22.046  28.169  1.00  0.00     0.012 C 
ATOM      2  C   UNL     1      18.960 -21.514  27.687  1.00  0.00     0.012 C 
ENDROOT
BRANCH   1   3
ATOM      3  C   UNL     1      20.297 -22.128  29.686  1.00  0.00    -0.028 C 
ATOM      4  C   UNL     1      20.963 -21.300  30.516  1.00  0.00    -0.028 C 
BRANCH   4   5
ATOM      5  C   UNL     1      21.906 -20.191  30.078  1.00  0.00     0.011 C 
ATOM      6  C   UNL     1      21.083 -18.971  29.633  1.00  0.00     0.012 C 
BRANCH   5   7
ATOM      7  C   UNL     1      22.906 -20.706  28.996  1.00  0.00    -0.011 C 
ATOM      8  C   UNL     1      23.398 -19.616  28.026  1.00  0.00     0.008 C 
ATOM      9  C   UNL     1      24.110 -21.422  29.633  1.00  0.00     0.008 C 
ENDBRANCH   5   7
ENDBRANCH   4   5
ENDBRANCH   1   3
BRANCH   1  10
ATOM     10  C   UNL     1      20.642 -23.449  27.557  1.00  0.00     0.002 C 
ATOM     11  C   UNL     1      21.829 -24.158  28.272  1.00  0.00     0.005 C 
ATOM     12  C   UNL     1      21.038 -23.511  26.048  1.00  0.00    -0.023 C 
ATOM     13  C   UNL     1      22.545 -25.015  27.212  1.00  0.00     0.009 C 
ATOM     14  C   UNL     1      21.626 -24.926  26.001  1.00  0.00     0.021 C 
ATOM     15  C   UNL     1      19.845 -23.445  25.037  1.00  0.00     0.008 C 
ATOM     16  C   UNL     1      22.107 -22.405  25.740  1.00  0.00     0.012 C 
ATOM     17  C   UNL     1      22.115 -25.358  24.631  1.00  0.00    -0.063 C 
ATOM     18  C   UNL     1      19.999 -24.362  23.779  1.00  0.00     0.009 C 
ATOM     19  C   UNL     1      21.485 -24.676  23.413  1.00  0.00     0.025 C 
ATOM     20  C   UNL     1      22.665 -26.573  24.536  1.00  0.00    -0.000 C 
ATOM     21  C   UNL     1      21.769 -25.387  22.006  1.00  0.00    -0.005 C 
ATOM     22  C   UNL     1      22.703 -27.323  23.289  1.00  0.00    -0.000 C 
ATOM     23  C   UNL     1      22.219 -26.844  22.138  1.00  0.00    -0.061 C 
ATOM     24  C   UNL     1      22.959 -24.654  21.301  1.00  0.00     0.014 C 
ATOM     25  C   UNL     1      20.519 -25.301  21.084  1.00  0.00     0.017 C 
ATOM     26  C   UNL     1      22.589 -27.580  20.869  1.00  0.00     0.063 C 
ATOM     27  C   UNL     1      23.440 -25.333  19.996  1.00  0.00     0.033 C 
ATOM     28  C   UNL     1      23.754 -26.832  20.194  1.00  0.00     0.118 C 
BRANCH  28  29
ATOM     29  O   UNL     1      24.089 -27.438  18.971  1.00  0.00    -0.393 OA
ATOM     30  H   UNL     1      25.003 -27.817  19.064  1.00  0.00     0.210 HD
ENDBRANCH  28  29
ENDBRANCH   1  10
TORSDOF 5
ENDMDL
