MODEL 1
REMARK VINA RESULT:    -3.219      0.000      0.000
REMARK INTER + INTRA:          -7.092
REMARK INTER:                  -5.665
REMARK INTRA:                  -1.427
REMARK UNBOUND:                -1.427
REMARK SMILES CCCCCCCCCCCCCCC(=O)[O-]
REMARK SMILES IDX 9 1 10 2 11 3 12 4 13 5 14 6 15 7 16 8 17 9 8 10 7 11 6 12
REMARK SMILES IDX 5 13 4 14 3 15 2 16 1 17
REMARK H PARENT
REMARK Flexibility Score: inf
ROOT
ATOM      1  C   UNL     1      14.077  38.535   8.109  1.00  0.00     0.000 C 
ENDROOT
BRANCH   1   2
ATOM      2  C   UNL     1      14.711  38.777   9.489  1.00  0.00     0.000 C 
BRANCH   2   3
ATOM      3  C   UNL     1      13.976  38.031  10.615  1.00  0.00     0.000 C 
BRANCH   3   4
ATOM      4  C   UNL     1      14.659  38.205  11.982  1.00  0.00     0.000 C 
BRANCH   4   5
ATOM      5  C   UNL     1      16.181  37.993  11.916  1.00  0.00     0.006 C 
BRANCH   5   6
ATOM      6  C   UNL     1      16.698  37.151  13.090  1.00  0.00     0.053 C 
BRANCH   6   7
ATOM      7  C   UNL     1      16.660  35.686  12.782  1.00  0.00     0.041 C 
ATOM      8  O   UNL     1      16.605  35.289  11.589  1.00  0.00    -0.550 OA
ATOM      9  O   UNL     1      16.721  34.757  13.814  1.00  0.00    -0.550 OA
ENDBRANCH   6   7
ENDBRANCH   5   6
ENDBRANCH   4   5
ENDBRANCH   3   4
ENDBRANCH   2   3
ENDBRANCH   1   2
BRANCH   1  10
ATOM     10  C   UNL     1      14.916  39.119   6.961  1.00  0.00     0.000 C 
BRANCH  10  11
ATOM     11  C   UNL     1      16.412  39.062   7.292  1.00  0.00    -0.000 C 
BRANCH  11  12
ATOM     12  C   UNL     1      17.107  40.387   6.939  1.00  0.00    -0.000 C 
BRANCH  12  13
ATOM     13  C   UNL     1      16.187  41.605   7.166  1.00  0.00    -0.000 C 
BRANCH  13  14
ATOM     14  C   UNL     1      16.779  42.655   8.121  1.00  0.00    -0.000 C 
BRANCH  14  15
ATOM     15  C   UNL     1      15.833  43.014   9.276  1.00  0.00    -0.000 C 
BRANCH  15  16
ATOM     16  C   UNL     1      16.515  42.802  10.631  1.00  0.00    -0.003 C 
ATOM     17  C   UNL     1      17.091  41.393  10.744  1.00  0.00     0.004 C 
ENDBRANCH  15  16
ENDBRANCH  14  15
ENDBRANCH  13  14
ENDBRANCH  12  13
ENDBRANCH  11  12
ENDBRANCH  10  11
ENDBRANCH   1  10
TORSDOF 13
ENDMDL
MODEL 2
REMARK VINA RESULT:    -3.176      2.371      2.851
REMARK INTER + INTRA:          -7.017
REMARK INTER:                  -5.351
REMARK INTRA:                  -1.666
REMARK UNBOUND:                -1.427
REMARK SMILES CCCCCCCCCCCCCCC(=O)[O-]
REMARK SMILES IDX 9 1 10 2 11 3 12 4 13 5 14 6 15 7 16 8 17 9 8 10 7 11 6 12
REMARK SMILES IDX 5 13 4 14 3 15 2 16 1 17
REMARK H PARENT
REMARK Flexibility Score: inf
ROOT
ATOM      1  C   UNL     1      14.171  38.745   9.161  1.00  0.00     0.000 C 
ENDROOT
BRANCH   1   2
ATOM      2  C   UNL     1      14.079  37.642  10.229  1.00  0.00     0.000 C 
BRANCH   2   3
ATOM      3  C   UNL     1      15.315  37.601  11.144  1.00  0.00     0.000 C 
BRANCH   3   4
ATOM      4  C   UNL     1      16.391  38.616  10.725  1.00  0.00     0.000 C 
BRANCH   4   5
ATOM      5  C   UNL     1      16.827  39.530  11.883  1.00  0.00     0.006 C 
BRANCH   5   6
ATOM      6  C   UNL     1      16.242  39.079  13.227  1.00  0.00     0.053 C 
BRANCH   6   7
ATOM      7  C   UNL     1      15.244  40.062  13.756  1.00  0.00     0.041 C 
ATOM      8  O   UNL     1      14.091  39.680  14.089  1.00  0.00    -0.550 OA
ATOM      9  O   UNL     1      15.599  41.396  13.914  1.00  0.00    -0.550 OA
ENDBRANCH   6   7
ENDBRANCH   5   6
ENDBRANCH   4   5
ENDBRANCH   3   4
ENDBRANCH   2   3
ENDBRANCH   1   2
BRANCH   1  10
ATOM     10  C   UNL     1      13.769  38.250   7.762  1.00  0.00     0.000 C 
BRANCH  10  11
ATOM     11  C   UNL     1      14.586  38.958   6.675  1.00  0.00    -0.000 C 
BRANCH  11  12
ATOM     12  C   UNL     1      16.086  38.941   7.013  1.00  0.00    -0.000 C 
BRANCH  12  13
ATOM     13  C   UNL     1      16.625  40.349   7.340  1.00  0.00    -0.000 C 
BRANCH  13  14
ATOM     14  C   UNL     1      15.606  41.474   7.092  1.00  0.00    -0.000 C 
BRANCH  14  15
ATOM     15  C   UNL     1      15.428  42.399   8.304  1.00  0.00    -0.000 C 
BRANCH  15  16
ATOM     16  C   UNL     1      16.736  42.530   9.091  1.00  0.00    -0.003 C 
ATOM     17  C   UNL     1      16.467  42.870  10.555  1.00  0.00     0.004 C 
ENDBRANCH  15  16
ENDBRANCH  14  15
ENDBRANCH  13  14
ENDBRANCH  12  13
ENDBRANCH  11  12
ENDBRANCH  10  11
ENDBRANCH   1  10
TORSDOF 13
ENDMDL
MODEL 3
REMARK VINA RESULT:    -3.020      3.002      5.760
REMARK INTER + INTRA:          -6.742
REMARK INTER:                  -5.093
REMARK INTRA:                  -1.649
REMARK UNBOUND:                -1.427
REMARK SMILES CCCCCCCCCCCCCCC(=O)[O-]
REMARK SMILES IDX 9 1 10 2 11 3 12 4 13 5 14 6 15 7 16 8 17 9 8 10 7 11 6 12
REMARK SMILES IDX 5 13 4 14 3 15 2 16 1 17
REMARK H PARENT
REMARK Flexibility Score: inf
ROOT
ATOM      1  C   UNL     1      13.845  38.376   7.760  1.00  0.00     0.000 C 
ENDROOT
BRANCH   1   2
ATOM      2  C   UNL     1      14.665  39.016   6.628  1.00  0.00     0.000 C 
BRANCH   2   3
ATOM      3  C   UNL     1      16.128  38.543   6.618  1.00  0.00     0.000 C 
BRANCH   3   4
ATOM      4  C   UNL     1      17.125  39.706   6.745  1.00  0.00     0.000 C 
BRANCH   4   5
ATOM      5  C   UNL     1      16.433  41.056   6.999  1.00  0.00     0.006 C 
BRANCH   5   6
ATOM      6  C   UNL     1      17.040  41.800   8.196  1.00  0.00     0.053 C 
BRANCH   6   7
ATOM      7  C   UNL     1      15.983  42.403   9.069  1.00  0.00     0.041 C 
ATOM      8  O   UNL     1      14.818  42.578   8.627  1.00  0.00    -0.550 OA
ATOM      9  O   UNL     1      16.278  42.740  10.385  1.00  0.00    -0.550 OA
ENDBRANCH   6   7
ENDBRANCH   5   6
ENDBRANCH   4   5
ENDBRANCH   3   4
ENDBRANCH   2   3
ENDBRANCH   1   2
BRANCH   1  10
ATOM     10  C   UNL     1      14.127  39.013   9.130  1.00  0.00     0.000 C 
BRANCH  10  11
ATOM     11  C   UNL     1      14.893  38.043  10.038  1.00  0.00    -0.000 C 
BRANCH  11  12
ATOM     12  C   UNL     1      16.201  38.674  10.540  1.00  0.00    -0.000 C 
BRANCH  12  13
ATOM     13  C   UNL     1      16.855  37.843  11.664  1.00  0.00    -0.000 C 
BRANCH  13  14
ATOM     14  C   UNL     1      15.857  37.348  12.725  1.00  0.00    -0.000 C 
BRANCH  14  15
ATOM     15  C   UNL     1      15.681  38.334  13.888  1.00  0.00    -0.000 C 
BRANCH  15  16
ATOM     16  C   UNL     1      14.500  39.276  13.636  1.00  0.00    -0.003 C 
ATOM     17  C   UNL     1      13.169  38.547  13.797  1.00  0.00     0.004 C 
ENDBRANCH  15  16
ENDBRANCH  14  15
ENDBRANCH  13  14
ENDBRANCH  12  13
ENDBRANCH  11  12
ENDBRANCH  10  11
ENDBRANCH   1  10
TORSDOF 13
ENDMDL
MODEL 4
REMARK VINA RESULT:    -2.992      3.268      5.705
REMARK INTER + INTRA:          -6.693
REMARK INTER:                  -5.233
REMARK INTRA:                  -1.460
REMARK UNBOUND:                -1.427
REMARK SMILES CCCCCCCCCCCCCCC(=O)[O-]
REMARK SMILES IDX 9 1 10 2 11 3 12 4 13 5 14 6 15 7 16 8 17 9 8 10 7 11 6 12
REMARK SMILES IDX 5 13 4 14 3 15 2 16 1 17
REMARK H PARENT
REMARK Flexibility Score: inf
ROOT
ATOM      1  C   UNL     1      14.056  38.879   9.078  1.00  0.00     0.000 C 
ENDROOT
BRANCH   1   2
ATOM      2  C   UNL     1      13.811  38.332   7.662  1.00  0.00     0.000 C 
BRANCH   2   3
ATOM      3  C   UNL     1      14.813  38.885   6.634  1.00  0.00     0.000 C 
BRANCH   3   4
ATOM      4  C   UNL     1      16.235  39.008   7.206  1.00  0.00     0.000 C 
BRANCH   4   5
ATOM      5  C   UNL     1      16.815  40.425   7.057  1.00  0.00     0.006 C 
BRANCH   5   6
ATOM      6  C   UNL     1      16.933  41.145   8.407  1.00  0.00     0.053 C 
BRANCH   6   7
ATOM      7  C   UNL     1      16.201  42.452   8.404  1.00  0.00     0.041 C 
ATOM      8  O   UNL     1      14.976  42.493   8.118  1.00  0.00    -0.550 OA
ATOM      9  O   UNL     1      16.866  43.621   8.753  1.00  0.00    -0.550 OA
ENDBRANCH   6   7
ENDBRANCH   5   6
ENDBRANCH   4   5
ENDBRANCH   3   4
ENDBRANCH   2   3
ENDBRANCH   1   2
BRANCH   1  10
ATOM     10  C   UNL     1      14.150  37.766  10.135  1.00  0.00     0.000 C 
BRANCH  10  11
ATOM     11  C   UNL     1      15.536  37.750  10.791  1.00  0.00    -0.000 C 
BRANCH  11  12
ATOM     12  C   UNL     1      15.426  37.532  12.308  1.00  0.00    -0.000 C 
BRANCH  12  13
ATOM     13  C   UNL     1      14.422  38.502  12.965  1.00  0.00    -0.000 C 
BRANCH  13  14
ATOM     14  C   UNL     1      15.020  39.316  14.125  1.00  0.00    -0.000 C 
BRANCH  14  15
ATOM     15  C   UNL     1      15.319  40.772  13.742  1.00  0.00    -0.000 C 
BRANCH  15  16
ATOM     16  C   UNL     1      16.677  40.888  13.043  1.00  0.00    -0.003 C 
ATOM     17  C   UNL     1      16.699  42.067  12.073  1.00  0.00     0.004 C 
ENDBRANCH  15  16
ENDBRANCH  14  15
ENDBRANCH  13  14
ENDBRANCH  12  13
ENDBRANCH  11  12
ENDBRANCH  10  11
ENDBRANCH   1  10
TORSDOF 13
ENDMDL
MODEL 5
REMARK VINA RESULT:    -2.740      3.073      6.149
REMARK INTER + INTRA:          -6.250
REMARK INTER:                  -4.568
REMARK INTRA:                  -1.682
REMARK UNBOUND:                -1.427
REMARK SMILES CCCCCCCCCCCCCCC(=O)[O-]
REMARK SMILES IDX 9 1 10 2 11 3 12 4 13 5 14 6 15 7 16 8 17 9 8 10 7 11 6 12
REMARK SMILES IDX 5 13 4 14 3 15 2 16 1 17
REMARK H PARENT
REMARK Flexibility Score: inf
ROOT
ATOM      1  C   UNL     1      14.104  38.618   8.273  1.00  0.00     0.000 C 
ENDROOT
BRANCH   1   2
ATOM      2  C   UNL     1      14.925  39.000   7.029  1.00  0.00     0.000 C 
BRANCH   2   3
ATOM      3  C   UNL     1      16.424  39.156   7.337  1.00  0.00     0.000 C 
BRANCH   3   4
ATOM      4  C   UNL     1      16.818  40.616   7.617  1.00  0.00     0.000 C 
BRANCH   4   5
ATOM      5  C   UNL     1      15.737  41.618   7.176  1.00  0.00     0.006 C 
BRANCH   5   6
ATOM      6  C   UNL     1      15.089  42.332   8.370  1.00  0.00     0.053 C 
BRANCH   6   7
ATOM      7  C   UNL     1      16.084  43.152   9.132  1.00  0.00     0.041 C 
ATOM      8  O   UNL     1      16.777  44.021   8.541  1.00  0.00    -0.550 OA
ATOM      9  O   UNL     1      16.220  42.980  10.504  1.00  0.00    -0.550 OA
ENDBRANCH   6   7
ENDBRANCH   5   6
ENDBRANCH   4   5
ENDBRANCH   3   4
ENDBRANCH   2   3
ENDBRANCH   1   2
BRANCH   1  10
ATOM     10  C   UNL     1      14.982  38.124   9.434  1.00  0.00     0.000 C 
BRANCH  10  11
ATOM     11  C   UNL     1      14.817  39.021  10.666  1.00  0.00    -0.000 C 
BRANCH  11  12
ATOM     12  C   UNL     1      16.182  39.463  11.215  1.00  0.00    -0.000 C 
BRANCH  12  13
ATOM     13  C   UNL     1      16.340  39.139  12.715  1.00  0.00    -0.000 C 
BRANCH  13  14
ATOM     14  C   UNL     1      15.350  38.077  13.224  1.00  0.00    -0.000 C 
BRANCH  14  15
ATOM     15  C   UNL     1      16.039  36.776  13.659  1.00  0.00    -0.000 C 
BRANCH  15  16
ATOM     16  C   UNL     1      17.125  36.369  12.658  1.00  0.00    -0.003 C 
ATOM     17  C   UNL     1      16.572  35.417  11.601  1.00  0.00     0.004 C 
ENDBRANCH  15  16
ENDBRANCH  14  15
ENDBRANCH  13  14
ENDBRANCH  12  13
ENDBRANCH  11  12
ENDBRANCH  10  11
ENDBRANCH   1  10
TORSDOF 13
ENDMDL
MODEL 6
REMARK VINA RESULT:    -2.702      3.305      6.053
REMARK INTER + INTRA:          -6.184
REMARK INTER:                  -4.591
REMARK INTRA:                  -1.592
REMARK UNBOUND:                -1.427
REMARK SMILES CCCCCCCCCCCCCCC(=O)[O-]
REMARK SMILES IDX 9 1 10 2 11 3 12 4 13 5 14 6 15 7 16 8 17 9 8 10 7 11 6 12
REMARK SMILES IDX 5 13 4 14 3 15 2 16 1 17
REMARK H PARENT
REMARK Flexibility Score: inf
ROOT
ATOM      1  C   UNL     1      14.791  39.933  13.763  1.00  0.00     0.000 C 
ENDROOT
BRANCH   1   2
ATOM      2  C   UNL     1      16.305  39.821  14.008  1.00  0.00     0.000 C 
BRANCH   2   3
ATOM      3  C   UNL     1      17.124  40.707  13.055  1.00  0.00     0.000 C 
BRANCH   3   4
ATOM      4  C   UNL     1      16.275  41.807  12.396  1.00  0.00     0.000 C 
BRANCH   4   5
ATOM      5  C   UNL     1      17.067  42.635  11.370  1.00  0.00     0.006 C 
BRANCH   5   6
ATOM      6  C   UNL     1      16.924  42.080   9.946  1.00  0.00     0.053 C 
BRANCH   6   7
ATOM      7  C   UNL     1      16.086  42.974   9.084  1.00  0.00     0.041 C 
ATOM      8  O   UNL     1      16.492  44.126   8.782  1.00  0.00    -0.550 OA
ATOM      9  O   UNL     1      14.871  42.519   8.587  1.00  0.00    -0.550 OA
ENDBRANCH   6   7
ENDBRANCH   5   6
ENDBRANCH   4   5
ENDBRANCH   3   4
ENDBRANCH   2   3
ENDBRANCH   1   2
BRANCH   1  10
ATOM     10  C   UNL     1      14.209  38.691  13.071  1.00  0.00     0.000 C 
BRANCH  10  11
ATOM     11  C   UNL     1      15.295  37.633  12.841  1.00  0.00    -0.000 C 
BRANCH  11  12
ATOM     12  C   UNL     1      15.342  37.201  11.367  1.00  0.00    -0.000 C 
BRANCH  12  13
ATOM     13  C   UNL     1      16.115  38.207  10.489  1.00  0.00    -0.000 C 
BRANCH  13  14
ATOM     14  C   UNL     1      15.204  39.150   9.684  1.00  0.00    -0.000 C 
BRANCH  14  15
ATOM     15  C   UNL     1      14.140  38.403   8.869  1.00  0.00    -0.000 C 
BRANCH  15  16
ATOM     16  C   UNL     1      14.188  38.814   7.394  1.00  0.00    -0.003 C 
ATOM     17  C   UNL     1      15.622  38.821   6.871  1.00  0.00     0.004 C 
ENDBRANCH  15  16
ENDBRANCH  14  15
ENDBRANCH  13  14
ENDBRANCH  12  13
ENDBRANCH  11  12
ENDBRANCH  10  11
ENDBRANCH   1  10
TORSDOF 13
ENDMDL
MODEL 7
REMARK VINA RESULT:    -2.571      2.645      3.790
REMARK INTER + INTRA:          -5.953
REMARK INTER:                  -4.514
REMARK INTRA:                  -1.438
REMARK UNBOUND:                -1.427
REMARK SMILES CCCCCCCCCCCCCCC(=O)[O-]
REMARK SMILES IDX 9 1 10 2 11 3 12 4 13 5 14 6 15 7 16 8 17 9 8 10 7 11 6 12
REMARK SMILES IDX 5 13 4 14 3 15 2 16 1 17
REMARK H PARENT
REMARK Flexibility Score: inf
ROOT
ATOM      1  C   UNL     1      15.382  37.463  10.769  1.00  0.00     0.000 C 
ENDROOT
BRANCH   1   2
ATOM      2  C   UNL     1      15.134  37.521  12.286  1.00  0.00     0.000 C 
BRANCH   2   3
ATOM      3  C   UNL     1      13.897  38.360  12.649  1.00  0.00     0.000 C 
BRANCH   3   4
ATOM      4  C   UNL     1      14.089  39.162  13.947  1.00  0.00     0.000 C 
BRANCH   4   5
ATOM      5  C   UNL     1      15.529  39.675  14.119  1.00  0.00     0.006 C 
BRANCH   5   6
ATOM      6  C   UNL     1      15.652  41.170  13.794  1.00  0.00     0.053 C 
BRANCH   6   7
ATOM      7  C   UNL     1      16.471  41.404  12.563  1.00  0.00     0.041 C 
ATOM      8  O   UNL     1      17.120  40.459  12.042  1.00  0.00    -0.550 OA
ATOM      9  O   UNL     1      16.490  42.660  11.969  1.00  0.00    -0.550 OA
ENDBRANCH   6   7
ENDBRANCH   5   6
ENDBRANCH   4   5
ENDBRANCH   3   4
ENDBRANCH   2   3
ENDBRANCH   1   2
BRANCH   1  10
ATOM     10  C   UNL     1      14.861  38.709  10.035  1.00  0.00     0.000 C 
BRANCH  10  11
ATOM     11  C   UNL     1      14.146  38.320   8.736  1.00  0.00    -0.000 C 
BRANCH  11  12
ATOM     12  C   UNL     1      14.539  39.261   7.586  1.00  0.00    -0.000 C 
BRANCH  12  13
ATOM     13  C   UNL     1      15.914  38.904   6.985  1.00  0.00    -0.000 C 
BRANCH  13  14
ATOM     14  C   UNL     1      16.946  40.040   7.087  1.00  0.00    -0.000 C 
BRANCH  14  15
ATOM     15  C   UNL     1      16.897  40.773   8.435  1.00  0.00    -0.000 C 
BRANCH  15  16
ATOM     16  C   UNL     1      16.636  42.270   8.237  1.00  0.00    -0.003 C 
ATOM     17  C   UNL     1      15.196  42.630   8.591  1.00  0.00     0.004 C 
ENDBRANCH  15  16
ENDBRANCH  14  15
ENDBRANCH  13  14
ENDBRANCH  12  13
ENDBRANCH  11  12
ENDBRANCH  10  11
ENDBRANCH   1  10
TORSDOF 13
ENDMDL
MODEL 8
REMARK VINA RESULT:    -2.463      2.675      5.508
REMARK INTER + INTRA:          -5.762
REMARK INTER:                  -4.779
REMARK INTRA:                  -0.983
REMARK UNBOUND:                -1.427
REMARK SMILES CCCCCCCCCCCCCCC(=O)[O-]
REMARK SMILES IDX 9 1 10 2 11 3 12 4 13 5 14 6 15 7 16 8 17 9 8 10 7 11 6 12
REMARK SMILES IDX 5 13 4 14 3 15 2 16 1 17
REMARK H PARENT
REMARK Flexibility Score: inf
ROOT
ATOM      1  C   UNL     1      15.101  40.210   7.257  1.00  0.00     0.000 C 
ENDROOT
BRANCH   1   2
ATOM      2  C   UNL     1      16.624  40.421   7.271  1.00  0.00     0.000 C 
BRANCH   2   3
ATOM      3  C   UNL     1      17.125  41.022   8.596  1.00  0.00     0.000 C 
BRANCH   3   4
ATOM      4  C   UNL     1      16.717  42.495   8.765  1.00  0.00     0.000 C 
BRANCH   4   5
ATOM      5  C   UNL     1      16.060  42.776  10.127  1.00  0.00     0.006 C 
BRANCH   5   6
ATOM      6  C   UNL     1      17.092  42.866  11.259  1.00  0.00     0.053 C 
BRANCH   6   7
ATOM      7  C   UNL     1      16.491  42.518  12.586  1.00  0.00     0.041 C 
ATOM      8  O   UNL     1      15.597  43.247  13.089  1.00  0.00    -0.550 OA
ATOM      9  O   UNL     1      16.895  41.367  13.252  1.00  0.00    -0.550 OA
ENDBRANCH   6   7
ENDBRANCH   5   6
ENDBRANCH   4   5
ENDBRANCH   3   4
ENDBRANCH   2   3
ENDBRANCH   1   2
BRANCH   1  10
ATOM     10  C   UNL     1      14.707  38.751   6.979  1.00  0.00     0.000 C 
BRANCH  10  11
ATOM     11  C   UNL     1      13.805  38.205   8.092  1.00  0.00    -0.000 C 
BRANCH  11  12
ATOM     12  C   UNL     1      14.164  38.830   9.450  1.00  0.00    -0.000 C 
BRANCH  12  13
ATOM     13  C   UNL     1      14.260  37.774  10.570  1.00  0.00    -0.000 C 
BRANCH  13  14
ATOM     14  C   UNL     1      15.680  37.600  11.135  1.00  0.00    -0.000 C 
BRANCH  14  15
ATOM     15  C   UNL     1      15.690  37.172  12.609  1.00  0.00    -0.000 C 
BRANCH  15  16
ATOM     16  C   UNL     1      16.680  36.026  12.842  1.00  0.00    -0.003 C 
ATOM     17  C   UNL     1      17.114  35.395  11.521  1.00  0.00     0.004 C 
ENDBRANCH  15  16
ENDBRANCH  14  15
ENDBRANCH  13  14
ENDBRANCH  12  13
ENDBRANCH  11  12
ENDBRANCH  10  11
ENDBRANCH   1  10
TORSDOF 13
ENDMDL
MODEL 9
REMARK VINA RESULT:    -2.461      2.814      4.845
REMARK INTER + INTRA:          -5.758
REMARK INTER:                  -4.475
REMARK INTRA:                  -1.283
REMARK UNBOUND:                -1.427
REMARK SMILES CCCCCCCCCCCCCCC(=O)[O-]
REMARK SMILES IDX 9 1 10 2 11 3 12 4 13 5 14 6 15 7 16 8 17 9 8 10 7 11 6 12
REMARK SMILES IDX 5 13 4 14 3 15 2 16 1 17
REMARK H PARENT
REMARK Flexibility Score: inf
ROOT
ATOM      1  C   UNL     1      14.983  42.187   8.468  1.00  0.00     0.000 C 
ENDROOT
BRANCH   1   2
ATOM      2  C   UNL     1      15.974  43.291   8.870  1.00  0.00     0.000 C 
BRANCH   2   3
ATOM      3  C   UNL     1      17.120  42.764   9.751  1.00  0.00     0.000 C 
BRANCH   3   4
ATOM      4  C   UNL     1      16.711  42.622  11.226  1.00  0.00     0.000 C 
BRANCH   4   5
ATOM      5  C   UNL     1      16.873  41.185  11.752  1.00  0.00     0.006 C 
BRANCH   5   6
ATOM      6  C   UNL     1      16.826  41.122  13.284  1.00  0.00     0.053 C 
BRANCH   6   7
ATOM      7  C   UNL     1      15.515  41.609  13.819  1.00  0.00     0.041 C 
ATOM      8  O   UNL     1      15.309  42.843  13.967  1.00  0.00    -0.550 OA
ATOM      9  O   UNL     1      14.508  40.702  14.123  1.00  0.00    -0.550 OA
ENDBRANCH   6   7
ENDBRANCH   5   6
ENDBRANCH   4   5
ENDBRANCH   3   4
ENDBRANCH   2   3
ENDBRANCH   1   2
BRANCH   1  10
ATOM     10  C   UNL     1      15.385  41.474   7.167  1.00  0.00     0.000 C 
BRANCH  10  11
ATOM     11  C   UNL     1      15.715  40.000   7.429  1.00  0.00    -0.000 C 
BRANCH  11  12
ATOM     12  C   UNL     1      14.451  39.130   7.359  1.00  0.00    -0.000 C 
BRANCH  12  13
ATOM     13  C   UNL     1      14.197  38.365   8.675  1.00  0.00    -0.000 C 
BRANCH  13  14
ATOM     14  C   UNL     1      15.184  38.725   9.798  1.00  0.00    -0.000 C 
BRANCH  14  15
ATOM     15  C   UNL     1      14.648  38.389  11.197  1.00  0.00    -0.000 C 
BRANCH  15  16
ATOM     16  C   UNL     1      15.675  37.586  12.001  1.00  0.00    -0.003 C 
ATOM     17  C   UNL     1      15.235  37.429  13.455  1.00  0.00     0.004 C 
ENDBRANCH  15  16
ENDBRANCH  14  15
ENDBRANCH  13  14
ENDBRANCH  12  13
ENDBRANCH  11  12
ENDBRANCH  10  11
ENDBRANCH   1  10
TORSDOF 13
ENDMDL
