MODEL 1
REMARK VINA RESULT:    -5.599      0.000      0.000
REMARK INTER + INTRA:          -7.655
REMARK INTER:                  -7.890
REMARK INTRA:                   0.235
REMARK UNBOUND:                 0.235
REMARK SMILES CC1=CCC(=C(C)C)C(=O)CC(C)=CCC1
REMARK SMILES IDX 12 1 14 2 13 3 15 4 16 5 2 6 1 7 3 8 11 10 9 11 10 12 5 13
REMARK SMILES IDX 6 14 7 15 8 16 4 17
REMARK H PARENT
REMARK Flexibility Score: 60.00
ROOT
ATOM      1  C   UNL     1      -8.428  29.058  23.006  1.00  0.00    -0.070 C 
ATOM      2  C   UNL     1      -8.782  28.860  24.294  1.00  0.00    -0.027 C 
ATOM      3  C   UNL     1      -8.629  27.921  22.035  1.00  0.00     0.039 C 
ENDROOT
BRANCH   2   4
ATOM      4  C   UNL     1      -8.570  29.839  25.429  1.00  0.00     0.032 C 
BRANCH   4   5
ATOM      5  C   UNL     1      -9.545  31.034  25.445  1.00  0.00     0.034 C 
BRANCH   5   6
ATOM      6  C   UNL     1      -8.841  32.379  25.493  1.00  0.00    -0.077 C 
ATOM      7  C   UNL     1      -8.052  32.713  26.735  1.00  0.00     0.039 C 
ATOM      8  C   UNL     1      -8.932  33.324  24.526  1.00  0.00    -0.023 CG0
ATOM      9  G   UNL     1      -9.646  33.204  23.195  1.00  0.00     0.000 G0
ENDBRANCH   5   6
ENDBRANCH   4   5
ENDBRANCH   2   4
BRANCH   1  10
ATOM     10  C   UNL     1      -7.758  30.324  22.512  1.00  0.00     0.111 C 
BRANCH  10  11
ATOM     11  C   UNL     1      -8.735  31.237  21.820  1.00  0.00     0.163 C 
ATOM     12  O   UNL     1      -9.510  30.737  20.961  1.00  0.00    -0.294 OA
BRANCH  11  13
ATOM     13  C   UNL     1      -8.770  32.709  22.069  1.00  0.00    -0.002 C 
ATOM     14  C   UNL     1      -7.964  33.557  21.362  1.00  0.00    -0.069 C 
ATOM     15  C   UNL     1      -7.860  35.029  21.698  1.00  0.00     0.039 C 
ATOM     16  C   UNL     1      -7.127  33.060  20.204  1.00  0.00     0.039 C 
BRANCH  13  17
ATOM     17  C   UNL     1      -9.664  33.203  23.196  1.00  0.00     0.066 CG0
ATOM     18  G   UNL     1      -8.925  33.302  24.516  1.00  0.00     0.000 G0
ENDBRANCH  13  17
ENDBRANCH  11  13
ENDBRANCH  10  11
ENDBRANCH   1  10
TORSDOF 0
ENDMDL
MODEL 2
REMARK VINA RESULT:    -5.390      1.199      3.848
REMARK INTER + INTRA:          -7.360
REMARK INTER:                  -7.543
REMARK INTRA:                   0.183
REMARK UNBOUND:                 0.235
REMARK SMILES CC1=CCC(=C(C)C)C(=O)CC(C)=CCC1
REMARK SMILES IDX 12 1 14 2 13 3 15 4 16 5 2 6 1 7 3 8 11 10 9 11 10 12 5 13
REMARK SMILES IDX 6 14 7 15 8 16 4 17
REMARK H PARENT
REMARK Flexibility Score: 60.00
ROOT
ATOM      1  C   UNL     1      -7.585  33.257  21.127  1.00  0.00    -0.070 C 
ATOM      2  C   UNL     1      -7.562  34.442  21.776  1.00  0.00    -0.027 C 
ATOM      3  C   UNL     1      -7.813  33.274  19.636  1.00  0.00     0.039 C 
ENDROOT
BRANCH   2   4
ATOM      4  C   UNL     1      -7.444  34.626  23.274  1.00  0.00     0.032 C 
BRANCH   4   5
ATOM      5  C   UNL     1      -8.778  34.544  24.044  1.00  0.00     0.034 C 
BRANCH   5   6
ATOM      6  C   UNL     1      -8.673  33.755  25.338  1.00  0.00    -0.077 C 
ATOM      7  C   UNL     1      -7.906  34.378  26.479  1.00  0.00     0.039 C 
ATOM      8  C   UNL     1      -9.163  32.504  25.511  1.00  0.00    -0.023 CG0
ATOM      9  G   UNL     1      -9.977  31.695  24.522  1.00  0.00     0.000 G0
ENDBRANCH   5   6
ENDBRANCH   4   5
ENDBRANCH   2   4
BRANCH   1  10
ATOM     10  C   UNL     1      -7.487  31.920  21.831  1.00  0.00     0.111 C 
BRANCH  10  11
ATOM     11  C   UNL     1      -8.843  31.403  22.233  1.00  0.00     0.163 C 
ATOM     12  O   UNL     1      -9.785  31.495  21.400  1.00  0.00    -0.294 OA
BRANCH  11  13
ATOM     13  C   UNL     1      -9.119  30.849  23.592  1.00  0.00    -0.002 C 
ATOM     14  C   UNL     1      -8.685  29.600  23.939  1.00  0.00    -0.069 C 
ATOM     15  C   UNL     1      -9.082  28.948  25.245  1.00  0.00     0.039 C 
ATOM     16  C   UNL     1      -7.782  28.801  23.024  1.00  0.00     0.039 C 
BRANCH  13  17
ATOM     17  C   UNL     1      -9.977  31.689  24.525  1.00  0.00     0.066 CG0
ATOM     18  G   UNL     1      -9.144  32.503  25.495  1.00  0.00     0.000 G0
ENDBRANCH  13  17
ENDBRANCH  11  13
ENDBRANCH  10  11
ENDBRANCH   1  10
TORSDOF 0
ENDMDL
MODEL 3
REMARK VINA RESULT:    -5.041      1.889      3.784
REMARK INTER + INTRA:          -6.869
REMARK INTER:                  -7.325
REMARK INTRA:                   0.456
REMARK UNBOUND:                 0.235
REMARK SMILES CC1=CCC(=C(C)C)C(=O)CC(C)=CCC1
REMARK SMILES IDX 12 1 14 2 13 3 15 4 16 5 2 6 1 7 3 8 11 10 9 11 10 12 5 13
REMARK SMILES IDX 6 14 7 15 8 16 4 17
REMARK H PARENT
REMARK Flexibility Score: 60.00
ROOT
ATOM      1  C   UNL     1      -8.239  34.781  25.192  1.00  0.00    -0.070 C 
ATOM      2  C   UNL     1      -8.595  34.109  26.309  1.00  0.00    -0.027 C 
ATOM      3  C   UNL     1      -8.750  36.190  25.024  1.00  0.00     0.039 C 
ENDROOT
BRANCH   2   4
ATOM      4  C   UNL     1      -8.265  32.663  26.612  1.00  0.00     0.032 C 
BRANCH   4   5
ATOM      5  C   UNL     1      -9.414  31.667  26.350  1.00  0.00     0.034 C 
BRANCH   5   6
ATOM      6  C   UNL     1      -9.091  30.654  25.266  1.00  0.00    -0.077 C 
ATOM      7  C   UNL     1      -8.495  29.335  25.694  1.00  0.00     0.039 C 
ATOM      8  C   UNL     1      -9.237  30.883  23.938  1.00  0.00    -0.023 CG0
ATOM      9  G   UNL     1      -9.827  32.114  23.281  1.00  0.00     0.000 G0
ENDBRANCH   5   6
ENDBRANCH   4   5
ENDBRANCH   2   4
BRANCH   1  10
ATOM     10  C   UNL     1      -7.435  34.161  24.068  1.00  0.00     0.111 C 
BRANCH  10  11
ATOM     11  C   UNL     1      -8.233  34.077  22.795  1.00  0.00     0.163 C 
ATOM     12  O   UNL     1      -8.415  35.136  22.136  1.00  0.00    -0.294 OA
BRANCH  11  13
ATOM     13  C   UNL     1      -8.863  32.806  22.326  1.00  0.00    -0.002 C 
ATOM     14  C   UNL     1      -8.633  32.337  21.062  1.00  0.00    -0.069 C 
ATOM     15  C   UNL     1      -9.377  31.144  20.504  1.00  0.00     0.039 C 
ATOM     16  C   UNL     1      -7.620  32.997  20.153  1.00  0.00     0.039 C 
BRANCH  13  17
ATOM     17  C   UNL     1      -9.833  32.119  23.273  1.00  0.00     0.066 CG0
ATOM     18  G   UNL     1      -9.229  30.890  23.924  1.00  0.00     0.000 G0
ENDBRANCH  13  17
ENDBRANCH  11  13
ENDBRANCH  10  11
ENDBRANCH   1  10
TORSDOF 0
ENDMDL
MODEL 4
REMARK VINA RESULT:    -4.801      1.713      2.786
REMARK INTER + INTRA:          -6.531
REMARK INTER:                  -6.997
REMARK INTRA:                   0.466
REMARK UNBOUND:                 0.235
REMARK SMILES CC1=CCC(=C(C)C)C(=O)CC(C)=CCC1
REMARK SMILES IDX 12 1 14 2 13 3 15 4 16 5 2 6 1 7 3 8 11 10 9 11 10 12 5 13
REMARK SMILES IDX 6 14 7 15 8 16 4 17
REMARK H PARENT
REMARK Flexibility Score: 60.00
ROOT
ATOM      1  C   UNL     1      -8.981  30.896  25.722  1.00  0.00    -0.070 C 
ATOM      2  C   UNL     1      -8.694  31.752  26.728  1.00  0.00    -0.027 C 
ATOM      3  C   UNL     1      -8.540  29.461  25.869  1.00  0.00     0.039 C 
ENDROOT
BRANCH   2   4
ATOM      4  C   UNL     1      -8.965  33.241  26.725  1.00  0.00     0.032 C 
BRANCH   4   5
ATOM      5  C   UNL     1      -7.851  34.102  26.095  1.00  0.00     0.034 C 
BRANCH   5   6
ATOM      6  C   UNL     1      -8.318  34.891  24.884  1.00  0.00    -0.077 C 
ATOM      7  C   UNL     1      -9.114  36.149  25.131  1.00  0.00     0.039 C 
ATOM      8  C   UNL     1      -8.127  34.503  23.600  1.00  0.00    -0.023 CG0
ATOM      9  G   UNL     1      -7.348  33.297  23.114  1.00  0.00     0.000 G0
ENDBRANCH   5   6
ENDBRANCH   4   5
ENDBRANCH   2   4
BRANCH   1  10
ATOM     10  C   UNL     1      -9.636  31.326  24.426  1.00  0.00     0.111 C 
BRANCH  10  11
ATOM     11  C   UNL     1      -8.722  31.122  23.247  1.00  0.00     0.163 C 
ATOM     12  O   UNL     1      -8.334  29.951  22.991  1.00  0.00    -0.294 OA
BRANCH  11  13
ATOM     13  C   UNL     1      -8.217  32.258  22.420  1.00  0.00    -0.002 C 
ATOM     14  C   UNL     1      -8.465  32.310  21.076  1.00  0.00    -0.069 C 
ATOM     15  C   UNL     1      -7.836  33.358  20.185  1.00  0.00     0.039 C 
ATOM     16  C   UNL     1      -9.386  31.310  20.410  1.00  0.00     0.039 C 
BRANCH  13  17
ATOM     17  C   UNL     1      -7.343  33.291  23.114  1.00  0.00     0.066 CG0
ATOM     18  G   UNL     1      -8.137  34.492  23.586  1.00  0.00     0.000 G0
ENDBRANCH  13  17
ENDBRANCH  11  13
ENDBRANCH  10  11
ENDBRANCH   1  10
TORSDOF 0
ENDMDL
MODEL 5
REMARK VINA RESULT:    -4.634      2.104      5.393
REMARK INTER + INTRA:          -6.296
REMARK INTER:                  -6.985
REMARK INTRA:                   0.689
REMARK UNBOUND:                 0.235
REMARK SMILES CC1=CCC(=C(C)C)C(=O)CC(C)=CCC1
REMARK SMILES IDX 12 1 14 2 13 3 15 4 16 5 2 6 1 7 3 8 11 10 9 11 10 12 5 13
REMARK SMILES IDX 6 14 7 15 8 16 4 17
REMARK H PARENT
REMARK Flexibility Score: 60.00
ROOT
ATOM      1  C   UNL     1      -8.034  34.675  23.864  1.00  0.00    -0.070 C 
ATOM      2  C   UNL     1      -7.614  34.706  22.580  1.00  0.00    -0.027 C 
ATOM      3  C   UNL     1      -7.183  35.364  24.901  1.00  0.00     0.039 C 
ENDROOT
BRANCH   2   4
ATOM      4  C   UNL     1      -8.275  33.995  21.418  1.00  0.00     0.032 C 
BRANCH   4   5
ATOM      5  C   UNL     1      -7.729  32.582  21.128  1.00  0.00     0.034 C 
BRANCH   5   6
ATOM      6  C   UNL     1      -8.726  31.480  21.446  1.00  0.00    -0.077 C 
ATOM      7  C   UNL     1      -9.718  31.102  20.374  1.00  0.00     0.039 C 
ATOM      8  C   UNL     1      -8.827  30.865  22.649  1.00  0.00    -0.023 CG0
ATOM      9  G   UNL     1      -7.935  31.067  23.857  1.00  0.00     0.000 G0
ENDBRANCH   5   6
ENDBRANCH   4   5
ENDBRANCH   2   4
BRANCH   1  10
ATOM     10  C   UNL     1      -9.257  33.907  24.322  1.00  0.00     0.111 C 
BRANCH  10  11
ATOM     11  C   UNL     1      -8.917  32.909  25.396  1.00  0.00     0.163 C 
ATOM     12  O   UNL     1      -8.735  33.335  26.568  1.00  0.00    -0.294 OA
BRANCH  11  13
ATOM     13  C   UNL     1      -8.730  31.455  25.109  1.00  0.00    -0.002 C 
ATOM     14  C   UNL     1      -9.188  30.506  25.979  1.00  0.00    -0.069 C 
ATOM     15  C   UNL     1      -8.876  29.036  25.798  1.00  0.00     0.039 C 
ATOM     16  C   UNL     1     -10.031  30.882  27.178  1.00  0.00     0.039 C 
BRANCH  13  17
ATOM     17  C   UNL     1      -7.933  31.088  23.866  1.00  0.00     0.066 CG0
ATOM     18  G   UNL     1      -8.821  30.863  22.659  1.00  0.00     0.000 G0
ENDBRANCH  13  17
ENDBRANCH  11  13
ENDBRANCH  10  11
ENDBRANCH   1  10
TORSDOF 0
ENDMDL
MODEL 6
REMARK VINA RESULT:    -4.590      1.843      4.226
REMARK INTER + INTRA:          -6.234
REMARK INTER:                  -7.104
REMARK INTRA:                   0.870
REMARK UNBOUND:                 0.235
REMARK SMILES CC1=CCC(=C(C)C)C(=O)CC(C)=CCC1
REMARK SMILES IDX 12 1 14 2 13 3 15 4 16 5 2 6 1 7 3 8 11 10 9 11 10 12 5 13
REMARK SMILES IDX 6 14 7 15 8 16 4 17
REMARK H PARENT
REMARK Flexibility Score: 60.00
ROOT
ATOM      1  C   UNL     1      -8.245  33.066  20.778  1.00  0.00    -0.070 C 
ATOM      2  C   UNL     1      -8.424  31.742  20.578  1.00  0.00    -0.027 C 
ATOM      3  C   UNL     1      -7.201  33.770  19.947  1.00  0.00     0.039 C 
ENDROOT
BRANCH   2   4
ATOM      4  C   UNL     1      -9.348  30.845  21.374  1.00  0.00     0.032 C 
BRANCH   4   5
ATOM      5  C   UNL     1      -8.679  29.589  21.969  1.00  0.00     0.034 C 
BRANCH   5   6
ATOM      6  C   UNL     1      -7.681  29.908  23.069  1.00  0.00    -0.077 C 
ATOM      7  C   UNL     1      -6.396  29.118  23.100  1.00  0.00     0.039 C 
ATOM      8  C   UNL     1      -7.899  30.803  24.062  1.00  0.00    -0.023 CG0
ATOM      9  G   UNL     1      -9.097  31.717  24.223  1.00  0.00     0.000 G0
ENDBRANCH   5   6
ENDBRANCH   4   5
ENDBRANCH   2   4
BRANCH   1  10
ATOM     10  C   UNL     1      -8.969  33.851  21.852  1.00  0.00     0.111 C 
BRANCH  10  11
ATOM     11  C   UNL     1      -8.188  33.884  23.138  1.00  0.00     0.163 C 
ATOM     12  O   UNL     1      -7.077  34.480  23.145  1.00  0.00    -0.294 OA
BRANCH  11  13
ATOM     13  C   UNL     1      -8.651  33.187  24.375  1.00  0.00    -0.002 C 
ATOM     14  C   UNL     1      -8.606  33.813  25.590  1.00  0.00    -0.069 C 
ATOM     15  C   UNL     1      -8.917  33.085  26.879  1.00  0.00     0.039 C 
ATOM     16  C   UNL     1      -8.235  35.276  25.704  1.00  0.00     0.039 C 
BRANCH  13  17
ATOM     17  C   UNL     1      -9.080  31.734  24.237  1.00  0.00     0.066 CG0
ATOM     18  G   UNL     1      -7.901  30.801  24.051  1.00  0.00     0.000 G0
ENDBRANCH  13  17
ENDBRANCH  11  13
ENDBRANCH  10  11
ENDBRANCH   1  10
TORSDOF 0
ENDMDL
MODEL 7
REMARK VINA RESULT:    -4.472      1.364      2.198
REMARK INTER + INTRA:          -6.067
REMARK INTER:                  -6.996
REMARK INTRA:                   0.929
REMARK UNBOUND:                 0.235
REMARK SMILES CC1=CCC(=C(C)C)C(=O)CC(C)=CCC1
REMARK SMILES IDX 12 1 14 2 13 3 15 4 16 5 2 6 1 7 3 8 11 10 9 11 10 12 5 13
REMARK SMILES IDX 6 14 7 15 8 16 4 17
REMARK H PARENT
REMARK Flexibility Score: 60.00
ROOT
ATOM      1  C   UNL     1      -8.006  30.154  22.367  1.00  0.00    -0.070 C 
ATOM      2  C   UNL     1      -7.952  29.122  23.238  1.00  0.00    -0.027 C 
ATOM      3  C   UNL     1      -6.705  30.800  21.958  1.00  0.00     0.039 C 
ENDROOT
BRANCH   2   4
ATOM      4  C   UNL     1      -9.145  28.411  23.839  1.00  0.00     0.032 C 
BRANCH   4   5
ATOM      5  C   UNL     1      -9.800  29.139  25.031  1.00  0.00     0.034 C 
BRANCH   5   6
ATOM      6  C   UNL     1      -8.893  30.176  25.670  1.00  0.00    -0.077 C 
ATOM      7  C   UNL     1      -7.858  29.690  26.654  1.00  0.00     0.039 C 
ATOM      8  C   UNL     1      -8.998  31.511  25.467  1.00  0.00    -0.023 CG0
ATOM      9  G   UNL     1      -9.941  32.221  24.517  1.00  0.00     0.000 G0
ENDBRANCH   5   6
ENDBRANCH   4   5
ENDBRANCH   2   4
BRANCH   1  10
ATOM     10  C   UNL     1      -9.303  30.749  21.861  1.00  0.00     0.111 C 
BRANCH  10  11
ATOM     11  C   UNL     1      -9.328  32.246  22.018  1.00  0.00     0.163 C 
ATOM     12  O   UNL     1      -9.370  32.952  20.975  1.00  0.00    -0.294 OA
BRANCH  11  13
ATOM     13  C   UNL     1      -9.240  32.914  23.351  1.00  0.00    -0.002 C 
ATOM     14  C   UNL     1      -8.483  34.039  23.521  1.00  0.00    -0.069 C 
ATOM     15  C   UNL     1      -8.246  34.646  24.886  1.00  0.00     0.039 C 
ATOM     16  C   UNL     1      -7.836  34.734  22.342  1.00  0.00     0.039 C 
BRANCH  13  17
ATOM     17  C   UNL     1      -9.946  32.238  24.516  1.00  0.00     0.066 CG0
ATOM     18  G   UNL     1      -8.982  31.503  25.426  1.00  0.00     0.000 G0
ENDBRANCH  13  17
ENDBRANCH  11  13
ENDBRANCH  10  11
ENDBRANCH   1  10
TORSDOF 0
ENDMDL
MODEL 8
REMARK VINA RESULT:    -4.238      1.672      3.478
REMARK INTER + INTRA:          -5.737
REMARK INTER:                  -6.211
REMARK INTRA:                   0.474
REMARK UNBOUND:                 0.235
REMARK SMILES CC1=CCC(=C(C)C)C(=O)CC(C)=CCC1
REMARK SMILES IDX 12 1 14 2 13 3 15 4 16 5 2 6 1 7 3 8 11 10 9 11 10 12 5 13
REMARK SMILES IDX 6 14 7 15 8 16 4 17
REMARK H PARENT
REMARK Flexibility Score: 60.00
ROOT
ATOM      1  C   UNL     1      -8.579  31.388  25.607  1.00  0.00    -0.070 C 
ATOM      2  C   UNL     1      -7.928  30.205  25.559  1.00  0.00    -0.027 C 
ATOM      3  C   UNL     1      -9.804  31.484  26.481  1.00  0.00     0.039 C 
ENDROOT
BRANCH   2   4
ATOM      4  C   UNL     1      -6.743  29.884  24.673  1.00  0.00     0.032 C 
BRANCH   4   5
ATOM      5  C   UNL     1      -7.017  28.828  23.582  1.00  0.00     0.034 C 
BRANCH   5   6
ATOM      6  C   UNL     1      -8.326  29.055  22.846  1.00  0.00    -0.077 C 
ATOM      7  C   UNL     1      -9.431  28.047  23.052  1.00  0.00     0.039 C 
ATOM      8  C   UNL     1      -8.543  30.062  21.965  1.00  0.00    -0.023 CG0
ATOM      9  G   UNL     1      -7.595  31.192  21.616  1.00  0.00     0.000 G0
ENDBRANCH   5   6
ENDBRANCH   4   5
ENDBRANCH   2   4
BRANCH   1  10
ATOM     10  C   UNL     1      -8.196  32.584  24.759  1.00  0.00     0.111 C 
BRANCH  10  11
ATOM     11  C   UNL     1      -8.859  32.544  23.409  1.00  0.00     0.163 C 
ATOM     12  O   UNL     1     -10.115  32.449  23.365  1.00  0.00    -0.294 OA
BRANCH  11  13
ATOM     13  C   UNL     1      -8.081  32.547  22.134  1.00  0.00    -0.002 C 
ATOM     14  C   UNL     1      -7.878  33.709  21.442  1.00  0.00    -0.069 C 
ATOM     15  C   UNL     1      -7.235  33.723  20.073  1.00  0.00     0.039 C 
ATOM     16  C   UNL     1      -8.296  35.046  22.014  1.00  0.00     0.039 C 
BRANCH  13  17
ATOM     17  C   UNL     1      -7.612  31.203  21.600  1.00  0.00     0.066 CG0
ATOM     18  G   UNL     1      -8.549  30.074  21.980  1.00  0.00     0.000 G0
ENDBRANCH  13  17
ENDBRANCH  11  13
ENDBRANCH  10  11
ENDBRANCH   1  10
TORSDOF 0
ENDMDL
MODEL 9
REMARK VINA RESULT:    -3.846      1.928      3.645
REMARK INTER + INTRA:          -5.185
REMARK INTER:                  -7.000
REMARK INTRA:                   1.816
REMARK UNBOUND:                 0.235
REMARK SMILES CC1=CCC(=C(C)C)C(=O)CC(C)=CCC1
REMARK SMILES IDX 12 1 14 2 13 3 15 4 16 5 2 6 1 7 3 8 11 10 9 11 10 12 5 13
REMARK SMILES IDX 6 14 7 15 8 16 4 17
REMARK H PARENT
REMARK Flexibility Score: 60.00
ROOT
ATOM      1  C   UNL     1      -8.294  31.330  26.683  1.00  0.00    -0.070 C 
ATOM      2  C   UNL     1      -8.036  30.006  26.607  1.00  0.00    -0.027 C 
ATOM      3  C   UNL     1      -7.451  32.162  27.617  1.00  0.00     0.039 C 
ENDROOT
BRANCH   2   4
ATOM      4  C   UNL     1      -8.829  28.996  25.806  1.00  0.00     0.032 C 
BRANCH   4   5
ATOM      5  C   UNL     1      -9.538  29.568  24.562  1.00  0.00     0.034 C 
BRANCH   5   6
ATOM      6  C   UNL     1      -8.594  29.825  23.401  1.00  0.00    -0.077 C 
ATOM      7  C   UNL     1      -7.619  28.733  23.035  1.00  0.00     0.039 C 
ATOM      8  C   UNL     1      -8.522  30.994  22.719  1.00  0.00    -0.023 CG0
ATOM      9  G   UNL     1      -9.405  32.213  22.896  1.00  0.00     0.000 G0
ENDBRANCH   5   6
ENDBRANCH   4   5
ENDBRANCH   2   4
BRANCH   1  10
ATOM     10  C   UNL     1      -9.442  31.997  25.952  1.00  0.00     0.111 C 
BRANCH  10  11
ATOM     11  C   UNL     1      -8.996  33.246  25.239  1.00  0.00     0.163 C 
ATOM     12  O   UNL     1      -8.887  34.307  25.911  1.00  0.00    -0.294 OA
BRANCH  11  13
ATOM     13  C   UNL     1      -8.743  33.281  23.768  1.00  0.00    -0.002 C 
ATOM     14  C   UNL     1      -8.005  34.287  23.209  1.00  0.00    -0.069 C 
ATOM     15  C   UNL     1      -7.864  34.440  21.711  1.00  0.00     0.039 C 
ATOM     16  C   UNL     1      -7.292  35.307  24.070  1.00  0.00     0.039 C 
BRANCH  13  17
ATOM     17  C   UNL     1      -9.416  32.213  22.920  1.00  0.00     0.066 CG0
ATOM     18  G   UNL     1      -8.532  30.999  22.715  1.00  0.00     0.000 G0
ENDBRANCH  13  17
ENDBRANCH  11  13
ENDBRANCH  10  11
ENDBRANCH   1  10
TORSDOF 0
ENDMDL
