MODEL 1
REMARK VINA RESULT:    -7.703      0.000      0.000
REMARK INTER + INTRA:         -10.278
REMARK INTER:                  -9.729
REMARK INTRA:                  -0.549
REMARK UNBOUND:                -0.549
REMARK SMILES O=C(C=Cc1ccc(O)cc1)c1ccc(O)cc1O
REMARK SMILES IDX 4 1 3 2 5 3 6 4 7 5 8 6 11 7 10 8 9 9 2 11 1 12 12 13 18 14
REMARK SMILES IDX 13 15 17 16 14 17 15 18 19 19 16 21
REMARK H PARENT 9 10 19 20 16 22
REMARK Flexibility Score: inf
ROOT
ATOM      1  C   UNL     1     -17.922  53.060  22.383  1.00  0.00     0.012 C 
ATOM      2  C   UNL     1     -17.513  53.011  21.107  1.00  0.00     0.053 C 
ENDROOT
BRANCH   1   3
ATOM      3  C   UNL     1     -18.257  51.860  23.188  1.00  0.00    -0.025 A 
ATOM      4  C   UNL     1     -18.838  50.706  22.622  1.00  0.00     0.012 A 
ATOM      5  C   UNL     1     -19.125  49.594  23.421  1.00  0.00     0.047 A 
ATOM      6  C   UNL     1     -18.830  49.611  24.786  1.00  0.00     0.115 A 
ATOM      7  C   UNL     1     -17.950  51.860  24.559  1.00  0.00     0.012 A 
ATOM      8  C   UNL     1     -18.239  50.747  25.354  1.00  0.00     0.047 A 
BRANCH   6   9
ATOM      9  O   UNL     1     -19.124  48.497  25.568  1.00  0.00    -0.508 OA
ATOM     10  H   UNL     1     -20.068  48.307  25.886  1.00  0.00     0.293 HD
ENDBRANCH   6   9
ENDBRANCH   1   3
BRANCH   2  11
ATOM     11  C   UNL     1     -17.200  54.231  20.332  1.00  0.00     0.189 C 
ATOM     12  O   UNL     1     -18.125  54.878  19.769  1.00  0.00    -0.289 OA
BRANCH  11  13
ATOM     13  C   UNL     1     -15.807  54.718  20.236  1.00  0.00     0.064 A 
ATOM     14  C   UNL     1     -15.300  55.716  21.105  1.00  0.00     0.130 A 
ATOM     15  C   UNL     1     -14.947  54.146  19.280  1.00  0.00     0.020 A 
ATOM     16  C   UNL     1     -13.954  56.090  21.022  1.00  0.00     0.093 A 
ATOM     17  C   UNL     1     -13.611  54.540  19.198  1.00  0.00     0.047 A 
ATOM     18  C   UNL     1     -13.108  55.506  20.070  1.00  0.00     0.119 A 
BRANCH  14  19
ATOM     19  O   UNL     1     -16.106  56.373  22.037  1.00  0.00    -0.507 OA
ATOM     20  H   UNL     1     -17.090  56.171  22.160  1.00  0.00     0.293 HD
ENDBRANCH  14  19
BRANCH  18  21
ATOM     21  O   UNL     1     -11.770  55.884  19.983  1.00  0.00    -0.508 OA
ATOM     22  H   UNL     1     -11.311  56.009  19.089  1.00  0.00     0.293 HD
ENDBRANCH  18  21
ENDBRANCH  11  13
ENDBRANCH   2  11
TORSDOF 6
ENDMDL
MODEL 2
REMARK VINA RESULT:    -7.139      1.210      1.795
REMARK INTER + INTRA:          -9.566
REMARK INTER:                  -9.051
REMARK INTRA:                  -0.515
REMARK UNBOUND:                -0.549
REMARK SMILES O=C(C=Cc1ccc(O)cc1)c1ccc(O)cc1O
REMARK SMILES IDX 4 1 3 2 5 3 6 4 7 5 8 6 11 7 10 8 9 9 2 11 1 12 12 13 18 14
REMARK SMILES IDX 13 15 17 16 14 17 15 18 19 19 16 21
REMARK H PARENT 9 10 19 20 16 22
REMARK Flexibility Score: inf
ROOT
ATOM      1  C   UNL     1     -17.897  52.972  21.777  1.00  0.00     0.012 C 
ATOM      2  C   UNL     1     -18.024  52.895  20.445  1.00  0.00     0.053 C 
ENDROOT
BRANCH   1   3
ATOM      3  C   UNL     1     -18.230  51.862  22.703  1.00  0.00    -0.025 A 
ATOM      4  C   UNL     1     -18.841  50.668  22.265  1.00  0.00     0.012 A 
ATOM      5  C   UNL     1     -19.125  49.645  23.175  1.00  0.00     0.047 A 
ATOM      6  C   UNL     1     -18.797  49.789  24.525  1.00  0.00     0.115 A 
ATOM      7  C   UNL     1     -17.890  51.990  24.059  1.00  0.00     0.012 A 
ATOM      8  C   UNL     1     -18.176  50.965  24.966  1.00  0.00     0.047 A 
BRANCH   6   9
ATOM      9  O   UNL     1     -19.088  48.761  25.419  1.00  0.00    -0.508 OA
ATOM     10  H   UNL     1     -18.711  48.755  26.359  1.00  0.00     0.293 HD
ENDBRANCH   6   9
ENDBRANCH   1   3
BRANCH   2  11
ATOM     11  C   UNL     1     -17.695  54.029  19.555  1.00  0.00     0.189 C 
ATOM     12  O   UNL     1     -18.557  54.473  18.748  1.00  0.00    -0.289 OA
BRANCH  11  13
ATOM     13  C   UNL     1     -16.363  54.670  19.622  1.00  0.00     0.064 A 
ATOM     14  C   UNL     1     -15.269  54.208  18.850  1.00  0.00     0.130 A 
ATOM     15  C   UNL     1     -16.189  55.797  20.447  1.00  0.00     0.020 A 
ATOM     16  C   UNL     1     -14.050  54.895  18.893  1.00  0.00     0.093 A 
ATOM     17  C   UNL     1     -14.963  56.463  20.492  1.00  0.00     0.047 A 
ATOM     18  C   UNL     1     -13.893  56.020  19.713  1.00  0.00     0.119 A 
BRANCH  14  19
ATOM     19  O   UNL     1     -15.347  53.062  18.056  1.00  0.00    -0.507 OA
ATOM     20  H   UNL     1     -14.542  52.637  17.614  1.00  0.00     0.293 HD
ENDBRANCH  14  19
BRANCH  18  21
ATOM     21  O   UNL     1     -12.677  56.699  19.762  1.00  0.00    -0.508 OA
ATOM     22  H   UNL     1     -12.083  56.663  20.581  1.00  0.00     0.293 HD
ENDBRANCH  18  21
ENDBRANCH  11  13
ENDBRANCH   2  11
TORSDOF 6
ENDMDL
MODEL 3
REMARK VINA RESULT:    -7.052      1.585      7.481
REMARK INTER + INTRA:          -9.456
REMARK INTER:                  -8.819
REMARK INTRA:                  -0.637
REMARK UNBOUND:                -0.549
REMARK SMILES O=C(C=Cc1ccc(O)cc1)c1ccc(O)cc1O
REMARK SMILES IDX 4 1 3 2 5 3 6 4 7 5 8 6 11 7 10 8 9 9 2 11 1 12 12 13 18 14
REMARK SMILES IDX 13 15 17 16 14 17 15 18 19 19 16 21
REMARK H PARENT 9 10 19 20 16 22
REMARK Flexibility Score: inf
ROOT
ATOM      1  C   UNL     1     -16.210  54.837  20.132  1.00  0.00     0.012 C 
ATOM      2  C   UNL     1     -16.596  53.553  20.114  1.00  0.00     0.053 C 
ENDROOT
BRANCH   1   3
ATOM      3  C   UNL     1     -14.818  55.282  19.879  1.00  0.00    -0.025 A 
ATOM      4  C   UNL     1     -13.713  54.749  20.576  1.00  0.00     0.012 A 
ATOM      5  C   UNL     1     -12.418  55.194  20.293  1.00  0.00     0.047 A 
ATOM      6  C   UNL     1     -12.203  56.164  19.311  1.00  0.00     0.115 A 
ATOM      7  C   UNL     1     -14.589  56.246  18.883  1.00  0.00     0.012 A 
ATOM      8  C   UNL     1     -13.292  56.688  18.604  1.00  0.00     0.047 A 
BRANCH   6   9
ATOM      9  O   UNL     1     -10.906  56.597  19.043  1.00  0.00    -0.508 OA
ATOM     10  H   UNL     1     -10.466  57.324  19.596  1.00  0.00     0.293 HD
ENDBRANCH   6   9
ENDBRANCH   1   3
BRANCH   2  11
ATOM     11  C   UNL     1     -17.992  53.146  20.384  1.00  0.00     0.189 C 
ATOM     12  O   UNL     1     -18.920  53.516  19.614  1.00  0.00    -0.289 OA
BRANCH  11  13
ATOM     13  C   UNL     1     -18.307  52.279  21.540  1.00  0.00     0.064 A 
ATOM     14  C   UNL     1     -18.804  50.962  21.376  1.00  0.00     0.130 A 
ATOM     15  C   UNL     1     -18.067  52.760  22.841  1.00  0.00     0.020 A 
ATOM     16  C   UNL     1     -19.016  50.155  22.500  1.00  0.00     0.093 A 
ATOM     17  C   UNL     1     -18.298  51.949  23.953  1.00  0.00     0.047 A 
ATOM     18  C   UNL     1     -18.766  50.645  23.788  1.00  0.00     0.119 A 
BRANCH  14  19
ATOM     19  O   UNL     1     -19.124  50.436  20.122  1.00  0.00    -0.507 OA
ATOM     20  H   UNL     1     -19.852  49.749  19.978  1.00  0.00     0.293 HD
ENDBRANCH  14  19
BRANCH  18  21
ATOM     21  O   UNL     1     -18.985  49.844  24.907  1.00  0.00    -0.508 OA
ATOM     22  H   UNL     1     -18.361  49.082  25.143  1.00  0.00     0.293 HD
ENDBRANCH  18  21
ENDBRANCH  11  13
ENDBRANCH   2  11
TORSDOF 6
ENDMDL
MODEL 4
REMARK VINA RESULT:    -6.789      3.961      6.684
REMARK INTER + INTRA:          -9.124
REMARK INTER:                  -8.429
REMARK INTRA:                  -0.695
REMARK UNBOUND:                -0.549
REMARK SMILES O=C(C=Cc1ccc(O)cc1)c1ccc(O)cc1O
REMARK SMILES IDX 4 1 3 2 5 3 6 4 7 5 8 6 11 7 10 8 9 9 2 11 1 12 12 13 18 14
REMARK SMILES IDX 13 15 17 16 14 17 15 18 19 19 16 21
REMARK H PARENT 9 10 19 20 16 22
REMARK Flexibility Score: inf
ROOT
ATOM      1  C   UNL     1     -14.613  53.802  19.778  1.00  0.00     0.012 C 
ATOM      2  C   UNL     1     -15.752  54.149  20.394  1.00  0.00     0.053 C 
ENDROOT
BRANCH   1   3
ATOM      3  C   UNL     1     -13.264  54.004  20.363  1.00  0.00    -0.025 A 
ATOM      4  C   UNL     1     -12.755  53.189  21.395  1.00  0.00     0.012 A 
ATOM      5  C   UNL     1     -11.473  53.413  21.905  1.00  0.00     0.047 A 
ATOM      6  C   UNL     1     -10.678  54.441  21.392  1.00  0.00     0.115 A 
ATOM      7  C   UNL     1     -12.451  55.025  19.843  1.00  0.00     0.012 A 
ATOM      8  C   UNL     1     -11.170  55.246  20.357  1.00  0.00     0.047 A 
BRANCH   6   9
ATOM      9  O   UNL     1      -9.404  54.652  21.913  1.00  0.00    -0.508 OA
ATOM     10  H   UNL     1      -8.695  55.153  21.390  1.00  0.00     0.293 HD
ENDBRANCH   6   9
ENDBRANCH   1   3
BRANCH   2  11
ATOM     11  C   UNL     1     -17.078  53.944  19.774  1.00  0.00     0.189 C 
ATOM     12  O   UNL     1     -17.845  53.038  20.202  1.00  0.00    -0.289 OA
BRANCH  11  13
ATOM     13  C   UNL     1     -17.528  54.816  18.667  1.00  0.00     0.064 A 
ATOM     14  C   UNL     1     -18.288  54.317  17.581  1.00  0.00     0.130 A 
ATOM     15  C   UNL     1     -17.229  56.191  18.715  1.00  0.00     0.020 A 
ATOM     16  C   UNL     1     -18.755  55.196  16.597  1.00  0.00     0.093 A 
ATOM     17  C   UNL     1     -17.687  57.054  17.719  1.00  0.00     0.047 A 
ATOM     18  C   UNL     1     -18.455  56.563  16.662  1.00  0.00     0.119 A 
BRANCH  14  19
ATOM     19  O   UNL     1     -18.573  52.957  17.432  1.00  0.00    -0.507 OA
ATOM     20  H   UNL     1     -18.179  52.240  18.027  1.00  0.00     0.293 HD
ENDBRANCH  14  19
BRANCH  18  21
ATOM     21  O   UNL     1     -18.912  57.438  15.678  1.00  0.00    -0.508 OA
ATOM     22  H   UNL     1     -18.274  57.909  15.049  1.00  0.00     0.293 HD
ENDBRANCH  18  21
ENDBRANCH  11  13
ENDBRANCH   2  11
TORSDOF 6
ENDMDL
MODEL 5
REMARK VINA RESULT:    -6.731      2.540      3.433
REMARK INTER + INTRA:          -9.051
REMARK INTER:                  -8.350
REMARK INTRA:                  -0.701
REMARK UNBOUND:                -0.549
REMARK SMILES O=C(C=Cc1ccc(O)cc1)c1ccc(O)cc1O
REMARK SMILES IDX 4 1 3 2 5 3 6 4 7 5 8 6 11 7 10 8 9 9 2 11 1 12 12 13 18 14
REMARK SMILES IDX 13 15 17 16 14 17 15 18 19 19 16 21
REMARK H PARENT 9 10 19 20 16 22
REMARK Flexibility Score: inf
ROOT
ATOM      1  C   UNL     1     -17.526  54.412  19.336  1.00  0.00     0.012 C 
ATOM      2  C   UNL     1     -17.182  55.667  19.662  1.00  0.00     0.053 C 
ENDROOT
BRANCH   1   3
ATOM      3  C   UNL     1     -17.966  53.395  20.322  1.00  0.00    -0.025 A 
ATOM      4  C   UNL     1     -18.686  52.241  19.951  1.00  0.00     0.012 A 
ATOM      5  C   UNL     1     -19.069  51.305  20.917  1.00  0.00     0.047 A 
ATOM      6  C   UNL     1     -18.733  51.499  22.259  1.00  0.00     0.115 A 
ATOM      7  C   UNL     1     -17.620  53.572  21.672  1.00  0.00     0.012 A 
ATOM      8  C   UNL     1     -18.005  52.634  22.635  1.00  0.00     0.047 A 
BRANCH   6   9
ATOM      9  O   UNL     1     -19.124  50.558  23.209  1.00  0.00    -0.508 OA
ATOM     10  H   UNL     1     -19.596  49.701  22.943  1.00  0.00     0.293 HD
ENDBRANCH   6   9
ENDBRANCH   1   3
BRANCH   2  11
ATOM     11  C   UNL     1     -16.735  56.650  18.653  1.00  0.00     0.189 C 
ATOM     12  O   UNL     1     -17.567  57.435  18.120  1.00  0.00    -0.289 OA
BRANCH  11  13
ATOM     13  C   UNL     1     -15.307  56.741  18.280  1.00  0.00     0.064 A 
ATOM     14  C   UNL     1     -14.894  57.106  16.975  1.00  0.00     0.130 A 
ATOM     15  C   UNL     1     -14.327  56.499  19.262  1.00  0.00     0.020 A 
ATOM     16  C   UNL     1     -13.531  57.252  16.693  1.00  0.00     0.093 A 
ATOM     17  C   UNL     1     -12.971  56.633  18.962  1.00  0.00     0.047 A 
ATOM     18  C   UNL     1     -12.568  57.014  17.682  1.00  0.00     0.119 A 
BRANCH  14  19
ATOM     19  O   UNL     1     -15.803  57.303  15.933  1.00  0.00    -0.507 OA
ATOM     20  H   UNL     1     -15.536  57.309  14.958  1.00  0.00     0.293 HD
ENDBRANCH  14  19
BRANCH  18  21
ATOM     21  O   UNL     1     -11.211  57.152  17.399  1.00  0.00    -0.508 OA
ATOM     22  H   UNL     1     -10.638  56.355  17.150  1.00  0.00     0.293 HD
ENDBRANCH  18  21
ENDBRANCH  11  13
ENDBRANCH   2  11
TORSDOF 6
ENDMDL
MODEL 6
REMARK VINA RESULT:    -6.608      3.718      9.094
REMARK INTER + INTRA:          -8.896
REMARK INTER:                  -8.183
REMARK INTRA:                  -0.713
REMARK UNBOUND:                -0.549
REMARK SMILES O=C(C=Cc1ccc(O)cc1)c1ccc(O)cc1O
REMARK SMILES IDX 4 1 3 2 5 3 6 4 7 5 8 6 11 7 10 8 9 9 2 11 1 12 12 13 18 14
REMARK SMILES IDX 13 15 17 16 14 17 15 18 19 19 16 21
REMARK H PARENT 9 10 19 20 16 22
REMARK Flexibility Score: inf
ROOT
ATOM      1  C   UNL     1     -13.992  57.147  18.024  1.00  0.00     0.012 C 
ATOM      2  C   UNL     1     -13.178  56.369  18.752  1.00  0.00     0.053 C 
ENDROOT
BRANCH   1   3
ATOM      3  C   UNL     1     -13.545  57.933  16.847  1.00  0.00    -0.025 A 
ATOM      4  C   UNL     1     -12.716  59.068  16.963  1.00  0.00     0.012 A 
ATOM      5  C   UNL     1     -12.313  59.769  15.822  1.00  0.00     0.047 A 
ATOM      6  C   UNL     1     -12.718  59.346  14.554  1.00  0.00     0.115 A 
ATOM      7  C   UNL     1     -13.934  57.507  15.566  1.00  0.00     0.012 A 
ATOM      8  C   UNL     1     -13.528  58.210  14.428  1.00  0.00     0.047 A 
BRANCH   6   9
ATOM      9  O   UNL     1     -12.308  60.056  13.428  1.00  0.00    -0.508 OA
ATOM     10  H   UNL     1     -12.064  59.583  12.565  1.00  0.00     0.293 HD
ENDBRANCH   6   9
ENDBRANCH   1   3
BRANCH   2  11
ATOM     11  C   UNL     1     -13.657  55.611  19.927  1.00  0.00     0.189 C 
ATOM     12  O   UNL     1     -12.941  55.530  20.964  1.00  0.00    -0.289 OA
BRANCH  11  13
ATOM     13  C   UNL     1     -14.987  54.966  19.910  1.00  0.00     0.064 A 
ATOM     14  C   UNL     1     -16.008  55.328  20.824  1.00  0.00     0.130 A 
ATOM     15  C   UNL     1     -15.263  53.993  18.930  1.00  0.00     0.020 A 
ATOM     16  C   UNL     1     -17.275  54.742  20.718  1.00  0.00     0.093 A 
ATOM     17  C   UNL     1     -16.526  53.406  18.847  1.00  0.00     0.047 A 
ATOM     18  C   UNL     1     -17.536  53.780  19.733  1.00  0.00     0.119 A 
BRANCH  14  19
ATOM     19  O   UNL     1     -15.793  56.239  21.860  1.00  0.00    -0.507 OA
ATOM     20  H   UNL     1     -15.231  57.074  21.757  1.00  0.00     0.293 HD
ENDBRANCH  14  19
BRANCH  18  21
ATOM     21  O   UNL     1     -18.795  53.191  19.633  1.00  0.00    -0.508 OA
ATOM     22  H   UNL     1     -18.955  52.232  19.917  1.00  0.00     0.293 HD
ENDBRANCH  18  21
ENDBRANCH  11  13
ENDBRANCH   2  11
TORSDOF 6
ENDMDL
MODEL 7
REMARK VINA RESULT:    -6.578      4.459      7.551
REMARK INTER + INTRA:          -8.858
REMARK INTER:                  -8.252
REMARK INTRA:                  -0.606
REMARK UNBOUND:                -0.549
REMARK SMILES O=C(C=Cc1ccc(O)cc1)c1ccc(O)cc1O
REMARK SMILES IDX 4 1 3 2 5 3 6 4 7 5 8 6 11 7 10 8 9 9 2 11 1 12 12 13 18 14
REMARK SMILES IDX 13 15 17 16 14 17 15 18 19 19 16 21
REMARK H PARENT 9 10 19 20 16 22
REMARK Flexibility Score: inf
ROOT
ATOM      1  C   UNL     1     -17.980  50.936  25.992  1.00  0.00     0.012 C 
ATOM      2  C   UNL     1     -16.897  51.468  26.577  1.00  0.00     0.053 C 
ENDROOT
BRANCH   1   3
ATOM      3  C   UNL     1     -18.278  51.057  24.544  1.00  0.00    -0.025 A 
ATOM      4  C   UNL     1     -18.055  52.247  23.821  1.00  0.00     0.012 A 
ATOM      5  C   UNL     1     -18.342  52.308  22.454  1.00  0.00     0.047 A 
ATOM      6  C   UNL     1     -18.843  51.187  21.787  1.00  0.00     0.115 A 
ATOM      7  C   UNL     1     -18.768  49.931  23.861  1.00  0.00     0.012 A 
ATOM      8  C   UNL     1     -19.054  49.996  22.494  1.00  0.00     0.047 A 
BRANCH   6   9
ATOM      9  O   UNL     1     -19.125  51.265  20.425  1.00  0.00    -0.508 OA
ATOM     10  H   UNL     1     -18.456  51.649  19.767  1.00  0.00     0.293 HD
ENDBRANCH   6   9
ENDBRANCH   1   3
BRANCH   2  11
ATOM     11  C   UNL     1     -16.640  51.338  28.027  1.00  0.00     0.189 C 
ATOM     12  O   UNL     1     -17.600  51.174  28.829  1.00  0.00    -0.289 OA
BRANCH  11  13
ATOM     13  C   UNL     1     -15.255  51.369  28.546  1.00  0.00     0.064 A 
ATOM     14  C   UNL     1     -14.685  50.265  29.228  1.00  0.00     0.130 A 
ATOM     15  C   UNL     1     -14.466  52.512  28.320  1.00  0.00     0.020 A 
ATOM     16  C   UNL     1     -13.346  50.317  29.634  1.00  0.00     0.093 A 
ATOM     17  C   UNL     1     -13.137  52.555  28.744  1.00  0.00     0.047 A 
ATOM     18  C   UNL     1     -12.571  51.459  29.396  1.00  0.00     0.119 A 
BRANCH  14  19
ATOM     19  O   UNL     1     -15.422  49.122  29.543  1.00  0.00    -0.507 OA
ATOM     20  H   UNL     1     -16.417  49.135  29.723  1.00  0.00     0.293 HD
ENDBRANCH  14  19
BRANCH  18  21
ATOM     21  O   UNL     1     -11.241  51.512  29.807  1.00  0.00    -0.508 OA
ATOM     22  H   UNL     1     -10.786  52.392  30.018  1.00  0.00     0.293 HD
ENDBRANCH  18  21
ENDBRANCH  11  13
ENDBRANCH   2  11
TORSDOF 6
ENDMDL
MODEL 8
REMARK VINA RESULT:    -6.466      3.151      7.967
REMARK INTER + INTRA:          -8.716
REMARK INTER:                  -8.056
REMARK INTRA:                  -0.660
REMARK UNBOUND:                -0.549
REMARK SMILES O=C(C=Cc1ccc(O)cc1)c1ccc(O)cc1O
REMARK SMILES IDX 4 1 3 2 5 3 6 4 7 5 8 6 11 7 10 8 9 9 2 11 1 12 12 13 18 14
REMARK SMILES IDX 13 15 17 16 14 17 15 18 19 19 16 21
REMARK H PARENT 9 10 19 20 16 22
REMARK Flexibility Score: inf
ROOT
ATOM      1  C   UNL     1     -14.031  55.533  18.450  1.00  0.00     0.012 C 
ATOM      2  C   UNL     1     -14.990  56.431  18.181  1.00  0.00     0.053 C 
ENDROOT
BRANCH   1   3
ATOM      3  C   UNL     1     -12.779  55.404  17.664  1.00  0.00    -0.025 A 
ATOM      4  C   UNL     1     -12.368  54.184  17.089  1.00  0.00     0.012 A 
ATOM      5  C   UNL     1     -11.185  54.116  16.346  1.00  0.00     0.047 A 
ATOM      6  C   UNL     1     -10.403  55.259  16.158  1.00  0.00     0.115 A 
ATOM      7  C   UNL     1     -11.994  56.550  17.455  1.00  0.00     0.012 A 
ATOM      8  C   UNL     1     -10.812  56.478  16.713  1.00  0.00     0.047 A 
BRANCH   6   9
ATOM      9  O   UNL     1      -9.226  55.174  15.417  1.00  0.00    -0.508 OA
ATOM     10  H   UNL     1      -8.392  55.682  15.689  1.00  0.00     0.293 HD
ENDBRANCH   6   9
ENDBRANCH   1   3
BRANCH   2  11
ATOM     11  C   UNL     1     -16.232  56.521  18.979  1.00  0.00     0.189 C 
ATOM     12  O   UNL     1     -16.849  57.618  19.070  1.00  0.00    -0.289 OA
BRANCH  11  13
ATOM     13  C   UNL     1     -16.776  55.322  19.653  1.00  0.00     0.064 A 
ATOM     14  C   UNL     1     -16.764  55.184  21.063  1.00  0.00     0.130 A 
ATOM     15  C   UNL     1     -17.360  54.306  18.873  1.00  0.00     0.020 A 
ATOM     16  C   UNL     1     -17.359  54.064  21.656  1.00  0.00     0.093 A 
ATOM     17  C   UNL     1     -17.935  53.187  19.478  1.00  0.00     0.047 A 
ATOM     18  C   UNL     1     -17.943  53.064  20.868  1.00  0.00     0.119 A 
BRANCH  14  19
ATOM     19  O   UNL     1     -16.149  56.119  21.899  1.00  0.00    -0.507 OA
ATOM     20  H   UNL     1     -15.182  56.397  21.803  1.00  0.00     0.293 HD
ENDBRANCH  14  19
BRANCH  18  21
ATOM     21  O   UNL     1     -18.528  51.946  21.458  1.00  0.00    -0.508 OA
ATOM     22  H   UNL     1     -17.968  51.210  21.869  1.00  0.00     0.293 HD
ENDBRANCH  18  21
ENDBRANCH  11  13
ENDBRANCH   2  11
TORSDOF 6
ENDMDL
MODEL 9
REMARK VINA RESULT:    -6.433     14.667     16.404
REMARK INTER + INTRA:          -8.674
REMARK INTER:                  -8.019
REMARK INTRA:                  -0.655
REMARK UNBOUND:                -0.549
REMARK SMILES O=C(C=Cc1ccc(O)cc1)c1ccc(O)cc1O
REMARK SMILES IDX 4 1 3 2 5 3 6 4 7 5 8 6 11 7 10 8 9 9 2 11 1 12 12 13 18 14
REMARK SMILES IDX 13 15 17 16 14 17 15 18 19 19 16 21
REMARK H PARENT 9 10 19 20 16 22
REMARK Flexibility Score: inf
ROOT
ATOM      1  C   UNL     1      -0.461  47.806  18.665  1.00  0.00     0.012 C 
ATOM      2  C   UNL     1      -1.374  48.282  17.807  1.00  0.00     0.053 C 
ENDROOT
BRANCH   1   3
ATOM      3  C   UNL     1      -0.675  46.609  19.516  1.00  0.00    -0.025 A 
ATOM      4  C   UNL     1       0.239  46.216  20.516  1.00  0.00     0.012 A 
ATOM      5  C   UNL     1      -0.014  45.086  21.299  1.00  0.00     0.047 A 
ATOM      6  C   UNL     1      -1.179  44.339  21.107  1.00  0.00     0.115 A 
ATOM      7  C   UNL     1      -1.851  45.860  19.341  1.00  0.00     0.012 A 
ATOM      8  C   UNL     1      -2.100  44.731  20.127  1.00  0.00     0.047 A 
BRANCH   6   9
ATOM      9  O   UNL     1      -1.415  43.215  21.895  1.00  0.00    -0.508 OA
ATOM     10  H   UNL     1      -1.245  43.225  22.895  1.00  0.00     0.293 HD
ENDBRANCH   6   9
ENDBRANCH   1   3
BRANCH   2  11
ATOM     11  C   UNL     1      -1.130  49.486  16.985  1.00  0.00     0.189 C 
ATOM     12  O   UNL     1      -0.496  49.394  15.898  1.00  0.00    -0.289 OA
BRANCH  11  13
ATOM     13  C   UNL     1      -1.652  50.802  17.413  1.00  0.00     0.064 A 
ATOM     14  C   UNL     1      -2.654  51.486  16.681  1.00  0.00     0.130 A 
ATOM     15  C   UNL     1      -1.168  51.374  18.605  1.00  0.00     0.020 A 
ATOM     16  C   UNL     1      -3.168  52.693  17.169  1.00  0.00     0.093 A 
ATOM     17  C   UNL     1      -1.679  52.586  19.071  1.00  0.00     0.047 A 
ATOM     18  C   UNL     1      -2.682  53.246  18.361  1.00  0.00     0.119 A 
BRANCH  14  19
ATOM     19  O   UNL     1      -3.139  51.013  15.460  1.00  0.00    -0.507 OA
ATOM     20  H   UNL     1      -2.541  50.670  14.721  1.00  0.00     0.293 HD
ENDBRANCH  14  19
BRANCH  18  21
ATOM     21  O   UNL     1      -3.188  54.452  18.842  1.00  0.00    -0.508 OA
ATOM     22  H   UNL     1      -4.173  54.570  19.046  1.00  0.00     0.293 HD
ENDBRANCH  18  21
ENDBRANCH  11  13
ENDBRANCH   2  11
TORSDOF 6
ENDMDL
