MODEL 1
REMARK VINA RESULT:    -4.162      0.000      0.000
REMARK INTER + INTRA:          -8.002
REMARK INTER:                  -7.325
REMARK INTRA:                  -0.678
REMARK UNBOUND:                -0.678
REMARK SMILES CCCCCCCCCCCCCCC(=O)[O-]
REMARK SMILES IDX 9 1 10 2 11 3 12 4 13 5 14 6 15 7 16 8 17 9 8 10 7 11 6 12
REMARK SMILES IDX 5 13 4 14 3 15 2 16 1 17
REMARK H PARENT
REMARK Flexibility Score: inf
ROOT
ATOM      1  C   UNL     1     -22.412  25.207   9.952  1.00  0.00     0.000 C 
ENDROOT
BRANCH   1   2
ATOM      2  C   UNL     1     -23.099  25.671   8.650  1.00  0.00     0.000 C 
BRANCH   2   3
ATOM      3  C   UNL     1     -23.599  27.128   8.700  1.00  0.00     0.000 C 
BRANCH   3   4
ATOM      4  C   UNL     1     -24.119  27.677   7.360  1.00  0.00     0.000 C 
BRANCH   4   5
ATOM      5  C   UNL     1     -24.125  29.215   7.309  1.00  0.00     0.006 C 
BRANCH   5   6
ATOM      6  C   UNL     1     -23.248  29.830   8.406  1.00  0.00     0.053 C 
BRANCH   6   7
ATOM      7  C   UNL     1     -23.021  31.294   8.176  1.00  0.00     0.041 C 
ATOM      8  O   UNL     1     -23.985  32.101   8.230  1.00  0.00    -0.550 OA
ATOM      9  O   UNL     1     -21.738  31.768   7.937  1.00  0.00    -0.550 OA
ENDBRANCH   6   7
ENDBRANCH   5   6
ENDBRANCH   4   5
ENDBRANCH   3   4
ENDBRANCH   2   3
ENDBRANCH   1   2
BRANCH   1  10
ATOM     10  C   UNL     1     -23.023  25.868  11.200  1.00  0.00     0.000 C 
BRANCH  10  11
ATOM     11  C   UNL     1     -23.573  24.845  12.207  1.00  0.00    -0.000 C 
BRANCH  11  12
ATOM     12  C   UNL     1     -23.125  23.409  11.896  1.00  0.00    -0.000 C 
BRANCH  12  13
ATOM     13  C   UNL     1     -22.085  22.927  12.920  1.00  0.00    -0.000 C 
BRANCH  13  14
ATOM     14  C   UNL     1     -20.957  23.948  13.146  1.00  0.00    -0.000 C 
BRANCH  14  15
ATOM     15  C   UNL     1     -19.699  23.312  13.761  1.00  0.00    -0.000 C 
BRANCH  15  16
ATOM     16  C   UNL     1     -19.334  23.927  15.122  1.00  0.00    -0.003 C 
ATOM     17  C   UNL     1     -19.717  23.031  16.299  1.00  0.00     0.004 C 
ENDBRANCH  15  16
ENDBRANCH  14  15
ENDBRANCH  13  14
ENDBRANCH  12  13
ENDBRANCH  11  12
ENDBRANCH  10  11
ENDBRANCH   1  10
TORSDOF 13
ENDMDL
MODEL 2
REMARK VINA RESULT:    -4.115     10.342     13.306
REMARK INTER + INTRA:          -7.920
REMARK INTER:                  -6.395
REMARK INTRA:                  -1.525
REMARK UNBOUND:                -0.678
REMARK SMILES CCCCCCCCCCCCCCC(=O)[O-]
REMARK SMILES IDX 9 1 10 2 11 3 12 4 13 5 14 6 15 7 16 8 17 9 8 10 7 11 6 12
REMARK SMILES IDX 5 13 4 14 3 15 2 16 1 17
REMARK H PARENT
REMARK Flexibility Score: inf
ROOT
ATOM      1  C   UNL     1     -17.730  29.572  23.440  1.00  0.00     0.000 C 
ENDROOT
BRANCH   1   2
ATOM      2  C   UNL     1     -17.878  28.896  22.060  1.00  0.00     0.000 C 
BRANCH   2   3
ATOM      3  C   UNL     1     -19.331  28.842  21.550  1.00  0.00     0.000 C 
BRANCH   3   4
ATOM      4  C   UNL     1     -19.601  29.672  20.283  1.00  0.00     0.000 C 
BRANCH   4   5
ATOM      5  C   UNL     1     -20.378  28.886  19.212  1.00  0.00     0.006 C 
BRANCH   5   6
ATOM      6  C   UNL     1     -21.574  28.132  19.805  1.00  0.00     0.053 C 
BRANCH   6   7
ATOM      7  C   UNL     1     -22.695  29.063  20.156  1.00  0.00     0.041 C 
ATOM      8  O   UNL     1     -23.331  29.660  19.249  1.00  0.00    -0.550 OA
ATOM      9  O   UNL     1     -23.058  29.242  21.484  1.00  0.00    -0.550 OA
ENDBRANCH   6   7
ENDBRANCH   5   6
ENDBRANCH   4   5
ENDBRANCH   3   4
ENDBRANCH   2   3
ENDBRANCH   1   2
BRANCH   1  10
ATOM     10  C   UNL     1     -18.948  30.445  23.793  1.00  0.00     0.000 C 
BRANCH  10  11
ATOM     11  C   UNL     1     -18.609  31.943  23.852  1.00  0.00    -0.000 C 
BRANCH  11  12
ATOM     12  C   UNL     1     -19.717  32.825  23.257  1.00  0.00    -0.000 C 
BRANCH  12  13
ATOM     13  C   UNL     1     -20.965  31.990  22.932  1.00  0.00    -0.000 C 
BRANCH  13  14
ATOM     14  C   UNL     1     -21.560  32.322  21.553  1.00  0.00    -0.000 C 
BRANCH  14  15
ATOM     15  C   UNL     1     -22.966  32.939  21.648  1.00  0.00    -0.000 C 
BRANCH  15  16
ATOM     16  C   UNL     1     -23.223  33.987  20.553  1.00  0.00    -0.003 C 
ATOM     17  C   UNL     1     -21.990  34.836  20.245  1.00  0.00     0.004 C 
ENDBRANCH  15  16
ENDBRANCH  14  15
ENDBRANCH  13  14
ENDBRANCH  12  13
ENDBRANCH  11  12
ENDBRANCH  10  11
ENDBRANCH   1  10
TORSDOF 13
ENDMDL
MODEL 3
REMARK VINA RESULT:    -4.027      9.995     12.324
REMARK INTER + INTRA:          -7.765
REMARK INTER:                  -5.868
REMARK INTRA:                  -1.896
REMARK UNBOUND:                -0.678
REMARK SMILES CCCCCCCCCCCCCCC(=O)[O-]
REMARK SMILES IDX 9 1 10 2 11 3 12 4 13 5 14 6 15 7 16 8 17 9 8 10 7 11 6 12
REMARK SMILES IDX 5 13 4 14 3 15 2 16 1 17
REMARK H PARENT
REMARK Flexibility Score: inf
ROOT
ATOM      1  C   UNL     1     -19.045  29.176  21.392  1.00  0.00     0.000 C 
ENDROOT
BRANCH   1   2
ATOM      2  C   UNL     1     -19.349  29.908  22.717  1.00  0.00     0.000 C 
BRANCH   2   3
ATOM      3  C   UNL     1     -20.290  31.118  22.553  1.00  0.00     0.000 C 
BRANCH   3   4
ATOM      4  C   UNL     1     -19.782  32.421  23.196  1.00  0.00     0.000 C 
BRANCH   4   5
ATOM      5  C   UNL     1     -20.721  33.613  22.946  1.00  0.00     0.006 C 
BRANCH   5   6
ATOM      6  C   UNL     1     -21.655  33.370  21.754  1.00  0.00     0.053 C 
BRANCH   6   7
ATOM      7  C   UNL     1     -22.084  34.656  21.117  1.00  0.00     0.041 C 
ATOM      8  O   UNL     1     -21.913  35.749  21.717  1.00  0.00    -0.550 OA
ATOM      9  O   UNL     1     -22.641  34.649  19.844  1.00  0.00    -0.550 OA
ENDBRANCH   6   7
ENDBRANCH   5   6
ENDBRANCH   4   5
ENDBRANCH   3   4
ENDBRANCH   2   3
ENDBRANCH   1   2
BRANCH   1  10
ATOM     10  C   UNL     1     -19.762  29.822  20.193  1.00  0.00     0.000 C 
BRANCH  10  11
ATOM     11  C   UNL     1     -20.383  28.785  19.243  1.00  0.00    -0.000 C 
BRANCH  11  12
ATOM     12  C   UNL     1     -20.363  27.363  19.822  1.00  0.00    -0.000 C 
BRANCH  12  13
ATOM     13  C   UNL     1     -21.791  26.846  20.053  1.00  0.00    -0.000 C 
BRANCH  13  14
ATOM     14  C   UNL     1     -22.833  27.976  20.098  1.00  0.00    -0.000 C 
BRANCH  14  15
ATOM     15  C   UNL     1     -23.165  28.419  21.532  1.00  0.00    -0.000 C 
BRANCH  15  16
ATOM     16  C   UNL     1     -23.600  29.891  21.608  1.00  0.00    -0.003 C 
ATOM     17  C   UNL     1     -23.594  30.582  20.244  1.00  0.00     0.004 C 
ENDBRANCH  15  16
ENDBRANCH  14  15
ENDBRANCH  13  14
ENDBRANCH  12  13
ENDBRANCH  11  12
ENDBRANCH  10  11
ENDBRANCH   1  10
TORSDOF 13
ENDMDL
MODEL 4
REMARK VINA RESULT:    -3.921     12.440     13.616
REMARK INTER + INTRA:          -7.579
REMARK INTER:                  -6.385
REMARK INTRA:                  -1.193
REMARK UNBOUND:                -0.678
REMARK SMILES CCCCCCCCCCCCCCC(=O)[O-]
REMARK SMILES IDX 9 1 10 2 11 3 12 4 13 5 14 6 15 7 16 8 17 9 8 10 7 11 6 12
REMARK SMILES IDX 5 13 4 14 3 15 2 16 1 17
REMARK H PARENT
REMARK Flexibility Score: inf
ROOT
ATOM      1  C   UNL     1     -22.638  34.480  19.950  1.00  0.00     0.000 C 
ENDROOT
BRANCH   1   2
ATOM      2  C   UNL     1     -21.605  35.345  20.703  1.00  0.00     0.000 C 
BRANCH   2   3
ATOM      3  C   UNL     1     -21.772  35.316  22.235  1.00  0.00     0.000 C 
BRANCH   3   4
ATOM      4  C   UNL     1     -22.283  36.629  22.853  1.00  0.00     0.000 C 
BRANCH   4   5
ATOM      5  C   UNL     1     -22.855  37.597  21.802  1.00  0.00     0.006 C 
BRANCH   5   6
ATOM      6  C   UNL     1     -22.376  39.037  22.024  1.00  0.00     0.053 C 
BRANCH   6   7
ATOM      7  C   UNL     1     -22.604  39.888  20.812  1.00  0.00     0.041 C 
ATOM      8  O   UNL     1     -23.706  40.472  20.645  1.00  0.00    -0.550 OA
ATOM      9  O   UNL     1     -21.584  40.064  19.886  1.00  0.00    -0.550 OA
ENDBRANCH   6   7
ENDBRANCH   5   6
ENDBRANCH   4   5
ENDBRANCH   3   4
ENDBRANCH   2   3
ENDBRANCH   1   2
BRANCH   1  10
ATOM     10  C   UNL     1     -23.530  33.673  20.911  1.00  0.00     0.000 C 
BRANCH  10  11
ATOM     11  C   UNL     1     -23.891  32.283  20.362  1.00  0.00    -0.000 C 
BRANCH  11  12
ATOM     12  C   UNL     1     -23.384  31.143  21.258  1.00  0.00    -0.000 C 
BRANCH  12  13
ATOM     13  C   UNL     1     -22.391  31.670  22.305  1.00  0.00    -0.000 C 
BRANCH  13  14
ATOM     14  C   UNL     1     -20.943  31.237  22.020  1.00  0.00    -0.000 C 
BRANCH  14  15
ATOM     15  C   UNL     1     -20.853  29.815  21.441  1.00  0.00    -0.000 C 
BRANCH  15  16
ATOM     16  C   UNL     1     -19.894  29.728  20.242  1.00  0.00    -0.003 C 
ATOM     17  C   UNL     1     -20.341  28.703  19.200  1.00  0.00     0.004 C 
ENDBRANCH  15  16
ENDBRANCH  14  15
ENDBRANCH  13  14
ENDBRANCH  12  13
ENDBRANCH  11  12
ENDBRANCH  10  11
ENDBRANCH   1  10
TORSDOF 13
ENDMDL
MODEL 5
REMARK VINA RESULT:    -3.914     10.456     13.060
REMARK INTER + INTRA:          -7.566
REMARK INTER:                  -5.658
REMARK INTRA:                  -1.909
REMARK UNBOUND:                -0.678
REMARK SMILES CCCCCCCCCCCCCCC(=O)[O-]
REMARK SMILES IDX 9 1 10 2 11 3 12 4 13 5 14 6 15 7 16 8 17 9 8 10 7 11 6 12
REMARK SMILES IDX 5 13 4 14 3 15 2 16 1 17
REMARK H PARENT
REMARK Flexibility Score: inf
ROOT
ATOM      1  C   UNL     1     -20.022  31.152  22.587  1.00  0.00     0.000 C 
ENDROOT
BRANCH   1   2
ATOM      2  C   UNL     1     -19.038  29.966  22.672  1.00  0.00     0.000 C 
BRANCH   2   3
ATOM      3  C   UNL     1     -19.077  29.039  21.441  1.00  0.00     0.000 C 
BRANCH   3   4
ATOM      4  C   UNL     1     -19.587  29.703  20.150  1.00  0.00     0.000 C 
BRANCH   4   5
ATOM      5  C   UNL     1     -20.447  28.756  19.294  1.00  0.00     0.006 C 
BRANCH   5   6
ATOM      6  C   UNL     1     -21.359  27.872  20.153  1.00  0.00     0.053 C 
BRANCH   6   7
ATOM      7  C   UNL     1     -22.735  27.767  19.570  1.00  0.00     0.041 C 
ATOM      8  O   UNL     1     -23.145  26.673  19.104  1.00  0.00    -0.550 OA
ATOM      9  O   UNL     1     -23.577  28.872  19.575  1.00  0.00    -0.550 OA
ENDBRANCH   6   7
ENDBRANCH   5   6
ENDBRANCH   4   5
ENDBRANCH   3   4
ENDBRANCH   2   3
ENDBRANCH   1   2
BRANCH   1  10
ATOM     10  C   UNL     1     -21.354  30.854  23.299  1.00  0.00     0.000 C 
BRANCH  10  11
ATOM     11  C   UNL     1     -22.546  30.794  22.332  1.00  0.00    -0.000 C 
BRANCH  11  12
ATOM     12  C   UNL     1     -22.400  31.765  21.150  1.00  0.00    -0.000 C 
BRANCH  12  13
ATOM     13  C   UNL     1     -23.587  32.737  21.090  1.00  0.00    -0.000 C 
BRANCH  13  14
ATOM     14  C   UNL     1     -23.234  34.066  20.401  1.00  0.00    -0.000 C 
BRANCH  14  15
ATOM     15  C   UNL     1     -21.875  34.625  20.856  1.00  0.00    -0.000 C 
BRANCH  15  16
ATOM     16  C   UNL     1     -21.967  35.379  22.193  1.00  0.00    -0.003 C 
ATOM     17  C   UNL     1     -21.355  34.600  23.356  1.00  0.00     0.004 C 
ENDBRANCH  15  16
ENDBRANCH  14  15
ENDBRANCH  13  14
ENDBRANCH  12  13
ENDBRANCH  11  12
ENDBRANCH  10  11
ENDBRANCH   1  10
TORSDOF 13
ENDMDL
MODEL 6
REMARK VINA RESULT:    -3.913     10.033     11.984
REMARK INTER + INTRA:          -7.564
REMARK INTER:                  -5.179
REMARK INTRA:                  -2.385
REMARK UNBOUND:                -0.678
REMARK SMILES CCCCCCCCCCCCCCC(=O)[O-]
REMARK SMILES IDX 9 1 10 2 11 3 12 4 13 5 14 6 15 7 16 8 17 9 8 10 7 11 6 12
REMARK SMILES IDX 5 13 4 14 3 15 2 16 1 17
REMARK H PARENT
REMARK Flexibility Score: inf
ROOT
ATOM      1  C   UNL     1     -20.877  31.093  22.065  1.00  0.00     0.000 C 
ENDROOT
BRANCH   1   2
ATOM      2  C   UNL     1     -22.168  30.967  22.901  1.00  0.00     0.000 C 
BRANCH   2   3
ATOM      3  C   UNL     1     -23.442  31.384  22.140  1.00  0.00     0.000 C 
BRANCH   3   4
ATOM      4  C   UNL     1     -23.198  31.906  20.713  1.00  0.00     0.000 C 
BRANCH   4   5
ATOM      5  C   UNL     1     -24.051  33.141  20.378  1.00  0.00     0.006 C 
BRANCH   5   6
ATOM      6  C   UNL     1     -23.583  34.388  21.138  1.00  0.00     0.053 C 
BRANCH   6   7
ATOM      7  C   UNL     1     -22.125  34.656  20.915  1.00  0.00     0.041 C 
ATOM      8  O   UNL     1     -21.702  34.944  19.765  1.00  0.00    -0.550 OA
ATOM      9  O   UNL     1     -21.241  34.623  21.985  1.00  0.00    -0.550 OA
ENDBRANCH   6   7
ENDBRANCH   5   6
ENDBRANCH   4   5
ENDBRANCH   3   4
ENDBRANCH   2   3
ENDBRANCH   1   2
BRANCH   1  10
ATOM     10  C   UNL     1     -19.792  30.100  22.518  1.00  0.00     0.000 C 
BRANCH  10  11
ATOM     11  C   UNL     1     -19.111  29.384  21.341  1.00  0.00    -0.000 C 
BRANCH  11  12
ATOM     12  C   UNL     1     -19.810  29.654  19.999  1.00  0.00    -0.000 C 
BRANCH  12  13
ATOM     13  C   UNL     1     -20.570  28.409  19.519  1.00  0.00    -0.000 C 
BRANCH  13  14
ATOM     14  C   UNL     1     -22.043  28.704  19.186  1.00  0.00    -0.000 C 
BRANCH  14  15
ATOM     15  C   UNL     1     -23.008  28.198  20.272  1.00  0.00    -0.000 C 
BRANCH  15  16
ATOM     16  C   UNL     1     -22.358  27.158  21.198  1.00  0.00    -0.003 C 
ATOM     17  C   UNL     1     -22.730  27.359  22.667  1.00  0.00     0.004 C 
ENDBRANCH  15  16
ENDBRANCH  14  15
ENDBRANCH  13  14
ENDBRANCH  12  13
ENDBRANCH  11  12
ENDBRANCH  10  11
ENDBRANCH   1  10
TORSDOF 13
ENDMDL
MODEL 7
REMARK VINA RESULT:    -3.877      4.093      6.706
REMARK INTER + INTRA:          -7.501
REMARK INTER:                  -6.967
REMARK INTRA:                  -0.534
REMARK UNBOUND:                -0.678
REMARK SMILES CCCCCCCCCCCCCCC(=O)[O-]
REMARK SMILES IDX 9 1 10 2 11 3 12 4 13 5 14 6 15 7 16 8 17 9 8 10 7 11 6 12
REMARK SMILES IDX 5 13 4 14 3 15 2 16 1 17
REMARK H PARENT
REMARK Flexibility Score: inf
ROOT
ATOM      1  C   UNL     1     -19.564  24.316  14.631  1.00  0.00     0.000 C 
ENDROOT
BRANCH   1   2
ATOM      2  C   UNL     1     -20.110  23.848  13.266  1.00  0.00     0.000 C 
BRANCH   2   3
ATOM      3  C   UNL     1     -21.389  22.993  13.371  1.00  0.00     0.000 C 
BRANCH   3   4
ATOM      4  C   UNL     1     -22.618  23.581  12.656  1.00  0.00     0.000 C 
BRANCH   4   5
ATOM      5  C   UNL     1     -22.247  24.678  11.643  1.00  0.00     0.006 C 
BRANCH   5   6
ATOM      6  C   UNL     1     -23.357  24.905  10.608  1.00  0.00     0.053 C 
BRANCH   6   7
ATOM      7  C   UNL     1     -22.855  24.713   9.209  1.00  0.00     0.041 C 
ATOM      8  O   UNL     1     -23.657  24.431   8.281  1.00  0.00    -0.550 OA
ATOM      9  O   UNL     1     -21.506  24.881   8.927  1.00  0.00    -0.550 OA
ENDBRANCH   6   7
ENDBRANCH   5   6
ENDBRANCH   4   5
ENDBRANCH   3   4
ENDBRANCH   2   3
ENDBRANCH   1   2
BRANCH   1  10
ATOM     10  C   UNL     1     -20.004  23.393  15.781  1.00  0.00     0.000 C 
BRANCH  10  11
ATOM     11  C   UNL     1     -19.247  23.670  17.090  1.00  0.00    -0.000 C 
BRANCH  11  12
ATOM     12  C   UNL     1     -20.186  23.819  18.297  1.00  0.00    -0.000 C 
BRANCH  12  13
ATOM     13  C   UNL     1     -19.657  24.880  19.273  1.00  0.00    -0.000 C 
BRANCH  13  14
ATOM     14  C   UNL     1     -20.755  25.842  19.758  1.00  0.00    -0.000 C 
BRANCH  14  15
ATOM     15  C   UNL     1     -20.184  27.102  20.431  1.00  0.00    -0.000 C 
BRANCH  15  16
ATOM     16  C   UNL     1     -20.310  28.351  19.545  1.00  0.00    -0.003 C 
ATOM     17  C   UNL     1     -19.803  29.619  20.232  1.00  0.00     0.004 C 
ENDBRANCH  15  16
ENDBRANCH  14  15
ENDBRANCH  13  14
ENDBRANCH  12  13
ENDBRANCH  11  12
ENDBRANCH  10  11
ENDBRANCH   1  10
TORSDOF 13
ENDMDL
MODEL 8
REMARK VINA RESULT:    -3.866     10.112     12.827
REMARK INTER + INTRA:          -7.482
REMARK INTER:                  -6.085
REMARK INTRA:                  -1.397
REMARK UNBOUND:                -0.678
REMARK SMILES CCCCCCCCCCCCCCC(=O)[O-]
REMARK SMILES IDX 9 1 10 2 11 3 12 4 13 5 14 6 15 7 16 8 17 9 8 10 7 11 6 12
REMARK SMILES IDX 5 13 4 14 3 15 2 16 1 17
REMARK H PARENT
REMARK Flexibility Score: inf
ROOT
ATOM      1  C   UNL     1     -18.724  30.340  23.822  1.00  0.00     0.000 C 
ENDROOT
BRANCH   1   2
ATOM      2  C   UNL     1     -18.548  31.873  23.789  1.00  0.00     0.000 C 
BRANCH   2   3
ATOM      3  C   UNL     1     -19.813  32.632  23.343  1.00  0.00     0.000 C 
BRANCH   3   4
ATOM      4  C   UNL     1     -21.014  31.735  22.998  1.00  0.00     0.000 C 
BRANCH   4   5
ATOM      5  C   UNL     1     -22.253  32.540  22.568  1.00  0.00     0.006 C 
BRANCH   5   6
ATOM      6  C   UNL     1     -21.874  33.850  21.867  1.00  0.00     0.053 C 
BRANCH   6   7
ATOM      7  C   UNL     1     -22.650  34.044  20.600  1.00  0.00     0.041 C 
ATOM      8  O   UNL     1     -23.733  33.428  20.419  1.00  0.00    -0.550 OA
ATOM      9  O   UNL     1     -22.194  34.932  19.635  1.00  0.00    -0.550 OA
ENDBRANCH   6   7
ENDBRANCH   5   6
ENDBRANCH   4   5
ENDBRANCH   3   4
ENDBRANCH   2   3
ENDBRANCH   1   2
BRANCH   1  10
ATOM     10  C   UNL     1     -17.504  29.602  23.240  1.00  0.00     0.000 C 
BRANCH  10  11
ATOM     11  C   UNL     1     -17.820  28.879  21.921  1.00  0.00    -0.000 C 
BRANCH  11  12
ATOM     12  C   UNL     1     -19.327  28.800  21.634  1.00  0.00    -0.000 C 
BRANCH  12  13
ATOM     13  C   UNL     1     -19.697  29.655  20.412  1.00  0.00    -0.000 C 
BRANCH  13  14
ATOM     14  C   UNL     1     -20.352  28.833  19.289  1.00  0.00    -0.000 C 
BRANCH  14  15
ATOM     15  C   UNL     1     -21.631  28.113  19.751  1.00  0.00    -0.000 C 
BRANCH  15  16
ATOM     16  C   UNL     1     -22.606  29.054  20.476  1.00  0.00    -0.003 C 
ATOM     17  C   UNL     1     -23.385  29.954  19.517  1.00  0.00     0.004 C 
ENDBRANCH  15  16
ENDBRANCH  14  15
ENDBRANCH  13  14
ENDBRANCH  12  13
ENDBRANCH  11  12
ENDBRANCH  10  11
ENDBRANCH   1  10
TORSDOF 13
ENDMDL
MODEL 9
REMARK VINA RESULT:    -3.822     10.679     12.595
REMARK INTER + INTRA:          -7.404
REMARK INTER:                  -5.982
REMARK INTRA:                  -1.422
REMARK UNBOUND:                -0.678
REMARK SMILES CCCCCCCCCCCCCCC(=O)[O-]
REMARK SMILES IDX 9 1 10 2 11 3 12 4 13 5 14 6 15 7 16 8 17 9 8 10 7 11 6 12
REMARK SMILES IDX 5 13 4 14 3 15 2 16 1 17
REMARK H PARENT
REMARK Flexibility Score: inf
ROOT
ATOM      1  C   UNL     1     -22.017  28.719  20.191  1.00  0.00     0.000 C 
ENDROOT
BRANCH   1   2
ATOM      2  C   UNL     1     -23.176  29.720  19.996  1.00  0.00     0.000 C 
BRANCH   2   3
ATOM      3  C   UNL     1     -23.403  30.648  21.206  1.00  0.00     0.000 C 
BRANCH   3   4
ATOM      4  C   UNL     1     -22.357  31.765  21.365  1.00  0.00     0.000 C 
BRANCH   4   5
ATOM      5  C   UNL     1     -22.952  33.170  21.162  1.00  0.00     0.006 C 
BRANCH   5   6
ATOM      6  C   UNL     1     -21.873  34.214  20.851  1.00  0.00     0.053 C 
BRANCH   6   7
ATOM      7  C   UNL     1     -22.046  35.451  21.678  1.00  0.00     0.041 C 
ATOM      8  O   UNL     1     -21.762  35.439  22.904  1.00  0.00    -0.550 OA
ATOM      9  O   UNL     1     -22.489  36.626  21.085  1.00  0.00    -0.550 OA
ENDBRANCH   6   7
ENDBRANCH   5   6
ENDBRANCH   4   5
ENDBRANCH   3   4
ENDBRANCH   2   3
ENDBRANCH   1   2
BRANCH   1  10
ATOM     10  C   UNL     1     -20.829  29.018  19.259  1.00  0.00     0.000 C 
BRANCH  10  11
ATOM     11  C   UNL     1     -19.614  29.588  20.009  1.00  0.00    -0.000 C 
BRANCH  11  12
ATOM     12  C   UNL     1     -19.589  29.184  21.491  1.00  0.00    -0.000 C 
BRANCH  12  13
ATOM     13  C   UNL     1     -18.162  28.832  21.937  1.00  0.00    -0.000 C 
BRANCH  13  14
ATOM     14  C   UNL     1     -17.725  29.603  23.194  1.00  0.00    -0.000 C 
BRANCH  14  15
ATOM     15  C   UNL     1     -18.865  30.437  23.802  1.00  0.00    -0.000 C 
BRANCH  15  16
ATOM     16  C   UNL     1     -18.450  31.893  24.071  1.00  0.00    -0.003 C 
ATOM     17  C   UNL     1     -19.340  32.906  23.351  1.00  0.00     0.004 C 
ENDBRANCH  15  16
ENDBRANCH  14  15
ENDBRANCH  13  14
ENDBRANCH  12  13
ENDBRANCH  11  12
ENDBRANCH  10  11
ENDBRANCH   1  10
TORSDOF 13
ENDMDL
