MODEL 1
REMARK VINA RESULT:    -4.386      0.000      0.000
REMARK INTER + INTRA:         -11.658
REMARK INTER:                  -9.514
REMARK INTRA:                  -2.144
REMARK UNBOUND:                -2.144
REMARK SMILES CCCCCCCCCCCCCCCCCCCCCC(=O)[O-]
REMARK SMILES IDX 12 1 11 2 10 3 9 4 8 5 7 6 6 7 5 8 4 9 3 10 2 11 1 12 13 13
REMARK SMILES IDX 14 14 15 15 16 16 17 17 18 18 19 19 20 20 21 21 22 22 23 23
REMARK SMILES IDX 24 24
REMARK H PARENT
REMARK Flexibility Score: inf
ROOT
ATOM      1  C   UNL     1      -6.527  -4.706   0.453  1.00  0.00     0.000 C 
ENDROOT
BRANCH   1   2
ATOM      2  C   UNL     1      -7.476  -3.548   0.102  1.00  0.00     0.000 C 
BRANCH   2   3
ATOM      3  C   UNL     1      -8.354  -3.858  -1.120  1.00  0.00     0.000 C 
BRANCH   3   4
ATOM      4  C   UNL     1      -7.909  -5.131  -1.860  1.00  0.00    -0.000 C 
BRANCH   4   5
ATOM      5  C   UNL     1      -7.939  -4.972  -3.390  1.00  0.00    -0.000 C 
BRANCH   5   6
ATOM      6  C   UNL     1      -9.185  -5.554  -4.090  1.00  0.00    -0.000 C 
BRANCH   6   7
ATOM      7  C   UNL     1     -10.105  -6.400  -3.193  1.00  0.00    -0.000 C 
BRANCH   7   8
ATOM      8  C   UNL     1     -11.524  -5.817  -3.080  1.00  0.00    -0.000 C 
BRANCH   8   9
ATOM      9  C   UNL     1     -12.067  -5.844  -1.642  1.00  0.00    -0.000 C 
BRANCH   9  10
ATOM     10  C   UNL     1     -11.843  -4.551  -0.835  1.00  0.00    -0.000 C 
BRANCH  10  11
ATOM     11  C   UNL     1     -11.482  -4.794   0.645  1.00  0.00    -0.003 C 
ATOM     12  C   UNL     1     -10.535  -5.980   0.828  1.00  0.00     0.004 C 
ENDBRANCH  10  11
ENDBRANCH   9  10
ENDBRANCH   8   9
ENDBRANCH   7   8
ENDBRANCH   6   7
ENDBRANCH   5   6
ENDBRANCH   4   5
ENDBRANCH   3   4
ENDBRANCH   2   3
ENDBRANCH   1   2
BRANCH   1  13
ATOM     13  C   UNL     1      -5.332  -4.253   1.308  1.00  0.00     0.000 C 
BRANCH  13  14
ATOM     14  C   UNL     1      -5.196  -2.718   1.417  1.00  0.00     0.000 C 
BRANCH  14  15
ATOM     15  C   UNL     1      -3.883  -2.301   2.104  1.00  0.00     0.000 C 
BRANCH  15  16
ATOM     16  C   UNL     1      -2.641  -2.943   1.448  1.00  0.00     0.000 C 
BRANCH  16  17
ATOM     17  C   UNL     1      -1.828  -1.970   0.576  1.00  0.00     0.000 C 
BRANCH  17  18
ATOM     18  C   UNL     1      -0.529  -2.592   0.040  1.00  0.00     0.000 C 
BRANCH  18  19
ATOM     19  C   UNL     1       0.310  -3.268   1.139  1.00  0.00     0.000 C 
BRANCH  19  20
ATOM     20  C   UNL     1       0.448  -4.795   1.002  1.00  0.00     0.006 C 
BRANCH  20  21
ATOM     21  C   UNL     1       0.006  -5.316  -0.373  1.00  0.00     0.053 C 
BRANCH  21  22
ATOM     22  C   UNL     1      -1.300  -6.044  -0.281  1.00  0.00     0.041 C 
ATOM     23  O   UNL     1      -2.127  -5.994  -1.232  1.00  0.00    -0.550 OA
ATOM     24  O   UNL     1      -1.593  -6.803   0.846  1.00  0.00    -0.550 OA
ENDBRANCH  21  22
ENDBRANCH  20  21
ENDBRANCH  19  20
ENDBRANCH  18  19
ENDBRANCH  17  18
ENDBRANCH  16  17
ENDBRANCH  15  16
ENDBRANCH  14  15
ENDBRANCH  13  14
ENDBRANCH   1  13
TORSDOF 20
ENDMDL
MODEL 2
REMARK VINA RESULT:    -4.351      2.841      8.804
REMARK INTER + INTRA:         -11.581
REMARK INTER:                  -8.783
REMARK INTRA:                  -2.798
REMARK UNBOUND:                -2.144
REMARK SMILES CCCCCCCCCCCCCCCCCCCCCC(=O)[O-]
REMARK SMILES IDX 12 1 11 2 10 3 9 4 8 5 7 6 6 7 5 8 4 9 3 10 2 11 1 12 13 13
REMARK SMILES IDX 14 14 15 15 16 16 17 17 18 18 19 19 20 20 21 21 22 22 23 23
REMARK SMILES IDX 24 24
REMARK H PARENT
REMARK Flexibility Score: inf
ROOT
ATOM      1  C   UNL     1      -2.669  -2.232   1.258  1.00  0.00     0.000 C 
ENDROOT
BRANCH   1   2
ATOM      2  C   UNL     1      -1.186  -2.637   1.203  1.00  0.00     0.000 C 
BRANCH   2   3
ATOM      3  C   UNL     1      -0.551  -2.356  -0.168  1.00  0.00     0.000 C 
BRANCH   3   4
ATOM      4  C   UNL     1      -1.178  -3.195  -1.294  1.00  0.00    -0.000 C 
BRANCH   4   5
ATOM      5  C   UNL     1      -0.939  -4.705  -1.116  1.00  0.00    -0.000 C 
BRANCH   5   6
ATOM      6  C   UNL     1      -2.154  -5.509  -0.607  1.00  0.00    -0.000 C 
BRANCH   6   7
ATOM      7  C   UNL     1      -1.858  -6.968  -0.221  1.00  0.00    -0.000 C 
BRANCH   7   8
ATOM      8  C   UNL     1      -0.664  -7.098   0.740  1.00  0.00    -0.000 C 
BRANCH   8   9
ATOM      9  C   UNL     1      -0.894  -6.377   2.078  1.00  0.00    -0.000 C 
BRANCH   9  10
ATOM     10  C   UNL     1       0.258  -5.461   2.533  1.00  0.00    -0.000 C 
BRANCH  10  11
ATOM     11  C   UNL     1       1.415  -5.361   1.518  1.00  0.00    -0.003 C 
ATOM     12  C   UNL     1       2.359  -4.197   1.821  1.00  0.00     0.004 C 
ENDBRANCH  10  11
ENDBRANCH   9  10
ENDBRANCH   8   9
ENDBRANCH   7   8
ENDBRANCH   6   7
ENDBRANCH   5   6
ENDBRANCH   4   5
ENDBRANCH   3   4
ENDBRANCH   2   3
ENDBRANCH   1   2
BRANCH   1  13
ATOM     13  C   UNL     1      -3.518  -3.207   2.090  1.00  0.00     0.000 C 
BRANCH  13  14
ATOM     14  C   UNL     1      -4.854  -3.591   1.417  1.00  0.00     0.000 C 
BRANCH  14  15
ATOM     15  C   UNL     1      -5.149  -5.098   1.536  1.00  0.00     0.000 C 
BRANCH  15  16
ATOM     16  C   UNL     1      -6.572  -5.462   1.061  1.00  0.00     0.000 C 
BRANCH  16  17
ATOM     17  C   UNL     1      -7.199  -4.415   0.123  1.00  0.00     0.000 C 
BRANCH  17  18
ATOM     18  C   UNL     1      -7.593  -4.998  -1.244  1.00  0.00     0.000 C 
BRANCH  18  19
ATOM     19  C   UNL     1      -9.005  -4.579  -1.690  1.00  0.00     0.000 C 
BRANCH  19  20
ATOM     20  C   UNL     1      -9.857  -3.909  -0.597  1.00  0.00     0.006 C 
BRANCH  20  21
ATOM     21  C   UNL     1     -11.153  -4.675  -0.293  1.00  0.00     0.053 C 
BRANCH  21  22
ATOM     22  C   UNL     1     -10.859  -6.049   0.226  1.00  0.00     0.041 C 
ATOM     23  O   UNL     1     -10.187  -6.201   1.281  1.00  0.00    -0.550 OA
ATOM     24  O   UNL     1     -11.353  -7.163  -0.442  1.00  0.00    -0.550 OA
ENDBRANCH  21  22
ENDBRANCH  20  21
ENDBRANCH  19  20
ENDBRANCH  18  19
ENDBRANCH  17  18
ENDBRANCH  16  17
ENDBRANCH  15  16
ENDBRANCH  14  15
ENDBRANCH  13  14
ENDBRANCH   1  13
TORSDOF 20
ENDMDL
MODEL 3
REMARK VINA RESULT:    -4.336      1.434      2.861
REMARK INTER + INTRA:         -11.549
REMARK INTER:                  -8.629
REMARK INTRA:                  -2.920
REMARK UNBOUND:                -2.144
REMARK SMILES CCCCCCCCCCCCCCCCCCCCCC(=O)[O-]
REMARK SMILES IDX 12 1 11 2 10 3 9 4 8 5 7 6 6 7 5 8 4 9 3 10 2 11 1 12 13 13
REMARK SMILES IDX 14 14 15 15 16 16 17 17 18 18 19 19 20 20 21 21 22 22 23 23
REMARK SMILES IDX 24 24
REMARK H PARENT
REMARK Flexibility Score: inf
ROOT
ATOM      1  C   UNL     1      -5.983  -7.302   0.718  1.00  0.00     0.000 C 
ENDROOT
BRANCH   1   2
ATOM      2  C   UNL     1      -7.203  -7.843  -0.046  1.00  0.00     0.000 C 
BRANCH   2   3
ATOM      3  C   UNL     1      -7.160  -7.495  -1.542  1.00  0.00     0.000 C 
BRANCH   3   4
ATOM      4  C   UNL     1      -6.807  -6.020  -1.797  1.00  0.00    -0.000 C 
BRANCH   4   5
ATOM      5  C   UNL     1      -8.035  -5.168  -2.162  1.00  0.00    -0.000 C 
BRANCH   5   6
ATOM      6  C   UNL     1      -8.271  -3.933  -1.268  1.00  0.00    -0.000 C 
BRANCH   6   7
ATOM      7  C   UNL     1      -8.544  -4.240   0.214  1.00  0.00    -0.000 C 
BRANCH   7   8
ATOM      8  C   UNL     1      -9.750  -5.173   0.416  1.00  0.00    -0.000 C 
BRANCH   8   9
ATOM      9  C   UNL     1     -11.097  -4.448   0.268  1.00  0.00    -0.000 C 
BRANCH   9  10
ATOM     10  C   UNL     1     -12.124  -5.155  -0.636  1.00  0.00    -0.000 C 
BRANCH  10  11
ATOM     11  C   UNL     1     -12.124  -4.653  -2.094  1.00  0.00    -0.003 C 
ATOM     12  C   UNL     1     -11.592  -5.701  -3.072  1.00  0.00     0.004 C 
ENDBRANCH  10  11
ENDBRANCH   9  10
ENDBRANCH   8   9
ENDBRANCH   7   8
ENDBRANCH   6   7
ENDBRANCH   5   6
ENDBRANCH   4   5
ENDBRANCH   3   4
ENDBRANCH   2   3
ENDBRANCH   1   2
BRANCH   1  13
ATOM     13  C   UNL     1      -6.378  -6.449   1.935  1.00  0.00     0.000 C 
BRANCH  13  14
ATOM     14  C   UNL     1      -5.306  -5.412   2.336  1.00  0.00     0.000 C 
BRANCH  14  15
ATOM     15  C   UNL     1      -4.916  -4.497   1.160  1.00  0.00     0.000 C 
BRANCH  15  16
ATOM     16  C   UNL     1      -5.139  -3.002   1.473  1.00  0.00     0.000 C 
BRANCH  16  17
ATOM     17  C   UNL     1      -3.845  -2.239   1.806  1.00  0.00     0.000 C 
BRANCH  17  18
ATOM     18  C   UNL     1      -2.577  -3.010   1.405  1.00  0.00     0.000 C 
BRANCH  18  19
ATOM     19  C   UNL     1      -1.556  -2.135   0.656  1.00  0.00     0.000 C 
BRANCH  19  20
ATOM     20  C   UNL     1      -0.996  -2.757  -0.636  1.00  0.00     0.006 C 
BRANCH  20  21
ATOM     21  C   UNL     1      -0.664  -4.249  -0.489  1.00  0.00     0.053 C 
BRANCH  21  22
ATOM     22  C   UNL     1      -1.416  -5.071  -1.491  1.00  0.00     0.041 C 
ATOM     23  O   UNL     1      -2.159  -6.016  -1.112  1.00  0.00    -0.550 OA
ATOM     24  O   UNL     1      -1.317  -4.775  -2.845  1.00  0.00    -0.550 OA
ENDBRANCH  21  22
ENDBRANCH  20  21
ENDBRANCH  19  20
ENDBRANCH  18  19
ENDBRANCH  17  18
ENDBRANCH  16  17
ENDBRANCH  15  16
ENDBRANCH  14  15
ENDBRANCH  13  14
ENDBRANCH   1  13
TORSDOF 20
ENDMDL
MODEL 4
REMARK VINA RESULT:    -4.324      3.276      9.882
REMARK INTER + INTRA:         -11.525
REMARK INTER:                  -9.576
REMARK INTRA:                  -1.948
REMARK UNBOUND:                -2.144
REMARK SMILES CCCCCCCCCCCCCCCCCCCCCC(=O)[O-]
REMARK SMILES IDX 12 1 11 2 10 3 9 4 8 5 7 6 6 7 5 8 4 9 3 10 2 11 1 12 13 13
REMARK SMILES IDX 14 14 15 15 16 16 17 17 18 18 19 19 20 20 21 21 22 22 23 23
REMARK SMILES IDX 24 24
REMARK H PARENT
REMARK Flexibility Score: inf
ROOT
ATOM      1  C   UNL     1      -3.545  -2.102   1.833  1.00  0.00     0.000 C 
ENDROOT
BRANCH   1   2
ATOM      2  C   UNL     1      -2.230  -2.843   1.539  1.00  0.00     0.000 C 
BRANCH   2   3
ATOM      3  C   UNL     1      -1.483  -2.259   0.331  1.00  0.00     0.000 C 
BRANCH   3   4
ATOM      4  C   UNL     1      -1.192  -3.313  -0.751  1.00  0.00    -0.000 C 
BRANCH   4   5
ATOM      5  C   UNL     1      -1.560  -4.739  -0.307  1.00  0.00    -0.000 C 
BRANCH   5   6
ATOM      6  C   UNL     1      -0.589  -5.846  -0.769  1.00  0.00    -0.000 C 
BRANCH   6   7
ATOM      7  C   UNL     1       0.873  -5.659  -0.328  1.00  0.00    -0.000 C 
BRANCH   7   8
ATOM      8  C   UNL     1       1.012  -5.427   1.186  1.00  0.00    -0.000 C 
BRANCH   8   9
ATOM      9  C   UNL     1       1.570  -4.036   1.528  1.00  0.00    -0.000 C 
BRANCH   9  10
ATOM     10  C   UNL     1       3.005  -4.026   2.086  1.00  0.00    -0.000 C 
BRANCH  10  11
ATOM     11  C   UNL     1       3.982  -4.936   1.313  1.00  0.00    -0.003 C 
ATOM     12  C   UNL     1       5.181  -4.167   0.758  1.00  0.00     0.004 C 
ENDBRANCH  10  11
ENDBRANCH   9  10
ENDBRANCH   8   9
ENDBRANCH   7   8
ENDBRANCH   6   7
ENDBRANCH   5   6
ENDBRANCH   4   5
ENDBRANCH   3   4
ENDBRANCH   2   3
ENDBRANCH   1   2
BRANCH   1  13
ATOM     13  C   UNL     1      -4.786  -2.941   1.492  1.00  0.00     0.000 C 
BRANCH  13  14
ATOM     14  C   UNL     1      -4.657  -4.427   1.894  1.00  0.00     0.000 C 
BRANCH  14  15
ATOM     15  C   UNL     1      -5.142  -5.373   0.779  1.00  0.00     0.000 C 
BRANCH  15  16
ATOM     16  C   UNL     1      -6.643  -5.712   0.902  1.00  0.00     0.000 C 
BRANCH  16  17
ATOM     17  C   UNL     1      -7.448  -5.433  -0.379  1.00  0.00     0.000 C 
BRANCH  17  18
ATOM     18  C   UNL     1      -7.933  -3.977  -0.474  1.00  0.00     0.000 C 
BRANCH  18  19
ATOM     19  C   UNL     1      -9.405  -3.862  -0.907  1.00  0.00     0.000 C 
BRANCH  19  20
ATOM     20  C   UNL     1     -10.422  -4.421   0.104  1.00  0.00     0.006 C 
BRANCH  20  21
ATOM     21  C   UNL     1     -11.836  -4.555  -0.480  1.00  0.00     0.053 C 
BRANCH  21  22
ATOM     22  C   UNL     1     -11.877  -5.587  -1.565  1.00  0.00     0.041 C 
ATOM     23  O   UNL     1     -11.785  -6.812  -1.282  1.00  0.00    -0.550 OA
ATOM     24  O   UNL     1     -12.045  -5.198  -2.888  1.00  0.00    -0.550 OA
ENDBRANCH  21  22
ENDBRANCH  20  21
ENDBRANCH  19  20
ENDBRANCH  18  19
ENDBRANCH  17  18
ENDBRANCH  16  17
ENDBRANCH  15  16
ENDBRANCH  14  15
ENDBRANCH  13  14
ENDBRANCH   1  13
TORSDOF 20
ENDMDL
MODEL 5
REMARK VINA RESULT:    -4.282      2.220      3.492
REMARK INTER + INTRA:         -11.433
REMARK INTER:                  -9.675
REMARK INTRA:                  -1.758
REMARK UNBOUND:                -2.144
REMARK SMILES CCCCCCCCCCCCCCCCCCCCCC(=O)[O-]
REMARK SMILES IDX 12 1 11 2 10 3 9 4 8 5 7 6 6 7 5 8 4 9 3 10 2 11 1 12 13 13
REMARK SMILES IDX 14 14 15 15 16 16 17 17 18 18 19 19 20 20 21 21 22 22 23 23
REMARK SMILES IDX 24 24
REMARK H PARENT
REMARK Flexibility Score: inf
ROOT
ATOM      1  C   UNL     1      -6.108  -5.241   0.665  1.00  0.00     0.000 C 
ENDROOT
BRANCH   1   2
ATOM      2  C   UNL     1      -7.240  -4.325   0.170  1.00  0.00     0.000 C 
BRANCH   2   3
ATOM      3  C   UNL     1      -8.626  -4.968   0.326  1.00  0.00     0.000 C 
BRANCH   3   4
ATOM      4  C   UNL     1      -9.743  -4.130  -0.321  1.00  0.00    -0.000 C 
BRANCH   4   5
ATOM      5  C   UNL     1     -11.151  -4.598   0.087  1.00  0.00    -0.000 C 
BRANCH   5   6
ATOM      6  C   UNL     1     -11.942  -5.343  -1.008  1.00  0.00    -0.000 C 
BRANCH   6   7
ATOM      7  C   UNL     1     -11.441  -5.119  -2.445  1.00  0.00    -0.000 C 
BRANCH   7   8
ATOM      8  C   UNL     1     -11.219  -6.435  -3.209  1.00  0.00    -0.000 C 
BRANCH   8   9
ATOM      9  C   UNL     1      -9.889  -6.461  -3.980  1.00  0.00    -0.000 C 
BRANCH   9  10
ATOM     10  C   UNL     1      -8.636  -6.177  -3.130  1.00  0.00    -0.000 C 
BRANCH  10  11
ATOM     11  C   UNL     1      -7.911  -4.868  -3.504  1.00  0.00    -0.003 C 
ATOM     12  C   UNL     1      -7.906  -4.613  -5.011  1.00  0.00     0.004 C 
ENDBRANCH  10  11
ENDBRANCH   9  10
ENDBRANCH   8   9
ENDBRANCH   7   8
ENDBRANCH   6   7
ENDBRANCH   5   6
ENDBRANCH   4   5
ENDBRANCH   3   4
ENDBRANCH   2   3
ENDBRANCH   1   2
BRANCH   1  13
ATOM     13  C   UNL     1      -4.880  -4.454   1.152  1.00  0.00     0.000 C 
BRANCH  13  14
ATOM     14  C   UNL     1      -5.181  -2.973   1.468  1.00  0.00     0.000 C 
BRANCH  14  15
ATOM     15  C   UNL     1      -3.901  -2.176   1.783  1.00  0.00     0.000 C 
BRANCH  15  16
ATOM     16  C   UNL     1      -2.621  -2.907   1.320  1.00  0.00     0.000 C 
BRANCH  16  17
ATOM     17  C   UNL     1      -1.703  -2.047   0.433  1.00  0.00     0.000 C 
BRANCH  17  18
ATOM     18  C   UNL     1      -0.281  -2.619   0.315  1.00  0.00     0.000 C 
BRANCH  18  19
ATOM     19  C   UNL     1       0.068  -3.596   1.451  1.00  0.00     0.000 C 
BRANCH  19  20
ATOM     20  C   UNL     1       1.051  -4.716   1.063  1.00  0.00     0.006 C 
BRANCH  20  21
ATOM     21  C   UNL     1       2.090  -5.008   2.156  1.00  0.00     0.053 C 
BRANCH  21  22
ATOM     22  C   UNL     1       3.362  -4.256   1.907  1.00  0.00     0.041 C 
ATOM     23  O   UNL     1       4.427  -4.876   1.639  1.00  0.00    -0.550 OA
ATOM     24  O   UNL     1       3.366  -2.867   1.944  1.00  0.00    -0.550 OA
ENDBRANCH  21  22
ENDBRANCH  20  21
ENDBRANCH  19  20
ENDBRANCH  18  19
ENDBRANCH  17  18
ENDBRANCH  16  17
ENDBRANCH  15  16
ENDBRANCH  14  15
ENDBRANCH  13  14
ENDBRANCH   1  13
TORSDOF 20
ENDMDL
MODEL 6
REMARK VINA RESULT:    -4.262      0.913      2.604
REMARK INTER + INTRA:         -11.388
REMARK INTER:                  -9.520
REMARK INTRA:                  -1.868
REMARK UNBOUND:                -2.144
REMARK SMILES CCCCCCCCCCCCCCCCCCCCCC(=O)[O-]
REMARK SMILES IDX 12 1 11 2 10 3 9 4 8 5 7 6 6 7 5 8 4 9 3 10 2 11 1 12 13 13
REMARK SMILES IDX 14 14 15 15 16 16 17 17 18 18 19 19 20 20 21 21 22 22 23 23
REMARK SMILES IDX 24 24
REMARK H PARENT
REMARK Flexibility Score: inf
ROOT
ATOM      1  C   UNL     1      -6.099  -5.283   0.796  1.00  0.00     0.000 C 
ENDROOT
BRANCH   1   2
ATOM      2  C   UNL     1      -7.231  -4.362   0.311  1.00  0.00     0.000 C 
BRANCH   2   3
ATOM      3  C   UNL     1      -8.581  -5.089   0.218  1.00  0.00     0.000 C 
BRANCH   3   4
ATOM      4  C   UNL     1      -9.693  -4.199  -0.363  1.00  0.00    -0.000 C 
BRANCH   4   5
ATOM      5  C   UNL     1     -11.054  -4.427   0.318  1.00  0.00    -0.000 C 
BRANCH   5   6
ATOM      6  C   UNL     1     -12.125  -5.109  -0.560  1.00  0.00    -0.000 C 
BRANCH   6   7
ATOM      7  C   UNL     1     -11.876  -5.031  -2.076  1.00  0.00    -0.000 C 
BRANCH   7   8
ATOM      8  C   UNL     1     -12.056  -6.388  -2.777  1.00  0.00    -0.000 C 
BRANCH   8   9
ATOM      9  C   UNL     1     -11.039  -6.615  -3.908  1.00  0.00    -0.000 C 
BRANCH   9  10
ATOM     10  C   UNL     1      -9.561  -6.533  -3.484  1.00  0.00    -0.000 C 
BRANCH  10  11
ATOM     11  C   UNL     1      -8.763  -5.431  -4.211  1.00  0.00    -0.003 C 
ATOM     12  C   UNL     1      -7.623  -4.876  -3.358  1.00  0.00     0.004 C 
ENDBRANCH  10  11
ENDBRANCH   9  10
ENDBRANCH   8   9
ENDBRANCH   7   8
ENDBRANCH   6   7
ENDBRANCH   5   6
ENDBRANCH   4   5
ENDBRANCH   3   4
ENDBRANCH   2   3
ENDBRANCH   1   2
BRANCH   1  13
ATOM     13  C   UNL     1      -4.866  -4.501   1.279  1.00  0.00     0.000 C 
BRANCH  13  14
ATOM     14  C   UNL     1      -5.128  -2.991   1.472  1.00  0.00     0.000 C 
BRANCH  14  15
ATOM     15  C   UNL     1      -3.856  -2.233   1.895  1.00  0.00     0.000 C 
BRANCH  15  16
ATOM     16  C   UNL     1      -2.564  -2.956   1.459  1.00  0.00     0.000 C 
BRANCH  16  17
ATOM     17  C   UNL     1      -1.621  -2.084   0.610  1.00  0.00     0.000 C 
BRANCH  17  18
ATOM     18  C   UNL     1      -0.192  -2.646   0.536  1.00  0.00     0.000 C 
BRANCH  18  19
ATOM     19  C   UNL     1       0.036  -3.831   1.491  1.00  0.00     0.000 C 
BRANCH  19  20
ATOM     20  C   UNL     1       1.137  -4.814   1.052  1.00  0.00     0.006 C 
BRANCH  20  21
ATOM     21  C   UNL     1       0.647  -5.840   0.020  1.00  0.00     0.053 C 
BRANCH  21  22
ATOM     22  C   UNL     1      -0.460  -6.681   0.577  1.00  0.00     0.041 C 
ATOM     23  O   UNL     1      -0.202  -7.655   1.334  1.00  0.00    -0.550 OA
ATOM     24  O   UNL     1      -1.783  -6.371   0.282  1.00  0.00    -0.550 OA
ENDBRANCH  21  22
ENDBRANCH  20  21
ENDBRANCH  19  20
ENDBRANCH  18  19
ENDBRANCH  17  18
ENDBRANCH  16  17
ENDBRANCH  15  16
ENDBRANCH  14  15
ENDBRANCH  13  14
ENDBRANCH   1  13
TORSDOF 20
ENDMDL
MODEL 7
REMARK VINA RESULT:    -4.255      2.849      8.098
REMARK INTER + INTRA:         -11.374
REMARK INTER:                  -8.411
REMARK INTRA:                  -2.963
REMARK UNBOUND:                -2.144
REMARK SMILES CCCCCCCCCCCCCCCCCCCCCC(=O)[O-]
REMARK SMILES IDX 12 1 11 2 10 3 9 4 8 5 7 6 6 7 5 8 4 9 3 10 2 11 1 12 13 13
REMARK SMILES IDX 14 14 15 15 16 16 17 17 18 18 19 19 20 20 21 21 22 22 23 23
REMARK SMILES IDX 24 24
REMARK H PARENT
REMARK Flexibility Score: inf
ROOT
ATOM      1  C   UNL     1     -10.158  -4.419  -0.222  1.00  0.00     0.000 C 
ENDROOT
BRANCH   1   2
ATOM      2  C   UNL     1      -8.964  -3.661  -0.826  1.00  0.00     0.000 C 
BRANCH   2   3
ATOM      3  C   UNL     1      -7.622  -4.100  -0.220  1.00  0.00     0.000 C 
BRANCH   3   4
ATOM      4  C   UNL     1      -7.788  -5.169   0.874  1.00  0.00    -0.000 C 
BRANCH   4   5
ATOM      5  C   UNL     1      -6.454  -5.561   1.532  1.00  0.00    -0.000 C 
BRANCH   5   6
ATOM      6  C   UNL     1      -5.190  -5.004   0.843  1.00  0.00    -0.000 C 
BRANCH   6   7
ATOM      7  C   UNL     1      -4.167  -4.347   1.785  1.00  0.00    -0.000 C 
BRANCH   7   8
ATOM      8  C   UNL     1      -4.195  -2.811   1.716  1.00  0.00    -0.000 C 
BRANCH   8   9
ATOM      9  C   UNL     1      -2.884  -2.213   1.180  1.00  0.00    -0.000 C 
BRANCH   9  10
ATOM     10  C   UNL     1      -1.606  -2.970   1.588  1.00  0.00    -0.000 C 
BRANCH  10  11
ATOM     11  C   UNL     1      -0.501  -2.955   0.512  1.00  0.00    -0.003 C 
ATOM     12  C   UNL     1      -1.042  -2.607  -0.875  1.00  0.00     0.004 C 
ENDBRANCH  10  11
ENDBRANCH   9  10
ENDBRANCH   8   9
ENDBRANCH   7   8
ENDBRANCH   6   7
ENDBRANCH   5   6
ENDBRANCH   4   5
ENDBRANCH   3   4
ENDBRANCH   2   3
ENDBRANCH   1   2
BRANCH   1  13
ATOM     13  C   UNL     1     -11.266  -4.693  -1.251  1.00  0.00     0.000 C 
BRANCH  13  14
ATOM     14  C   UNL     1     -11.465  -6.193  -1.562  1.00  0.00     0.000 C 
BRANCH  14  15
ATOM     15  C   UNL     1     -10.170  -6.854  -2.071  1.00  0.00     0.000 C 
BRANCH  15  16
ATOM     16  C   UNL     1      -9.621  -7.912  -1.089  1.00  0.00     0.000 C 
BRANCH  16  17
ATOM     17  C   UNL     1      -8.102  -8.132  -1.200  1.00  0.00     0.000 C 
BRANCH  17  18
ATOM     18  C   UNL     1      -7.541  -7.737  -2.576  1.00  0.00     0.000 C 
BRANCH  18  19
ATOM     19  C   UNL     1      -6.558  -6.555  -2.505  1.00  0.00     0.000 C 
BRANCH  19  20
ATOM     20  C   UNL     1      -6.510  -5.676  -3.768  1.00  0.00     0.006 C 
BRANCH  20  21
ATOM     21  C   UNL     1      -7.851  -4.989  -4.071  1.00  0.00     0.053 C 
BRANCH  21  22
ATOM     22  C   UNL     1      -8.382  -5.409  -5.407  1.00  0.00     0.041 C 
ATOM     23  O   UNL     1      -7.598  -5.589  -6.377  1.00  0.00    -0.550 OA
ATOM     24  O   UNL     1      -9.744  -5.627  -5.575  1.00  0.00    -0.550 OA
ENDBRANCH  21  22
ENDBRANCH  20  21
ENDBRANCH  19  20
ENDBRANCH  18  19
ENDBRANCH  17  18
ENDBRANCH  16  17
ENDBRANCH  15  16
ENDBRANCH  14  15
ENDBRANCH  13  14
ENDBRANCH   1  13
TORSDOF 20
ENDMDL
MODEL 8
REMARK VINA RESULT:    -4.216      1.588      8.566
REMARK INTER + INTRA:         -11.289
REMARK INTER:                  -9.141
REMARK INTRA:                  -2.148
REMARK UNBOUND:                -2.144
REMARK SMILES CCCCCCCCCCCCCCCCCCCCCC(=O)[O-]
REMARK SMILES IDX 12 1 11 2 10 3 9 4 8 5 7 6 6 7 5 8 4 9 3 10 2 11 1 12 13 13
REMARK SMILES IDX 14 14 15 15 16 16 17 17 18 18 19 19 20 20 21 21 22 22 23 23
REMARK SMILES IDX 24 24
REMARK H PARENT
REMARK Flexibility Score: inf
ROOT
ATOM      1  C   UNL     1      -8.670  -4.976   0.322  1.00  0.00     0.000 C 
ENDROOT
BRANCH   1   2
ATOM      2  C   UNL     1      -7.273  -4.334   0.333  1.00  0.00     0.000 C 
BRANCH   2   3
ATOM      3  C   UNL     1      -6.209  -5.253   0.953  1.00  0.00     0.000 C 
BRANCH   3   4
ATOM      4  C   UNL     1      -4.887  -4.519   1.238  1.00  0.00    -0.000 C 
BRANCH   4   5
ATOM      5  C   UNL     1      -5.090  -3.026   1.552  1.00  0.00    -0.000 C 
BRANCH   5   6
ATOM      6  C   UNL     1      -3.802  -2.176   1.577  1.00  0.00    -0.000 C 
BRANCH   6   7
ATOM      7  C   UNL     1      -2.496  -2.959   1.359  1.00  0.00    -0.000 C 
BRANCH   7   8
ATOM      8  C   UNL     1      -1.497  -2.210   0.461  1.00  0.00    -0.000 C 
BRANCH   8   9
ATOM      9  C   UNL     1      -0.038  -2.621   0.719  1.00  0.00    -0.000 C 
BRANCH   9  10
ATOM     10  C   UNL     1       0.143  -3.947   1.481  1.00  0.00    -0.000 C 
BRANCH  10  11
ATOM     11  C   UNL     1       0.568  -5.129   0.586  1.00  0.00    -0.003 C 
ATOM     12  C   UNL     1       2.005  -5.576   0.853  1.00  0.00     0.004 C 
ENDBRANCH  10  11
ENDBRANCH   9  10
ENDBRANCH   8   9
ENDBRANCH   7   8
ENDBRANCH   6   7
ENDBRANCH   5   6
ENDBRANCH   4   5
ENDBRANCH   3   4
ENDBRANCH   2   3
ENDBRANCH   1   2
BRANCH   1  13
ATOM     13  C   UNL     1      -9.716  -4.104  -0.392  1.00  0.00     0.000 C 
BRANCH  13  14
ATOM     14  C   UNL     1     -11.173  -4.539  -0.119  1.00  0.00     0.000 C 
BRANCH  14  15
ATOM     15  C   UNL     1     -12.003  -4.625  -1.413  1.00  0.00     0.000 C 
BRANCH  15  16
ATOM     16  C   UNL     1     -11.858  -5.990  -2.120  1.00  0.00     0.000 C 
BRANCH  16  17
ATOM     17  C   UNL     1     -11.106  -5.917  -3.461  1.00  0.00     0.000 C 
BRANCH  17  18
ATOM     18  C   UNL     1      -9.652  -6.404  -3.357  1.00  0.00     0.000 C 
BRANCH  18  19
ATOM     19  C   UNL     1      -8.625  -5.280  -3.582  1.00  0.00     0.000 C 
BRANCH  19  20
ATOM     20  C   UNL     1      -7.185  -5.624  -3.158  1.00  0.00     0.006 C 
BRANCH  20  21
ATOM     21  C   UNL     1      -7.096  -6.916  -2.332  1.00  0.00     0.053 C 
BRANCH  21  22
ATOM     22  C   UNL     1      -5.726  -7.515  -2.415  1.00  0.00     0.041 C 
ATOM     23  O   UNL     1      -5.582  -8.753  -2.606  1.00  0.00    -0.550 OA
ATOM     24  O   UNL     1      -4.604  -6.701  -2.307  1.00  0.00    -0.550 OA
ENDBRANCH  21  22
ENDBRANCH  20  21
ENDBRANCH  19  20
ENDBRANCH  18  19
ENDBRANCH  17  18
ENDBRANCH  16  17
ENDBRANCH  15  16
ENDBRANCH  14  15
ENDBRANCH  13  14
ENDBRANCH   1  13
TORSDOF 20
ENDMDL
MODEL 9
REMARK VINA RESULT:    -4.177      2.447      8.978
REMARK INTER + INTRA:         -11.205
REMARK INTER:                  -8.642
REMARK INTRA:                  -2.563
REMARK UNBOUND:                -2.144
REMARK SMILES CCCCCCCCCCCCCCCCCCCCCC(=O)[O-]
REMARK SMILES IDX 12 1 11 2 10 3 9 4 8 5 7 6 6 7 5 8 4 9 3 10 2 11 1 12 13 13
REMARK SMILES IDX 14 14 15 15 16 16 17 17 18 18 19 19 20 20 21 21 22 22 23 23
REMARK SMILES IDX 24 24
REMARK H PARENT
REMARK Flexibility Score: inf
ROOT
ATOM      1  C   UNL     1      -5.354  -6.172   0.181  1.00  0.00     0.000 C 
ENDROOT
BRANCH   1   2
ATOM      2  C   UNL     1      -3.889  -5.764   0.410  1.00  0.00     0.000 C 
BRANCH   2   3
ATOM      3  C   UNL     1      -3.473  -5.877   1.885  1.00  0.00     0.000 C 
BRANCH   3   4
ATOM      4  C   UNL     1      -2.849  -4.578   2.424  1.00  0.00    -0.000 C 
BRANCH   4   5
ATOM      5  C   UNL     1      -3.568  -3.316   1.916  1.00  0.00    -0.000 C 
BRANCH   5   6
ATOM      6  C   UNL     1      -2.644  -2.191   1.404  1.00  0.00    -0.000 C 
BRANCH   6   7
ATOM      7  C   UNL     1      -1.196  -2.617   1.107  1.00  0.00    -0.000 C 
BRANCH   7   8
ATOM      8  C   UNL     1      -0.872  -2.613  -0.397  1.00  0.00    -0.000 C 
BRANCH   8   9
ATOM      9  C   UNL     1      -1.027  -3.999  -1.045  1.00  0.00    -0.000 C 
BRANCH   9  10
ATOM     10  C   UNL     1      -0.258  -5.136  -0.347  1.00  0.00    -0.000 C 
BRANCH  10  11
ATOM     11  C   UNL     1      -0.337  -6.488  -1.086  1.00  0.00    -0.003 C 
ATOM     12  C   UNL     1      -0.714  -7.641  -0.155  1.00  0.00     0.004 C 
ENDBRANCH  10  11
ENDBRANCH   9  10
ENDBRANCH   8   9
ENDBRANCH   7   8
ENDBRANCH   6   7
ENDBRANCH   5   6
ENDBRANCH   4   5
ENDBRANCH   3   4
ENDBRANCH   2   3
ENDBRANCH   1   2
BRANCH   1  13
ATOM     13  C   UNL     1      -6.347  -5.223   0.872  1.00  0.00     0.000 C 
BRANCH  13  14
ATOM     14  C   UNL     1      -7.763  -5.253   0.254  1.00  0.00     0.000 C 
BRANCH  14  15
ATOM     15  C   UNL     1      -8.061  -3.986  -0.569  1.00  0.00     0.000 C 
BRANCH  15  16
ATOM     16  C   UNL     1      -9.575  -3.745  -0.755  1.00  0.00     0.000 C 
BRANCH  16  17
ATOM     17  C   UNL     1     -10.460  -4.701   0.064  1.00  0.00     0.000 C 
BRANCH  17  18
ATOM     18  C   UNL     1     -11.937  -4.661  -0.363  1.00  0.00     0.000 C 
BRANCH  18  19
ATOM     19  C   UNL     1     -12.125  -4.809  -1.883  1.00  0.00     0.000 C 
BRANCH  19  20
ATOM     20  C   UNL     1     -11.770  -6.197  -2.447  1.00  0.00     0.006 C 
BRANCH  20  21
ATOM     21  C   UNL     1     -10.653  -6.148  -3.501  1.00  0.00     0.053 C 
BRANCH  21  22
ATOM     22  C   UNL     1      -9.423  -6.853  -3.018  1.00  0.00     0.041 C 
ATOM     23  O   UNL     1      -9.468  -7.582  -1.991  1.00  0.00    -0.550 OA
ATOM     24  O   UNL     1      -8.230  -6.727  -3.720  1.00  0.00    -0.550 OA
ENDBRANCH  21  22
ENDBRANCH  20  21
ENDBRANCH  19  20
ENDBRANCH  18  19
ENDBRANCH  17  18
ENDBRANCH  16  17
ENDBRANCH  15  16
ENDBRANCH  14  15
ENDBRANCH  13  14
ENDBRANCH   1  13
TORSDOF 20
ENDMDL
