MODEL 1
REMARK VINA RESULT:    -2.334      0.000      0.000
REMARK INTER + INTRA:          -5.762
REMARK INTER:                  -5.063
REMARK INTRA:                  -0.699
REMARK UNBOUND:                -0.699
REMARK SMILES CCCCCCCCCCCCCCCCCCCCCC(=O)[O-]
REMARK SMILES IDX 12 1 11 2 10 3 9 4 8 5 7 6 6 7 5 8 4 9 3 10 2 11 1 12 13 13
REMARK SMILES IDX 14 14 15 15 16 16 17 17 18 18 19 19 20 20 21 21 22 22 23 23
REMARK SMILES IDX 24 24
REMARK H PARENT
REMARK Flexibility Score: inf
ROOT
ATOM      1  C   UNL     1      -5.223  35.032  23.523  1.00  0.00     0.000 C 
ENDROOT
BRANCH   1   2
ATOM      2  C   UNL     1      -6.010  35.299  24.819  1.00  0.00     0.000 C 
BRANCH   2   3
ATOM      3  C   UNL     1      -6.062  36.777  25.259  1.00  0.00     0.000 C 
BRANCH   3   4
ATOM      4  C   UNL     1      -4.837  37.619  24.863  1.00  0.00    -0.000 C 
BRANCH   4   5
ATOM      5  C   UNL     1      -5.215  38.969  24.237  1.00  0.00    -0.000 C 
BRANCH   5   6
ATOM      6  C   UNL     1      -4.619  39.101  22.828  1.00  0.00    -0.000 C 
BRANCH   6   7
ATOM      7  C   UNL     1      -5.644  38.812  21.718  1.00  0.00    -0.000 C 
BRANCH   7   8
ATOM      8  C   UNL     1      -5.147  39.109  20.290  1.00  0.00    -0.000 C 
BRANCH   8   9
ATOM      9  C   UNL     1      -4.365  37.940  19.653  1.00  0.00    -0.000 C 
BRANCH   9  10
ATOM     10  C   UNL     1      -2.845  38.082  19.848  1.00  0.00    -0.000 C 
BRANCH  10  11
ATOM     11  C   UNL     1      -2.048  37.694  18.595  1.00  0.00    -0.003 C 
ATOM     12  C   UNL     1      -0.556  37.518  18.873  1.00  0.00     0.004 C 
ENDBRANCH  10  11
ENDBRANCH   9  10
ENDBRANCH   8   9
ENDBRANCH   7   8
ENDBRANCH   6   7
ENDBRANCH   5   6
ENDBRANCH   4   5
ENDBRANCH   3   4
ENDBRANCH   2   3
ENDBRANCH   1   2
BRANCH   1  13
ATOM     13  C   UNL     1      -6.125  34.632  22.347  1.00  0.00     0.000 C 
BRANCH  13  14
ATOM     14  C   UNL     1      -5.919  35.575  21.153  1.00  0.00     0.000 C 
BRANCH  14  15
ATOM     15  C   UNL     1      -5.927  34.841  19.803  1.00  0.00     0.000 C 
BRANCH  15  16
ATOM     16  C   UNL     1      -4.544  34.822  19.128  1.00  0.00     0.000 C 
BRANCH  16  17
ATOM     17  C   UNL     1      -4.640  34.851  17.594  1.00  0.00     0.000 C 
BRANCH  17  18
ATOM     18  C   UNL     1      -3.788  35.966  16.971  1.00  0.00     0.000 C 
BRANCH  18  19
ATOM     19  C   UNL     1      -2.749  35.386  16.003  1.00  0.00     0.000 C 
BRANCH  19  20
ATOM     20  C   UNL     1      -1.955  36.503  15.314  1.00  0.00     0.006 C 
BRANCH  20  21
ATOM     21  C   UNL     1      -2.536  36.816  13.931  1.00  0.00     0.053 C 
BRANCH  21  22
ATOM     22  C   UNL     1      -3.912  37.392  14.057  1.00  0.00     0.041 C 
ATOM     23  O   UNL     1      -4.923  36.663  13.876  1.00  0.00    -0.550 OA
ATOM     24  O   UNL     1      -4.079  38.743  14.334  1.00  0.00    -0.550 OA
ENDBRANCH  21  22
ENDBRANCH  20  21
ENDBRANCH  19  20
ENDBRANCH  18  19
ENDBRANCH  17  18
ENDBRANCH  16  17
ENDBRANCH  15  16
ENDBRANCH  14  15
ENDBRANCH  13  14
ENDBRANCH   1  13
TORSDOF 20
ENDMDL
MODEL 2
REMARK VINA RESULT:    -2.060      1.323      3.408
REMARK INTER + INTRA:          -5.167
REMARK INTER:                  -3.740
REMARK INTRA:                  -1.426
REMARK UNBOUND:                -0.699
REMARK SMILES CCCCCCCCCCCCCCCCCCCCCC(=O)[O-]
REMARK SMILES IDX 12 1 11 2 10 3 9 4 8 5 7 6 6 7 5 8 4 9 3 10 2 11 1 12 13 13
REMARK SMILES IDX 14 14 15 15 16 16 17 17 18 18 19 19 20 20 21 21 22 22 23 23
REMARK SMILES IDX 24 24
REMARK H PARENT
REMARK Flexibility Score: inf
ROOT
ATOM      1  C   UNL     1      -4.688  38.388  21.429  1.00  0.00     0.000 C 
ENDROOT
BRANCH   1   2
ATOM      2  C   UNL     1      -5.406  39.266  22.469  1.00  0.00     0.000 C 
BRANCH   2   3
ATOM      3  C   UNL     1      -4.658  39.441  23.807  1.00  0.00     0.000 C 
BRANCH   3   4
ATOM      4  C   UNL     1      -4.157  38.136  24.449  1.00  0.00    -0.000 C 
BRANCH   4   5
ATOM      5  C   UNL     1      -4.860  37.813  25.775  1.00  0.00    -0.000 C 
BRANCH   5   6
ATOM      6  C   UNL     1      -6.099  36.938  25.536  1.00  0.00    -0.000 C 
BRANCH   6   7
ATOM      7  C   UNL     1      -6.096  36.268  24.152  1.00  0.00    -0.000 C 
BRANCH   7   8
ATOM      8  C   UNL     1      -6.082  34.727  24.183  1.00  0.00    -0.000 C 
BRANCH   8   9
ATOM      9  C   UNL     1      -5.092  34.098  23.180  1.00  0.00    -0.000 C 
BRANCH   9  10
ATOM     10  C   UNL     1      -4.871  34.988  21.945  1.00  0.00    -0.000 C 
BRANCH  10  11
ATOM     11  C   UNL     1      -3.497  34.770  21.296  1.00  0.00    -0.003 C 
ATOM     12  C   UNL     1      -2.826  33.475  21.752  1.00  0.00     0.004 C 
ENDBRANCH  10  11
ENDBRANCH   9  10
ENDBRANCH   8   9
ENDBRANCH   7   8
ENDBRANCH   6   7
ENDBRANCH   5   6
ENDBRANCH   4   5
ENDBRANCH   3   4
ENDBRANCH   2   3
ENDBRANCH   1   2
BRANCH   1  13
ATOM     13  C   UNL     1      -5.417  38.342  20.079  1.00  0.00     0.000 C 
BRANCH  13  14
ATOM     14  C   UNL     1      -5.631  36.892  19.620  1.00  0.00     0.000 C 
BRANCH  14  15
ATOM     15  C   UNL     1      -4.574  36.423  18.608  1.00  0.00     0.000 C 
BRANCH  15  16
ATOM     16  C   UNL     1      -3.686  37.573  18.101  1.00  0.00     0.000 C 
BRANCH  16  17
ATOM     17  C   UNL     1      -2.188  37.279  18.278  1.00  0.00     0.000 C 
BRANCH  17  18
ATOM     18  C   UNL     1      -1.550  36.682  17.016  1.00  0.00     0.000 C 
BRANCH  18  19
ATOM     19  C   UNL     1      -2.549  35.793  16.264  1.00  0.00     0.000 C 
BRANCH  19  20
ATOM     20  C   UNL     1      -2.530  36.094  14.760  1.00  0.00     0.006 C 
BRANCH  20  21
ATOM     21  C   UNL     1      -2.695  37.594  14.498  1.00  0.00     0.053 C 
BRANCH  21  22
ATOM     22  C   UNL     1      -4.120  37.917  14.172  1.00  0.00     0.041 C 
ATOM     23  O   UNL     1      -4.522  39.110  14.204  1.00  0.00    -0.550 OA
ATOM     24  O   UNL     1      -5.015  36.896  13.875  1.00  0.00    -0.550 OA
ENDBRANCH  21  22
ENDBRANCH  20  21
ENDBRANCH  19  20
ENDBRANCH  18  19
ENDBRANCH  17  18
ENDBRANCH  16  17
ENDBRANCH  15  16
ENDBRANCH  14  15
ENDBRANCH  13  14
ENDBRANCH   1  13
TORSDOF 20
ENDMDL
MODEL 3
REMARK VINA RESULT:    -1.720      3.032      7.293
REMARK INTER + INTRA:          -4.429
REMARK INTER:                  -3.152
REMARK INTRA:                  -1.277
REMARK UNBOUND:                -0.699
REMARK SMILES CCCCCCCCCCCCCCCCCCCCCC(=O)[O-]
REMARK SMILES IDX 12 1 11 2 10 3 9 4 8 5 7 6 6 7 5 8 4 9 3 10 2 11 1 12 13 13
REMARK SMILES IDX 14 14 15 15 16 16 17 17 18 18 19 19 20 20 21 21 22 22 23 23
REMARK SMILES IDX 24 24
REMARK H PARENT
REMARK Flexibility Score: inf
ROOT
ATOM      1  C   UNL     1      -4.441  37.016  20.720  1.00  0.00     0.000 C 
ENDROOT
BRANCH   1   2
ATOM      2  C   UNL     1      -5.821  36.766  20.088  1.00  0.00     0.000 C 
BRANCH   2   3
ATOM      3  C   UNL     1      -5.999  35.383  19.428  1.00  0.00     0.000 C 
BRANCH   3   4
ATOM      4  C   UNL     1      -4.712  34.546  19.311  1.00  0.00    -0.000 C 
BRANCH   4   5
ATOM      5  C   UNL     1      -4.411  34.110  17.870  1.00  0.00    -0.000 C 
BRANCH   5   6
ATOM      6  C   UNL     1      -4.237  35.333  16.957  1.00  0.00    -0.000 C 
BRANCH   6   7
ATOM      7  C   UNL     1      -3.287  36.388  17.549  1.00  0.00    -0.000 C 
BRANCH   7   8
ATOM      8  C   UNL     1      -2.080  36.738  16.658  1.00  0.00    -0.000 C 
BRANCH   8   9
ATOM      9  C   UNL     1      -2.103  36.036  15.284  1.00  0.00    -0.000 C 
BRANCH   9  10
ATOM     10  C   UNL     1      -2.526  36.987  14.151  1.00  0.00    -0.000 C 
BRANCH  10  11
ATOM     11  C   UNL     1      -4.050  37.137  14.042  1.00  0.00    -0.003 C 
ATOM     12  C   UNL     1      -4.492  38.590  13.877  1.00  0.00     0.004 C 
ENDBRANCH  10  11
ENDBRANCH   9  10
ENDBRANCH   8   9
ENDBRANCH   7   8
ENDBRANCH   6   7
ENDBRANCH   5   6
ENDBRANCH   4   5
ENDBRANCH   3   4
ENDBRANCH   2   3
ENDBRANCH   1   2
BRANCH   1  13
ATOM     13  C   UNL     1      -4.181  38.498  21.024  1.00  0.00     0.000 C 
BRANCH  13  14
ATOM     14  C   UNL     1      -5.496  39.236  21.313  1.00  0.00     0.000 C 
BRANCH  14  15
ATOM     15  C   UNL     1      -5.325  40.395  22.308  1.00  0.00     0.000 C 
BRANCH  15  16
ATOM     16  C   UNL     1      -4.605  39.968  23.599  1.00  0.00     0.000 C 
BRANCH  16  17
ATOM     17  C   UNL     1      -5.253  38.737  24.252  1.00  0.00     0.000 C 
BRANCH  17  18
ATOM     18  C   UNL     1      -4.289  37.986  25.181  1.00  0.00     0.000 C 
BRANCH  18  19
ATOM     19  C   UNL     1      -4.906  36.667  25.662  1.00  0.00     0.000 C 
BRANCH  19  20
ATOM     20  C   UNL     1      -6.123  36.286  24.810  1.00  0.00     0.006 C 
BRANCH  20  21
ATOM     21  C   UNL     1      -5.698  35.880  23.396  1.00  0.00     0.053 C 
BRANCH  21  22
ATOM     22  C   UNL     1      -5.341  34.427  23.350  1.00  0.00     0.041 C 
ATOM     23  O   UNL     1      -4.485  34.010  22.526  1.00  0.00    -0.550 OA
ATOM     24  O   UNL     1      -5.986  33.525  24.189  1.00  0.00    -0.550 OA
ENDBRANCH  21  22
ENDBRANCH  20  21
ENDBRANCH  19  20
ENDBRANCH  18  19
ENDBRANCH  17  18
ENDBRANCH  16  17
ENDBRANCH  15  16
ENDBRANCH  14  15
ENDBRANCH  13  14
ENDBRANCH   1  13
TORSDOF 20
ENDMDL
MODEL 4
REMARK VINA RESULT:    -1.662      2.005      3.364
REMARK INTER + INTRA:          -4.304
REMARK INTER:                  -2.581
REMARK INTRA:                  -1.724
REMARK UNBOUND:                -0.699
REMARK SMILES CCCCCCCCCCCCCCCCCCCCCC(=O)[O-]
REMARK SMILES IDX 12 1 11 2 10 3 9 4 8 5 7 6 6 7 5 8 4 9 3 10 2 11 1 12 13 13
REMARK SMILES IDX 14 14 15 15 16 16 17 17 18 18 19 19 20 20 21 21 22 22 23 23
REMARK SMILES IDX 24 24
REMARK H PARENT
REMARK Flexibility Score: inf
ROOT
ATOM      1  C   UNL     1      -4.217  35.340  22.013  1.00  0.00     0.000 C 
ENDROOT
BRANCH   1   2
ATOM      2  C   UNL     1      -5.640  35.566  22.555  1.00  0.00     0.000 C 
BRANCH   2   3
ATOM      3  C   UNL     1      -6.088  34.574  23.649  1.00  0.00     0.000 C 
BRANCH   3   4
ATOM      4  C   UNL     1      -6.055  35.127  25.084  1.00  0.00    -0.000 C 
BRANCH   4   5
ATOM      5  C   UNL     1      -6.125  36.660  25.137  1.00  0.00    -0.000 C 
BRANCH   5   6
ATOM      6  C   UNL     1      -4.750  37.256  25.472  1.00  0.00    -0.000 C 
BRANCH   6   7
ATOM      7  C   UNL     1      -4.227  38.199  24.375  1.00  0.00    -0.000 C 
BRANCH   7   8
ATOM      8  C   UNL     1      -5.268  39.201  23.839  1.00  0.00    -0.000 C 
BRANCH   8   9
ATOM      9  C   UNL     1      -4.932  39.749  22.436  1.00  0.00    -0.000 C 
BRANCH   9  10
ATOM     10  C   UNL     1      -6.007  39.384  21.397  1.00  0.00    -0.000 C 
BRANCH  10  11
ATOM     11  C   UNL     1      -5.453  38.531  20.246  1.00  0.00    -0.003 C 
ATOM     12  C   UNL     1      -3.978  38.175  20.431  1.00  0.00     0.004 C 
ENDBRANCH  10  11
ENDBRANCH   9  10
ENDBRANCH   8   9
ENDBRANCH   7   8
ENDBRANCH   6   7
ENDBRANCH   5   6
ENDBRANCH   4   5
ENDBRANCH   3   4
ENDBRANCH   2   3
ENDBRANCH   1   2
BRANCH   1  13
ATOM     13  C   UNL     1      -4.192  35.026  20.511  1.00  0.00     0.000 C 
BRANCH  13  14
ATOM     14  C   UNL     1      -5.597  35.147  19.902  1.00  0.00     0.000 C 
BRANCH  14  15
ATOM     15  C   UNL     1      -5.627  34.829  18.399  1.00  0.00     0.000 C 
BRANCH  15  16
ATOM     16  C   UNL     1      -4.322  34.183  17.903  1.00  0.00     0.000 C 
BRANCH  16  17
ATOM     17  C   UNL     1      -3.722  34.925  16.697  1.00  0.00     0.000 C 
BRANCH  17  18
ATOM     18  C   UNL     1      -4.069  36.420  16.693  1.00  0.00     0.000 C 
BRANCH  18  19
ATOM     19  C   UNL     1      -3.202  37.182  15.682  1.00  0.00     0.000 C 
BRANCH  19  20
ATOM     20  C   UNL     1      -1.907  37.681  16.334  1.00  0.00     0.006 C 
BRANCH  20  21
ATOM     21  C   UNL     1      -1.517  36.801  17.525  1.00  0.00     0.053 C 
BRANCH  21  22
ATOM     22  C   UNL     1      -0.929  37.632  18.623  1.00  0.00     0.041 C 
ATOM     23  O   UNL     1      -1.077  38.882  18.619  1.00  0.00    -0.550 OA
ATOM     24  O   UNL     1      -0.182  37.030  19.629  1.00  0.00    -0.550 OA
ENDBRANCH  21  22
ENDBRANCH  20  21
ENDBRANCH  19  20
ENDBRANCH  18  19
ENDBRANCH  17  18
ENDBRANCH  16  17
ENDBRANCH  15  16
ENDBRANCH  14  15
ENDBRANCH  13  14
ENDBRANCH   1  13
TORSDOF 20
ENDMDL
MODEL 5
REMARK VINA RESULT:    -1.548      2.141      3.880
REMARK INTER + INTRA:          -4.056
REMARK INTER:                  -3.445
REMARK INTRA:                  -0.611
REMARK UNBOUND:                -0.699
REMARK SMILES CCCCCCCCCCCCCCCCCCCCCC(=O)[O-]
REMARK SMILES IDX 12 1 11 2 10 3 9 4 8 5 7 6 6 7 5 8 4 9 3 10 2 11 1 12 13 13
REMARK SMILES IDX 14 14 15 15 16 16 17 17 18 18 19 19 20 20 21 21 22 22 23 23
REMARK SMILES IDX 24 24
REMARK H PARENT
REMARK Flexibility Score: inf
ROOT
ATOM      1  C   UNL     1      -4.439  37.902  20.634  1.00  0.00     0.000 C 
ENDROOT
BRANCH   1   2
ATOM      2  C   UNL     1      -5.662  38.577  21.280  1.00  0.00     0.000 C 
BRANCH   2   3
ATOM      3  C   UNL     1      -5.355  39.435  22.525  1.00  0.00     0.000 C 
BRANCH   3   4
ATOM      4  C   UNL     1      -4.266  38.869  23.454  1.00  0.00    -0.000 C 
BRANCH   4   5
ATOM      5  C   UNL     1      -4.747  38.691  24.901  1.00  0.00    -0.000 C 
BRANCH   5   6
ATOM      6  C   UNL     1      -4.925  37.203  25.236  1.00  0.00    -0.000 C 
BRANCH   6   7
ATOM      7  C   UNL     1      -6.124  36.569  24.512  1.00  0.00    -0.000 C 
BRANCH   7   8
ATOM      8  C   UNL     1      -6.053  35.036  24.371  1.00  0.00    -0.000 C 
BRANCH   8   9
ATOM      9  C   UNL     1      -5.505  34.566  23.007  1.00  0.00    -0.000 C 
BRANCH   9  10
ATOM     10  C   UNL     1      -4.239  35.336  22.594  1.00  0.00    -0.000 C 
BRANCH  10  11
ATOM     11  C   UNL     1      -3.484  34.658  21.441  1.00  0.00    -0.003 C 
ATOM     12  C   UNL     1      -2.714  33.415  21.888  1.00  0.00     0.004 C 
ENDBRANCH  10  11
ENDBRANCH   9  10
ENDBRANCH   8   9
ENDBRANCH   7   8
ENDBRANCH   6   7
ENDBRANCH   5   6
ENDBRANCH   4   5
ENDBRANCH   3   4
ENDBRANCH   2   3
ENDBRANCH   1   2
BRANCH   1  13
ATOM     13  C   UNL     1      -4.803  37.046  19.413  1.00  0.00     0.000 C 
BRANCH  13  14
ATOM     14  C   UNL     1      -6.100  36.262  19.660  1.00  0.00     0.000 C 
BRANCH  14  15
ATOM     15  C   UNL     1      -5.964  34.765  19.340  1.00  0.00     0.000 C 
BRANCH  15  16
ATOM     16  C   UNL     1      -5.305  34.508  17.973  1.00  0.00     0.000 C 
BRANCH  16  17
ATOM     17  C   UNL     1      -3.887  35.094  17.887  1.00  0.00     0.000 C 
BRANCH  17  18
ATOM     18  C   UNL     1      -3.375  35.190  16.443  1.00  0.00     0.000 C 
BRANCH  18  19
ATOM     19  C   UNL     1      -3.537  36.614  15.897  1.00  0.00     0.000 C 
BRANCH  19  20
ATOM     20  C   UNL     1      -2.657  37.604  16.671  1.00  0.00     0.006 C 
BRANCH  20  21
ATOM     21  C   UNL     1      -1.455  36.893  17.301  1.00  0.00     0.053 C 
BRANCH  21  22
ATOM     22  C   UNL     1      -1.046  37.576  18.568  1.00  0.00     0.041 C 
ATOM     23  O   UNL     1      -1.786  38.457  19.081  1.00  0.00    -0.550 OA
ATOM     24  O   UNL     1       0.173  37.271  19.162  1.00  0.00    -0.550 OA
ENDBRANCH  21  22
ENDBRANCH  20  21
ENDBRANCH  19  20
ENDBRANCH  18  19
ENDBRANCH  17  18
ENDBRANCH  16  17
ENDBRANCH  15  16
ENDBRANCH  14  15
ENDBRANCH  13  14
ENDBRANCH   1  13
TORSDOF 20
ENDMDL
MODEL 6
REMARK VINA RESULT:    -1.373      1.100      2.963
REMARK INTER + INTRA:          -3.677
REMARK INTER:                  -3.064
REMARK INTRA:                  -0.612
REMARK UNBOUND:                -0.699
REMARK SMILES CCCCCCCCCCCCCCCCCCCCCC(=O)[O-]
REMARK SMILES IDX 12 1 11 2 10 3 9 4 8 5 7 6 6 7 5 8 4 9 3 10 2 11 1 12 13 13
REMARK SMILES IDX 14 14 15 15 16 16 17 17 18 18 19 19 20 20 21 21 22 22 23 23
REMARK SMILES IDX 24 24
REMARK H PARENT
REMARK Flexibility Score: inf
ROOT
ATOM      1  C   UNL     1      -3.782  34.975  21.343  1.00  0.00     0.000 C 
ENDROOT
BRANCH   1   2
ATOM      2  C   UNL     1      -4.708  36.085  21.870  1.00  0.00     0.000 C 
BRANCH   2   3
ATOM      3  C   UNL     1      -6.015  35.591  22.524  1.00  0.00     0.000 C 
BRANCH   3   4
ATOM      4  C   UNL     1      -5.827  34.664  23.738  1.00  0.00    -0.000 C 
BRANCH   4   5
ATOM      5  C   UNL     1      -6.042  35.381  25.078  1.00  0.00    -0.000 C 
BRANCH   5   6
ATOM      6  C   UNL     1      -6.118  36.901  24.876  1.00  0.00    -0.000 C 
BRANCH   6   7
ATOM      7  C   UNL     1      -4.737  37.577  24.924  1.00  0.00    -0.000 C 
BRANCH   7   8
ATOM      8  C   UNL     1      -4.605  38.833  24.040  1.00  0.00    -0.000 C 
BRANCH   8   9
ATOM      9  C   UNL     1      -5.790  39.034  23.072  1.00  0.00    -0.000 C 
BRANCH   9  10
ATOM     10  C   UNL     1      -5.586  40.245  22.146  1.00  0.00    -0.000 C 
BRANCH  10  11
ATOM     11  C   UNL     1      -5.877  39.919  20.673  1.00  0.00    -0.003 C 
ATOM     12  C   UNL     1      -5.760  38.427  20.363  1.00  0.00     0.004 C 
ENDBRANCH  10  11
ENDBRANCH   9  10
ENDBRANCH   8   9
ENDBRANCH   7   8
ENDBRANCH   6   7
ENDBRANCH   5   6
ENDBRANCH   4   5
ENDBRANCH   3   4
ENDBRANCH   2   3
ENDBRANCH   1   2
BRANCH   1  13
ATOM     13  C   UNL     1      -4.483  34.029  20.358  1.00  0.00     0.000 C 
BRANCH  13  14
ATOM     14  C   UNL     1      -5.840  34.600  19.920  1.00  0.00     0.000 C 
BRANCH  14  15
ATOM     15  C   UNL     1      -5.999  34.658  18.392  1.00  0.00     0.000 C 
BRANCH  15  16
ATOM     16  C   UNL     1      -4.655  34.821  17.661  1.00  0.00     0.000 C 
BRANCH  16  17
ATOM     17  C   UNL     1      -4.220  36.292  17.556  1.00  0.00     0.000 C 
BRANCH  17  18
ATOM     18  C   UNL     1      -2.826  36.540  18.149  1.00  0.00     0.000 C 
BRANCH  18  19
ATOM     19  C   UNL     1      -1.771  36.653  17.041  1.00  0.00     0.000 C 
BRANCH  19  20
ATOM     20  C   UNL     1      -2.319  36.138  15.704  1.00  0.00     0.006 C 
BRANCH  20  21
ATOM     21  C   UNL     1      -2.369  37.260  14.663  1.00  0.00     0.053 C 
BRANCH  21  22
ATOM     22  C   UNL     1      -3.784  37.542  14.262  1.00  0.00     0.041 C 
ATOM     23  O   UNL     1      -4.234  38.717  14.311  1.00  0.00    -0.550 OA
ATOM     24  O   UNL     1      -4.619  36.500  13.875  1.00  0.00    -0.550 OA
ENDBRANCH  21  22
ENDBRANCH  20  21
ENDBRANCH  19  20
ENDBRANCH  18  19
ENDBRANCH  17  18
ENDBRANCH  16  17
ENDBRANCH  15  16
ENDBRANCH  14  15
ENDBRANCH  13  14
ENDBRANCH   1  13
TORSDOF 20
ENDMDL
MODEL 7
REMARK VINA RESULT:    -1.118      3.533      7.729
REMARK INTER + INTRA:          -3.123
REMARK INTER:                  -2.282
REMARK INTRA:                  -0.841
REMARK UNBOUND:                -0.699
REMARK SMILES CCCCCCCCCCCCCCCCCCCCCC(=O)[O-]
REMARK SMILES IDX 12 1 11 2 10 3 9 4 8 5 7 6 6 7 5 8 4 9 3 10 2 11 1 12 13 13
REMARK SMILES IDX 14 14 15 15 16 16 17 17 18 18 19 19 20 20 21 21 22 22 23 23
REMARK SMILES IDX 24 24
REMARK H PARENT
REMARK Flexibility Score: inf
ROOT
ATOM      1  C   UNL     1      -2.069  38.491  19.051  1.00  0.00     0.000 C 
ENDROOT
BRANCH   1   2
ATOM      2  C   UNL     1      -0.921  37.525  18.708  1.00  0.00     0.000 C 
BRANCH   2   3
ATOM      3  C   UNL     1      -1.281  36.409  17.705  1.00  0.00     0.000 C 
BRANCH   3   4
ATOM      4  C   UNL     1      -2.087  36.870  16.479  1.00  0.00    -0.000 C 
BRANCH   4   5
ATOM      5  C   UNL     1      -1.581  36.259  15.165  1.00  0.00    -0.000 C 
BRANCH   5   6
ATOM      6  C   UNL     1      -2.407  36.766  13.974  1.00  0.00    -0.000 C 
BRANCH   6   7
ATOM      7  C   UNL     1      -3.911  36.478  14.128  1.00  0.00    -0.000 C 
BRANCH   7   8
ATOM      8  C   UNL     1      -4.728  37.636  14.733  1.00  0.00    -0.000 C 
BRANCH   8   9
ATOM      9  C   UNL     1      -4.165  39.033  14.393  1.00  0.00    -0.000 C 
BRANCH   9  10
ATOM     10  C   UNL     1      -5.254  39.989  13.878  1.00  0.00    -0.000 C 
BRANCH  10  11
ATOM     11  C   UNL     1      -4.974  41.455  14.240  1.00  0.00    -0.003 C 
ATOM     12  C   UNL     1      -6.022  42.042  15.185  1.00  0.00     0.004 C 
ENDBRANCH  10  11
ENDBRANCH   9  10
ENDBRANCH   8   9
ENDBRANCH   7   8
ENDBRANCH   6   7
ENDBRANCH   5   6
ENDBRANCH   4   5
ENDBRANCH   3   4
ENDBRANCH   2   3
ENDBRANCH   1   2
BRANCH   1  13
ATOM     13  C   UNL     1      -3.440  37.800  19.088  1.00  0.00     0.000 C 
BRANCH  13  14
ATOM     14  C   UNL     1      -4.060  37.889  20.490  1.00  0.00     0.000 C 
BRANCH  14  15
ATOM     15  C   UNL     1      -5.513  37.391  20.534  1.00  0.00     0.000 C 
BRANCH  15  16
ATOM     16  C   UNL     1      -5.733  36.127  19.685  1.00  0.00     0.000 C 
BRANCH  16  17
ATOM     17  C   UNL     1      -5.489  34.835  20.482  1.00  0.00     0.000 C 
BRANCH  17  18
ATOM     18  C   UNL     1      -4.910  35.104  21.878  1.00  0.00     0.000 C 
BRANCH  18  19
ATOM     19  C   UNL     1      -5.860  34.602  22.972  1.00  0.00     0.000 C 
BRANCH  19  20
ATOM     20  C   UNL     1      -5.754  35.467  24.234  1.00  0.00     0.006 C 
BRANCH  20  21
ATOM     21  C   UNL     1      -6.069  36.933  23.922  1.00  0.00     0.053 C 
BRANCH  21  22
ATOM     22  C   UNL     1      -5.063  37.835  24.567  1.00  0.00     0.041 C 
ATOM     23  O   UNL     1      -4.345  37.411  25.510  1.00  0.00    -0.550 OA
ATOM     24  O   UNL     1      -4.948  39.158  24.155  1.00  0.00    -0.550 OA
ENDBRANCH  21  22
ENDBRANCH  20  21
ENDBRANCH  19  20
ENDBRANCH  18  19
ENDBRANCH  17  18
ENDBRANCH  16  17
ENDBRANCH  15  16
ENDBRANCH  14  15
ENDBRANCH  13  14
ENDBRANCH   1  13
TORSDOF 20
ENDMDL
MODEL 8
REMARK VINA RESULT:    -1.107      2.200      6.319
REMARK INTER + INTRA:          -3.100
REMARK INTER:                  -2.948
REMARK INTRA:                  -0.152
REMARK UNBOUND:                -0.699
REMARK SMILES CCCCCCCCCCCCCCCCCCCCCC(=O)[O-]
REMARK SMILES IDX 12 1 11 2 10 3 9 4 8 5 7 6 6 7 5 8 4 9 3 10 2 11 1 12 13 13
REMARK SMILES IDX 14 14 15 15 16 16 17 17 18 18 19 19 20 20 21 21 22 22 23 23
REMARK SMILES IDX 24 24
REMARK H PARENT
REMARK Flexibility Score: inf
ROOT
ATOM      1  C   UNL     1      -3.449  34.922  20.756  1.00  0.00     0.000 C 
ENDROOT
BRANCH   1   2
ATOM      2  C   UNL     1      -4.549  35.752  20.070  1.00  0.00     0.000 C 
BRANCH   2   3
ATOM      3  C   UNL     1      -5.684  34.930  19.427  1.00  0.00     0.000 C 
BRANCH   3   4
ATOM      4  C   UNL     1      -5.331  34.269  18.083  1.00  0.00    -0.000 C 
BRANCH   4   5
ATOM      5  C   UNL     1      -4.596  35.217  17.125  1.00  0.00    -0.000 C 
BRANCH   5   6
ATOM      6  C   UNL     1      -3.178  34.705  16.833  1.00  0.00    -0.000 C 
BRANCH   6   7
ATOM      7  C   UNL     1      -2.260  35.794  16.252  1.00  0.00    -0.000 C 
BRANCH   7   8
ATOM      8  C   UNL     1      -2.968  37.122  15.920  1.00  0.00    -0.000 C 
BRANCH   8   9
ATOM      9  C   UNL     1      -3.436  37.900  17.168  1.00  0.00    -0.000 C 
BRANCH   9  10
ATOM     10  C   UNL     1      -2.599  37.559  18.414  1.00  0.00    -0.000 C 
BRANCH  10  11
ATOM     11  C   UNL     1      -1.210  38.213  18.391  1.00  0.00    -0.003 C 
ATOM     12  C   UNL     1      -0.127  37.323  19.000  1.00  0.00     0.004 C 
ENDBRANCH  10  11
ENDBRANCH   9  10
ENDBRANCH   8   9
ENDBRANCH   7   8
ENDBRANCH   6   7
ENDBRANCH   5   6
ENDBRANCH   4   5
ENDBRANCH   3   4
ENDBRANCH   2   3
ENDBRANCH   1   2
BRANCH   1  13
ATOM     13  C   UNL     1      -3.852  34.436  22.155  1.00  0.00     0.000 C 
BRANCH  13  14
ATOM     14  C   UNL     1      -5.029  35.255  22.703  1.00  0.00     0.000 C 
BRANCH  14  15
ATOM     15  C   UNL     1      -5.896  34.465  23.696  1.00  0.00     0.000 C 
BRANCH  15  16
ATOM     16  C   UNL     1      -6.125  35.222  25.017  1.00  0.00     0.000 C 
BRANCH  16  17
ATOM     17  C   UNL     1      -6.023  36.746  24.844  1.00  0.00     0.000 C 
BRANCH  17  18
ATOM     18  C   UNL     1      -4.614  37.280  25.138  1.00  0.00     0.000 C 
BRANCH  18  19
ATOM     19  C   UNL     1      -4.409  38.663  24.507  1.00  0.00     0.000 C 
BRANCH  19  20
ATOM     20  C   UNL     1      -5.683  39.139  23.798  1.00  0.00     0.006 C 
BRANCH  20  21
ATOM     21  C   UNL     1      -5.346  39.876  22.498  1.00  0.00     0.053 C 
BRANCH  21  22
ATOM     22  C   UNL     1      -4.928  38.907  21.437  1.00  0.00     0.041 C 
ATOM     23  O   UNL     1      -3.847  38.271  21.550  1.00  0.00    -0.550 OA
ATOM     24  O   UNL     1      -5.712  38.737  20.302  1.00  0.00    -0.550 OA
ENDBRANCH  21  22
ENDBRANCH  20  21
ENDBRANCH  19  20
ENDBRANCH  18  19
ENDBRANCH  17  18
ENDBRANCH  16  17
ENDBRANCH  15  16
ENDBRANCH  14  15
ENDBRANCH  13  14
ENDBRANCH   1  13
TORSDOF 20
ENDMDL
