MODEL 1
REMARK VINA RESULT:    89.335      0.000      0.000
REMARK INTER + INTRA:         146.681
REMARK INTER:                 146.783
REMARK INTRA:                  -0.102
REMARK UNBOUND:                -0.102
REMARK SMILES C[C@H]1O[C@H](OC[C@H]2O[C@@H](Oc3c(-c4ccc(O)c(O)c4)oc4cc(O)cc(O)c4c3=O)[C@@H](O)[C@H](O)[C@H]2O)[C@@H](O)[C@H](O)[C@@H]1O
REMARK SMILES IDX 7 1 36 2 34 3 32 4 9 5 8 6 6 7 5 8 4 9 1 10 2 11 42 12 3 13
REMARK SMILES IDX 40 14 38 15 43 16 41 18 39 20 37 22 35 24 10 26 11 27 12 28
REMARK SMILES IDX 30 29 21 30 29 31 31 32 22 33 27 34 23 35 26 36 24 37 13 38
REMARK SMILES IDX 20 39 14 40 18 41 15 42 16 43 19 44 17 46 28 48 25 50 33 52
REMARK H PARENT 43 17 41 19 39 21 37 23 35 25 19 45 17 47 28 49 25 51 33 53
REMARK Flexibility Score: inf
ROOT
ATOM      1  C   UNL     1      23.137  24.038  16.455  1.00  0.00     0.180 C 
ATOM      2  C   UNL     1      23.071  22.644  17.118  1.00  0.00     0.177 C 
ATOM      3  C   UNL     1      22.463  21.656  16.135  1.00  0.00     0.180 C 
ATOM      4  C   UNL     1      21.065  22.148  15.765  1.00  0.00     0.214 C 
ATOM      5  C   UNL     1      21.007  23.665  15.387  1.00  0.00     0.339 C 
ATOM      6  O   UNL     1      21.836  24.536  16.159  1.00  0.00    -0.332 OA
ENDROOT
BRANCH   1   7
ATOM      7  C   UNL     1      24.100  24.155  15.248  1.00  0.00     0.198 C 
BRANCH   7   8
ATOM      8  O   UNL     1      25.052  25.175  15.500  1.00  0.00    -0.347 OA
BRANCH   8   9
ATOM      9  C   UNL     1      26.389  24.713  15.535  1.00  0.00     0.281 C 
ATOM     10  C   UNL     1      27.783  22.156  16.752  1.00  0.00     0.041 C 
ATOM     11  C   UNL     1      27.781  22.815  15.368  1.00  0.00     0.150 C 
ATOM     12  C   UNL     1      28.961  23.814  15.189  1.00  0.00     0.174 C 
ATOM     13  O   UNL     1      26.503  23.373  15.076  1.00  0.00    -0.344 OA
ATOM     14  C   UNL     1      28.561  24.935  14.214  1.00  0.00     0.179 C 
ATOM     15  C   UNL     1      27.325  25.680  14.757  1.00  0.00     0.202 C 
BRANCH  12  16
ATOM     16  O   UNL     1      30.091  23.131  14.709  1.00  0.00    -0.388 OA
ATOM     17  H   UNL     1      30.125  23.279  13.726  1.00  0.00     0.211 HD
ENDBRANCH  12  16
BRANCH  14  18
ATOM     18  O   UNL     1      28.276  24.384  12.953  1.00  0.00    -0.387 OA
ATOM     19  H   UNL     1      27.598  23.673  13.092  1.00  0.00     0.211 HD
ENDBRANCH  14  18
BRANCH  15  20
ATOM     20  O   UNL     1      27.755  26.710  15.611  1.00  0.00    -0.385 OA
ATOM     21  H   UNL     1      27.763  26.337  16.532  1.00  0.00     0.211 HD
ENDBRANCH  15  20
ENDBRANCH   8   9
ENDBRANCH   7   8
ENDBRANCH   1   7
BRANCH   2  22
ATOM     22  O   UNL     1      24.338  22.198  17.531  1.00  0.00    -0.387 OA
ATOM     23  H   UNL     1      24.737  22.928  18.072  1.00  0.00     0.211 HD
ENDBRANCH   2  22
BRANCH   3  24
ATOM     24  O   UNL     1      22.361  20.387  16.731  1.00  0.00    -0.387 OA
ATOM     25  H   UNL     1      21.495  20.361  17.217  1.00  0.00     0.211 HD
ENDBRANCH   3  24
BRANCH   5  26
ATOM     26  O   UNL     1      21.207  23.905  13.987  1.00  0.00    -0.454 OA
BRANCH  26  27
ATOM     27  C   UNL     1      20.451  23.248  12.996  1.00  0.00     0.214 A 
ATOM     28  C   UNL     1      19.132  23.649  12.726  1.00  0.00     0.180 A 
ATOM     29  C   UNL     1      20.976  22.161  12.273  1.00  0.00     0.239 A 
ATOM     30  O   UNL     1      18.422  23.016  11.799  1.00  0.00    -0.452 OA
ATOM     31  C   UNL     1      20.170  21.466  11.339  1.00  0.00     0.111 A 
ATOM     32  O   UNL     1      22.178  21.839  12.445  1.00  0.00    -0.285 OA
ATOM     33  C   UNL     1      18.875  21.984  11.101  1.00  0.00     0.146 A 
ATOM     34  C   UNL     1      20.586  20.314  10.607  1.00  0.00     0.134 A 
ATOM     35  C   UNL     1      18.049  21.420  10.126  1.00  0.00     0.094 A 
ATOM     36  C   UNL     1      19.751  19.788   9.613  1.00  0.00     0.093 A 
ATOM     37  C   UNL     1      18.489  20.329   9.374  1.00  0.00     0.123 A 
BRANCH  28  38
ATOM     38  C   UNL     1      18.463  24.738  13.453  1.00  0.00     0.025 A 
ATOM     39  C   UNL     1      17.266  24.458  14.125  1.00  0.00     0.062 A 
ATOM     40  C   UNL     1      18.902  26.066  13.341  1.00  0.00     0.016 A 
ATOM     41  C   UNL     1      16.492  25.495  14.661  1.00  0.00     0.158 A 
ATOM     42  C   UNL     1      18.119  27.105  13.858  1.00  0.00     0.051 A 
ATOM     43  C   UNL     1      16.909  26.826  14.505  1.00  0.00     0.157 A 
BRANCH  41  44
ATOM     44  O   UNL     1      15.306  25.208  15.329  1.00  0.00    -0.504 OA
ATOM     45  H   UNL     1      14.576  25.903  15.441  1.00  0.00     0.293 HD
ENDBRANCH  41  44
BRANCH  43  46
ATOM     46  O   UNL     1      16.125  27.881  14.972  1.00  0.00    -0.504 OA
ATOM     47  H   UNL     1      15.530  28.424  14.356  1.00  0.00     0.293 HD
ENDBRANCH  43  46
ENDBRANCH  28  38
BRANCH  34  48
ATOM     48  O   UNL     1      21.787  19.639  10.833  1.00  0.00    -0.507 OA
ATOM     49  H   UNL     1      21.880  18.817  11.413  1.00  0.00     0.293 HD
ENDBRANCH  34  48
BRANCH  37  50
ATOM     50  O   UNL     1      17.675  19.767   8.393  1.00  0.00    -0.508 OA
ATOM     51  H   UNL     1      17.439  18.781   8.398  1.00  0.00     0.293 HD
ENDBRANCH  37  50
ENDBRANCH  26  27
ENDBRANCH   5  26
BRANCH   4  52
ATOM     52  O   UNL     1      20.583  21.358  14.710  1.00  0.00    -0.384 OA
ATOM     53  H   UNL     1      20.337  21.975  13.969  1.00  0.00     0.211 HD
ENDBRANCH   4  52
TORSDOF 16
ENDMDL
