MODEL 1
REMARK VINA RESULT:     4.251      0.000      0.000
REMARK INTER + INTRA:           6.994
REMARK INTER:                   7.233
REMARK INTRA:                  -0.240
REMARK UNBOUND:                -0.240
REMARK SMILES CCCCCCCCCCCCCC(=O)[O-]
REMARK SMILES IDX 8 1 9 2 10 3 11 4 12 5 13 6 14 7 15 8 16 9 7 10 6 11 5 12
REMARK SMILES IDX 4 13 3 14 2 15 1 16
REMARK H PARENT
REMARK Flexibility Score: inf
ROOT
ATOM      1  C   UNL     1     -15.846  30.762 -19.462  1.00  0.00     0.000 C 
ENDROOT
BRANCH   1   2
ATOM      2  C   UNL     1     -16.046  32.207 -19.946  1.00  0.00     0.000 C 
BRANCH   2   3
ATOM      3  C   UNL     1     -17.199  32.921 -19.220  1.00  0.00     0.000 C 
BRANCH   3   4
ATOM      4  C   UNL     1     -17.852  34.022 -20.075  1.00  0.00     0.000 C 
BRANCH   4   5
ATOM      5  C   UNL     1     -19.389  34.101 -19.968  1.00  0.00     0.006 C 
BRANCH   5   6
ATOM      6  C   UNL     1     -19.945  33.841 -18.559  1.00  0.00     0.053 C 
BRANCH   6   7
ATOM      7  C   UNL     1     -21.377  33.405 -18.595  1.00  0.00     0.041 C 
ATOM      8  O   UNL     1     -22.113  33.563 -17.586  1.00  0.00    -0.550 OA
ATOM      9  O   UNL     1     -21.889  32.794 -19.733  1.00  0.00    -0.550 OA
ENDBRANCH   6   7
ENDBRANCH   5   6
ENDBRANCH   4   5
ENDBRANCH   3   4
ENDBRANCH   2   3
ENDBRANCH   1   2
BRANCH   1  10
ATOM     10  C   UNL     1     -14.407  30.266 -19.663  1.00  0.00     0.000 C 
BRANCH  10  11
ATOM     11  C   UNL     1     -13.899  29.530 -18.416  1.00  0.00    -0.000 C 
BRANCH  11  12
ATOM     12  C   UNL     1     -12.603  28.764 -18.720  1.00  0.00    -0.000 C 
BRANCH  12  13
ATOM     13  C   UNL     1     -12.496  27.447 -17.934  1.00  0.00    -0.000 C 
BRANCH  13  14
ATOM     14  C   UNL     1     -12.553  27.658 -16.414  1.00  0.00    -0.000 C 
BRANCH  14  15
ATOM     15  C   UNL     1     -13.961  27.379 -15.874  1.00  0.00    -0.003 C 
ATOM     16  C   UNL     1     -14.522  28.594 -15.141  1.00  0.00     0.004 C 
ENDBRANCH  14  15
ENDBRANCH  13  14
ENDBRANCH  12  13
ENDBRANCH  11  12
ENDBRANCH  10  11
ENDBRANCH   1  10
TORSDOF 12
ENDMDL
MODEL 2
REMARK VINA RESULT:     4.370      3.566      7.839
REMARK INTER + INTRA:           7.196
REMARK INTER:                   7.802
REMARK INTRA:                  -0.606
REMARK UNBOUND:                -0.240
REMARK SMILES CCCCCCCCCCCCCC(=O)[O-]
REMARK SMILES IDX 8 1 9 2 10 3 11 4 12 5 13 6 14 7 15 8 16 9 7 10 6 11 5 12
REMARK SMILES IDX 4 13 3 14 2 15 1 16
REMARK H PARENT
REMARK Flexibility Score: inf
ROOT
ATOM      1  C   UNL     1     -15.969  31.698 -19.812  1.00  0.00     0.000 C 
ENDROOT
BRANCH   1   2
ATOM      2  C   UNL     1     -15.062  30.480 -20.043  1.00  0.00     0.000 C 
BRANCH   2   3
ATOM      3  C   UNL     1     -14.134  30.198 -18.848  1.00  0.00     0.000 C 
BRANCH   3   4
ATOM      4  C   UNL     1     -13.432  28.832 -18.947  1.00  0.00     0.000 C 
BRANCH   4   5
ATOM      5  C   UNL     1     -12.389  28.556 -17.845  1.00  0.00     0.006 C 
BRANCH   5   6
ATOM      6  C   UNL     1     -12.790  27.459 -16.846  1.00  0.00     0.053 C 
BRANCH   6   7
ATOM      7  C   UNL     1     -13.846  27.928 -15.893  1.00  0.00     0.041 C 
ATOM      8  O   UNL     1     -13.552  28.719 -14.959  1.00  0.00    -0.550 OA
ATOM      9  O   UNL     1     -15.150  27.465 -16.019  1.00  0.00    -0.550 OA
ENDBRANCH   6   7
ENDBRANCH   5   6
ENDBRANCH   4   5
ENDBRANCH   3   4
ENDBRANCH   2   3
ENDBRANCH   1   2
BRANCH   1  10
ATOM     10  C   UNL     1     -15.237  32.855 -19.116  1.00  0.00     0.000 C 
BRANCH  10  11
ATOM     11  C   UNL     1     -16.226  33.936 -18.659  1.00  0.00    -0.000 C 
BRANCH  11  12
ATOM     12  C   UNL     1     -17.498  33.916 -19.519  1.00  0.00    -0.000 C 
BRANCH  12  13
ATOM     13  C   UNL     1     -18.783  33.942 -18.676  1.00  0.00    -0.000 C 
BRANCH  13  14
ATOM     14  C   UNL     1     -20.000  33.390 -19.433  1.00  0.00    -0.000 C 
BRANCH  14  15
ATOM     15  C   UNL     1     -21.302  33.727 -18.698  1.00  0.00    -0.003 C 
ATOM     16  C   UNL     1     -22.125  32.471 -18.428  1.00  0.00     0.004 C 
ENDBRANCH  14  15
ENDBRANCH  13  14
ENDBRANCH  12  13
ENDBRANCH  11  12
ENDBRANCH  10  11
ENDBRANCH   1  10
TORSDOF 12
ENDMDL
MODEL 3
REMARK VINA RESULT:     5.775     16.179     18.973
REMARK INTER + INTRA:           9.586
REMARK INTER:                  10.241
REMARK INTRA:                  -0.655
REMARK UNBOUND:                -0.240
REMARK SMILES CCCCCCCCCCCCCC(=O)[O-]
REMARK SMILES IDX 8 1 9 2 10 3 11 4 12 5 13 6 14 7 15 8 16 9 7 10 6 11 5 12
REMARK SMILES IDX 4 13 3 14 2 15 1 16
REMARK H PARENT
REMARK Flexibility Score: inf
ROOT
ATOM      1  C   UNL     1      -3.951  20.618 -10.751  1.00  0.00     0.000 C 
ENDROOT
BRANCH   1   2
ATOM      2  C   UNL     1      -5.022  21.547 -11.343  1.00  0.00     0.000 C 
BRANCH   2   3
ATOM      3  C   UNL     1      -6.376  20.842 -11.535  1.00  0.00     0.000 C 
BRANCH   3   4
ATOM      4  C   UNL     1      -6.722  20.606 -13.016  1.00  0.00     0.000 C 
BRANCH   4   5
ATOM      5  C   UNL     1      -7.616  19.378 -13.286  1.00  0.00     0.006 C 
BRANCH   5   6
ATOM      6  C   UNL     1      -7.131  18.077 -12.627  1.00  0.00     0.053 C 
BRANCH   6   7
ATOM      7  C   UNL     1      -7.944  16.895 -13.057  1.00  0.00     0.041 C 
ATOM      8  O   UNL     1      -8.613  16.939 -14.122  1.00  0.00    -0.550 OA
ATOM      9  O   UNL     1      -7.987  15.756 -12.262  1.00  0.00    -0.550 OA
ENDBRANCH   6   7
ENDBRANCH   5   6
ENDBRANCH   4   5
ENDBRANCH   3   4
ENDBRANCH   2   3
ENDBRANCH   1   2
BRANCH   1  10
ATOM     10  C   UNL     1      -4.401  19.150 -10.707  1.00  0.00     0.000 C 
BRANCH  10  11
ATOM     11  C   UNL     1      -3.259  18.212 -11.117  1.00  0.00    -0.000 C 
BRANCH  11  12
ATOM     12  C   UNL     1      -3.373  16.860 -10.399  1.00  0.00    -0.000 C 
BRANCH  12  13
ATOM     13  C   UNL     1      -4.673  16.115 -10.741  1.00  0.00    -0.000 C 
BRANCH  13  14
ATOM     14  C   UNL     1      -4.434  14.643 -11.107  1.00  0.00    -0.000 C 
BRANCH  14  15
ATOM     15  C   UNL     1      -3.794  13.883  -9.939  1.00  0.00    -0.003 C 
ATOM     16  C   UNL     1      -2.273  13.875 -10.053  1.00  0.00     0.004 C 
ENDBRANCH  14  15
ENDBRANCH  13  14
ENDBRANCH  12  13
ENDBRANCH  11  12
ENDBRANCH  10  11
ENDBRANCH   1  10
TORSDOF 12
ENDMDL
MODEL 4
REMARK VINA RESULT:     5.863      3.382      7.671
REMARK INTER + INTRA:           9.737
REMARK INTER:                  10.464
REMARK INTRA:                  -0.727
REMARK UNBOUND:                -0.240
REMARK SMILES CCCCCCCCCCCCCC(=O)[O-]
REMARK SMILES IDX 8 1 9 2 10 3 11 4 12 5 13 6 14 7 15 8 16 9 7 10 6 11 5 12
REMARK SMILES IDX 4 13 3 14 2 15 1 16
REMARK H PARENT
REMARK Flexibility Score: inf
ROOT
ATOM      1  C   UNL     1     -14.441  29.836 -19.165  1.00  0.00     0.000 C 
ENDROOT
BRANCH   1   2
ATOM      2  C   UNL     1     -13.499  28.907 -19.948  1.00  0.00     0.000 C 
BRANCH   2   3
ATOM      3  C   UNL     1     -12.613  28.050 -19.028  1.00  0.00     0.000 C 
BRANCH   3   4
ATOM      4  C   UNL     1     -12.140  28.811 -17.776  1.00  0.00     0.000 C 
BRANCH   4   5
ATOM      5  C   UNL     1     -11.958  27.940 -16.517  1.00  0.00     0.006 C 
BRANCH   5   6
ATOM      6  C   UNL     1     -13.196  27.118 -16.123  1.00  0.00     0.053 C 
BRANCH   6   7
ATOM      7  C   UNL     1     -14.330  27.991 -15.684  1.00  0.00     0.041 C 
ATOM      8  O   UNL     1     -15.499  27.765 -16.090  1.00  0.00    -0.550 OA
ATOM      9  O   UNL     1     -14.089  29.076 -14.849  1.00  0.00    -0.550 OA
ENDBRANCH   6   7
ENDBRANCH   5   6
ENDBRANCH   4   5
ENDBRANCH   3   4
ENDBRANCH   2   3
ENDBRANCH   1   2
BRANCH   1  10
ATOM     10  C   UNL     1     -15.241  30.773 -20.082  1.00  0.00     0.000 C 
BRANCH  10  11
ATOM     11  C   UNL     1     -16.161  31.689 -19.264  1.00  0.00    -0.000 C 
BRANCH  11  12
ATOM     12  C   UNL     1     -15.980  33.158 -19.676  1.00  0.00    -0.000 C 
BRANCH  12  13
ATOM     13  C   UNL     1     -17.202  34.024 -19.331  1.00  0.00    -0.000 C 
BRANCH  13  14
ATOM     14  C   UNL     1     -18.516  33.229 -19.345  1.00  0.00    -0.000 C 
BRANCH  14  15
ATOM     15  C   UNL     1     -19.589  33.927 -18.502  1.00  0.00    -0.003 C 
ATOM     16  C   UNL     1     -20.964  33.310 -18.737  1.00  0.00     0.004 C 
ENDBRANCH  14  15
ENDBRANCH  13  14
ENDBRANCH  12  13
ENDBRANCH  11  12
ENDBRANCH  10  11
ENDBRANCH   1  10
TORSDOF 12
ENDMDL
MODEL 5
REMARK VINA RESULT:     6.002     15.050     17.804
REMARK INTER + INTRA:           9.973
REMARK INTER:                  10.488
REMARK INTRA:                  -0.515
REMARK UNBOUND:                -0.240
REMARK SMILES CCCCCCCCCCCCCC(=O)[O-]
REMARK SMILES IDX 8 1 9 2 10 3 11 4 12 5 13 6 14 7 15 8 16 9 7 10 6 11 5 12
REMARK SMILES IDX 4 13 3 14 2 15 1 16
REMARK H PARENT
REMARK Flexibility Score: inf
ROOT
ATOM      1  C   UNL     1      -6.381  20.183 -11.991  1.00  0.00     0.000 C 
ENDROOT
BRANCH   1   2
ATOM      2  C   UNL     1      -6.288  21.713 -11.871  1.00  0.00     0.000 C 
BRANCH   2   3
ATOM      3  C   UNL     1      -4.957  22.178 -11.256  1.00  0.00     0.000 C 
BRANCH   3   4
ATOM      4  C   UNL     1      -4.411  23.458 -11.914  1.00  0.00     0.000 C 
BRANCH   4   5
ATOM      5  C   UNL     1      -5.106  24.763 -11.472  1.00  0.00     0.006 C 
BRANCH   5   6
ATOM      6  C   UNL     1      -4.148  25.928 -11.176  1.00  0.00     0.053 C 
BRANCH   6   7
ATOM      7  C   UNL     1      -4.876  27.138 -10.680  1.00  0.00     0.041 C 
ATOM      8  O   UNL     1      -5.736  27.704 -11.406  1.00  0.00    -0.550 OA
ATOM      9  O   UNL     1      -4.581  27.662  -9.427  1.00  0.00    -0.550 OA
ENDBRANCH   6   7
ENDBRANCH   5   6
ENDBRANCH   4   5
ENDBRANCH   3   4
ENDBRANCH   2   3
ENDBRANCH   1   2
BRANCH   1  10
ATOM     10  C   UNL     1      -5.875  19.461 -10.734  1.00  0.00     0.000 C 
BRANCH  10  11
ATOM     11  C   UNL     1      -5.366  18.055 -11.075  1.00  0.00    -0.000 C 
BRANCH  11  12
ATOM     12  C   UNL     1      -3.854  17.943 -10.832  1.00  0.00    -0.000 C 
BRANCH  12  13
ATOM     13  C   UNL     1      -3.428  16.538 -10.378  1.00  0.00    -0.000 C 
BRANCH  13  14
ATOM     14  C   UNL     1      -4.446  15.456 -10.768  1.00  0.00    -0.000 C 
BRANCH  14  15
ATOM     15  C   UNL     1      -4.029  14.087 -10.217  1.00  0.00    -0.003 C 
ATOM     16  C   UNL     1      -2.513  13.923 -10.231  1.00  0.00     0.004 C 
ENDBRANCH  14  15
ENDBRANCH  13  14
ENDBRANCH  12  13
ENDBRANCH  11  12
ENDBRANCH  10  11
ENDBRANCH   1  10
TORSDOF 12
ENDMDL
MODEL 6
REMARK VINA RESULT:     6.350     15.761     18.851
REMARK INTER + INTRA:          10.564
REMARK INTER:                  10.405
REMARK INTRA:                   0.160
REMARK UNBOUND:                -0.240
REMARK SMILES CCCCCCCCCCCCCC(=O)[O-]
REMARK SMILES IDX 8 1 9 2 10 3 11 4 12 5 13 6 14 7 15 8 16 9 7 10 6 11 5 12
REMARK SMILES IDX 4 13 3 14 2 15 1 16
REMARK H PARENT
REMARK Flexibility Score: inf
ROOT
ATOM      1  C   UNL     1      -3.350  17.059 -11.093  1.00  0.00     0.000 C 
ENDROOT
BRANCH   1   2
ATOM      2  C   UNL     1      -3.105  18.523 -10.693  1.00  0.00     0.000 C 
BRANCH   2   3
ATOM      3  C   UNL     1      -4.318  19.425 -10.979  1.00  0.00     0.000 C 
BRANCH   3   4
ATOM      4  C   UNL     1      -4.009  20.920 -10.779  1.00  0.00     0.000 C 
BRANCH   4   5
ATOM      5  C   UNL     1      -4.983  21.884 -11.487  1.00  0.00     0.006 C 
BRANCH   5   6
ATOM      6  C   UNL     1      -6.427  21.369 -11.597  1.00  0.00     0.053 C 
BRANCH   6   7
ATOM      7  C   UNL     1      -6.733  20.849 -12.966  1.00  0.00     0.041 C 
ATOM      8  O   UNL     1      -7.041  19.640 -13.132  1.00  0.00    -0.550 OA
ATOM      9  O   UNL     1      -6.647  21.695 -14.066  1.00  0.00    -0.550 OA
ENDBRANCH   6   7
ENDBRANCH   5   6
ENDBRANCH   4   5
ENDBRANCH   3   4
ENDBRANCH   2   3
ENDBRANCH   1   2
BRANCH   1  10
ATOM     10  C   UNL     1      -2.964  16.072  -9.981  1.00  0.00     0.000 C 
BRANCH  10  11
ATOM     11  C   UNL     1      -3.611  14.701 -10.214  1.00  0.00    -0.000 C 
BRANCH  11  12
ATOM     12  C   UNL     1      -4.910  14.836 -11.021  1.00  0.00    -0.000 C 
BRANCH  12  13
ATOM     13  C   UNL     1      -5.861  15.894 -10.439  1.00  0.00    -0.000 C 
BRANCH  13  14
ATOM     14  C   UNL     1      -6.592  16.696 -11.526  1.00  0.00    -0.000 C 
BRANCH  14  15
ATOM     15  C   UNL     1      -7.555  15.802 -12.315  1.00  0.00    -0.003 C 
ATOM     16  C   UNL     1      -8.307  16.600 -13.375  1.00  0.00     0.004 C 
ENDBRANCH  14  15
ENDBRANCH  13  14
ENDBRANCH  12  13
ENDBRANCH  11  12
ENDBRANCH  10  11
ENDBRANCH   1  10
TORSDOF 12
ENDMDL
MODEL 7
REMARK VINA RESULT:     6.457     15.858     19.287
REMARK INTER + INTRA:          10.747
REMARK INTER:                   8.928
REMARK INTRA:                   1.819
REMARK UNBOUND:                -0.240
REMARK SMILES CCCCCCCCCCCCCC(=O)[O-]
REMARK SMILES IDX 8 1 9 2 10 3 11 4 12 5 13 6 14 7 15 8 16 9 7 10 6 11 5 12
REMARK SMILES IDX 4 13 3 14 2 15 1 16
REMARK H PARENT
REMARK Flexibility Score: inf
ROOT
ATOM      1  C   UNL     1      -3.210  17.354 -11.115  1.00  0.00     0.000 C 
ENDROOT
BRANCH   1   2
ATOM      2  C   UNL     1      -2.954  18.825 -10.751  1.00  0.00     0.000 C 
BRANCH   2   3
ATOM      3  C   UNL     1      -4.246  19.661 -10.723  1.00  0.00     0.000 C 
BRANCH   3   4
ATOM      4  C   UNL     1      -4.008  21.138 -11.085  1.00  0.00     0.000 C 
BRANCH   4   5
ATOM      5  C   UNL     1      -5.281  21.931 -11.445  1.00  0.00     0.006 C 
BRANCH   5   6
ATOM      6  C   UNL     1      -6.558  21.081 -11.542  1.00  0.00     0.053 C 
BRANCH   6   7
ATOM      7  C   UNL     1      -6.823  20.629 -12.945  1.00  0.00     0.041 C 
ATOM      8  O   UNL     1      -6.773  21.451 -13.897  1.00  0.00    -0.550 OA
ATOM      9  O   UNL     1      -7.158  19.304 -13.196  1.00  0.00    -0.550 OA
ENDBRANCH   6   7
ENDBRANCH   5   6
ENDBRANCH   4   5
ENDBRANCH   3   4
ENDBRANCH   2   3
ENDBRANCH   1   2
BRANCH   1  10
ATOM     10  C   UNL     1      -2.977  16.404  -9.931  1.00  0.00     0.000 C 
BRANCH  10  11
ATOM     11  C   UNL     1      -2.260  15.126 -10.383  1.00  0.00    -0.000 C 
BRANCH  11  12
ATOM     12  C   UNL     1      -3.036  13.875  -9.946  1.00  0.00    -0.000 C 
BRANCH  12  13
ATOM     13  C   UNL     1      -4.494  13.883 -10.431  1.00  0.00    -0.000 C 
BRANCH  13  14
ATOM     14  C   UNL     1      -4.849  15.152 -11.222  1.00  0.00    -0.000 C 
BRANCH  14  15
ATOM     15  C   UNL     1      -6.253  15.650 -10.859  1.00  0.00    -0.003 C 
ATOM     16  C   UNL     1      -6.386  17.150 -11.100  1.00  0.00     0.004 C 
ENDBRANCH  14  15
ENDBRANCH  13  14
ENDBRANCH  12  13
ENDBRANCH  11  12
ENDBRANCH  10  11
ENDBRANCH   1  10
TORSDOF 12
ENDMDL
MODEL 8
REMARK VINA RESULT:     7.154     15.742     20.205
REMARK INTER + INTRA:          11.934
REMARK INTER:                  11.215
REMARK INTRA:                   0.718
REMARK UNBOUND:                -0.240
REMARK SMILES CCCCCCCCCCCCCC(=O)[O-]
REMARK SMILES IDX 8 1 9 2 10 3 11 4 12 5 13 6 14 7 15 8 16 9 7 10 6 11 5 12
REMARK SMILES IDX 4 13 3 14 2 15 1 16
REMARK H PARENT
REMARK Flexibility Score: inf
ROOT
ATOM      1  C   UNL     1      -4.377  19.782 -10.765  1.00  0.00     0.000 C 
ENDROOT
BRANCH   1   2
ATOM      2  C   UNL     1      -3.031  19.072 -10.547  1.00  0.00     0.000 C 
BRANCH   2   3
ATOM      3  C   UNL     1      -3.023  17.637 -11.100  1.00  0.00     0.000 C 
BRANCH   3   4
ATOM      4  C   UNL     1      -4.120  16.752 -10.481  1.00  0.00     0.000 C 
BRANCH   4   5
ATOM      5  C   UNL     1      -4.675  15.657 -11.416  1.00  0.00     0.006 C 
BRANCH   5   6
ATOM      6  C   UNL     1      -4.520  14.224 -10.883  1.00  0.00     0.053 C 
BRANCH   6   7
ATOM      7  C   UNL     1      -3.330  14.086  -9.985  1.00  0.00     0.041 C 
ATOM      8  O   UNL     1      -3.485  13.875  -8.753  1.00  0.00    -0.550 OA
ATOM      9  O   UNL     1      -2.049  14.222 -10.505  1.00  0.00    -0.550 OA
ENDBRANCH   6   7
ENDBRANCH   5   6
ENDBRANCH   4   5
ENDBRANCH   3   4
ENDBRANCH   2   3
ENDBRANCH   1   2
BRANCH   1  10
ATOM     10  C   UNL     1      -4.213  21.284 -11.040  1.00  0.00     0.000 C 
BRANCH  10  11
ATOM     11  C   UNL     1      -5.537  21.908 -11.498  1.00  0.00    -0.000 C 
BRANCH  11  12
ATOM     12  C   UNL     1      -6.696  20.912 -11.343  1.00  0.00    -0.000 C 
BRANCH  12  13
ATOM     13  C   UNL     1      -6.706  19.838 -12.442  1.00  0.00    -0.000 C 
BRANCH  13  14
ATOM     14  C   UNL     1      -7.125  20.394 -13.811  1.00  0.00    -0.000 C 
BRANCH  14  15
ATOM     15  C   UNL     1      -6.454  21.746 -14.083  1.00  0.00    -0.003 C 
ATOM     16  C   UNL     1      -7.377  22.673 -14.868  1.00  0.00     0.004 C 
ENDBRANCH  14  15
ENDBRANCH  13  14
ENDBRANCH  12  13
ENDBRANCH  11  12
ENDBRANCH  10  11
ENDBRANCH   1  10
TORSDOF 12
ENDMDL
