MODEL 1
REMARK VINA RESULT:    -4.698      0.000      0.000
REMARK INTER + INTRA:         -10.143
REMARK INTER:                  -8.544
REMARK INTRA:                  -1.599
REMARK UNBOUND:                -1.599
REMARK SMILES CCCCCCCCCCCCCCCC(=O)[O-]
REMARK SMILES IDX 9 1 10 2 11 3 12 4 13 5 14 6 15 7 16 8 17 9 18 10 8 11 7 12
REMARK SMILES IDX 6 13 5 14 4 15 3 16 2 17 1 18
REMARK H PARENT
REMARK Flexibility Score: inf
ROOT
ATOM      1  C   UNL     1     -49.976  14.367 -30.660  1.00  0.00     0.000 C 
ENDROOT
BRANCH   1   2
ATOM      2  C   UNL     1     -50.028  13.706 -29.274  1.00  0.00     0.000 C 
BRANCH   2   3
ATOM      3  C   UNL     1     -51.085  12.595 -29.235  1.00  0.00     0.000 C 
BRANCH   3   4
ATOM      4  C   UNL     1     -51.372  12.057 -30.644  1.00  0.00     0.000 C 
BRANCH   4   5
ATOM      5  C   UNL     1     -50.385  10.958 -31.080  1.00  0.00     0.000 C 
BRANCH   5   6
ATOM      6  C   UNL     1     -50.246   9.779 -30.094  1.00  0.00     0.006 C 
BRANCH   6   7
ATOM      7  C   UNL     1     -48.901   9.040 -30.169  1.00  0.00     0.053 C 
BRANCH   7   8
ATOM      8  C   UNL     1     -47.815   9.781 -29.452  1.00  0.00     0.041 C 
ATOM      9  O   UNL     1     -46.606   9.505 -29.671  1.00  0.00    -0.550 OA
ATOM     10  O   UNL     1     -48.138  10.755 -28.516  1.00  0.00    -0.550 OA
ENDBRANCH   7   8
ENDBRANCH   6   7
ENDBRANCH   5   6
ENDBRANCH   4   5
ENDBRANCH   3   4
ENDBRANCH   2   3
ENDBRANCH   1   2
BRANCH   1  11
ATOM     11  C   UNL     1     -50.424  15.837 -30.631  1.00  0.00     0.000 C 
BRANCH  11  12
ATOM     12  C   UNL     1     -51.601  16.115 -31.583  1.00  0.00    -0.000 C 
BRANCH  12  13
ATOM     13  C   UNL     1     -52.486  17.278 -31.107  1.00  0.00    -0.000 C 
BRANCH  13  14
ATOM     14  C   UNL     1     -51.994  17.891 -29.785  1.00  0.00    -0.000 C 
BRANCH  14  15
ATOM     15  C   UNL     1     -53.150  18.361 -28.886  1.00  0.00    -0.000 C 
BRANCH  15  16
ATOM     16  C   UNL     1     -53.220  17.589 -27.557  1.00  0.00    -0.000 C 
BRANCH  16  17
ATOM     17  C   UNL     1     -52.586  16.193 -27.654  1.00  0.00    -0.003 C 
ATOM     18  C   UNL     1     -53.591  15.116 -28.062  1.00  0.00     0.004 C 
ENDBRANCH  16  17
ENDBRANCH  15  16
ENDBRANCH  14  15
ENDBRANCH  13  14
ENDBRANCH  12  13
ENDBRANCH  11  12
ENDBRANCH   1  11
TORSDOF 14
ENDMDL
MODEL 2
REMARK VINA RESULT:    -4.664      1.966      3.186
REMARK INTER + INTRA:         -10.080
REMARK INTER:                  -7.812
REMARK INTRA:                  -2.268
REMARK UNBOUND:                -1.599
REMARK SMILES CCCCCCCCCCCCCCCC(=O)[O-]
REMARK SMILES IDX 9 1 10 2 11 3 12 4 13 5 14 6 15 7 16 8 17 9 18 10 8 11 7 12
REMARK SMILES IDX 6 13 5 14 4 15 3 16 2 17 1 18
REMARK H PARENT
REMARK Flexibility Score: inf
ROOT
ATOM      1  C   UNL     1     -51.894  15.398 -31.498  1.00  0.00     0.000 C 
ENDROOT
BRANCH   1   2
ATOM      2  C   UNL     1     -50.754  15.668 -30.504  1.00  0.00     0.000 C 
BRANCH   2   3
ATOM      3  C   UNL     1     -49.809  14.464 -30.410  1.00  0.00     0.000 C 
BRANCH   3   4
ATOM      4  C   UNL     1     -50.039  13.684 -29.107  1.00  0.00     0.000 C 
BRANCH   4   5
ATOM      5  C   UNL     1     -50.633  12.283 -29.343  1.00  0.00     0.000 C 
BRANCH   5   6
ATOM      6  C   UNL     1     -50.584  11.791 -30.805  1.00  0.00     0.006 C 
BRANCH   6   7
ATOM      7  C   UNL     1     -50.044  10.363 -30.980  1.00  0.00     0.053 C 
BRANCH   7   8
ATOM      8  C   UNL     1     -50.289   9.837 -32.360  1.00  0.00     0.041 C 
ATOM      9  O   UNL     1     -49.320   9.510 -33.095  1.00  0.00    -0.550 OA
ATOM     10  O   UNL     1     -51.585   9.740 -32.847  1.00  0.00    -0.550 OA
ENDBRANCH   7   8
ENDBRANCH   6   7
ENDBRANCH   5   6
ENDBRANCH   4   5
ENDBRANCH   3   4
ENDBRANCH   2   3
ENDBRANCH   1   2
BRANCH   1  11
ATOM     11  C   UNL     1     -53.282  15.477 -30.842  1.00  0.00     0.000 C 
BRANCH  11  12
ATOM     12  C   UNL     1     -53.694  14.155 -30.170  1.00  0.00    -0.000 C 
BRANCH  12  13
ATOM     13  C   UNL     1     -53.654  14.233 -28.636  1.00  0.00    -0.000 C 
BRANCH  13  14
ATOM     14  C   UNL     1     -54.004  15.634 -28.107  1.00  0.00    -0.000 C 
BRANCH  14  15
ATOM     15  C   UNL     1     -52.828  16.298 -27.371  1.00  0.00    -0.000 C 
BRANCH  15  16
ATOM     16  C   UNL     1     -52.536  17.720 -27.882  1.00  0.00    -0.000 C 
BRANCH  16  17
ATOM     17  C   UNL     1     -53.780  18.399 -28.473  1.00  0.00    -0.003 C 
ATOM     18  C   UNL     1     -53.539  18.956 -29.875  1.00  0.00     0.004 C 
ENDBRANCH  16  17
ENDBRANCH  15  16
ENDBRANCH  14  15
ENDBRANCH  13  14
ENDBRANCH  12  13
ENDBRANCH  11  12
ENDBRANCH   1  11
TORSDOF 14
ENDMDL
MODEL 3
REMARK VINA RESULT:    -4.589      1.421      3.193
REMARK INTER + INTRA:          -9.944
REMARK INTER:                  -7.485
REMARK INTRA:                  -2.459
REMARK UNBOUND:                -1.599
REMARK SMILES CCCCCCCCCCCCCCCC(=O)[O-]
REMARK SMILES IDX 9 1 10 2 11 3 12 4 13 5 14 6 15 7 16 8 17 9 18 10 8 11 7 12
REMARK SMILES IDX 6 13 5 14 4 15 3 16 2 17 1 18
REMARK H PARENT
REMARK Flexibility Score: inf
ROOT
ATOM      1  C   UNL     1     -54.011  12.642 -28.803  1.00  0.00     0.000 C 
ENDROOT
BRANCH   1   2
ATOM      2  C   UNL     1     -53.419  11.542 -29.697  1.00  0.00     0.000 C 
BRANCH   2   3
ATOM      3  C   UNL     1     -53.034  12.100 -31.073  1.00  0.00     0.000 C 
BRANCH   3   4
ATOM      4  C   UNL     1     -51.906  11.272 -31.707  1.00  0.00     0.000 C 
BRANCH   4   5
ATOM      5  C   UNL     1     -51.244  10.300 -30.713  1.00  0.00     0.000 C 
BRANCH   5   6
ATOM      6  C   UNL     1     -49.730  10.085 -30.922  1.00  0.00     0.006 C 
BRANCH   6   7
ATOM      7  C   UNL     1     -48.990   9.524 -29.698  1.00  0.00     0.053 C 
BRANCH   7   8
ATOM      8  C   UNL     1     -47.638   8.991 -30.056  1.00  0.00     0.041 C 
ATOM      9  O   UNL     1     -46.599   9.553 -29.621  1.00  0.00    -0.550 OA
ATOM     10  O   UNL     1     -47.524   7.892 -30.898  1.00  0.00    -0.550 OA
ENDBRANCH   7   8
ENDBRANCH   6   7
ENDBRANCH   5   6
ENDBRANCH   4   5
ENDBRANCH   3   4
ENDBRANCH   2   3
ENDBRANCH   1   2
BRANCH   1  11
ATOM     11  C   UNL     1     -54.106  13.999 -29.519  1.00  0.00     0.000 C 
BRANCH  11  12
ATOM     12  C   UNL     1     -53.556  15.157 -28.667  1.00  0.00    -0.000 C 
BRANCH  12  13
ATOM     13  C   UNL     1     -52.729  16.157 -29.490  1.00  0.00    -0.000 C 
BRANCH  13  14
ATOM     14  C   UNL     1     -52.820  15.895 -31.003  1.00  0.00    -0.000 C 
BRANCH  14  15
ATOM     15  C   UNL     1     -51.476  15.456 -31.608  1.00  0.00    -0.000 C 
BRANCH  15  16
ATOM     16  C   UNL     1     -50.344  15.408 -30.566  1.00  0.00    -0.000 C 
BRANCH  16  17
ATOM     17  C   UNL     1     -49.828  13.981 -30.325  1.00  0.00    -0.003 C 
ATOM     18  C   UNL     1     -50.199  13.444 -28.943  1.00  0.00     0.004 C 
ENDBRANCH  16  17
ENDBRANCH  15  16
ENDBRANCH  14  15
ENDBRANCH  13  14
ENDBRANCH  12  13
ENDBRANCH  11  12
ENDBRANCH   1  11
TORSDOF 14
ENDMDL
MODEL 4
REMARK VINA RESULT:    -4.578     14.179     16.051
REMARK INTER + INTRA:          -9.923
REMARK INTER:                  -7.897
REMARK INTRA:                  -2.026
REMARK UNBOUND:                -1.599
REMARK SMILES CCCCCCCCCCCCCCCC(=O)[O-]
REMARK SMILES IDX 9 1 10 2 11 3 12 4 13 5 14 6 15 7 16 8 17 9 18 10 8 11 7 12
REMARK SMILES IDX 6 13 5 14 4 15 3 16 2 17 1 18
REMARK H PARENT
REMARK Flexibility Score: inf
ROOT
ATOM      1  C   UNL     1     -39.752  18.631 -29.018  1.00  0.00     0.000 C 
ENDROOT
BRANCH   1   2
ATOM      2  C   UNL     1     -40.195  20.021 -28.537  1.00  0.00     0.000 C 
BRANCH   2   3
ATOM      3  C   UNL     1     -39.550  21.127 -29.380  1.00  0.00     0.000 C 
BRANCH   3   4
ATOM      4  C   UNL     1     -38.937  22.215 -28.486  1.00  0.00     0.000 C 
BRANCH   4   5
ATOM      5  C   UNL     1     -37.415  22.358 -28.672  1.00  0.00     0.000 C 
BRANCH   5   6
ATOM      6  C   UNL     1     -36.825  21.566 -29.857  1.00  0.00     0.006 C 
BRANCH   6   7
ATOM      7  C   UNL     1     -35.879  22.374 -30.757  1.00  0.00     0.053 C 
BRANCH   7   8
ATOM      8  C   UNL     1     -35.488  21.614 -31.986  1.00  0.00     0.041 C 
ATOM      9  O   UNL     1     -34.437  20.920 -31.996  1.00  0.00    -0.550 OA
ATOM     10  O   UNL     1     -36.268  21.696 -33.132  1.00  0.00    -0.550 OA
ENDBRANCH   7   8
ENDBRANCH   6   7
ENDBRANCH   5   6
ENDBRANCH   4   5
ENDBRANCH   3   4
ENDBRANCH   2   3
ENDBRANCH   1   2
BRANCH   1  11
ATOM     11  C   UNL     1     -38.978  18.684 -30.345  1.00  0.00     0.000 C 
BRANCH  11  12
ATOM     12  C   UNL     1     -38.585  17.287 -30.856  1.00  0.00    -0.000 C 
BRANCH  12  13
ATOM     13  C   UNL     1     -37.608  16.565 -29.914  1.00  0.00    -0.000 C 
BRANCH  13  14
ATOM     14  C   UNL     1     -36.145  16.691 -30.372  1.00  0.00    -0.000 C 
BRANCH  14  15
ATOM     15  C   UNL     1     -35.576  18.102 -30.148  1.00  0.00    -0.000 C 
BRANCH  15  16
ATOM     16  C   UNL     1     -34.597  18.165 -28.963  1.00  0.00    -0.000 C 
BRANCH  16  17
ATOM     17  C   UNL     1     -35.051  19.152 -27.877  1.00  0.00    -0.003 C 
ATOM     18  C   UNL     1     -36.427  18.811 -27.307  1.00  0.00     0.004 C 
ENDBRANCH  16  17
ENDBRANCH  15  16
ENDBRANCH  14  15
ENDBRANCH  13  14
ENDBRANCH  12  13
ENDBRANCH  11  12
ENDBRANCH   1  11
TORSDOF 14
ENDMDL
MODEL 5
REMARK VINA RESULT:    -4.556      1.804      3.512
REMARK INTER + INTRA:          -9.884
REMARK INTER:                  -7.667
REMARK INTRA:                  -2.217
REMARK UNBOUND:                -1.599
REMARK SMILES CCCCCCCCCCCCCCCC(=O)[O-]
REMARK SMILES IDX 9 1 10 2 11 3 12 4 13 5 14 6 15 7 16 8 17 9 18 10 8 11 7 12
REMARK SMILES IDX 6 13 5 14 4 15 3 16 2 17 1 18
REMARK H PARENT
REMARK Flexibility Score: inf
ROOT
ATOM      1  C   UNL     1     -52.683  15.310 -27.849  1.00  0.00     0.000 C 
ENDROOT
BRANCH   1   2
ATOM      2  C   UNL     1     -54.063  14.951 -28.420  1.00  0.00     0.000 C 
BRANCH   2   3
ATOM      3  C   UNL     1     -53.932  14.287 -29.797  1.00  0.00     0.000 C 
BRANCH   3   4
ATOM      4  C   UNL     1     -54.124  12.766 -29.695  1.00  0.00     0.000 C 
BRANCH   4   5
ATOM      5  C   UNL     1     -52.792  11.997 -29.626  1.00  0.00     0.000 C 
BRANCH   5   6
ATOM      6  C   UNL     1     -51.832  12.246 -30.809  1.00  0.00     0.006 C 
BRANCH   6   7
ATOM      7  C   UNL     1     -50.405  11.721 -30.593  1.00  0.00     0.053 C 
BRANCH   7   8
ATOM      8  C   UNL     1     -49.659  12.527 -29.575  1.00  0.00     0.041 C 
ATOM      9  O   UNL     1     -49.110  13.612 -29.903  1.00  0.00    -0.550 OA
ATOM     10  O   UNL     1     -49.542  12.063 -28.272  1.00  0.00    -0.550 OA
ENDBRANCH   7   8
ENDBRANCH   6   7
ENDBRANCH   5   6
ENDBRANCH   4   5
ENDBRANCH   3   4
ENDBRANCH   2   3
ENDBRANCH   1   2
BRANCH   1  11
ATOM     11  C   UNL     1     -52.674  16.671 -27.136  1.00  0.00     0.000 C 
BRANCH  11  12
ATOM     12  C   UNL     1     -53.826  17.584 -27.592  1.00  0.00    -0.000 C 
BRANCH  12  13
ATOM     13  C   UNL     1     -53.386  18.615 -28.644  1.00  0.00    -0.000 C 
BRANCH  13  14
ATOM     14  C   UNL     1     -53.840  18.238 -30.064  1.00  0.00    -0.000 C 
BRANCH  14  15
ATOM     15  C   UNL     1     -52.661  18.093 -31.042  1.00  0.00    -0.000 C 
BRANCH  15  16
ATOM     16  C   UNL     1     -51.318  17.874 -30.323  1.00  0.00    -0.000 C 
BRANCH  16  17
ATOM     17  C   UNL     1     -50.708  16.497 -30.626  1.00  0.00    -0.003 C 
ATOM     18  C   UNL     1     -51.381  15.800 -31.808  1.00  0.00     0.004 C 
ENDBRANCH  16  17
ENDBRANCH  15  16
ENDBRANCH  14  15
ENDBRANCH  13  14
ENDBRANCH  12  13
ENDBRANCH  11  12
ENDBRANCH   1  11
TORSDOF 14
ENDMDL
MODEL 6
REMARK VINA RESULT:    -4.484      1.293      1.881
REMARK INTER + INTRA:          -9.753
REMARK INTER:                  -7.478
REMARK INTRA:                  -2.275
REMARK UNBOUND:                -1.599
REMARK SMILES CCCCCCCCCCCCCCCC(=O)[O-]
REMARK SMILES IDX 9 1 10 2 11 3 12 4 13 5 14 6 15 7 16 8 17 9 18 10 8 11 7 12
REMARK SMILES IDX 6 13 5 14 4 15 3 16 2 17 1 18
REMARK H PARENT
REMARK Flexibility Score: inf
ROOT
ATOM      1  C   UNL     1     -50.558  14.075 -29.040  1.00  0.00     0.000 C 
ENDROOT
BRANCH   1   2
ATOM      2  C   UNL     1     -51.668  13.027 -28.870  1.00  0.00     0.000 C 
BRANCH   2   3
ATOM      3  C   UNL     1     -52.909  13.404 -29.688  1.00  0.00     0.000 C 
BRANCH   3   4
ATOM      4  C   UNL     1     -53.294  12.275 -30.657  1.00  0.00     0.000 C 
BRANCH   4   5
ATOM      5  C   UNL     1     -52.490  10.983 -30.422  1.00  0.00     0.000 C 
BRANCH   5   6
ATOM      6  C   UNL     1     -51.602  10.543 -31.605  1.00  0.00     0.006 C 
BRANCH   6   7
ATOM      7  C   UNL     1     -50.093  10.690 -31.360  1.00  0.00     0.053 C 
BRANCH   7   8
ATOM      8  C   UNL     1     -49.660  10.002 -30.103  1.00  0.00     0.041 C 
ATOM      9  O   UNL     1     -49.881   8.772 -29.944  1.00  0.00    -0.550 OA
ATOM     10  O   UNL     1     -49.041  10.725 -29.092  1.00  0.00    -0.550 OA
ENDBRANCH   7   8
ENDBRANCH   6   7
ENDBRANCH   5   6
ENDBRANCH   4   5
ENDBRANCH   3   4
ENDBRANCH   2   3
ENDBRANCH   1   2
BRANCH   1  11
ATOM     11  C   UNL     1     -50.323  14.454 -30.511  1.00  0.00     0.000 C 
BRANCH  11  12
ATOM     12  C   UNL     1     -50.428  15.970 -30.754  1.00  0.00    -0.000 C 
BRANCH  12  13
ATOM     13  C   UNL     1     -51.738  16.369 -31.451  1.00  0.00    -0.000 C 
BRANCH  13  14
ATOM     14  C   UNL     1     -52.248  17.749 -31.002  1.00  0.00    -0.000 C 
BRANCH  14  15
ATOM     15  C   UNL     1     -52.601  17.789 -29.506  1.00  0.00    -0.000 C 
BRANCH  15  16
ATOM     16  C   UNL     1     -53.886  17.007 -29.178  1.00  0.00    -0.000 C 
BRANCH  16  17
ATOM     17  C   UNL     1     -53.850  16.378 -27.777  1.00  0.00    -0.003 C 
ATOM     18  C   UNL     1     -52.583  16.737 -27.001  1.00  0.00     0.004 C 
ENDBRANCH  16  17
ENDBRANCH  15  16
ENDBRANCH  14  15
ENDBRANCH  13  14
ENDBRANCH  12  13
ENDBRANCH  11  12
ENDBRANCH   1  11
TORSDOF 14
ENDMDL
MODEL 7
REMARK VINA RESULT:    -4.443      2.218      3.973
REMARK INTER + INTRA:          -9.678
REMARK INTER:                  -7.399
REMARK INTRA:                  -2.278
REMARK UNBOUND:                -1.599
REMARK SMILES CCCCCCCCCCCCCCCC(=O)[O-]
REMARK SMILES IDX 9 1 10 2 11 3 12 4 13 5 14 6 15 7 16 8 17 9 18 10 8 11 7 12
REMARK SMILES IDX 6 13 5 14 4 15 3 16 2 17 1 18
REMARK H PARENT
REMARK Flexibility Score: inf
ROOT
ATOM      1  C   UNL     1     -52.806  16.177 -27.990  1.00  0.00     0.000 C 
ENDROOT
BRANCH   1   2
ATOM      2  C   UNL     1     -54.094  15.452 -28.406  1.00  0.00     0.000 C 
BRANCH   2   3
ATOM      3  C   UNL     1     -53.924  13.930 -28.309  1.00  0.00     0.000 C 
BRANCH   3   4
ATOM      4  C   UNL     1     -53.910  13.288 -29.704  1.00  0.00     0.000 C 
BRANCH   4   5
ATOM      5  C   UNL     1     -53.246  11.899 -29.718  1.00  0.00     0.000 C 
BRANCH   5   6
ATOM      6  C   UNL     1     -52.719  11.441 -31.094  1.00  0.00     0.006 C 
BRANCH   6   7
ATOM      7  C   UNL     1     -51.553  10.442 -31.030  1.00  0.00     0.053 C 
BRANCH   7   8
ATOM      8  C   UNL     1     -51.340   9.745 -32.338  1.00  0.00     0.041 C 
ATOM      9  O   UNL     1     -50.195   9.332 -32.658  1.00  0.00    -0.550 OA
ATOM     10  O   UNL     1     -52.401   9.581 -33.219  1.00  0.00    -0.550 OA
ENDBRANCH   7   8
ENDBRANCH   6   7
ENDBRANCH   5   6
ENDBRANCH   4   5
ENDBRANCH   3   4
ENDBRANCH   2   3
ENDBRANCH   1   2
BRANCH   1  11
ATOM     11  C   UNL     1     -52.692  17.580 -28.607  1.00  0.00     0.000 C 
BRANCH  11  12
ATOM     12  C   UNL     1     -51.739  17.619 -29.815  1.00  0.00    -0.000 C 
BRANCH  12  13
ATOM     13  C   UNL     1     -52.337  16.955 -31.065  1.00  0.00    -0.000 C 
BRANCH  13  14
ATOM     14  C   UNL     1     -51.431  15.853 -31.639  1.00  0.00    -0.000 C 
BRANCH  14  15
ATOM     15  C   UNL     1     -50.248  15.521 -30.713  1.00  0.00    -0.000 C 
BRANCH  15  16
ATOM     16  C   UNL     1     -50.162  14.022 -30.375  1.00  0.00    -0.000 C 
BRANCH  16  17
ATOM     17  C   UNL     1     -50.245  13.755 -28.865  1.00  0.00    -0.003 C 
ATOM     18  C   UNL     1     -49.739  12.364 -28.483  1.00  0.00     0.004 C 
ENDBRANCH  16  17
ENDBRANCH  15  16
ENDBRANCH  14  15
ENDBRANCH  13  14
ENDBRANCH  12  13
ENDBRANCH  11  12
ENDBRANCH   1  11
TORSDOF 14
ENDMDL
MODEL 8
REMARK VINA RESULT:    -4.426     14.529     16.136
REMARK INTER + INTRA:          -9.647
REMARK INTER:                  -7.522
REMARK INTRA:                  -2.125
REMARK UNBOUND:                -1.599
REMARK SMILES CCCCCCCCCCCCCCCC(=O)[O-]
REMARK SMILES IDX 9 1 10 2 11 3 12 4 13 5 14 6 15 7 16 8 17 9 18 10 8 11 7 12
REMARK SMILES IDX 6 13 5 14 4 15 3 16 2 17 1 18
REMARK H PARENT
REMARK Flexibility Score: inf
ROOT
ATOM      1  C   UNL     1     -36.415  23.022 -28.123  1.00  0.00     0.000 C 
ENDROOT
BRANCH   1   2
ATOM      2  C   UNL     1     -37.396  22.355 -29.099  1.00  0.00     0.000 C 
BRANCH   2   3
ATOM      3  C   UNL     1     -38.796  22.246 -28.481  1.00  0.00     0.000 C 
BRANCH   3   4
ATOM      4  C   UNL     1     -39.685  21.295 -29.297  1.00  0.00     0.000 C 
BRANCH   4   5
ATOM      5  C   UNL     1     -39.937  19.952 -28.588  1.00  0.00     0.000 C 
BRANCH   5   6
ATOM      6  C   UNL     1     -38.819  18.903 -28.762  1.00  0.00     0.006 C 
BRANCH   6   7
ATOM      7  C   UNL     1     -38.436  18.614 -30.221  1.00  0.00     0.053 C 
BRANCH   7   8
ATOM      8  C   UNL     1     -38.515  17.154 -30.543  1.00  0.00     0.041 C 
ATOM      9  O   UNL     1     -39.419  16.720 -31.305  1.00  0.00    -0.550 OA
ATOM     10  O   UNL     1     -37.610  16.267 -29.975  1.00  0.00    -0.550 OA
ENDBRANCH   7   8
ENDBRANCH   6   7
ENDBRANCH   5   6
ENDBRANCH   4   5
ENDBRANCH   3   4
ENDBRANCH   2   3
ENDBRANCH   1   2
BRANCH   1  11
ATOM     11  C   UNL     1     -34.997  23.146 -28.703  1.00  0.00     0.000 C 
BRANCH  11  12
ATOM     12  C   UNL     1     -33.942  22.430 -27.843  1.00  0.00    -0.000 C 
BRANCH  12  13
ATOM     13  C   UNL     1     -34.567  21.512 -26.780  1.00  0.00    -0.000 C 
BRANCH  13  14
ATOM     14  C   UNL     1     -34.328  20.021 -27.075  1.00  0.00    -0.000 C 
BRANCH  14  15
ATOM     15  C   UNL     1     -35.360  19.442 -28.057  1.00  0.00    -0.000 C 
BRANCH  15  16
ATOM     16  C   UNL     1     -34.808  18.253 -28.863  1.00  0.00    -0.000 C 
BRANCH  16  17
ATOM     17  C   UNL     1     -34.638  18.582 -30.354  1.00  0.00    -0.003 C 
ATOM     18  C   UNL     1     -34.998  20.030 -30.684  1.00  0.00     0.004 C 
ENDBRANCH  16  17
ENDBRANCH  15  16
ENDBRANCH  14  15
ENDBRANCH  13  14
ENDBRANCH  12  13
ENDBRANCH  11  12
ENDBRANCH   1  11
TORSDOF 14
ENDMDL
MODEL 9
REMARK VINA RESULT:    -4.404     15.338     17.023
REMARK INTER + INTRA:          -9.608
REMARK INTER:                  -7.057
REMARK INTRA:                  -2.551
REMARK UNBOUND:                -1.599
REMARK SMILES CCCCCCCCCCCCCCCC(=O)[O-]
REMARK SMILES IDX 9 1 10 2 11 3 12 4 13 5 14 6 15 7 16 8 17 9 18 10 8 11 7 12
REMARK SMILES IDX 6 13 5 14 4 15 3 16 2 17 1 18
REMARK H PARENT
REMARK Flexibility Score: inf
ROOT
ATOM      1  C   UNL     1     -38.671  20.868 -28.899  1.00  0.00     0.000 C 
ENDROOT
BRANCH   1   2
ATOM      2  C   UNL     1     -37.680  21.981 -28.528  1.00  0.00     0.000 C 
BRANCH   2   3
ATOM      3  C   UNL     1     -36.848  22.406 -29.745  1.00  0.00     0.000 C 
BRANCH   3   4
ATOM      4  C   UNL     1     -35.363  22.543 -29.377  1.00  0.00     0.000 C 
BRANCH   4   5
ATOM      5  C   UNL     1     -34.437  21.746 -30.314  1.00  0.00     0.000 C 
BRANCH   5   6
ATOM      6  C   UNL     1     -35.120  21.171 -31.573  1.00  0.00     0.006 C 
BRANCH   6   7
ATOM      7  C   UNL     1     -34.353  21.415 -32.882  1.00  0.00     0.053 C 
BRANCH   7   8
ATOM      8  C   UNL     1     -35.029  22.435 -33.745  1.00  0.00     0.041 C 
ATOM      9  O   UNL     1     -34.635  23.630 -33.743  1.00  0.00    -0.550 OA
ATOM     10  O   UNL     1     -36.117  22.071 -34.528  1.00  0.00    -0.550 OA
ENDBRANCH   7   8
ENDBRANCH   6   7
ENDBRANCH   5   6
ENDBRANCH   4   5
ENDBRANCH   3   4
ENDBRANCH   2   3
ENDBRANCH   1   2
BRANCH   1  11
ATOM     11  C   UNL     1     -38.871  20.737 -30.417  1.00  0.00     0.000 C 
BRANCH  11  12
ATOM     12  C   UNL     1     -38.376  19.386 -30.964  1.00  0.00    -0.000 C 
BRANCH  12  13
ATOM     13  C   UNL     1     -38.705  18.211 -30.030  1.00  0.00    -0.000 C 
BRANCH  13  14
ATOM     14  C   UNL     1     -37.455  17.415 -29.620  1.00  0.00    -0.000 C 
BRANCH  14  15
ATOM     15  C   UNL     1     -36.149  18.112 -30.036  1.00  0.00    -0.000 C 
BRANCH  15  16
ATOM     16  C   UNL     1     -35.138  18.219 -28.880  1.00  0.00    -0.000 C 
BRANCH  16  17
ATOM     17  C   UNL     1     -35.714  18.958 -27.663  1.00  0.00    -0.003 C 
ATOM     18  C   UNL     1     -34.681  19.842 -26.966  1.00  0.00     0.004 C 
ENDBRANCH  16  17
ENDBRANCH  15  16
ENDBRANCH  14  15
ENDBRANCH  13  14
ENDBRANCH  12  13
ENDBRANCH  11  12
ENDBRANCH   1  11
TORSDOF 14
ENDMDL
