MODEL 1
REMARK VINA RESULT:    -2.937      0.000      0.000
REMARK INTER + INTRA:          -3.641
REMARK INTER:                  -4.139
REMARK INTRA:                   0.498
REMARK UNBOUND:                 0.498
REMARK SMILES CC1=CCC(=C(C)C)C(=O)CC(C)=CCC1
REMARK SMILES IDX 12 1 14 2 13 3 15 4 16 5 2 6 1 7 3 8 11 10 9 11 10 12 5 13
REMARK SMILES IDX 6 14 7 15 8 16 4 17
REMARK H PARENT
REMARK Flexibility Score: 60.00
ROOT
ATOM      1  C   UNL     1      -3.378 -12.031  -8.601  1.00  0.00    -0.070 C 
ATOM      2  C   UNL     1      -4.694 -12.000  -8.956  1.00  0.00    -0.027 C 
ATOM      3  C   UNL     1      -2.630 -10.719  -8.655  1.00  0.00     0.039 C 
ENDROOT
BRANCH   2   4
ATOM      4  C   UNL     1      -5.762 -13.087  -8.972  1.00  0.00     0.032 C 
BRANCH   4   5
ATOM      5  C   UNL     1      -5.828 -14.026  -7.761  1.00  0.00     0.034 C 
BRANCH   5   6
ATOM      6  C   UNL     1      -5.155 -15.401  -7.869  1.00  0.00    -0.077 C 
ATOM      7  C   UNL     1      -5.483 -16.187  -9.121  1.00  0.00     0.039 C 
ATOM      8  C   UNL     1      -4.239 -15.978  -7.036  1.00  0.00    -0.023 CG0
ATOM      9  G   UNL     1      -3.623 -15.483  -5.741  1.00  0.00     0.000 G0
ENDBRANCH   5   6
ENDBRANCH   4   5
ENDBRANCH   2   4
BRANCH   1  10
ATOM     10  C   UNL     1      -2.580 -13.251  -8.166  1.00  0.00     0.111 C 
BRANCH  10  11
ATOM     11  C   UNL     1      -2.518 -13.372  -6.673  1.00  0.00     0.163 C 
ATOM     12  O   UNL     1      -2.655 -12.334  -5.970  1.00  0.00    -0.294 OA
BRANCH  11  13
ATOM     13  C   UNL     1      -2.342 -14.696  -6.025  1.00  0.00    -0.002 C 
ATOM     14  C   UNL     1      -1.105 -15.167  -5.689  1.00  0.00    -0.069 C 
ATOM     15  C   UNL     1       0.148 -14.414  -6.074  1.00  0.00     0.039 C 
ATOM     16  C   UNL     1      -0.930 -16.465  -4.933  1.00  0.00     0.039 C 
BRANCH  13  17
ATOM     17  C   UNL     1      -3.611 -15.475  -5.748  1.00  0.00     0.066 CG0
ATOM     18  G   UNL     1      -4.258 -15.981  -7.024  1.00  0.00     0.000 G0
ENDBRANCH  13  17
ENDBRANCH  11  13
ENDBRANCH  10  11
ENDBRANCH   1  10
TORSDOF 0
ENDMDL
MODEL 2
REMARK VINA RESULT:    -2.906      1.872      4.473
REMARK INTER + INTRA:          -3.597
REMARK INTER:                  -3.894
REMARK INTRA:                   0.297
REMARK UNBOUND:                 0.498
REMARK SMILES CC1=CCC(=C(C)C)C(=O)CC(C)=CCC1
REMARK SMILES IDX 12 1 14 2 13 3 15 4 16 5 2 6 1 7 3 8 11 10 9 11 10 12 5 13
REMARK SMILES IDX 6 14 7 15 8 16 4 17
REMARK H PARENT
REMARK Flexibility Score: 60.00
ROOT
ATOM      1  C   UNL     1      -1.963 -15.269  -5.721  1.00  0.00    -0.070 C 
ATOM      2  C   UNL     1      -1.475 -14.919  -6.945  1.00  0.00    -0.027 C 
ATOM      3  C   UNL     1      -1.258 -16.398  -5.007  1.00  0.00     0.039 C 
ENDROOT
BRANCH   2   4
ATOM      4  C   UNL     1      -1.879 -13.817  -7.917  1.00  0.00     0.032 C 
BRANCH   4   5
ATOM      5  C   UNL     1      -2.497 -12.545  -7.321  1.00  0.00     0.034 C 
BRANCH   5   6
ATOM      6  C   UNL     1      -3.791 -12.005  -7.944  1.00  0.00    -0.077 C 
ATOM      7  C   UNL     1      -3.601 -11.064  -9.117  1.00  0.00     0.039 C 
ATOM      8  C   UNL     1      -5.086 -12.316  -7.644  1.00  0.00    -0.023 CG0
ATOM      9  G   UNL     1      -5.666 -13.249  -6.599  1.00  0.00     0.000 G0
ENDBRANCH   5   6
ENDBRANCH   4   5
ENDBRANCH   2   4
BRANCH   1  10
ATOM     10  C   UNL     1      -3.151 -14.646  -5.001  1.00  0.00     0.111 C 
BRANCH  10  11
ATOM     11  C   UNL     1      -4.453 -15.200  -5.494  1.00  0.00     0.163 C 
ATOM     12  O   UNL     1      -5.016 -16.116  -4.835  1.00  0.00    -0.294 OA
BRANCH  11  13
ATOM     13  C   UNL     1      -5.098 -14.652  -6.714  1.00  0.00    -0.002 C 
ATOM     14  C   UNL     1      -5.182 -15.382  -7.865  1.00  0.00    -0.069 C 
ATOM     15  C   UNL     1      -4.512 -16.733  -7.984  1.00  0.00     0.039 C 
ATOM     16  C   UNL     1      -5.931 -14.871  -9.075  1.00  0.00     0.039 C 
BRANCH  13  17
ATOM     17  C   UNL     1      -5.667 -13.254  -6.597  1.00  0.00     0.066 CG0
ATOM     18  G   UNL     1      -5.077 -12.311  -7.629  1.00  0.00     0.000 G0
ENDBRANCH  13  17
ENDBRANCH  11  13
ENDBRANCH  10  11
ENDBRANCH   1  10
TORSDOF 0
ENDMDL
MODEL 3
REMARK VINA RESULT:    -2.441      1.645      3.378
REMARK INTER + INTRA:          -2.942
REMARK INTER:                  -3.858
REMARK INTRA:                   0.916
REMARK UNBOUND:                 0.498
REMARK SMILES CC1=CCC(=C(C)C)C(=O)CC(C)=CCC1
REMARK SMILES IDX 12 1 14 2 13 3 15 4 16 5 2 6 1 7 3 8 11 10 9 11 10 12 5 13
REMARK SMILES IDX 6 14 7 15 8 16 4 17
REMARK H PARENT
REMARK Flexibility Score: 60.00
ROOT
ATOM      1  C   UNL     1      -5.954 -14.462  -8.782  1.00  0.00    -0.070 C 
ATOM      2  C   UNL     1      -6.374 -13.173  -8.925  1.00  0.00    -0.027 C 
ATOM      3  C   UNL     1      -6.952 -15.542  -9.125  1.00  0.00     0.039 C 
ENDROOT
BRANCH   2   4
ATOM      4  C   UNL     1      -5.648 -11.846  -8.734  1.00  0.00     0.032 C 
BRANCH   4   5
ATOM      5  C   UNL     1      -4.667 -11.744  -7.560  1.00  0.00     0.034 C 
BRANCH   5   6
ATOM      6  C   UNL     1      -3.183 -12.036  -7.825  1.00  0.00    -0.077 C 
ATOM      7  C   UNL     1      -2.575 -11.292  -8.996  1.00  0.00     0.039 C 
ATOM      8  C   UNL     1      -2.316 -12.807  -7.105  1.00  0.00    -0.023 CG0
ATOM      9  G   UNL     1      -2.530 -13.639  -5.855  1.00  0.00     0.000 G0
ENDBRANCH   5   6
ENDBRANCH   4   5
ENDBRANCH   2   4
BRANCH   1  10
ATOM     10  C   UNL     1      -4.586 -14.927  -8.304  1.00  0.00     0.111 C 
BRANCH  10  11
ATOM     11  C   UNL     1      -4.497 -14.951  -6.809  1.00  0.00     0.163 C 
ATOM     12  O   UNL     1      -5.562 -14.983  -6.134  1.00  0.00    -0.294 OA
BRANCH  11  13
ATOM     13  C   UNL     1      -3.178 -14.980  -6.126  1.00  0.00    -0.002 C 
ATOM     14  C   UNL     1      -2.576 -16.159  -5.789  1.00  0.00    -0.069 C 
ATOM     15  C   UNL     1      -3.284 -17.481  -5.985  1.00  0.00     0.039 C 
ATOM     16  C   UNL     1      -1.188 -16.197  -5.192  1.00  0.00     0.039 C 
BRANCH  13  17
ATOM     17  C   UNL     1      -2.542 -13.635  -5.848  1.00  0.00     0.066 CG0
ATOM     18  G   UNL     1      -2.321 -12.836  -7.118  1.00  0.00     0.000 G0
ENDBRANCH  13  17
ENDBRANCH  11  13
ENDBRANCH  10  11
ENDBRANCH   1  10
TORSDOF 0
ENDMDL
MODEL 4
REMARK VINA RESULT:    -2.256      1.759      3.522
REMARK INTER + INTRA:          -2.680
REMARK INTER:                  -3.361
REMARK INTRA:                   0.681
REMARK UNBOUND:                 0.498
REMARK SMILES CC1=CCC(=C(C)C)C(=O)CC(C)=CCC1
REMARK SMILES IDX 12 1 14 2 13 3 15 4 16 5 2 6 1 7 3 8 11 10 9 11 10 12 5 13
REMARK SMILES IDX 6 14 7 15 8 16 4 17
REMARK H PARENT
REMARK Flexibility Score: 60.00
ROOT
ATOM      1  C   UNL     1      -4.254 -16.443  -6.602  1.00  0.00    -0.070 C 
ATOM      2  C   UNL     1      -4.210 -16.625  -7.953  1.00  0.00    -0.027 C 
ATOM      3  C   UNL     1      -3.814 -17.607  -5.746  1.00  0.00     0.039 C 
ENDROOT
BRANCH   2   4
ATOM      4  C   UNL     1      -4.515 -15.682  -9.110  1.00  0.00     0.032 C 
BRANCH   4   5
ATOM      5  C   UNL     1      -3.796 -14.327  -9.122  1.00  0.00     0.034 C 
BRANCH   5   6
ATOM      6  C   UNL     1      -4.418 -13.166  -8.334  1.00  0.00    -0.077 C 
ATOM      7  C   UNL     1      -5.823 -12.782  -8.749  1.00  0.00     0.039 C 
ATOM      8  C   UNL     1      -3.917 -12.489  -7.260  1.00  0.00    -0.023 CG0
ATOM      9  G   UNL     1      -2.596 -12.628  -6.527  1.00  0.00     0.000 G0
ENDBRANCH   5   6
ENDBRANCH   4   5
ENDBRANCH   2   4
BRANCH   1  10
ATOM     10  C   UNL     1      -4.711 -15.192  -5.865  1.00  0.00     0.111 C 
BRANCH  10  11
ATOM     11  C   UNL     1      -3.577 -14.522  -5.151  1.00  0.00     0.163 C 
ATOM     12  O   UNL     1      -3.605 -14.449  -3.893  1.00  0.00    -0.294 OA
BRANCH  11  13
ATOM     13  C   UNL     1      -2.413 -13.988  -5.905  1.00  0.00    -0.002 C 
ATOM     14  C   UNL     1      -1.253 -14.699  -6.023  1.00  0.00    -0.069 C 
ATOM     15  C   UNL     1      -1.060 -16.006  -5.287  1.00  0.00     0.039 C 
ATOM     16  C   UNL     1      -0.107 -14.208  -6.877  1.00  0.00     0.039 C 
BRANCH  13  17
ATOM     17  C   UNL     1      -2.600 -12.628  -6.542  1.00  0.00     0.066 CG0
ATOM     18  G   UNL     1      -3.929 -12.517  -7.267  1.00  0.00     0.000 G0
ENDBRANCH  13  17
ENDBRANCH  11  13
ENDBRANCH  10  11
ENDBRANCH   1  10
TORSDOF 0
ENDMDL
MODEL 5
REMARK VINA RESULT:    -1.504      1.833      4.851
REMARK INTER + INTRA:          -1.621
REMARK INTER:                  -4.389
REMARK INTRA:                   2.768
REMARK UNBOUND:                 0.498
REMARK SMILES CC1=CCC(=C(C)C)C(=O)CC(C)=CCC1
REMARK SMILES IDX 12 1 14 2 13 3 15 4 16 5 2 6 1 7 3 8 11 10 9 11 10 12 5 13
REMARK SMILES IDX 6 14 7 15 8 16 4 17
REMARK H PARENT
REMARK Flexibility Score: 60.00
ROOT
ATOM      1  C   UNL     1      -3.828 -16.482  -6.026  1.00  0.00    -0.070 C 
ATOM      2  C   UNL     1      -3.431 -15.651  -5.020  1.00  0.00    -0.027 C 
ATOM      3  C   UNL     1      -3.708 -17.965  -5.767  1.00  0.00     0.039 C 
ENDROOT
BRANCH   2   4
ATOM      4  C   UNL     1      -3.456 -14.132  -4.895  1.00  0.00     0.032 C 
BRANCH   4   5
ATOM      5  C   UNL     1      -2.383 -13.345  -5.658  1.00  0.00     0.034 C 
BRANCH   5   6
ATOM      6  C   UNL     1      -1.532 -14.093  -6.694  1.00  0.00    -0.077 C 
ATOM      7  C   UNL     1      -0.254 -14.707  -6.161  1.00  0.00     0.039 C 
ATOM      8  C   UNL     1      -1.805 -14.352  -8.006  1.00  0.00    -0.023 CG0
ATOM      9  G   UNL     1      -2.993 -13.968  -8.868  1.00  0.00     0.000 G0
ENDBRANCH   5   6
ENDBRANCH   4   5
ENDBRANCH   2   4
BRANCH   1  10
ATOM     10  C   UNL     1      -4.370 -16.071  -7.387  1.00  0.00     0.111 C 
BRANCH  10  11
ATOM     11  C   UNL     1      -4.917 -14.676  -7.371  1.00  0.00     0.163 C 
ATOM     12  O   UNL     1      -5.963 -14.438  -6.708  1.00  0.00    -0.294 OA
BRANCH  11  13
ATOM     13  C   UNL     1      -4.219 -13.578  -8.087  1.00  0.00    -0.002 C 
ATOM     14  C   UNL     1      -4.651 -12.285  -8.005  1.00  0.00    -0.069 C 
ATOM     15  C   UNL     1      -5.932 -11.935  -7.281  1.00  0.00     0.039 C 
ATOM     16  C   UNL     1      -3.883 -11.151  -8.643  1.00  0.00     0.039 C 
BRANCH  13  17
ATOM     17  C   UNL     1      -3.000 -13.977  -8.891  1.00  0.00     0.066 CG0
ATOM     18  G   UNL     1      -1.826 -14.341  -8.001  1.00  0.00     0.000 G0
ENDBRANCH  13  17
ENDBRANCH  11  13
ENDBRANCH  10  11
ENDBRANCH   1  10
TORSDOF 0
ENDMDL
MODEL 6
REMARK VINA RESULT:    -1.446      1.498      2.677
REMARK INTER + INTRA:          -1.540
REMARK INTER:                  -2.111
REMARK INTRA:                   0.571
REMARK UNBOUND:                 0.498
REMARK SMILES CC1=CCC(=C(C)C)C(=O)CC(C)=CCC1
REMARK SMILES IDX 12 1 14 2 13 3 15 4 16 5 2 6 1 7 3 8 11 10 9 11 10 12 5 13
REMARK SMILES IDX 6 14 7 15 8 16 4 17
REMARK H PARENT
REMARK Flexibility Score: 60.00
ROOT
ATOM      1  C   UNL     1      -5.609 -13.395  -8.221  1.00  0.00    -0.070 C 
ATOM      2  C   UNL     1      -5.280 -14.627  -8.703  1.00  0.00    -0.027 C 
ATOM      3  C   UNL     1      -6.446 -12.517  -9.122  1.00  0.00     0.039 C 
ENDROOT
BRANCH   2   4
ATOM      4  C   UNL     1      -4.514 -15.786  -8.075  1.00  0.00     0.032 C 
BRANCH   4   5
ATOM      5  C   UNL     1      -4.953 -16.246  -6.679  1.00  0.00     0.034 C 
BRANCH   5   6
ATOM      6  C   UNL     1      -3.869 -16.508  -5.625  1.00  0.00    -0.077 C 
ATOM      7  C   UNL     1      -3.540 -17.967  -5.385  1.00  0.00     0.039 C 
ATOM      8  C   UNL     1      -3.103 -15.612  -4.937  1.00  0.00    -0.023 CG0
ATOM      9  G   UNL     1      -3.092 -14.095  -4.955  1.00  0.00     0.000 G0
ENDBRANCH   5   6
ENDBRANCH   4   5
ENDBRANCH   2   4
BRANCH   1  10
ATOM     10  C   UNL     1      -5.214 -12.807  -6.875  1.00  0.00     0.111 C 
BRANCH  10  11
ATOM     11  C   UNL     1      -3.747 -12.510  -6.806  1.00  0.00     0.163 C 
ATOM     12  O   UNL     1      -3.339 -11.365  -7.141  1.00  0.00    -0.294 OA
BRANCH  11  13
ATOM     13  C   UNL     1      -2.788 -13.529  -6.309  1.00  0.00    -0.002 C 
ATOM     14  C   UNL     1      -1.713 -13.921  -7.055  1.00  0.00    -0.069 C 
ATOM     15  C   UNL     1      -1.523 -13.424  -8.471  1.00  0.00     0.039 C 
ATOM     16  C   UNL     1      -0.677 -14.877  -6.511  1.00  0.00     0.039 C 
BRANCH  13  17
ATOM     17  C   UNL     1      -3.065 -14.087  -4.929  1.00  0.00     0.066 CG0
ATOM     18  G   UNL     1      -3.101 -15.604  -4.925  1.00  0.00     0.000 G0
ENDBRANCH  13  17
ENDBRANCH  11  13
ENDBRANCH  10  11
ENDBRANCH   1  10
TORSDOF 0
ENDMDL
MODEL 7
REMARK VINA RESULT:    -1.318      1.812      3.420
REMARK INTER + INTRA:          -1.360
REMARK INTER:                  -3.044
REMARK INTRA:                   1.684
REMARK UNBOUND:                 0.498
REMARK SMILES CC1=CCC(=C(C)C)C(=O)CC(C)=CCC1
REMARK SMILES IDX 12 1 14 2 13 3 15 4 16 5 2 6 1 7 3 8 11 10 9 11 10 12 5 13
REMARK SMILES IDX 6 14 7 15 8 16 4 17
REMARK H PARENT
REMARK Flexibility Score: 60.00
ROOT
ATOM      1  C   UNL     1      -4.415 -14.982  -8.271  1.00  0.00    -0.070 C 
ATOM      2  C   UNL     1      -5.571 -14.288  -8.473  1.00  0.00    -0.027 C 
ATOM      3  C   UNL     1      -4.553 -16.395  -7.755  1.00  0.00     0.039 C 
ENDROOT
BRANCH   2   4
ATOM      4  C   UNL     1      -5.828 -12.891  -9.026  1.00  0.00     0.032 C 
BRANCH   4   5
ATOM      5  C   UNL     1      -5.362 -11.702  -8.176  1.00  0.00     0.034 C 
BRANCH   5   6
ATOM      6  C   UNL     1      -3.853 -11.455  -8.036  1.00  0.00    -0.077 C 
ATOM      7  C   UNL     1      -3.232 -10.606  -9.125  1.00  0.00     0.039 C 
ATOM      8  C   UNL     1      -3.011 -11.824  -7.026  1.00  0.00    -0.023 CG0
ATOM      9  G   UNL     1      -3.270 -12.610  -5.755  1.00  0.00     0.000 G0
ENDBRANCH   5   6
ENDBRANCH   4   5
ENDBRANCH   2   4
BRANCH   1  10
ATOM     10  C   UNL     1      -2.998 -14.479  -8.502  1.00  0.00     0.111 C 
BRANCH  10  11
ATOM     11  C   UNL     1      -2.211 -14.424  -7.228  1.00  0.00     0.163 C 
ATOM     12  O   UNL     1      -0.969 -14.638  -7.267  1.00  0.00    -0.294 OA
BRANCH  11  13
ATOM     13  C   UNL     1      -2.871 -14.081  -5.942  1.00  0.00    -0.002 C 
ATOM     14  C   UNL     1      -3.081 -15.022  -4.975  1.00  0.00    -0.069 C 
ATOM     15  C   UNL     1      -2.764 -16.479  -5.221  1.00  0.00     0.039 C 
ATOM     16  C   UNL     1      -3.654 -14.656  -3.625  1.00  0.00     0.039 C 
BRANCH  13  17
ATOM     17  C   UNL     1      -3.274 -12.632  -5.767  1.00  0.00     0.066 CG0
ATOM     18  G   UNL     1      -3.020 -11.815  -7.020  1.00  0.00     0.000 G0
ENDBRANCH  13  17
ENDBRANCH  11  13
ENDBRANCH  10  11
ENDBRANCH   1  10
TORSDOF 0
ENDMDL
MODEL 8
REMARK VINA RESULT:    -1.233      1.722      3.748
REMARK INTER + INTRA:          -1.239
REMARK INTER:                  -1.344
REMARK INTRA:                   0.105
REMARK UNBOUND:                 0.498
REMARK SMILES CC1=CCC(=C(C)C)C(=O)CC(C)=CCC1
REMARK SMILES IDX 12 1 14 2 13 3 15 4 16 5 2 6 1 7 3 8 11 10 9 11 10 12 5 13
REMARK SMILES IDX 6 14 7 15 8 16 4 17
REMARK H PARENT
REMARK Flexibility Score: 60.00
ROOT
ATOM      1  C   UNL     1      -4.928 -14.130  -8.511  1.00  0.00    -0.070 C 
ATOM      2  C   UNL     1      -4.009 -13.124  -8.477  1.00  0.00    -0.027 C 
ATOM      3  C   UNL     1      -6.294 -13.782  -9.054  1.00  0.00     0.039 C 
ENDROOT
BRANCH   2   4
ATOM      4  C   UNL     1      -2.543 -13.108  -8.059  1.00  0.00     0.032 C 
BRANCH   4   5
ATOM      5  C   UNL     1      -2.236 -13.252  -6.563  1.00  0.00     0.034 C 
BRANCH   5   6
ATOM      6  C   UNL     1      -1.365 -14.431  -6.109  1.00  0.00    -0.077 C 
ATOM      7  C   UNL     1       0.105 -14.322  -6.456  1.00  0.00     0.039 C 
ATOM      8  C   UNL     1      -1.714 -15.522  -5.366  1.00  0.00    -0.023 CG0
ATOM      9  G   UNL     1      -3.051 -15.942  -4.785  1.00  0.00     0.000 G0
ENDBRANCH   5   6
ENDBRANCH   4   5
ENDBRANCH   2   4
BRANCH   1  10
ATOM     10  C   UNL     1      -4.724 -15.567  -8.052  1.00  0.00     0.111 C 
BRANCH  10  11
ATOM     11  C   UNL     1      -4.835 -15.696  -6.563  1.00  0.00     0.163 C 
ATOM     12  O   UNL     1      -5.733 -15.050  -5.959  1.00  0.00    -0.294 OA
BRANCH  11  13
ATOM     13  C   UNL     1      -3.933 -16.605  -5.811  1.00  0.00    -0.002 C 
ATOM     14  C   UNL     1      -3.907 -17.948  -6.056  1.00  0.00    -0.069 C 
ATOM     15  C   UNL     1      -4.883 -18.585  -7.019  1.00  0.00     0.039 C 
ATOM     16  C   UNL     1      -2.916 -18.860  -5.369  1.00  0.00     0.039 C 
BRANCH  13  17
ATOM     17  C   UNL     1      -3.041 -15.951  -4.777  1.00  0.00     0.066 CG0
ATOM     18  G   UNL     1      -1.713 -15.514  -5.365  1.00  0.00     0.000 G0
ENDBRANCH  13  17
ENDBRANCH  11  13
ENDBRANCH  10  11
ENDBRANCH   1  10
TORSDOF 0
ENDMDL
MODEL 9
REMARK VINA RESULT:    -1.089      1.432      4.233
REMARK INTER + INTRA:          -1.036
REMARK INTER:                  -1.115
REMARK INTRA:                   0.079
REMARK UNBOUND:                 0.498
REMARK SMILES CC1=CCC(=C(C)C)C(=O)CC(C)=CCC1
REMARK SMILES IDX 12 1 14 2 13 3 15 4 16 5 2 6 1 7 3 8 11 10 9 11 10 12 5 13
REMARK SMILES IDX 6 14 7 15 8 16 4 17
REMARK H PARENT
REMARK Flexibility Score: 60.00
ROOT
ATOM      1  C   UNL     1      -0.899 -14.673  -5.929  1.00  0.00    -0.070 C 
ATOM      2  C   UNL     1      -1.209 -15.910  -5.448  1.00  0.00    -0.027 C 
ATOM      3  C   UNL     1       0.568 -14.371  -6.129  1.00  0.00     0.039 C 
ENDROOT
BRANCH   2   4
ATOM      4  C   UNL     1      -2.550 -16.582  -5.177  1.00  0.00     0.032 C 
BRANCH   4   5
ATOM      5  C   UNL     1      -3.560 -16.627  -6.331  1.00  0.00     0.034 C 
BRANCH   5   6
ATOM      6  C   UNL     1      -4.810 -15.740  -6.238  1.00  0.00    -0.077 C 
ATOM      7  C   UNL     1      -5.639 -15.918  -4.982  1.00  0.00     0.039 C 
ATOM      8  C   UNL     1      -5.233 -14.757  -7.086  1.00  0.00    -0.023 CG0
ATOM      9  G   UNL     1      -4.644 -14.249  -8.389  1.00  0.00     0.000 G0
ENDBRANCH   5   6
ENDBRANCH   4   5
ENDBRANCH   2   4
BRANCH   1  10
ATOM     10  C   UNL     1      -1.876 -13.559  -6.278  1.00  0.00     0.111 C 
BRANCH  10  11
ATOM     11  C   UNL     1      -2.274 -13.600  -7.722  1.00  0.00     0.163 C 
ATOM     12  O   UNL     1      -1.459 -14.058  -8.568  1.00  0.00    -0.294 OA
BRANCH  11  13
ATOM     13  C   UNL     1      -3.624 -13.151  -8.151  1.00  0.00    -0.002 C 
ATOM     14  C   UNL     1      -3.910 -11.828  -8.334  1.00  0.00    -0.069 C 
ATOM     15  C   UNL     1      -2.901 -10.756  -7.990  1.00  0.00     0.039 C 
ATOM     16  C   UNL     1      -5.248 -11.375  -8.873  1.00  0.00     0.039 C 
BRANCH  13  17
ATOM     17  C   UNL     1      -4.645 -14.243  -8.386  1.00  0.00     0.066 CG0
ATOM     18  G   UNL     1      -5.231 -14.763  -7.087  1.00  0.00     0.000 G0
ENDBRANCH  13  17
ENDBRANCH  11  13
ENDBRANCH  10  11
ENDBRANCH   1  10
TORSDOF 0
ENDMDL
