MODEL 1
REMARK VINA RESULT:    -6.464      0.000      0.000
REMARK INTER + INTRA:         -17.341
REMARK INTER:                 -14.779
REMARK INTRA:                  -2.563
REMARK UNBOUND:                -2.563
REMARK SMILES CCCCCCCCCCCCCCCCCCCCCCCC(=O)[O-]
REMARK SMILES IDX 13 1 14 2 15 3 16 4 17 5 18 6 19 7 20 8 21 9 22 10 23 11
REMARK SMILES IDX 24 12 25 13 26 14 12 15 11 16 10 17 9 18 8 19 7 20 6 21 5 22
REMARK SMILES IDX 4 23 3 24 2 25 1 26
REMARK H PARENT
REMARK Flexibility Score: inf
ROOT
ATOM      1  C   UNL     1       3.181   3.216  16.490  1.00  0.00     0.000 C 
ENDROOT
BRANCH   1   2
ATOM      2  C   UNL     1       2.879   3.359  14.990  1.00  0.00     0.000 C 
BRANCH   2   3
ATOM      3  C   UNL     1       3.843   4.334  14.287  1.00  0.00     0.000 C 
BRANCH   3   4
ATOM      4  C   UNL     1       4.634   3.673  13.146  1.00  0.00     0.000 C 
BRANCH   4   5
ATOM      5  C   UNL     1       4.443   2.150  13.028  1.00  0.00     0.000 C 
BRANCH   5   6
ATOM      6  C   UNL     1       5.719   1.358  13.364  1.00  0.00     0.000 C 
BRANCH   6   7
ATOM      7  C   UNL     1       5.415   0.027  14.068  1.00  0.00     0.000 C 
BRANCH   7   8
ATOM      8  C   UNL     1       3.904  -0.212  14.248  1.00  0.00     0.000 C 
BRANCH   8   9
ATOM      9  C   UNL     1       3.584  -1.069  15.482  1.00  0.00     0.000 C 
BRANCH   9  10
ATOM     10  C   UNL     1       4.845  -1.487  16.254  1.00  0.00     0.006 C 
BRANCH  10  11
ATOM     11  C   UNL     1       4.606  -1.436  17.766  1.00  0.00     0.053 C 
BRANCH  11  12
ATOM     12  C   UNL     1       5.286  -0.247  18.370  1.00  0.00     0.041 C 
ATOM     13  O   UNL     1       5.551  -0.223  19.601  1.00  0.00    -0.550 OA
ATOM     14  O   UNL     1       5.612   0.845  17.574  1.00  0.00    -0.550 OA
ENDBRANCH  11  12
ENDBRANCH  10  11
ENDBRANCH   9  10
ENDBRANCH   8   9
ENDBRANCH   7   8
ENDBRANCH   6   7
ENDBRANCH   5   6
ENDBRANCH   4   5
ENDBRANCH   3   4
ENDBRANCH   2   3
ENDBRANCH   1   2
BRANCH   1  15
ATOM     15  C   UNL     1       2.881   4.505  17.271  1.00  0.00     0.000 C 
BRANCH  15  16
ATOM     16  C   UNL     1       2.751   4.257  18.782  1.00  0.00     0.000 C 
BRANCH  16  17
ATOM     17  C   UNL     1       2.373   5.534  19.558  1.00  0.00     0.000 C 
BRANCH  17  18
ATOM     18  C   UNL     1       2.255   6.765  18.633  1.00  0.00    -0.000 C 
BRANCH  18  19
ATOM     19  C   UNL     1       2.132   8.095  19.398  1.00  0.00    -0.000 C 
BRANCH  19  20
ATOM     20  C   UNL     1       2.894   9.243  18.723  1.00  0.00    -0.000 C 
BRANCH  20  21
ATOM     21  C   UNL     1       2.944   9.054  17.203  1.00  0.00    -0.000 C 
BRANCH  21  22
ATOM     22  C   UNL     1       4.392   8.909  16.718  1.00  0.00    -0.000 C 
BRANCH  22  23
ATOM     23  C   UNL     1       4.565   7.642  15.866  1.00  0.00    -0.000 C 
BRANCH  23  24
ATOM     24  C   UNL     1       5.919   7.613  15.127  1.00  0.00    -0.000 C 
BRANCH  24  25
ATOM     25  C   UNL     1       5.796   7.781  13.603  1.00  0.00    -0.003 C 
ATOM     26  C   UNL     1       5.326   9.173  13.189  1.00  0.00     0.004 C 
ENDBRANCH  24  25
ENDBRANCH  23  24
ENDBRANCH  22  23
ENDBRANCH  21  22
ENDBRANCH  20  21
ENDBRANCH  19  20
ENDBRANCH  18  19
ENDBRANCH  17  18
ENDBRANCH  16  17
ENDBRANCH  15  16
ENDBRANCH   1  15
TORSDOF 22
ENDMDL
MODEL 2
REMARK VINA RESULT:    -6.380      2.395      8.506
REMARK INTER + INTRA:         -17.148
REMARK INTER:                 -14.819
REMARK INTRA:                  -2.329
REMARK UNBOUND:                -2.563
REMARK SMILES CCCCCCCCCCCCCCCCCCCCCCCC(=O)[O-]
REMARK SMILES IDX 13 1 14 2 15 3 16 4 17 5 18 6 19 7 20 8 21 9 22 10 23 11
REMARK SMILES IDX 24 12 25 13 26 14 12 15 11 16 10 17 9 18 8 19 7 20 6 21 5 22
REMARK SMILES IDX 4 23 3 24 2 25 1 26
REMARK H PARENT
REMARK Flexibility Score: inf
ROOT
ATOM      1  C   UNL     1       3.015   3.023  17.202  1.00  0.00     0.000 C 
ENDROOT
BRANCH   1   2
ATOM      2  C   UNL     1       3.005   3.397  18.693  1.00  0.00     0.000 C 
BRANCH   2   3
ATOM      3  C   UNL     1       1.873   4.383  19.043  1.00  0.00     0.000 C 
BRANCH   3   4
ATOM      4  C   UNL     1       2.394   5.704  19.633  1.00  0.00     0.000 C 
BRANCH   4   5
ATOM      5  C   UNL     1       2.109   6.949  18.773  1.00  0.00     0.000 C 
BRANCH   5   6
ATOM      6  C   UNL     1       2.119   8.255  19.587  1.00  0.00     0.000 C 
BRANCH   6   7
ATOM      7  C   UNL     1       2.735   9.427  18.808  1.00  0.00     0.000 C 
BRANCH   7   8
ATOM      8  C   UNL     1       2.953   9.095  17.320  1.00  0.00     0.000 C 
BRANCH   8   9
ATOM      9  C   UNL     1       4.423   8.794  16.991  1.00  0.00     0.000 C 
BRANCH   9  10
ATOM     10  C   UNL     1       4.575   7.726  15.896  1.00  0.00     0.006 C 
BRANCH  10  11
ATOM     11  C   UNL     1       4.970   8.362  14.560  1.00  0.00     0.053 C 
BRANCH  11  12
ATOM     12  C   UNL     1       5.974   7.512  13.846  1.00  0.00     0.041 C 
ATOM     13  O   UNL     1       5.638   6.395  13.370  1.00  0.00    -0.550 OA
ATOM     14  O   UNL     1       7.289   7.946  13.721  1.00  0.00    -0.550 OA
ENDBRANCH  11  12
ENDBRANCH  10  11
ENDBRANCH   9  10
ENDBRANCH   8   9
ENDBRANCH   7   8
ENDBRANCH   6   7
ENDBRANCH   5   6
ENDBRANCH   4   5
ENDBRANCH   3   4
ENDBRANCH   2   3
ENDBRANCH   1   2
BRANCH   1  15
ATOM     15  C   UNL     1       3.019   4.260  16.289  1.00  0.00     0.000 C 
BRANCH  15  16
ATOM     16  C   UNL     1       3.280   3.901  14.818  1.00  0.00     0.000 C 
BRANCH  16  17
ATOM     17  C   UNL     1       4.481   2.950  14.649  1.00  0.00     0.000 C 
BRANCH  17  18
ATOM     18  C   UNL     1       4.464   2.225  13.286  1.00  0.00    -0.000 C 
BRANCH  18  19
ATOM     19  C   UNL     1       4.303   0.699  13.407  1.00  0.00    -0.000 C 
BRANCH  19  20
ATOM     20  C   UNL     1       3.016   0.291  14.135  1.00  0.00    -0.000 C 
BRANCH  20  21
ATOM     21  C   UNL     1       3.285  -0.825  15.149  1.00  0.00    -0.000 C 
BRANCH  21  22
ATOM     22  C   UNL     1       4.436  -0.445  16.089  1.00  0.00    -0.000 C 
BRANCH  22  23
ATOM     23  C   UNL     1       5.233  -1.686  16.518  1.00  0.00    -0.000 C 
BRANCH  23  24
ATOM     24  C   UNL     1       5.554  -1.682  18.027  1.00  0.00    -0.000 C 
BRANCH  24  25
ATOM     25  C   UNL     1       5.674  -0.273  18.631  1.00  0.00    -0.003 C 
ATOM     26  C   UNL     1       4.520   0.081  19.565  1.00  0.00     0.004 C 
ENDBRANCH  24  25
ENDBRANCH  23  24
ENDBRANCH  22  23
ENDBRANCH  21  22
ENDBRANCH  20  21
ENDBRANCH  19  20
ENDBRANCH  18  19
ENDBRANCH  17  18
ENDBRANCH  16  17
ENDBRANCH  15  16
ENDBRANCH   1  15
TORSDOF 22
ENDMDL
MODEL 3
REMARK VINA RESULT:    -6.340      2.934      7.414
REMARK INTER + INTRA:         -17.056
REMARK INTER:                 -14.187
REMARK INTRA:                  -2.869
REMARK UNBOUND:                -2.563
REMARK SMILES CCCCCCCCCCCCCCCCCCCCCCCC(=O)[O-]
REMARK SMILES IDX 13 1 14 2 15 3 16 4 17 5 18 6 19 7 20 8 21 9 22 10 23 11
REMARK SMILES IDX 24 12 25 13 26 14 12 15 11 16 10 17 9 18 8 19 7 20 6 21 5 22
REMARK SMILES IDX 4 23 3 24 2 25 1 26
REMARK H PARENT
REMARK Flexibility Score: inf
ROOT
ATOM      1  C   UNL     1       2.876   5.146  17.086  1.00  0.00     0.000 C 
ENDROOT
BRANCH   1   2
ATOM      2  C   UNL     1       2.792   4.036  16.026  1.00  0.00     0.000 C 
BRANCH   2   3
ATOM      3  C   UNL     1       4.058   3.962  15.151  1.00  0.00     0.000 C 
BRANCH   3   4
ATOM      4  C   UNL     1       3.765   4.185  13.657  1.00  0.00     0.000 C 
BRANCH   4   5
ATOM      5  C   UNL     1       4.893   4.887  12.879  1.00  0.00     0.000 C 
BRANCH   5   6
ATOM      6  C   UNL     1       4.779   6.421  12.912  1.00  0.00     0.000 C 
BRANCH   6   7
ATOM      7  C   UNL     1       5.818   7.066  13.843  1.00  0.00     0.000 C 
BRANCH   7   8
ATOM      8  C   UNL     1       5.255   8.283  14.600  1.00  0.00     0.000 C 
BRANCH   8   9
ATOM      9  C   UNL     1       4.790   7.933  16.021  1.00  0.00     0.000 C 
BRANCH   9  10
ATOM     10  C   UNL     1       4.154   9.129  16.745  1.00  0.00     0.006 C 
BRANCH  10  11
ATOM     11  C   UNL     1       2.916   8.697  17.538  1.00  0.00     0.053 C 
BRANCH  11  12
ATOM     12  C   UNL     1       2.876   9.378  18.870  1.00  0.00     0.041 C 
ATOM     13  O   UNL     1       3.609  10.377  19.096  1.00  0.00    -0.550 OA
ATOM     14  O   UNL     1       2.042   8.896  19.871  1.00  0.00    -0.550 OA
ENDBRANCH  11  12
ENDBRANCH  10  11
ENDBRANCH   9  10
ENDBRANCH   8   9
ENDBRANCH   7   8
ENDBRANCH   6   7
ENDBRANCH   5   6
ENDBRANCH   4   5
ENDBRANCH   3   4
ENDBRANCH   2   3
ENDBRANCH   1   2
BRANCH   1  15
ATOM     15  C   UNL     1       1.826   4.974  18.195  1.00  0.00     0.000 C 
BRANCH  15  16
ATOM     16  C   UNL     1       1.926   3.608  18.890  1.00  0.00     0.000 C 
BRANCH  16  17
ATOM     17  C   UNL     1       3.375   3.242  19.263  1.00  0.00     0.000 C 
BRANCH  17  18
ATOM     18  C   UNL     1       3.631   1.721  19.188  1.00  0.00    -0.000 C 
BRANCH  18  19
ATOM     19  C   UNL     1       4.429   1.294  17.943  1.00  0.00    -0.000 C 
BRANCH  19  20
ATOM     20  C   UNL     1       5.188  -0.024  18.144  1.00  0.00    -0.000 C 
BRANCH  20  21
ATOM     21  C   UNL     1       5.353  -0.774  16.819  1.00  0.00    -0.000 C 
BRANCH  21  22
ATOM     22  C   UNL     1       5.257   0.190  15.630  1.00  0.00    -0.000 C 
BRANCH  22  23
ATOM     23  C   UNL     1       4.462  -0.435  14.473  1.00  0.00    -0.000 C 
BRANCH  23  24
ATOM     24  C   UNL     1       3.255   0.431  14.056  1.00  0.00    -0.000 C 
BRANCH  24  25
ATOM     25  C   UNL     1       2.199   0.594  15.162  1.00  0.00    -0.003 C 
ATOM     26  C   UNL     1       0.832   0.037  14.774  1.00  0.00     0.004 C 
ENDBRANCH  24  25
ENDBRANCH  23  24
ENDBRANCH  22  23
ENDBRANCH  21  22
ENDBRANCH  20  21
ENDBRANCH  19  20
ENDBRANCH  18  19
ENDBRANCH  17  18
ENDBRANCH  16  17
ENDBRANCH  15  16
ENDBRANCH   1  15
TORSDOF 22
ENDMDL
MODEL 4
REMARK VINA RESULT:    -6.303      1.873      5.788
REMARK INTER + INTRA:         -16.971
REMARK INTER:                 -14.741
REMARK INTRA:                  -2.230
REMARK UNBOUND:                -2.563
REMARK SMILES CCCCCCCCCCCCCCCCCCCCCCCC(=O)[O-]
REMARK SMILES IDX 13 1 14 2 15 3 16 4 17 5 18 6 19 7 20 8 21 9 22 10 23 11
REMARK SMILES IDX 24 12 25 13 26 14 12 15 11 16 10 17 9 18 8 19 7 20 6 21 5 22
REMARK SMILES IDX 4 23 3 24 2 25 1 26
REMARK H PARENT
REMARK Flexibility Score: inf
ROOT
ATOM      1  C   UNL     1       3.713   9.137  17.827  1.00  0.00     0.000 C 
ENDROOT
BRANCH   1   2
ATOM      2  C   UNL     1       3.856   9.043  16.300  1.00  0.00     0.000 C 
BRANCH   2   3
ATOM      3  C   UNL     1       4.681   7.818  15.862  1.00  0.00     0.000 C 
BRANCH   3   4
ATOM      4  C   UNL     1       5.567   8.103  14.637  1.00  0.00     0.000 C 
BRANCH   4   5
ATOM      5  C   UNL     1       5.965   6.855  13.828  1.00  0.00     0.000 C 
BRANCH   5   6
ATOM      6  C   UNL     1       4.791   6.256  13.033  1.00  0.00     0.000 C 
BRANCH   6   7
ATOM      7  C   UNL     1       4.512   4.793  13.412  1.00  0.00     0.000 C 
BRANCH   7   8
ATOM      8  C   UNL     1       3.999   4.647  14.856  1.00  0.00     0.000 C 
BRANCH   8   9
ATOM      9  C   UNL     1       2.935   3.549  14.997  1.00  0.00     0.000 C 
BRANCH   9  10
ATOM     10  C   UNL     1       3.495   2.145  14.720  1.00  0.00     0.006 C 
BRANCH  10  11
ATOM     11  C   UNL     1       2.521   1.062  15.194  1.00  0.00     0.053 C 
BRANCH  11  12
ATOM     12  C   UNL     1       2.811  -0.243  14.520  1.00  0.00     0.041 C 
ATOM     13  O   UNL     1       3.947  -0.463  14.022  1.00  0.00    -0.550 OA
ATOM     14  O   UNL     1       1.819  -1.211  14.424  1.00  0.00    -0.550 OA
ENDBRANCH  11  12
ENDBRANCH  10  11
ENDBRANCH   9  10
ENDBRANCH   8   9
ENDBRANCH   7   8
ENDBRANCH   6   7
ENDBRANCH   5   6
ENDBRANCH   4   5
ENDBRANCH   3   4
ENDBRANCH   2   3
ENDBRANCH   1   2
BRANCH   1  15
ATOM     15  C   UNL     1       2.260   9.391  18.263  1.00  0.00     0.000 C 
BRANCH  15  16
ATOM     16  C   UNL     1       1.929   8.727  19.609  1.00  0.00     0.000 C 
BRANCH  16  17
ATOM     17  C   UNL     1       2.289   7.229  19.631  1.00  0.00     0.000 C 
BRANCH  17  18
ATOM     18  C   UNL     1       2.040   6.549  18.267  1.00  0.00    -0.000 C 
BRANCH  18  19
ATOM     19  C   UNL     1       2.360   5.044  18.267  1.00  0.00    -0.000 C 
BRANCH  19  20
ATOM     20  C   UNL     1       2.684   4.503  19.666  1.00  0.00    -0.000 C 
BRANCH  20  21
ATOM     21  C   UNL     1       2.750   2.972  19.665  1.00  0.00    -0.000 C 
BRANCH  21  22
ATOM     22  C   UNL     1       3.667   2.465  18.545  1.00  0.00    -0.000 C 
BRANCH  22  23
ATOM     23  C   UNL     1       4.182   1.050  18.849  1.00  0.00    -0.000 C 
BRANCH  23  24
ATOM     24  C   UNL     1       5.129   0.523  17.751  1.00  0.00    -0.000 C 
BRANCH  24  25
ATOM     25  C   UNL     1       4.974  -0.981  17.470  1.00  0.00    -0.003 C 
ATOM     26  C   UNL     1       5.899  -1.849  18.320  1.00  0.00     0.004 C 
ENDBRANCH  24  25
ENDBRANCH  23  24
ENDBRANCH  22  23
ENDBRANCH  21  22
ENDBRANCH  20  21
ENDBRANCH  19  20
ENDBRANCH  18  19
ENDBRANCH  17  18
ENDBRANCH  16  17
ENDBRANCH  15  16
ENDBRANCH   1  15
TORSDOF 22
ENDMDL
MODEL 5
REMARK VINA RESULT:    -6.261      2.803      8.372
REMARK INTER + INTRA:         -16.875
REMARK INTER:                 -13.834
REMARK INTRA:                  -3.042
REMARK UNBOUND:                -2.563
REMARK SMILES CCCCCCCCCCCCCCCCCCCCCCCC(=O)[O-]
REMARK SMILES IDX 13 1 14 2 15 3 16 4 17 5 18 6 19 7 20 8 21 9 22 10 23 11
REMARK SMILES IDX 24 12 25 13 26 14 12 15 11 16 10 17 9 18 8 19 7 20 6 21 5 22
REMARK SMILES IDX 4 23 3 24 2 25 1 26
REMARK H PARENT
REMARK Flexibility Score: inf
ROOT
ATOM      1  C   UNL     1       2.745   3.019  16.732  1.00  0.00     0.000 C 
ENDROOT
BRANCH   1   2
ATOM      2  C   UNL     1       3.719   2.556  17.827  1.00  0.00     0.000 C 
BRANCH   2   3
ATOM      3  C   UNL     1       3.225   2.912  19.242  1.00  0.00     0.000 C 
BRANCH   3   4
ATOM      4  C   UNL     1       2.079   3.938  19.234  1.00  0.00     0.000 C 
BRANCH   4   5
ATOM      5  C   UNL     1       2.496   5.371  19.611  1.00  0.00     0.000 C 
BRANCH   5   6
ATOM      6  C   UNL     1       2.061   6.416  18.569  1.00  0.00     0.000 C 
BRANCH   6   7
ATOM      7  C   UNL     1       2.217   7.856  19.082  1.00  0.00     0.000 C 
BRANCH   7   8
ATOM      8  C   UNL     1       2.912   8.773  18.059  1.00  0.00     0.000 C 
BRANCH   8   9
ATOM      9  C   UNL     1       3.392   8.013  16.814  1.00  0.00     0.000 C 
BRANCH   9  10
ATOM     10  C   UNL     1       4.713   8.567  16.258  1.00  0.00     0.006 C 
BRANCH  10  11
ATOM     11  C   UNL     1       5.332   7.598  15.246  1.00  0.00     0.053 C 
BRANCH  11  12
ATOM     12  C   UNL     1       5.588   8.286  13.942  1.00  0.00     0.041 C 
ATOM     13  O   UNL     1       6.407   7.802  13.117  1.00  0.00    -0.550 OA
ATOM     14  O   UNL     1       4.933   9.476  13.644  1.00  0.00    -0.550 OA
ENDBRANCH  11  12
ENDBRANCH  10  11
ENDBRANCH   9  10
ENDBRANCH   8   9
ENDBRANCH   7   8
ENDBRANCH   6   7
ENDBRANCH   5   6
ENDBRANCH   4   5
ENDBRANCH   3   4
ENDBRANCH   2   3
ENDBRANCH   1   2
BRANCH   1  15
ATOM     15  C   UNL     1       3.315   4.174  15.893  1.00  0.00     0.000 C 
BRANCH  15  16
ATOM     16  C   UNL     1       3.006   4.018  14.396  1.00  0.00     0.000 C 
BRANCH  16  17
ATOM     17  C   UNL     1       4.280   3.997  13.531  1.00  0.00     0.000 C 
BRANCH  17  18
ATOM     18  C   UNL     1       4.646   2.571  13.065  1.00  0.00    -0.000 C 
BRANCH  18  19
ATOM     19  C   UNL     1       5.444   1.772  14.111  1.00  0.00    -0.000 C 
BRANCH  19  20
ATOM     20  C   UNL     1       5.998   0.453  13.557  1.00  0.00    -0.000 C 
BRANCH  20  21
ATOM     21  C   UNL     1       5.690  -0.715  14.500  1.00  0.00    -0.000 C 
BRANCH  21  22
ATOM     22  C   UNL     1       4.807  -0.257  15.667  1.00  0.00    -0.000 C 
BRANCH  22  23
ATOM     23  C   UNL     1       3.779  -1.337  16.040  1.00  0.00    -0.000 C 
BRANCH  23  24
ATOM     24  C   UNL     1       2.680  -1.493  14.969  1.00  0.00    -0.000 C 
BRANCH  24  25
ATOM     25  C   UNL     1       2.161  -0.156  14.414  1.00  0.00    -0.003 C 
ATOM     26  C   UNL     1       0.792   0.233  14.968  1.00  0.00     0.004 C 
ENDBRANCH  24  25
ENDBRANCH  23  24
ENDBRANCH  22  23
ENDBRANCH  21  22
ENDBRANCH  20  21
ENDBRANCH  19  20
ENDBRANCH  18  19
ENDBRANCH  17  18
ENDBRANCH  16  17
ENDBRANCH  15  16
ENDBRANCH   1  15
TORSDOF 22
ENDMDL
MODEL 6
REMARK VINA RESULT:    -6.258      0.788      1.551
REMARK INTER + INTRA:         -16.868
REMARK INTER:                 -14.195
REMARK INTRA:                  -2.673
REMARK UNBOUND:                -2.563
REMARK SMILES CCCCCCCCCCCCCCCCCCCCCCCC(=O)[O-]
REMARK SMILES IDX 13 1 14 2 15 3 16 4 17 5 18 6 19 7 20 8 21 9 22 10 23 11
REMARK SMILES IDX 24 12 25 13 26 14 12 15 11 16 10 17 9 18 8 19 7 20 6 21 5 22
REMARK SMILES IDX 4 23 3 24 2 25 1 26
REMARK H PARENT
REMARK Flexibility Score: inf
ROOT
ATOM      1  C   UNL     1       3.002   3.333  15.061  1.00  0.00     0.000 C 
ENDROOT
BRANCH   1   2
ATOM      2  C   UNL     1       3.759   4.354  14.195  1.00  0.00     0.000 C 
BRANCH   2   3
ATOM      3  C   UNL     1       4.801   3.687  13.277  1.00  0.00     0.000 C 
BRANCH   3   4
ATOM      4  C   UNL     1       4.494   2.205  13.002  1.00  0.00     0.000 C 
BRANCH   4   5
ATOM      5  C   UNL     1       5.620   1.232  13.394  1.00  0.00     0.000 C 
BRANCH   5   6
ATOM      6  C   UNL     1       5.149  -0.231  13.468  1.00  0.00     0.000 C 
BRANCH   6   7
ATOM      7  C   UNL     1       3.648  -0.350  13.778  1.00  0.00     0.000 C 
BRANCH   7   8
ATOM      8  C   UNL     1       3.345  -0.207  15.281  1.00  0.00     0.000 C 
BRANCH   8   9
ATOM      9  C   UNL     1       3.926  -1.359  16.114  1.00  0.00     0.000 C 
BRANCH   9  10
ATOM     10  C   UNL     1       5.284  -1.007  16.741  1.00  0.00     0.006 C 
BRANCH  10  11
ATOM     11  C   UNL     1       5.279   0.420  17.297  1.00  0.00     0.053 C 
BRANCH  11  12
ATOM     12  C   UNL     1       4.950   0.418  18.757  1.00  0.00     0.041 C 
ATOM     13  O   UNL     1       4.162   1.278  19.233  1.00  0.00    -0.550 OA
ATOM     14  O   UNL     1       5.529  -0.525  19.599  1.00  0.00    -0.550 OA
ENDBRANCH  11  12
ENDBRANCH  10  11
ENDBRANCH   9  10
ENDBRANCH   8   9
ENDBRANCH   7   8
ENDBRANCH   6   7
ENDBRANCH   5   6
ENDBRANCH   4   5
ENDBRANCH   3   4
ENDBRANCH   2   3
ENDBRANCH   1   2
BRANCH   1  15
ATOM     15  C   UNL     1       3.390   3.425  16.546  1.00  0.00     0.000 C 
BRANCH  15  16
ATOM     16  C   UNL     1       2.723   4.616  17.252  1.00  0.00     0.000 C 
BRANCH  16  17
ATOM     17  C   UNL     1       2.526   4.370  18.760  1.00  0.00     0.000 C 
BRANCH  17  18
ATOM     18  C   UNL     1       2.417   5.688  19.557  1.00  0.00    -0.000 C 
BRANCH  18  19
ATOM     19  C   UNL     1       2.041   6.900  18.686  1.00  0.00    -0.000 C 
BRANCH  19  20
ATOM     20  C   UNL     1       2.213   8.237  19.419  1.00  0.00    -0.000 C 
BRANCH  20  21
ATOM     21  C   UNL     1       2.547   9.366  18.438  1.00  0.00    -0.000 C 
BRANCH  21  22
ATOM     22  C   UNL     1       3.918   9.138  17.789  1.00  0.00    -0.000 C 
BRANCH  22  23
ATOM     23  C   UNL     1       3.774   8.787  16.300  1.00  0.00    -0.000 C 
BRANCH  23  24
ATOM     24  C   UNL     1       4.559   7.514  15.919  1.00  0.00    -0.000 C 
BRANCH  24  25
ATOM     25  C   UNL     1       5.992   7.793  15.434  1.00  0.00    -0.003 C 
ATOM     26  C   UNL     1       6.157   7.624  13.926  1.00  0.00     0.004 C 
ENDBRANCH  24  25
ENDBRANCH  23  24
ENDBRANCH  22  23
ENDBRANCH  21  22
ENDBRANCH  20  21
ENDBRANCH  19  20
ENDBRANCH  18  19
ENDBRANCH  17  18
ENDBRANCH  16  17
ENDBRANCH  15  16
ENDBRANCH   1  15
TORSDOF 22
ENDMDL
MODEL 7
REMARK VINA RESULT:    -6.153      1.833      4.718
REMARK INTER + INTRA:         -16.630
REMARK INTER:                 -14.090
REMARK INTRA:                  -2.541
REMARK UNBOUND:                -2.563
REMARK SMILES CCCCCCCCCCCCCCCCCCCCCCCC(=O)[O-]
REMARK SMILES IDX 13 1 14 2 15 3 16 4 17 5 18 6 19 7 20 8 21 9 22 10 23 11
REMARK SMILES IDX 24 12 25 13 26 14 12 15 11 16 10 17 9 18 8 19 7 20 6 21 5 22
REMARK SMILES IDX 4 23 3 24 2 25 1 26
REMARK H PARENT
REMARK Flexibility Score: inf
ROOT
ATOM      1  C   UNL     1       2.632   5.400  17.997  1.00  0.00     0.000 C 
ENDROOT
BRANCH   1   2
ATOM      2  C   UNL     1       2.546   4.499  19.240  1.00  0.00     0.000 C 
BRANCH   2   3
ATOM      3  C   UNL     1       2.482   3.003  18.877  1.00  0.00     0.000 C 
BRANCH   3   4
ATOM      4  C   UNL     1       3.721   2.222  19.347  1.00  0.00     0.000 C 
BRANCH   4   5
ATOM      5  C   UNL     1       4.302   1.252  18.302  1.00  0.00     0.000 C 
BRANCH   5   6
ATOM      6  C   UNL     1       4.854  -0.042  18.927  1.00  0.00     0.000 C 
BRANCH   6   7
ATOM      7  C   UNL     1       5.475  -0.980  17.881  1.00  0.00     0.000 C 
BRANCH   7   8
ATOM      8  C   UNL     1       4.479  -1.368  16.773  1.00  0.00     0.000 C 
BRANCH   8   9
ATOM      9  C   UNL     1       4.996  -1.031  15.367  1.00  0.00     0.000 C 
BRANCH   9  10
ATOM     10  C   UNL     1       4.387   0.265  14.810  1.00  0.00     0.006 C 
BRANCH  10  11
ATOM     11  C   UNL     1       3.102  -0.023  14.029  1.00  0.00     0.053 C 
BRANCH  11  12
ATOM     12  C   UNL     1       1.898   0.381  14.821  1.00  0.00     0.041 C 
ATOM     13  O   UNL     1       1.931   1.410  15.547  1.00  0.00    -0.550 OA
ATOM     14  O   UNL     1       0.743  -0.390  14.772  1.00  0.00    -0.550 OA
ENDBRANCH  11  12
ENDBRANCH  10  11
ENDBRANCH   9  10
ENDBRANCH   8   9
ENDBRANCH   7   8
ENDBRANCH   6   7
ENDBRANCH   5   6
ENDBRANCH   4   5
ENDBRANCH   3   4
ENDBRANCH   2   3
ENDBRANCH   1   2
BRANCH   1  15
ATOM     15  C   UNL     1       2.512   4.603  16.688  1.00  0.00     0.000 C 
BRANCH  15  16
ATOM     16  C   UNL     1       3.797   4.660  15.848  1.00  0.00     0.000 C 
BRANCH  16  17
ATOM     17  C   UNL     1       3.536   4.393  14.353  1.00  0.00     0.000 C 
BRANCH  17  18
ATOM     18  C   UNL     1       4.728   4.817  13.468  1.00  0.00    -0.000 C 
BRANCH  18  19
ATOM     19  C   UNL     1       4.917   6.342  13.386  1.00  0.00    -0.000 C 
BRANCH  19  20
ATOM     20  C   UNL     1       6.189   6.824  14.097  1.00  0.00    -0.000 C 
BRANCH  20  21
ATOM     21  C   UNL     1       5.850   7.582  15.384  1.00  0.00    -0.000 C 
BRANCH  21  22
ATOM     22  C   UNL     1       4.527   8.344  15.237  1.00  0.00    -0.000 C 
BRANCH  22  23
ATOM     23  C   UNL     1       4.246   9.209  16.475  1.00  0.00    -0.000 C 
BRANCH  23  24
ATOM     24  C   UNL     1       3.195   8.572  17.408  1.00  0.00    -0.000 C 
BRANCH  24  25
ATOM     25  C   UNL     1       2.898   9.406  18.666  1.00  0.00    -0.003 C 
ATOM     26  C   UNL     1       1.997   8.685  19.665  1.00  0.00     0.004 C 
ENDBRANCH  24  25
ENDBRANCH  23  24
ENDBRANCH  22  23
ENDBRANCH  21  22
ENDBRANCH  20  21
ENDBRANCH  19  20
ENDBRANCH  18  19
ENDBRANCH  17  18
ENDBRANCH  16  17
ENDBRANCH  15  16
ENDBRANCH   1  15
TORSDOF 22
ENDMDL
MODEL 8
REMARK VINA RESULT:    -6.130      1.914      7.611
REMARK INTER + INTRA:         -16.576
REMARK INTER:                 -14.215
REMARK INTRA:                  -2.361
REMARK UNBOUND:                -2.563
REMARK SMILES CCCCCCCCCCCCCCCCCCCCCCCC(=O)[O-]
REMARK SMILES IDX 13 1 14 2 15 3 16 4 17 5 18 6 19 7 20 8 21 9 22 10 23 11
REMARK SMILES IDX 24 12 25 13 26 14 12 15 11 16 10 17 9 18 8 19 7 20 6 21 5 22
REMARK SMILES IDX 4 23 3 24 2 25 1 26
REMARK H PARENT
REMARK Flexibility Score: inf
ROOT
ATOM      1  C   UNL     1       4.816   5.467  13.945  1.00  0.00     0.000 C 
ENDROOT
BRANCH   1   2
ATOM      2  C   UNL     1       5.451   6.644  13.189  1.00  0.00     0.000 C 
BRANCH   2   3
ATOM      3  C   UNL     1       6.330   7.522  14.100  1.00  0.00     0.000 C 
BRANCH   3   4
ATOM      4  C   UNL     1       5.764   7.658  15.524  1.00  0.00     0.000 C 
BRANCH   4   5
ATOM      5  C   UNL     1       4.620   8.678  15.666  1.00  0.00     0.000 C 
BRANCH   5   6
ATOM      6  C   UNL     1       3.564   8.253  16.702  1.00  0.00     0.000 C 
BRANCH   6   7
ATOM      7  C   UNL     1       3.486   9.222  17.892  1.00  0.00     0.000 C 
BRANCH   7   8
ATOM      8  C   UNL     1       2.191   9.052  18.707  1.00  0.00     0.000 C 
BRANCH   8   9
ATOM      9  C   UNL     1       2.229   7.825  19.629  1.00  0.00     0.000 C 
BRANCH   9  10
ATOM     10  C   UNL     1       2.024   6.507  18.866  1.00  0.00     0.006 C 
BRANCH  10  11
ATOM     11  C   UNL     1       2.635   5.329  19.631  1.00  0.00     0.053 C 
BRANCH  11  12
ATOM     12  C   UNL     1       1.794   4.101  19.473  1.00  0.00     0.041 C 
ATOM     13  O   UNL     1       0.569   4.200  19.200  1.00  0.00    -0.550 OA
ATOM     14  O   UNL     1       2.361   2.844  19.646  1.00  0.00    -0.550 OA
ENDBRANCH  11  12
ENDBRANCH  10  11
ENDBRANCH   9  10
ENDBRANCH   8   9
ENDBRANCH   7   8
ENDBRANCH   6   7
ENDBRANCH   5   6
ENDBRANCH   4   5
ENDBRANCH   3   4
ENDBRANCH   2   3
ENDBRANCH   1   2
BRANCH   1  15
ATOM     15  C   UNL     1       4.528   4.269  13.025  1.00  0.00     0.000 C 
BRANCH  15  16
ATOM     16  C   UNL     1       3.931   3.076  13.787  1.00  0.00     0.000 C 
BRANCH  16  17
ATOM     17  C   UNL     1       3.099   3.514  15.008  1.00  0.00     0.000 C 
BRANCH  17  18
ATOM     18  C   UNL     1       3.642   2.922  16.327  1.00  0.00    -0.000 C 
BRANCH  18  19
ATOM     19  C   UNL     1       4.718   1.842  16.116  1.00  0.00    -0.000 C 
BRANCH  19  20
ATOM     20  C   UNL     1       4.886   0.921  17.331  1.00  0.00    -0.000 C 
BRANCH  20  21
ATOM     21  C   UNL     1       4.947  -0.549  16.906  1.00  0.00    -0.000 C 
BRANCH  21  22
ATOM     22  C   UNL     1       5.198  -0.672  15.398  1.00  0.00    -0.000 C 
BRANCH  22  23
ATOM     23  C   UNL     1       4.250  -1.701  14.762  1.00  0.00    -0.000 C 
BRANCH  23  24
ATOM     24  C   UNL     1       2.773  -1.436  15.119  1.00  0.00    -0.000 C 
BRANCH  24  25
ATOM     25  C   UNL     1       2.184  -0.191  14.434  1.00  0.00    -0.003 C 
ATOM     26  C   UNL     1       0.747   0.102  14.855  1.00  0.00     0.004 C 
ENDBRANCH  24  25
ENDBRANCH  23  24
ENDBRANCH  22  23
ENDBRANCH  21  22
ENDBRANCH  20  21
ENDBRANCH  19  20
ENDBRANCH  18  19
ENDBRANCH  17  18
ENDBRANCH  16  17
ENDBRANCH  15  16
ENDBRANCH   1  15
TORSDOF 22
ENDMDL
MODEL 9
REMARK VINA RESULT:    -6.047      2.544      8.157
REMARK INTER + INTRA:         -16.388
REMARK INTER:                 -14.000
REMARK INTRA:                  -2.387
REMARK UNBOUND:                -2.563
REMARK SMILES CCCCCCCCCCCCCCCCCCCCCCCC(=O)[O-]
REMARK SMILES IDX 13 1 14 2 15 3 16 4 17 5 18 6 19 7 20 8 21 9 22 10 23 11
REMARK SMILES IDX 24 12 25 13 26 14 12 15 11 16 10 17 9 18 8 19 7 20 6 21 5 22
REMARK SMILES IDX 4 23 3 24 2 25 1 26
REMARK H PARENT
REMARK Flexibility Score: inf
ROOT
ATOM      1  C   UNL     1       3.976   1.922  18.869  1.00  0.00     0.000 C 
ENDROOT
BRANCH   1   2
ATOM      2  C   UNL     1       2.803   2.861  19.193  1.00  0.00     0.000 C 
BRANCH   2   3
ATOM      3  C   UNL     1       2.965   4.249  18.544  1.00  0.00     0.000 C 
BRANCH   3   4
ATOM      4  C   UNL     1       2.186   5.349  19.285  1.00  0.00     0.000 C 
BRANCH   4   5
ATOM      5  C   UNL     1       2.225   6.731  18.608  1.00  0.00     0.000 C 
BRANCH   5   6
ATOM      6  C   UNL     1       2.217   7.893  19.617  1.00  0.00     0.000 C 
BRANCH   6   7
ATOM      7  C   UNL     1       2.607   9.232  18.973  1.00  0.00     0.000 C 
BRANCH   7   8
ATOM      8  C   UNL     1       2.797   9.119  17.449  1.00  0.00     0.000 C 
BRANCH   8   9
ATOM      9  C   UNL     1       4.238   8.759  17.058  1.00  0.00     0.000 C 
BRANCH   9  10
ATOM     10  C   UNL     1       4.449   8.741  15.536  1.00  0.00     0.006 C 
BRANCH  10  11
ATOM     11  C   UNL     1       5.427   7.634  15.130  1.00  0.00     0.053 C 
BRANCH  11  12
ATOM     12  C   UNL     1       5.829   7.783  13.696  1.00  0.00     0.041 C 
ATOM     13  O   UNL     1       5.798   6.791  12.921  1.00  0.00    -0.550 OA
ATOM     14  O   UNL     1       6.257   9.016  13.218  1.00  0.00    -0.550 OA
ENDBRANCH  11  12
ENDBRANCH  10  11
ENDBRANCH   9  10
ENDBRANCH   8   9
ENDBRANCH   7   8
ENDBRANCH   6   7
ENDBRANCH   5   6
ENDBRANCH   4   5
ENDBRANCH   3   4
ENDBRANCH   2   3
ENDBRANCH   1   2
BRANCH   1  15
ATOM     15  C   UNL     1       4.106   1.647  17.362  1.00  0.00     0.000 C 
BRANCH  15  16
ATOM     16  C   UNL     1       5.259   0.684  17.040  1.00  0.00     0.000 C 
BRANCH  16  17
ATOM     17  C   UNL     1       4.802  -0.787  16.995  1.00  0.00     0.000 C 
BRANCH  17  18
ATOM     18  C   UNL     1       3.755  -1.039  15.889  1.00  0.00    -0.000 C 
BRANCH  18  19
ATOM     19  C   UNL     1       4.336  -1.735  14.645  1.00  0.00    -0.000 C 
BRANCH  19  20
ATOM     20  C   UNL     1       4.527  -0.777  13.461  1.00  0.00    -0.000 C 
BRANCH  20  21
ATOM     21  C   UNL     1       5.955  -0.223  13.424  1.00  0.00    -0.000 C 
BRANCH  21  22
ATOM     22  C   UNL     1       5.945   1.301  13.252  1.00  0.00    -0.000 C 
BRANCH  22  23
ATOM     23  C   UNL     1       4.512   1.854  13.293  1.00  0.00    -0.000 C 
BRANCH  23  24
ATOM     24  C   UNL     1       4.477   3.396  13.243  1.00  0.00    -0.000 C 
BRANCH  24  25
ATOM     25  C   UNL     1       4.081   4.049  14.578  1.00  0.00    -0.003 C 
ATOM     26  C   UNL     1       2.602   3.877  14.914  1.00  0.00     0.004 C 
ENDBRANCH  24  25
ENDBRANCH  23  24
ENDBRANCH  22  23
ENDBRANCH  21  22
ENDBRANCH  20  21
ENDBRANCH  19  20
ENDBRANCH  18  19
ENDBRANCH  17  18
ENDBRANCH  16  17
ENDBRANCH  15  16
ENDBRANCH   1  15
TORSDOF 22
ENDMDL
