MODEL 1
REMARK VINA RESULT:    -3.225      0.000      0.000
REMARK INTER + INTRA:          -4.804
REMARK INTER:                  -4.921
REMARK INTRA:                   0.117
REMARK UNBOUND:                 0.117
REMARK SMILES CC1=CCC[C@@H](C)C(=O)C[C@@H](C(C)C)C(=O)C1
REMARK SMILES IDX 8 1 9 2 6 3 7 4 5 5 4 6 3 7 2 8 1 9 10 11 11 12 15 13 16 14
REMARK SMILES IDX 17 15 12 17 13 18 14 19
REMARK H PARENT
REMARK Flexibility Score: 70.00
ROOT
ATOM      1  C   UNL     1       0.875  14.110   3.735  1.00  0.00     0.136 C 
ATOM      2  O   UNL     1       1.356  13.069   3.311  1.00  0.00    -0.299 OA
ENDROOT
BRANCH   1   3
ATOM      3  C   UNL     1       1.321  15.426   3.141  1.00  0.00     0.053 C 
ATOM      4  C   UNL     1       2.780  15.721   3.505  1.00  0.00     0.016 C 
BRANCH   3   5
ATOM      5  C   UNL     1       0.374  16.556   3.628  1.00  0.00     0.015 C 
BRANCH   5   6
ATOM      6  C   UNL     1      -0.661  17.024   2.592  1.00  0.00     0.028 C 
BRANCH   6   7
ATOM      7  C   UNL     1      -0.906  16.079   1.434  1.00  0.00    -0.028 C 
ATOM      8  C   UNL     1      -1.717  14.995   1.434  1.00  0.00    -0.070 CG0
ATOM      9  C   UNL     1      -1.931  14.288   0.118  1.00  0.00     0.039 C 
ATOM     10  G   UNL     1      -2.445  14.483   2.667  1.00  0.00     0.000 G0
ENDBRANCH   6   7
ENDBRANCH   5   6
ENDBRANCH   3   5
ENDBRANCH   1   3
BRANCH   1  11
ATOM     11  C   UNL     1      -0.153  14.041   4.843  1.00  0.00     0.087 C 
BRANCH  11  12
ATOM     12  C   UNL     1      -1.295  13.007   4.615  1.00  0.00     0.066 C 
BRANCH  12  13
ATOM     13  C   UNL     1      -1.958  13.153   3.244  1.00  0.00     0.140 C 
ATOM     14  O   UNL     1      -2.077  12.157   2.543  1.00  0.00    -0.299 OA
BRANCH  13  15
ATOM     15  C   UNL     1      -2.468  14.472   2.679  1.00  0.00     0.106 CG0
ATOM     16  G   UNL     1      -1.713  14.995   1.467  1.00  0.00     0.000 G0
ENDBRANCH  13  15
ENDBRANCH  12  13
BRANCH  12  17
ATOM     17  C   UNL     1      -2.328  13.057   5.788  1.00  0.00    -0.006 C 
ATOM     18  C   UNL     1      -1.663  12.769   7.140  1.00  0.00     0.008 C 
ATOM     19  C   UNL     1      -3.542  12.125   5.607  1.00  0.00     0.008 C 
ENDBRANCH  12  17
ENDBRANCH  11  12
ENDBRANCH   1  11
TORSDOF 1
ENDMDL
MODEL 2
REMARK VINA RESULT:    -3.205      1.883      3.550
REMARK INTER + INTRA:          -4.774
REMARK INTER:                  -4.404
REMARK INTRA:                  -0.370
REMARK UNBOUND:                 0.117
REMARK SMILES CC1=CCC[C@@H](C)C(=O)C[C@@H](C(C)C)C(=O)C1
REMARK SMILES IDX 8 1 9 2 6 3 7 4 5 5 4 6 3 7 2 8 1 9 10 11 11 12 15 13 16 14
REMARK SMILES IDX 17 15 12 17 13 18 14 19
REMARK H PARENT
REMARK Flexibility Score: 70.00
ROOT
ATOM      1  C   UNL     1      -1.640  13.318   2.372  1.00  0.00     0.136 C 
ATOM      2  O   UNL     1      -0.666  12.657   2.039  1.00  0.00    -0.299 OA
ENDROOT
BRANCH   1   3
ATOM      3  C   UNL     1      -2.148  14.402   1.449  1.00  0.00     0.053 C 
ATOM      4  C   UNL     1      -2.708  13.799   0.156  1.00  0.00     0.016 C 
BRANCH   3   5
ATOM      5  C   UNL     1      -1.001  15.408   1.158  1.00  0.00     0.015 C 
BRANCH   5   6
ATOM      6  C   UNL     1      -0.673  16.366   2.314  1.00  0.00     0.028 C 
BRANCH   6   7
ATOM      7  C   UNL     1       0.677  16.166   2.971  1.00  0.00    -0.028 C 
ATOM      8  C   UNL     1       0.904  15.845   4.267  1.00  0.00    -0.070 CG0
ATOM      9  C   UNL     1       2.327  15.541   4.667  1.00  0.00     0.039 C 
ATOM     10  G   UNL     1      -0.191  15.736   5.316  1.00  0.00     0.000 G0
ENDBRANCH   6   7
ENDBRANCH   5   6
ENDBRANCH   3   5
ENDBRANCH   1   3
BRANCH   1  11
ATOM     11  C   UNL     1      -2.302  13.025   3.700  1.00  0.00     0.087 C 
BRANCH  11  12
ATOM     12  C   UNL     1      -2.306  14.213   4.707  1.00  0.00     0.066 C 
BRANCH  12  13
ATOM     13  C   UNL     1      -0.943  14.434   5.366  1.00  0.00     0.140 C 
ATOM     14  O   UNL     1      -0.430  13.504   5.972  1.00  0.00    -0.299 OA
BRANCH  13  15
ATOM     15  C   UNL     1      -0.185  15.754   5.335  1.00  0.00     0.106 CG0
ATOM     16  G   UNL     1       0.896  15.859   4.271  1.00  0.00     0.000 G0
ENDBRANCH  13  15
ENDBRANCH  12  13
BRANCH  12  17
ATOM     17  C   UNL     1      -3.457  14.048   5.753  1.00  0.00    -0.006 C 
ATOM     18  C   UNL     1      -3.815  12.572   5.971  1.00  0.00     0.008 C 
ATOM     19  C   UNL     1      -4.737  14.841   5.422  1.00  0.00     0.008 C 
ENDBRANCH  12  17
ENDBRANCH  11  12
ENDBRANCH   1  11
TORSDOF 1
ENDMDL
MODEL 3
REMARK VINA RESULT:    -3.126     10.660     12.594
REMARK INTER + INTRA:          -4.654
REMARK INTER:                  -4.059
REMARK INTRA:                  -0.595
REMARK UNBOUND:                 0.117
REMARK SMILES CC1=CCC[C@@H](C)C(=O)C[C@@H](C(C)C)C(=O)C1
REMARK SMILES IDX 8 1 9 2 6 3 7 4 5 5 4 6 3 7 2 8 1 9 10 11 11 12 15 13 16 14
REMARK SMILES IDX 17 15 12 17 13 18 14 19
REMARK H PARENT
REMARK Flexibility Score: 70.00
ROOT
ATOM      1  C   UNL     1       0.864   5.195  -6.470  1.00  0.00     0.136 C 
ATOM      2  O   UNL     1       0.944   4.610  -7.541  1.00  0.00    -0.299 OA
ENDROOT
BRANCH   1   3
ATOM      3  C   UNL     1       2.087   5.291  -5.587  1.00  0.00     0.053 C 
ATOM      4  C   UNL     1       3.162   6.168  -6.238  1.00  0.00     0.016 C 
BRANCH   3   5
ATOM      5  C   UNL     1       2.620   3.863  -5.291  1.00  0.00     0.015 C 
BRANCH   5   6
ATOM      6  C   UNL     1       1.784   3.056  -4.285  1.00  0.00     0.028 C 
BRANCH   6   7
ATOM      7  C   UNL     1       1.611   3.686  -2.918  1.00  0.00    -0.028 C 
ATOM      8  C   UNL     1       0.462   4.175  -2.393  1.00  0.00    -0.070 CG0
ATOM      9  C   UNL     1       0.490   4.613  -0.950  1.00  0.00     0.039 C 
ATOM     10  G   UNL     1      -0.846   4.266  -3.162  1.00  0.00     0.000 G0
ENDBRANCH   6   7
ENDBRANCH   5   6
ENDBRANCH   3   5
ENDBRANCH   1   3
BRANCH   1  11
ATOM     11  C   UNL     1      -0.461   5.802  -6.066  1.00  0.00     0.087 C 
BRANCH  11  12
ATOM     12  C   UNL     1      -0.471   6.487  -4.668  1.00  0.00     0.066 C 
BRANCH  12  13
ATOM     13  C   UNL     1      -1.249   5.686  -3.623  1.00  0.00     0.140 C 
ATOM     14  O   UNL     1      -2.232   6.198  -3.106  1.00  0.00    -0.299 OA
BRANCH  13  15
ATOM     15  C   UNL     1      -0.865   4.286  -3.162  1.00  0.00     0.106 CG0
ATOM     16  G   UNL     1       0.443   4.189  -2.394  1.00  0.00     0.000 G0
ENDBRANCH  13  15
ENDBRANCH  12  13
BRANCH  12  17
ATOM     17  C   UNL     1      -0.967   7.966  -4.780  1.00  0.00    -0.006 C 
ATOM     18  C   UNL     1      -1.489   8.282  -6.187  1.00  0.00     0.008 C 
ATOM     19  C   UNL     1       0.081   9.021  -4.374  1.00  0.00     0.008 C 
ENDBRANCH  12  17
ENDBRANCH  11  12
ENDBRANCH   1  11
TORSDOF 1
ENDMDL
MODEL 4
REMARK VINA RESULT:    -3.066     11.428     12.918
REMARK INTER + INTRA:          -4.561
REMARK INTER:                  -3.945
REMARK INTRA:                  -0.617
REMARK UNBOUND:                 0.117
REMARK SMILES CC1=CCC[C@@H](C)C(=O)C[C@@H](C(C)C)C(=O)C1
REMARK SMILES IDX 8 1 9 2 6 3 7 4 5 5 4 6 3 7 2 8 1 9 10 11 11 12 15 13 16 14
REMARK SMILES IDX 17 15 12 17 13 18 14 19
REMARK H PARENT
REMARK Flexibility Score: 70.00
ROOT
ATOM      1  C   UNL     1      -1.261   3.820  -2.672  1.00  0.00     0.136 C 
ATOM      2  O   UNL     1      -2.407   3.633  -2.288  1.00  0.00    -0.299 OA
ENDROOT
BRANCH   1   3
ATOM      3  C   UNL     1      -0.495   5.017  -2.156  1.00  0.00     0.053 C 
ATOM      4  C   UNL     1      -0.363   4.963  -0.630  1.00  0.00     0.016 C 
BRANCH   3   5
ATOM      5  C   UNL     1      -1.202   6.319  -2.622  1.00  0.00     0.015 C 
BRANCH   5   6
ATOM      6  C   UNL     1      -1.249   6.519  -4.145  1.00  0.00     0.028 C 
BRANCH   6   7
ATOM      7  C   UNL     1       0.073   6.843  -4.808  1.00  0.00    -0.028 C 
ATOM      8  C   UNL     1       0.737   6.075  -5.704  1.00  0.00    -0.070 CG0
ATOM      9  C   UNL     1       1.962   6.670  -6.355  1.00  0.00     0.039 C 
ATOM     10  G   UNL     1       0.295   4.679  -6.113  1.00  0.00     0.000 G0
ENDBRANCH   6   7
ENDBRANCH   5   6
ENDBRANCH   3   5
ENDBRANCH   1   3
BRANCH   1  11
ATOM     11  C   UNL     1      -0.650   2.844  -3.653  1.00  0.00     0.087 C 
BRANCH  11  12
ATOM     12  C   UNL     1       0.843   3.112  -4.002  1.00  0.00     0.066 C 
BRANCH  12  13
ATOM     13  C   UNL     1       1.043   3.528  -5.461  1.00  0.00     0.140 C 
ATOM     14  O   UNL     1       1.858   2.916  -6.137  1.00  0.00    -0.299 OA
BRANCH  13  15
ATOM     15  C   UNL     1       0.302   4.679  -6.129  1.00  0.00     0.106 CG0
ATOM     16  G   UNL     1       0.742   6.070  -5.703  1.00  0.00     0.000 G0
ENDBRANCH  13  15
ENDBRANCH  12  13
BRANCH  12  17
ATOM     17  C   UNL     1       1.734   1.891  -3.600  1.00  0.00    -0.006 C 
ATOM     18  C   UNL     1       0.897   0.620  -3.407  1.00  0.00     0.008 C 
ATOM     19  C   UNL     1       2.606   2.123  -2.351  1.00  0.00     0.008 C 
ENDBRANCH  12  17
ENDBRANCH  11  12
ENDBRANCH   1  11
TORSDOF 1
ENDMDL
MODEL 5
REMARK VINA RESULT:    -3.034     10.030     11.473
REMARK INTER + INTRA:          -4.512
REMARK INTER:                  -4.074
REMARK INTRA:                  -0.438
REMARK UNBOUND:                 0.117
REMARK SMILES CC1=CCC[C@@H](C)C(=O)C[C@@H](C(C)C)C(=O)C1
REMARK SMILES IDX 8 1 9 2 6 3 7 4 5 5 4 6 3 7 2 8 1 9 10 11 11 12 15 13 16 14
REMARK SMILES IDX 17 15 12 17 13 18 14 19
REMARK H PARENT
REMARK Flexibility Score: 70.00
ROOT
ATOM      1  C   UNL     1       2.540   6.637  -4.423  1.00  0.00     0.136 C 
ATOM      2  O   UNL     1       3.613   6.433  -4.973  1.00  0.00    -0.299 OA
ENDROOT
BRANCH   1   3
ATOM      3  C   UNL     1       2.485   7.557  -3.225  1.00  0.00     0.053 C 
ATOM      4  C   UNL     1       3.118   8.914  -3.552  1.00  0.00     0.016 C 
BRANCH   3   5
ATOM      5  C   UNL     1       3.190   6.875  -2.022  1.00  0.00     0.015 C 
BRANCH   5   6
ATOM      6  C   UNL     1       2.814   5.401  -1.803  1.00  0.00     0.028 C 
BRANCH   6   7
ATOM      7  C   UNL     1       1.622   5.153  -0.902  1.00  0.00    -0.028 C 
ATOM      8  C   UNL     1       0.410   4.679  -1.278  1.00  0.00    -0.070 CG0
ATOM      9  C   UNL     1      -0.580   4.361  -0.186  1.00  0.00     0.039 C 
ATOM     10  G   UNL     1       0.016   4.417  -2.723  1.00  0.00     0.000 G0
ENDBRANCH   6   7
ENDBRANCH   5   6
ENDBRANCH   3   5
ENDBRANCH   1   3
BRANCH   1  11
ATOM     11  C   UNL     1       1.301   5.957  -4.965  1.00  0.00     0.087 C 
BRANCH  11  12
ATOM     12  C   UNL     1      -0.045   6.499  -4.399  1.00  0.00     0.066 C 
BRANCH  12  13
ATOM     13  C   UNL     1      -0.717   5.520  -3.435  1.00  0.00     0.140 C 
ATOM     14  O   UNL     1      -1.912   5.650  -3.209  1.00  0.00    -0.299 OA
BRANCH  13  15
ATOM     15  C   UNL     1       0.014   4.396  -2.714  1.00  0.00     0.106 CG0
ATOM     16  G   UNL     1       0.414   4.695  -1.278  1.00  0.00     0.000 G0
ENDBRANCH  13  15
ENDBRANCH  12  13
BRANCH  12  17
ATOM     17  C   UNL     1      -0.994   6.943  -5.561  1.00  0.00    -0.006 C 
ATOM     18  C   UNL     1      -0.401   6.608  -6.935  1.00  0.00     0.008 C 
ATOM     19  C   UNL     1      -1.391   8.431  -5.525  1.00  0.00     0.008 C 
ENDBRANCH  12  17
ENDBRANCH  11  12
ENDBRANCH   1  11
TORSDOF 1
ENDMDL
MODEL 6
REMARK VINA RESULT:    -2.931     10.046     11.954
REMARK INTER + INTRA:          -4.356
REMARK INTER:                  -3.921
REMARK INTRA:                  -0.435
REMARK UNBOUND:                 0.117
REMARK SMILES CC1=CCC[C@@H](C)C(=O)C[C@@H](C(C)C)C(=O)C1
REMARK SMILES IDX 8 1 9 2 6 3 7 4 5 5 4 6 3 7 2 8 1 9 10 11 11 12 15 13 16 14
REMARK SMILES IDX 17 15 12 17 13 18 14 19
REMARK H PARENT
REMARK Flexibility Score: 70.00
ROOT
ATOM      1  C   UNL     1       0.240   8.797  -4.375  1.00  0.00     0.136 C 
ATOM      2  O   UNL     1      -0.255   9.874  -4.075  1.00  0.00    -0.299 OA
ENDROOT
BRANCH   1   3
ATOM      3  C   UNL     1      -0.599   7.775  -5.106  1.00  0.00     0.053 C 
ATOM      4  C   UNL     1      -1.341   8.419  -6.282  1.00  0.00     0.016 C 
BRANCH   3   5
ATOM      5  C   UNL     1      -1.585   7.110  -4.107  1.00  0.00     0.015 C 
BRANCH   5   6
ATOM      6  C   UNL     1      -0.935   6.143  -3.104  1.00  0.00     0.028 C 
BRANCH   6   7
ATOM      7  C   UNL     1      -0.307   4.901  -3.700  1.00  0.00    -0.028 C 
ATOM      8  C   UNL     1       1.017   4.629  -3.792  1.00  0.00    -0.070 CG0
ATOM      9  C   UNL     1       1.411   3.258  -4.281  1.00  0.00     0.039 C 
ATOM     10  G   UNL     1       2.110   5.608  -3.397  1.00  0.00     0.000 G0
ENDBRANCH   6   7
ENDBRANCH   5   6
ENDBRANCH   3   5
ENDBRANCH   1   3
BRANCH   1  11
ATOM     11  C   UNL     1       1.681   8.527  -4.001  1.00  0.00     0.087 C 
BRANCH  11  12
ATOM     12  C   UNL     1       2.490   7.711  -5.053  1.00  0.00     0.066 C 
BRANCH  12  13
ATOM     13  C   UNL     1       2.824   6.297  -4.575  1.00  0.00     0.140 C 
ATOM     14  O   UNL     1       3.685   5.666  -5.172  1.00  0.00    -0.299 OA
BRANCH  13  15
ATOM     15  C   UNL     1       2.132   5.607  -3.407  1.00  0.00     0.106 CG0
ATOM     16  G   UNL     1       1.027   4.635  -3.787  1.00  0.00     0.000 G0
ENDBRANCH  13  15
ENDBRANCH  12  13
BRANCH  12  17
ATOM     17  C   UNL     1       3.758   8.504  -5.511  1.00  0.00    -0.006 C 
ATOM     18  C   UNL     1       4.278   9.428  -4.402  1.00  0.00     0.008 C 
ATOM     19  C   UNL     1       3.568   9.316  -6.806  1.00  0.00     0.008 C 
ENDBRANCH  12  17
ENDBRANCH  11  12
ENDBRANCH   1  11
TORSDOF 1
ENDMDL
MODEL 7
REMARK VINA RESULT:    -2.921     10.153     11.791
REMARK INTER + INTRA:          -4.341
REMARK INTER:                  -4.134
REMARK INTRA:                  -0.207
REMARK UNBOUND:                 0.117
REMARK SMILES CC1=CCC[C@@H](C)C(=O)C[C@@H](C(C)C)C(=O)C1
REMARK SMILES IDX 8 1 9 2 6 3 7 4 5 5 4 6 3 7 2 8 1 9 10 11 11 12 15 13 16 14
REMARK SMILES IDX 17 15 12 17 13 18 14 19
REMARK H PARENT
REMARK Flexibility Score: 70.00
ROOT
ATOM      1  C   UNL     1      -1.198   5.877  -3.354  1.00  0.00     0.136 C 
ATOM      2  O   UNL     1      -2.407   5.745  -3.229  1.00  0.00    -0.299 OA
ENDROOT
BRANCH   1   3
ATOM      3  C   UNL     1      -0.301   4.673  -3.180  1.00  0.00     0.053 C 
ATOM      4  C   UNL     1      -1.124   3.425  -2.842  1.00  0.00     0.016 C 
BRANCH   3   5
ATOM      5  C   UNL     1       0.755   4.973  -2.082  1.00  0.00     0.015 C 
BRANCH   5   6
ATOM      6  C   UNL     1       2.204   4.644  -2.471  1.00  0.00     0.028 C 
BRANCH   6   7
ATOM      7  C   UNL     1       3.248   5.654  -2.043  1.00  0.00    -0.028 C 
ATOM      8  C   UNL     1       3.623   6.765  -2.721  1.00  0.00    -0.070 CG0
ATOM      9  C   UNL     1       4.570   7.713  -2.030  1.00  0.00     0.039 C 
ATOM     10  G   UNL     1       3.113   7.121  -4.109  1.00  0.00     0.000 G0
ENDBRANCH   6   7
ENDBRANCH   5   6
ENDBRANCH   3   5
ENDBRANCH   1   3
BRANCH   1  11
ATOM     11  C   UNL     1      -0.643   7.246  -3.678  1.00  0.00     0.087 C 
BRANCH  11  12
ATOM     12  C   UNL     1       0.507   7.255  -4.729  1.00  0.00     0.066 C 
BRANCH  12  13
ATOM     13  C   UNL     1       1.800   7.864  -4.185  1.00  0.00     0.140 C 
ATOM     14  O   UNL     1       1.780   9.022  -3.791  1.00  0.00    -0.299 OA
BRANCH  13  15
ATOM     15  C   UNL     1       3.129   7.124  -4.120  1.00  0.00     0.106 CG0
ATOM     16  G   UNL     1       3.609   6.770  -2.721  1.00  0.00     0.000 G0
ENDBRANCH  13  15
ENDBRANCH  12  13
BRANCH  12  17
ATOM     17  C   UNL     1       0.037   7.937  -6.056  1.00  0.00    -0.006 C 
ATOM     18  C   UNL     1      -1.381   8.510  -5.927  1.00  0.00     0.008 C 
ATOM     19  C   UNL     1       0.109   7.028  -7.299  1.00  0.00     0.008 C 
ENDBRANCH  12  17
ENDBRANCH  11  12
ENDBRANCH   1  11
TORSDOF 1
ENDMDL
MODEL 8
REMARK VINA RESULT:    -2.920     10.371     11.728
REMARK INTER + INTRA:          -4.339
REMARK INTER:                  -4.070
REMARK INTRA:                  -0.269
REMARK UNBOUND:                 0.117
REMARK SMILES CC1=CCC[C@@H](C)C(=O)C[C@@H](C(C)C)C(=O)C1
REMARK SMILES IDX 8 1 9 2 6 3 7 4 5 5 4 6 3 7 2 8 1 9 10 11 11 12 15 13 16 14
REMARK SMILES IDX 17 15 12 17 13 18 14 19
REMARK H PARENT
REMARK Flexibility Score: 70.00
ROOT
ATOM      1  C   UNL     1      -1.006   6.417  -3.968  1.00  0.00     0.136 C 
ATOM      2  O   UNL     1      -1.906   6.902  -3.298  1.00  0.00    -0.299 OA
ENDROOT
BRANCH   1   3
ATOM      3  C   UNL     1      -0.543   7.134  -5.216  1.00  0.00     0.053 C 
ATOM      4  C   UNL     1      -1.662   8.014  -5.784  1.00  0.00     0.016 C 
BRANCH   3   5
ATOM      5  C   UNL     1      -0.055   6.090  -6.257  1.00  0.00     0.015 C 
BRANCH   5   6
ATOM      6  C   UNL     1       1.412   6.244  -6.686  1.00  0.00     0.028 C 
BRANCH   6   7
ATOM      7  C   UNL     1       2.310   6.979  -5.713  1.00  0.00    -0.028 C 
ATOM      8  C   UNL     1       2.861   6.474  -4.583  1.00  0.00    -0.070 CG0
ATOM      9  C   UNL     1       3.852   7.342  -3.847  1.00  0.00     0.039 C 
ATOM     10  G   UNL     1       2.567   5.082  -4.048  1.00  0.00     0.000 G0
ENDBRANCH   6   7
ENDBRANCH   5   6
ENDBRANCH   3   5
ENDBRANCH   1   3
BRANCH   1  11
ATOM     11  C   UNL     1      -0.387   5.111  -3.522  1.00  0.00     0.087 C 
BRANCH  11  12
ATOM     12  C   UNL     1       0.545   5.217  -2.278  1.00  0.00     0.066 C 
BRANCH  12  13
ATOM     13  C   UNL     1       2.021   5.020  -2.627  1.00  0.00     0.140 C 
ATOM     14  O   UNL     1       2.816   4.827  -1.718  1.00  0.00    -0.299 OA
BRANCH  13  15
ATOM     15  C   UNL     1       2.577   5.072  -4.044  1.00  0.00     0.106 CG0
ATOM     16  G   UNL     1       2.862   6.465  -4.581  1.00  0.00     0.000 G0
ENDBRANCH  13  15
ENDBRANCH  12  13
BRANCH  12  17
ATOM     17  C   UNL     1       0.064   4.254  -1.144  1.00  0.00    -0.006 C 
ATOM     18  C   UNL     1      -1.231   3.528  -1.529  1.00  0.00     0.008 C 
ATOM     19  C   UNL     1      -0.118   4.929   0.230  1.00  0.00     0.008 C 
ENDBRANCH  12  17
ENDBRANCH  11  12
ENDBRANCH   1  11
TORSDOF 1
ENDMDL
MODEL 9
REMARK VINA RESULT:    -2.875      9.908     11.909
REMARK INTER + INTRA:          -4.270
REMARK INTER:                  -4.243
REMARK INTRA:                  -0.027
REMARK UNBOUND:                 0.117
REMARK SMILES CC1=CCC[C@@H](C)C(=O)C[C@@H](C(C)C)C(=O)C1
REMARK SMILES IDX 8 1 9 2 6 3 7 4 5 5 4 6 3 7 2 8 1 9 10 11 11 12 15 13 16 14
REMARK SMILES IDX 17 15 12 17 13 18 14 19
REMARK H PARENT
REMARK Flexibility Score: 70.00
ROOT
ATOM      1  C   UNL     1      -1.282   7.295  -4.804  1.00  0.00     0.136 C 
ATOM      2  O   UNL     1      -2.118   6.933  -3.989  1.00  0.00    -0.299 OA
ENDROOT
BRANCH   1   3
ATOM      3  C   UNL     1      -0.986   8.770  -4.954  1.00  0.00     0.053 C 
ATOM      4  C   UNL     1      -0.681   9.118  -6.415  1.00  0.00     0.016 C 
BRANCH   3   5
ATOM      5  C   UNL     1       0.192   9.155  -4.019  1.00  0.00     0.015 C 
BRANCH   5   6
ATOM      6  C   UNL     1       1.583   9.086  -4.670  1.00  0.00     0.028 C 
BRANCH   6   7
ATOM      7  C   UNL     1       2.700   8.576  -3.784  1.00  0.00    -0.028 C 
ATOM      8  C   UNL     1       3.166   7.306  -3.721  1.00  0.00    -0.070 CG0
ATOM      9  C   UNL     1       4.393   7.057  -2.880  1.00  0.00     0.039 C 
ATOM     10  G   UNL     1       2.548   6.140  -4.477  1.00  0.00     0.000 G0
ENDBRANCH   6   7
ENDBRANCH   5   6
ENDBRANCH   3   5
ENDBRANCH   1   3
BRANCH   1  11
ATOM     11  C   UNL     1      -0.571   6.250  -5.635  1.00  0.00     0.087 C 
BRANCH  11  12
ATOM     12  C   UNL     1       0.098   5.105  -4.817  1.00  0.00     0.066 C 
BRANCH  12  13
ATOM     13  C   UNL     1       1.250   5.600  -3.942  1.00  0.00     0.140 C 
ATOM     14  O   UNL     1       1.112   5.581  -2.727  1.00  0.00    -0.299 OA
BRANCH  13  15
ATOM     15  C   UNL     1       2.565   6.142  -4.489  1.00  0.00     0.106 CG0
ATOM     16  G   UNL     1       3.158   7.310  -3.718  1.00  0.00     0.000 G0
ENDBRANCH  13  15
ENDBRANCH  12  13
BRANCH  12  17
ATOM     17  C   UNL     1       0.522   3.929  -5.757  1.00  0.00    -0.006 C 
ATOM     18  C   UNL     1       0.287   4.272  -7.234  1.00  0.00     0.008 C 
ATOM     19  C   UNL     1      -0.149   2.581  -5.432  1.00  0.00     0.008 C 
ENDBRANCH  12  17
ENDBRANCH  11  12
ENDBRANCH   1  11
TORSDOF 1
ENDMDL
