MODEL 1
REMARK VINA RESULT:    -5.233      0.000      0.000
REMARK INTER + INTRA:          -5.698
REMARK INTER:                  -5.539
REMARK INTRA:                  -0.159
REMARK UNBOUND:                -0.159
REMARK SMILES C=C(C)[C@@H]1CC=C(C)CC1
REMARK SMILES IDX 8 1 7 2 6 3 5 4 4 5 10 6 9 7 2 8 1 9 3 10
REMARK H PARENT
REMARK Flexibility Score: inf
ROOT
ATOM      1  C   UNL     1     109.156 111.779 109.025  1.00  0.00     0.039 C 
ATOM      2  C   UNL     1     109.450 111.567 110.483  1.00  0.00    -0.077 C 
ATOM      3  C   UNL     1     109.158 110.394 111.068  1.00  0.00    -0.027 C 
ATOM      4  C   UNL     1     109.415 110.218 112.539  1.00  0.00     0.035 C 
ATOM      5  C   UNL     1     108.895 111.444 113.327  1.00  0.00     0.018 C 
ATOM      6  C   UNL     1     109.236 112.813 112.649  1.00  0.00     0.013 C 
ATOM      7  C   UNL     1     110.028 112.673 111.336  1.00  0.00     0.031 C 
ENDROOT
BRANCH   5   8
ATOM      8  C   UNL     1     109.387 111.395 114.767  1.00  0.00    -0.077 C 
ATOM      9  C   UNL     1     110.050 112.437 115.295  1.00  0.00     0.008 C 
ATOM     10  C   UNL     1     109.114 110.193 115.634  1.00  0.00     0.039 C 
ENDBRANCH   5   8
TORSDOF 1
ENDMDL
MODEL 2
REMARK VINA RESULT:    -5.173      3.471      4.089
REMARK INTER + INTRA:          -5.634
REMARK INTER:                  -5.476
REMARK INTRA:                  -0.158
REMARK UNBOUND:                -0.159
REMARK SMILES C=C(C)[C@@H]1CC=C(C)CC1
REMARK SMILES IDX 8 1 7 2 6 3 5 4 4 5 10 6 9 7 2 8 1 9 3 10
REMARK H PARENT
REMARK Flexibility Score: inf
ROOT
ATOM      1  C   UNL     1     113.090 110.624 108.836  1.00  0.00     0.039 C 
ATOM      2  C   UNL     1     112.812 110.787 110.304  1.00  0.00    -0.077 C 
ATOM      3  C   UNL     1     113.154 111.923 110.934  1.00  0.00    -0.027 C 
ATOM      4  C   UNL     1     112.912 112.049 112.413  1.00  0.00     0.035 C 
ATOM      5  C   UNL     1     113.385 110.771 113.147  1.00  0.00     0.018 C 
ATOM      6  C   UNL     1     112.986 109.446 112.416  1.00  0.00     0.013 C 
ATOM      7  C   UNL     1     112.194 109.671 111.114  1.00  0.00     0.031 C 
ENDROOT
BRANCH   5   8
ATOM      8  C   UNL     1     112.903 110.780 114.591  1.00  0.00    -0.077 C 
ATOM      9  C   UNL     1     112.308 109.697 115.116  1.00  0.00     0.008 C 
ATOM     10  C   UNL     1     113.111 111.991 115.464  1.00  0.00     0.039 C 
ENDBRANCH   5   8
TORSDOF 1
ENDMDL
MODEL 3
REMARK VINA RESULT:    -5.170      2.912      4.908
REMARK INTER + INTRA:          -5.631
REMARK INTER:                  -5.472
REMARK INTRA:                  -0.159
REMARK UNBOUND:                -0.159
REMARK SMILES C=C(C)[C@@H]1CC=C(C)CC1
REMARK SMILES IDX 8 1 7 2 6 3 5 4 4 5 10 6 9 7 2 8 1 9 3 10
REMARK H PARENT
REMARK Flexibility Score: inf
ROOT
ATOM      1  C   UNL     1     109.178 111.771 104.111  1.00  0.00     0.039 C 
ATOM      2  C   UNL     1     109.462 111.591 105.576  1.00  0.00    -0.077 C 
ATOM      3  C   UNL     1     109.232 110.408 106.168  1.00  0.00    -0.027 C 
ATOM      4  C   UNL     1     109.476 110.261 107.645  1.00  0.00     0.035 C 
ATOM      5  C   UNL     1     108.873 111.462 108.412  1.00  0.00     0.018 C 
ATOM      6  C   UNL     1     109.142 112.841 107.726  1.00  0.00     0.013 C 
ATOM      7  C   UNL     1     109.961 112.737 106.425  1.00  0.00     0.031 C 
ENDROOT
BRANCH   5   8
ATOM      8  C   UNL     1     109.345 111.455 109.860  1.00  0.00    -0.077 C 
ATOM      9  C   UNL     1     109.989 112.518 110.370  1.00  0.00     0.008 C 
ATOM     10  C   UNL     1     109.074 110.272 110.754  1.00  0.00     0.039 C 
ENDBRANCH   5   8
TORSDOF 1
ENDMDL
MODEL 4
REMARK VINA RESULT:    -5.113      4.565      6.501
REMARK INTER + INTRA:          -5.571
REMARK INTER:                  -5.413
REMARK INTRA:                  -0.158
REMARK UNBOUND:                -0.159
REMARK SMILES C=C(C)[C@@H]1CC=C(C)CC1
REMARK SMILES IDX 8 1 7 2 6 3 5 4 4 5 10 6 9 7 2 8 1 9 3 10
REMARK H PARENT
REMARK Flexibility Score: inf
ROOT
ATOM      1  C   UNL     1     113.204 110.704 103.957  1.00  0.00     0.039 C 
ATOM      2  C   UNL     1     112.879 110.860 105.416  1.00  0.00    -0.077 C 
ATOM      3  C   UNL     1     113.191 111.996 106.060  1.00  0.00    -0.027 C 
ATOM      4  C   UNL     1     112.901 112.115 107.531  1.00  0.00     0.035 C 
ATOM      5  C   UNL     1     113.362 110.839 108.275  1.00  0.00     0.018 C 
ATOM      6  C   UNL     1     112.998 109.513 107.528  1.00  0.00     0.013 C 
ATOM      7  C   UNL     1     112.245 109.736 106.202  1.00  0.00     0.031 C 
ENDROOT
BRANCH   5   8
ATOM      8  C   UNL     1     112.835 110.839 109.704  1.00  0.00    -0.077 C 
ATOM      9  C   UNL     1     112.301 109.725 110.231  1.00  0.00     0.008 C 
ATOM     10  C   UNL     1     112.929 112.076 110.559  1.00  0.00     0.039 C 
ENDBRANCH   5   8
TORSDOF 1
ENDMDL
MODEL 5
REMARK VINA RESULT:    -5.045      3.480      5.911
REMARK INTER + INTRA:          -5.499
REMARK INTER:                  -5.339
REMARK INTRA:                  -0.159
REMARK UNBOUND:                -0.159
REMARK SMILES C=C(C)[C@@H]1CC=C(C)CC1
REMARK SMILES IDX 8 1 7 2 6 3 5 4 4 5 10 6 9 7 2 8 1 9 3 10
REMARK H PARENT
REMARK Flexibility Score: inf
ROOT
ATOM      1  C   UNL     1     112.412 110.513 114.579  1.00  0.00     0.039 C 
ATOM      2  C   UNL     1     112.754 110.635 113.121  1.00  0.00    -0.077 C 
ATOM      3  C   UNL     1     112.898 111.846 112.559  1.00  0.00    -0.027 C 
ATOM      4  C   UNL     1     113.193 111.948 111.088  1.00  0.00     0.035 C 
ATOM      5  C   UNL     1     112.265 111.004 110.286  1.00  0.00     0.018 C 
ATOM      6  C   UNL     1     112.097 109.591 110.937  1.00  0.00     0.013 C 
ATOM      7  C   UNL     1     112.893 109.412 112.244  1.00  0.00     0.031 C 
ENDROOT
BRANCH   5   8
ATOM      8  C   UNL     1     112.733 110.902 108.841  1.00  0.00    -0.077 C 
ATOM      9  C   UNL     1     113.075 109.713 108.319  1.00  0.00     0.008 C 
ATOM     10  C   UNL     1     112.794 112.126 107.964  1.00  0.00     0.039 C 
ENDBRANCH   5   8
TORSDOF 1
ENDMDL
MODEL 6
REMARK VINA RESULT:    -5.041      1.026      4.725
REMARK INTER + INTRA:          -5.495
REMARK INTER:                  -5.331
REMARK INTRA:                  -0.163
REMARK UNBOUND:                -0.159
REMARK SMILES C=C(C)[C@@H]1CC=C(C)CC1
REMARK SMILES IDX 8 1 7 2 6 3 5 4 4 5 10 6 9 7 2 8 1 9 3 10
REMARK H PARENT
REMARK Flexibility Score: inf
ROOT
ATOM      1  C   UNL     1     110.000 111.494 114.257  1.00  0.00     0.039 C 
ATOM      2  C   UNL     1     109.615 111.440 112.805  1.00  0.00    -0.077 C 
ATOM      3  C   UNL     1     109.396 110.257 112.207  1.00  0.00    -0.027 C 
ATOM      4  C   UNL     1     109.060 110.221 110.742  1.00  0.00     0.035 C 
ATOM      5  C   UNL     1     110.013 111.145 109.948  1.00  0.00     0.018 C 
ATOM      6  C   UNL     1     110.268 112.525 110.640  1.00  0.00     0.013 C 
ATOM      7  C   UNL     1     109.514 112.698 111.973  1.00  0.00     0.031 C 
ENDROOT
BRANCH   5   8
ATOM      8  C   UNL     1     109.514 111.319 108.520  1.00  0.00    -0.077 C 
ATOM      9  C   UNL     1     109.378 110.255 107.712  1.00  0.00     0.008 C 
ATOM     10  C   UNL     1     109.136 112.682 107.996  1.00  0.00     0.039 C 
ENDBRANCH   5   8
TORSDOF 1
ENDMDL
MODEL 7
REMARK VINA RESULT:    -5.018      3.650      6.299
REMARK INTER + INTRA:          -5.470
REMARK INTER:                  -5.311
REMARK INTRA:                  -0.159
REMARK UNBOUND:                -0.159
REMARK SMILES C=C(C)[C@@H]1CC=C(C)CC1
REMARK SMILES IDX 8 1 7 2 6 3 5 4 4 5 10 6 9 7 2 8 1 9 3 10
REMARK H PARENT
REMARK Flexibility Score: inf
ROOT
ATOM      1  C   UNL     1     112.220 110.990 118.993  1.00  0.00     0.039 C 
ATOM      2  C   UNL     1     112.619 110.932 117.545  1.00  0.00    -0.077 C 
ATOM      3  C   UNL     1     112.848 112.064 116.860  1.00  0.00    -0.027 C 
ATOM      4  C   UNL     1     113.199 111.987 115.400  1.00  0.00     0.035 C 
ATOM      5  C   UNL     1     112.250 111.007 114.670  1.00  0.00     0.018 C 
ATOM      6  C   UNL     1     111.983 109.685 115.464  1.00  0.00     0.013 C 
ATOM      7  C   UNL     1     112.723 109.613 116.813  1.00  0.00     0.031 C 
ENDROOT
BRANCH   5   8
ATOM      8  C   UNL     1     112.763 110.722 113.264  1.00  0.00    -0.077 C 
ATOM      9  C   UNL     1     113.019 109.462 112.877  1.00  0.00     0.008 C 
ATOM     10  C   UNL     1     112.964 111.842 112.276  1.00  0.00     0.039 C 
ENDBRANCH   5   8
TORSDOF 1
ENDMDL
MODEL 8
REMARK VINA RESULT:    -5.008      4.440      6.287
REMARK INTER + INTRA:          -5.460
REMARK INTER:                  -5.302
REMARK INTRA:                  -0.158
REMARK UNBOUND:                -0.159
REMARK SMILES C=C(C)[C@@H]1CC=C(C)CC1
REMARK SMILES IDX 8 1 7 2 6 3 5 4 4 5 10 6 9 7 2 8 1 9 3 10
REMARK H PARENT
REMARK Flexibility Score: inf
ROOT
ATOM      1  C   UNL     1     113.162 110.792 113.829  1.00  0.00     0.039 C 
ATOM      2  C   UNL     1     112.835 110.862 115.294  1.00  0.00    -0.077 C 
ATOM      3  C   UNL     1     113.160 111.952 116.008  1.00  0.00    -0.027 C 
ATOM      4  C   UNL     1     112.869 111.984 117.483  1.00  0.00     0.035 C 
ATOM      5  C   UNL     1     113.312 110.658 118.147  1.00  0.00     0.018 C 
ATOM      6  C   UNL     1     112.932 109.386 117.319  1.00  0.00     0.013 C 
ATOM      7  C   UNL     1     112.185 109.700 116.009  1.00  0.00     0.031 C 
ENDROOT
BRANCH   5   8
ATOM      8  C   UNL     1     112.781 110.577 119.573  1.00  0.00    -0.077 C 
ATOM      9  C   UNL     1     112.218 109.445 120.025  1.00  0.00     0.008 C 
ATOM     10  C   UNL     1     112.904 111.753 120.508  1.00  0.00     0.039 C 
ENDBRANCH   5   8
TORSDOF 1
ENDMDL
MODEL 9
REMARK VINA RESULT:    -4.998      3.618      5.796
REMARK INTER + INTRA:          -5.449
REMARK INTER:                  -5.284
REMARK INTRA:                  -0.166
REMARK UNBOUND:                -0.159
REMARK SMILES C=C(C)[C@@H]1CC=C(C)CC1
REMARK SMILES IDX 8 1 7 2 6 3 5 4 4 5 10 6 9 7 2 8 1 9 3 10
REMARK H PARENT
REMARK Flexibility Score: inf
ROOT
ATOM      1  C   UNL     1     113.454 110.478 113.566  1.00  0.00     0.039 C 
ATOM      2  C   UNL     1     112.881 110.789 112.211  1.00  0.00    -0.077 C 
ATOM      3  C   UNL     1     112.567 109.794 111.366  1.00  0.00    -0.027 C 
ATOM      4  C   UNL     1     112.041 110.125 109.997  1.00  0.00     0.035 C 
ATOM      5  C   UNL     1     112.897 111.239 109.347  1.00  0.00     0.018 C 
ATOM      6  C   UNL     1     113.263 112.401 110.329  1.00  0.00     0.013 C 
ATOM      7  C   UNL     1     112.693 112.215 111.748  1.00  0.00     0.031 C 
ENDROOT
BRANCH   5   8
ATOM      8  C   UNL     1     112.218 111.762 108.088  1.00  0.00    -0.077 C 
ATOM      9  C   UNL     1     112.950 112.131 107.024  1.00  0.00     0.008 C 
ATOM     10  C   UNL     1     110.716 111.848 108.003  1.00  0.00     0.039 C 
ENDBRANCH   5   8
TORSDOF 1
ENDMDL
