MODEL 1
REMARK VINA RESULT:    -2.330      0.000      0.000
REMARK INTER + INTRA:          -5.409
REMARK INTER:                  -4.237
REMARK INTRA:                  -1.172
REMARK UNBOUND:                -1.172
REMARK SMILES CCCCCCCCCCCCCC[C@H](C)C(=O)[O-]
REMARK SMILES IDX 9 1 10 2 11 3 12 4 13 5 14 6 15 7 16 8 17 9 18 10 19 11 8 12
REMARK SMILES IDX 7 13 6 14 5 15 4 16 3 17 2 18 1 19
REMARK H PARENT
REMARK Flexibility Score: inf
ROOT
ATOM      1  C   UNL     1       2.693 -37.848  19.117  1.00  0.00     0.000 C 
ENDROOT
BRANCH   1   2
ATOM      2  C   UNL     1       4.016 -37.515  19.823  1.00  0.00     0.000 C 
BRANCH   2   3
ATOM      3  C   UNL     1       4.198 -36.007  20.056  1.00  0.00     0.000 C 
BRANCH   3   4
ATOM      4  C   UNL     1       5.665 -35.561  19.926  1.00  0.00     0.000 C 
BRANCH   4   5
ATOM      5  C   UNL     1       6.121 -34.677  21.098  1.00  0.00     0.001 C 
BRANCH   5   6
ATOM      6  C   UNL     1       5.397 -35.022  22.415  1.00  0.00     0.009 C 
BRANCH   6   7
ATOM      7  C   UNL     1       6.125 -36.069  23.286  1.00  0.00     0.032 C 
ATOM      8  C   UNL     1       5.697 -37.508  22.967  1.00  0.00     0.014 C 
BRANCH   7   9
ATOM      9  C   UNL     1       5.990 -35.763  24.756  1.00  0.00     0.044 C 
ATOM     10  O   UNL     1       6.048 -34.571  25.155  1.00  0.00    -0.550 OA
ATOM     11  O   UNL     1       5.748 -36.779  25.673  1.00  0.00    -0.550 OA
ENDBRANCH   7   9
ENDBRANCH   6   7
ENDBRANCH   5   6
ENDBRANCH   4   5
ENDBRANCH   3   4
ENDBRANCH   2   3
ENDBRANCH   1   2
BRANCH   1  12
ATOM     12  C   UNL     1       2.750 -37.461  17.633  1.00  0.00     0.000 C 
BRANCH  12  13
ATOM     13  C   UNL     1       1.558 -36.578  17.247  1.00  0.00    -0.000 C 
BRANCH  13  14
ATOM     14  C   UNL     1       1.813 -35.858  15.918  1.00  0.00    -0.000 C 
BRANCH  14  15
ATOM     15  C   UNL     1       3.282 -35.985  15.497  1.00  0.00    -0.000 C 
BRANCH  15  16
ATOM     16  C   UNL     1       3.396 -36.499  14.053  1.00  0.00    -0.000 C 
BRANCH  16  17
ATOM     17  C   UNL     1       3.446 -38.033  13.974  1.00  0.00    -0.000 C 
BRANCH  17  18
ATOM     18  C   UNL     1       4.880 -38.575  13.889  1.00  0.00    -0.003 C 
ATOM     19  C   UNL     1       4.935 -40.048  14.282  1.00  0.00     0.004 C 
ENDBRANCH  17  18
ENDBRANCH  16  17
ENDBRANCH  15  16
ENDBRANCH  14  15
ENDBRANCH  13  14
ENDBRANCH  12  13
ENDBRANCH   1  12
TORSDOF 14
ENDMDL
MODEL 2
REMARK VINA RESULT:    -2.025      4.037      7.899
REMARK INTER + INTRA:          -4.854
REMARK INTER:                  -4.163
REMARK INTRA:                  -0.691
REMARK UNBOUND:                -1.172
REMARK SMILES CCCCCCCCCCCCCC[C@H](C)C(=O)[O-]
REMARK SMILES IDX 9 1 10 2 11 3 12 4 13 5 14 6 15 7 16 8 17 9 18 10 19 11 8 12
REMARK SMILES IDX 7 13 6 14 5 15 4 16 3 17 2 18 1 19
REMARK H PARENT
REMARK Flexibility Score: inf
ROOT
ATOM      1  C   UNL     1       5.973 -34.572  21.264  1.00  0.00     0.000 C 
ENDROOT
BRANCH   1   2
ATOM      2  C   UNL     1       5.596 -35.352  19.996  1.00  0.00     0.000 C 
BRANCH   2   3
ATOM      3  C   UNL     1       4.260 -36.097  20.136  1.00  0.00     0.000 C 
BRANCH   3   4
ATOM      4  C   UNL     1       4.105 -37.233  19.110  1.00  0.00     0.000 C 
BRANCH   4   5
ATOM      5  C   UNL     1       2.636 -37.512  18.752  1.00  0.00     0.001 C 
BRANCH   5   6
ATOM      6  C   UNL     1       2.383 -37.476  17.231  1.00  0.00     0.009 C 
BRANCH   6   7
ATOM      7  C   UNL     1       3.474 -36.742  16.421  1.00  0.00     0.032 C 
ATOM      8  C   UNL     1       3.492 -35.229  16.683  1.00  0.00     0.014 C 
BRANCH   7   9
ATOM      9  C   UNL     1       3.378 -37.049  14.949  1.00  0.00     0.044 C 
ATOM     10  O   UNL     1       2.616 -36.366  14.216  1.00  0.00    -0.550 OA
ATOM     11  O   UNL     1       4.162 -38.046  14.379  1.00  0.00    -0.550 OA
ENDBRANCH   7   9
ENDBRANCH   6   7
ENDBRANCH   5   6
ENDBRANCH   4   5
ENDBRANCH   3   4
ENDBRANCH   2   3
ENDBRANCH   1   2
BRANCH   1  12
ATOM     12  C   UNL     1       4.969 -34.840  22.392  1.00  0.00     0.000 C 
BRANCH  12  13
ATOM     13  C   UNL     1       5.642 -34.732  23.766  1.00  0.00    -0.000 C 
BRANCH  13  14
ATOM     14  C   UNL     1       6.125 -36.103  24.253  1.00  0.00    -0.000 C 
BRANCH  14  15
ATOM     15  C   UNL     1       6.100 -37.131  23.114  1.00  0.00    -0.000 C 
BRANCH  15  16
ATOM     16  C   UNL     1       5.643 -38.506  23.626  1.00  0.00    -0.000 C 
BRANCH  16  17
ATOM     17  C   UNL     1       5.290 -39.474  22.485  1.00  0.00    -0.000 C 
BRANCH  17  18
ATOM     18  C   UNL     1       6.107 -40.773  22.538  1.00  0.00    -0.003 C 
ATOM     19  C   UNL     1       5.632 -41.674  23.673  1.00  0.00     0.004 C 
ENDBRANCH  17  18
ENDBRANCH  16  17
ENDBRANCH  15  16
ENDBRANCH  14  15
ENDBRANCH  13  14
ENDBRANCH  12  13
ENDBRANCH   1  12
TORSDOF 14
ENDMDL
MODEL 3
REMARK VINA RESULT:    -1.675      3.926      7.786
REMARK INTER + INTRA:          -4.218
REMARK INTER:                  -2.873
REMARK INTRA:                  -1.345
REMARK UNBOUND:                -1.172
REMARK SMILES CCCCCCCCCCCCCC[C@H](C)C(=O)[O-]
REMARK SMILES IDX 9 1 10 2 11 3 12 4 13 5 14 6 15 7 16 8 17 9 18 10 19 11 8 12
REMARK SMILES IDX 7 13 6 14 5 15 4 16 3 17 2 18 1 19
REMARK H PARENT
REMARK Flexibility Score: inf
ROOT
ATOM      1  C   UNL     1       4.441 -34.367  22.924  1.00  0.00     0.000 C 
ENDROOT
BRANCH   1   2
ATOM      2  C   UNL     1       4.424 -34.936  21.497  1.00  0.00     0.000 C 
BRANCH   2   3
ATOM      3  C   UNL     1       5.719 -35.684  21.145  1.00  0.00     0.000 C 
BRANCH   3   4
ATOM      4  C   UNL     1       5.573 -36.559  19.888  1.00  0.00     0.000 C 
BRANCH   4   5
ATOM      5  C   UNL     1       4.119 -36.982  19.625  1.00  0.00     0.001 C 
BRANCH   5   6
ATOM      6  C   UNL     1       3.856 -37.298  18.139  1.00  0.00     0.009 C 
BRANCH   6   7
ATOM      7  C   UNL     1       2.450 -36.893  17.642  1.00  0.00     0.032 C 
ATOM      8  C   UNL     1       1.331 -37.734  18.272  1.00  0.00     0.014 C 
BRANCH   7   9
ATOM      9  C   UNL     1       2.368 -36.900  16.137  1.00  0.00     0.044 C 
ATOM     10  O   UNL     1       1.624 -36.074  15.547  1.00  0.00    -0.550 OA
ATOM     11  O   UNL     1       3.146 -37.775  15.387  1.00  0.00    -0.550 OA
ENDBRANCH   7   9
ENDBRANCH   6   7
ENDBRANCH   5   6
ENDBRANCH   4   5
ENDBRANCH   3   4
ENDBRANCH   2   3
ENDBRANCH   1   2
BRANCH   1  12
ATOM     12  C   UNL     1       5.879 -34.143  23.409  1.00  0.00     0.000 C 
BRANCH  12  13
ATOM     13  C   UNL     1       6.125 -34.846  24.749  1.00  0.00    -0.000 C 
BRANCH  13  14
ATOM     14  C   UNL     1       5.126 -35.990  24.962  1.00  0.00    -0.000 C 
BRANCH  14  15
ATOM     15  C   UNL     1       5.850 -37.333  25.114  1.00  0.00    -0.000 C 
BRANCH  15  16
ATOM     16  C   UNL     1       5.889 -38.090  23.778  1.00  0.00    -0.000 C 
BRANCH  16  17
ATOM     17  C   UNL     1       5.356 -39.527  23.897  1.00  0.00    -0.000 C 
BRANCH  17  18
ATOM     18  C   UNL     1       5.371 -40.276  22.557  1.00  0.00    -0.003 C 
ATOM     19  C   UNL     1       6.023 -39.434  21.465  1.00  0.00     0.004 C 
ENDBRANCH  17  18
ENDBRANCH  16  17
ENDBRANCH  15  16
ENDBRANCH  14  15
ENDBRANCH  13  14
ENDBRANCH  12  13
ENDBRANCH   1  12
TORSDOF 14
ENDMDL
MODEL 4
REMARK VINA RESULT:    -1.567      3.843      7.594
REMARK INTER + INTRA:          -4.022
REMARK INTER:                  -3.948
REMARK INTRA:                  -0.074
REMARK UNBOUND:                -1.172
REMARK SMILES CCCCCCCCCCCCCC[C@H](C)C(=O)[O-]
REMARK SMILES IDX 9 1 10 2 11 3 12 4 13 5 14 6 15 7 16 8 17 9 18 10 19 11 8 12
REMARK SMILES IDX 7 13 6 14 5 15 4 16 3 17 2 18 1 19
REMARK H PARENT
REMARK Flexibility Score: inf
ROOT
ATOM      1  C   UNL     1       5.945 -34.789  23.177  1.00  0.00     0.000 C 
ENDROOT
BRANCH   1   2
ATOM      2  C   UNL     1       6.119 -35.521  21.838  1.00  0.00     0.000 C 
BRANCH   2   3
ATOM      3  C   UNL     1       5.616 -34.696  20.644  1.00  0.00     0.000 C 
BRANCH   3   4
ATOM      4  C   UNL     1       4.786 -35.532  19.654  1.00  0.00     0.000 C 
BRANCH   4   5
ATOM      5  C   UNL     1       4.992 -37.044  19.837  1.00  0.00     0.001 C 
BRANCH   5   6
ATOM      6  C   UNL     1       4.062 -37.880  18.935  1.00  0.00     0.009 C 
BRANCH   6   7
ATOM      7  C   UNL     1       2.763 -37.156  18.516  1.00  0.00     0.032 C 
ATOM      8  C   UNL     1       1.497 -37.903  18.959  1.00  0.00     0.014 C 
BRANCH   7   9
ATOM      9  C   UNL     1       2.743 -36.857  17.039  1.00  0.00     0.044 C 
ATOM     10  O   UNL     1       3.688 -37.251  16.307  1.00  0.00    -0.550 OA
ATOM     11  O   UNL     1       1.665 -36.194  16.464  1.00  0.00    -0.550 OA
ENDBRANCH   7   9
ENDBRANCH   6   7
ENDBRANCH   5   6
ENDBRANCH   4   5
ENDBRANCH   3   4
ENDBRANCH   2   3
ENDBRANCH   1   2
BRANCH   1  12
ATOM     12  C   UNL     1       5.273 -35.696  24.216  1.00  0.00     0.000 C 
BRANCH  12  13
ATOM     13  C   UNL     1       5.954 -37.069  24.271  1.00  0.00    -0.000 C 
BRANCH  13  14
ATOM     14  C   UNL     1       5.732 -37.847  22.969  1.00  0.00    -0.000 C 
BRANCH  14  15
ATOM     15  C   UNL     1       5.285 -39.285  23.256  1.00  0.00    -0.000 C 
BRANCH  15  16
ATOM     16  C   UNL     1       5.715 -40.230  22.124  1.00  0.00    -0.000 C 
BRANCH  16  17
ATOM     17  C   UNL     1       6.124 -41.620  22.637  1.00  0.00    -0.000 C 
BRANCH  17  18
ATOM     18  C   UNL     1       6.092 -41.718  24.170  1.00  0.00    -0.003 C 
ATOM     19  C   UNL     1       5.392 -42.996  24.624  1.00  0.00     0.004 C 
ENDBRANCH  17  18
ENDBRANCH  16  17
ENDBRANCH  15  16
ENDBRANCH  14  15
ENDBRANCH  13  14
ENDBRANCH  12  13
ENDBRANCH   1  12
TORSDOF 14
ENDMDL
MODEL 5
REMARK VINA RESULT:    -1.501      2.883      5.502
REMARK INTER + INTRA:          -3.901
REMARK INTER:                  -2.751
REMARK INTRA:                  -1.150
REMARK UNBOUND:                -1.172
REMARK SMILES CCCCCCCCCCCCCC[C@H](C)C(=O)[O-]
REMARK SMILES IDX 9 1 10 2 11 3 12 4 13 5 14 6 15 7 16 8 17 9 18 10 19 11 8 12
REMARK SMILES IDX 7 13 6 14 5 15 4 16 3 17 2 18 1 19
REMARK H PARENT
REMARK Flexibility Score: inf
ROOT
ATOM      1  C   UNL     1       5.315 -34.495  23.620  1.00  0.00     0.000 C 
ENDROOT
BRANCH   1   2
ATOM      2  C   UNL     1       6.046 -35.597  24.400  1.00  0.00     0.000 C 
BRANCH   2   3
ATOM      3  C   UNL     1       5.202 -36.164  25.552  1.00  0.00     0.000 C 
BRANCH   3   4
ATOM      4  C   UNL     1       4.822 -37.639  25.336  1.00  0.00     0.000 C 
BRANCH   4   5
ATOM      5  C   UNL     1       5.595 -38.288  24.177  1.00  0.00     0.001 C 
BRANCH   5   6
ATOM      6  C   UNL     1       5.199 -39.761  23.954  1.00  0.00     0.009 C 
BRANCH   6   7
ATOM      7  C   UNL     1       6.123 -40.528  22.982  1.00  0.00     0.032 C 
ATOM      8  C   UNL     1       5.872 -40.164  21.512  1.00  0.00     0.014 C 
BRANCH   7   9
ATOM      9  C   UNL     1       6.053 -42.017  23.204  1.00  0.00     0.044 C 
ATOM     10  O   UNL     1       6.111 -42.801  22.221  1.00  0.00    -0.550 OA
ATOM     11  O   UNL     1       5.977 -42.540  24.490  1.00  0.00    -0.550 OA
ENDBRANCH   7   9
ENDBRANCH   6   7
ENDBRANCH   5   6
ENDBRANCH   4   5
ENDBRANCH   3   4
ENDBRANCH   2   3
ENDBRANCH   1   2
BRANCH   1  12
ATOM     12  C   UNL     1       5.780 -34.454  22.159  1.00  0.00     0.000 C 
BRANCH  12  13
ATOM     13  C   UNL     1       5.894 -35.868  21.577  1.00  0.00    -0.000 C 
BRANCH  13  14
ATOM     14  C   UNL     1       5.795 -35.844  20.047  1.00  0.00    -0.000 C 
BRANCH  14  15
ATOM     15  C   UNL     1       4.333 -35.758  19.592  1.00  0.00    -0.000 C 
BRANCH  15  16
ATOM     16  C   UNL     1       3.745 -37.160  19.369  1.00  0.00    -0.000 C 
BRANCH  16  17
ATOM     17  C   UNL     1       2.793 -37.216  18.163  1.00  0.00    -0.000 C 
BRANCH  17  18
ATOM     18  C   UNL     1       3.440 -36.689  16.874  1.00  0.00    -0.003 C 
ATOM     19  C   UNL     1       2.380 -36.252  15.867  1.00  0.00     0.004 C 
ENDBRANCH  17  18
ENDBRANCH  16  17
ENDBRANCH  15  16
ENDBRANCH  14  15
ENDBRANCH  13  14
ENDBRANCH  12  13
ENDBRANCH   1  12
TORSDOF 14
ENDMDL
