MODEL 1
REMARK VINA RESULT:    -6.781      0.000      0.000
REMARK INTER + INTRA:          -8.380
REMARK INTER:                  -8.168
REMARK INTRA:                  -0.212
REMARK UNBOUND:                -0.212
REMARK SMILES O=c1c(O)c(-c2ccc(O)c(O)c2)oc2cc(O)cc(O)c12
REMARK SMILES IDX 5 1 3 2 2 3 1 4 22 5 20 6 19 7 17 8 16 9 15 10 14 11 6 12
REMARK SMILES IDX 7 13 8 14 9 15 13 16 11 17 10 18 12 20 4 22 21 24 18 26
REMARK H PARENT 10 19 12 21 4 23 21 25 18 27
REMARK Flexibility Score: inf
ROOT
ATOM      1  C   UNL     1     -18.779  -4.117  16.885  1.00  0.00     0.180 A 
ATOM      2  C   UNL     1     -18.104  -3.355  15.916  1.00  0.00     0.208 A 
ATOM      3  C   UNL     1     -17.389  -4.020  14.905  1.00  0.00     0.238 A 
ATOM      4  O   UNL     1     -16.850  -3.335  13.999  1.00  0.00    -0.285 OA
ATOM      5  C   UNL     1     -17.312  -5.434  14.910  1.00  0.00     0.111 A 
ATOM      6  C   UNL     1     -16.579  -6.210  13.961  1.00  0.00     0.134 A 
ATOM      7  C   UNL     1     -16.662  -7.608  14.002  1.00  0.00     0.093 A 
ATOM      8  C   UNL     1     -17.399  -8.258  14.994  1.00  0.00     0.123 A 
ATOM      9  C   UNL     1     -18.073  -7.510  15.957  1.00  0.00     0.094 A 
ATOM     10  C   UNL     1     -18.041  -6.114  15.921  1.00  0.00     0.146 A 
ATOM     11  O   UNL     1     -18.716  -5.441  16.844  1.00  0.00    -0.452 OA
ENDROOT
BRANCH   1  12
ATOM     12  C   UNL     1     -19.565  -3.488  17.972  1.00  0.00     0.025 A 
ATOM     13  C   UNL     1     -19.111  -3.495  19.302  1.00  0.00     0.016 A 
ATOM     14  C   UNL     1     -19.858  -2.873  20.306  1.00  0.00     0.051 A 
ATOM     15  C   UNL     1     -21.061  -2.225  19.995  1.00  0.00     0.157 A 
ATOM     16  C   UNL     1     -20.760  -2.819  17.662  1.00  0.00     0.062 A 
ATOM     17  C   UNL     1     -21.512  -2.196  18.666  1.00  0.00     0.158 A 
BRANCH  15  18
ATOM     18  O   UNL     1     -21.805  -1.608  20.999  1.00  0.00    -0.504 OA
ATOM     19  H   UNL     1     -21.374  -1.291  21.861  1.00  0.00     0.293 HD
ENDBRANCH  15  18
BRANCH  17  20
ATOM     20  O   UNL     1     -22.700  -1.554  18.322  1.00  0.00    -0.504 OA
ATOM     21  H   UNL     1     -23.462  -1.440  18.981  1.00  0.00     0.293 HD
ENDBRANCH  17  20
ENDBRANCH   1  12
BRANCH   2  22
ATOM     22  O   UNL     1     -18.129  -1.960  15.973  1.00  0.00    -0.502 OA
ATOM     23  H   UNL     1     -18.688  -1.399  15.341  1.00  0.00     0.293 HD
ENDBRANCH   2  22
BRANCH   6  24
ATOM     24  O   UNL     1     -15.741  -5.666  12.984  1.00  0.00    -0.507 OA
ATOM     25  H   UNL     1     -15.132  -4.873  13.121  1.00  0.00     0.293 HD
ENDBRANCH   6  24
BRANCH   8  26
ATOM     26  O   UNL     1     -17.463  -9.649  15.037  1.00  0.00    -0.508 OA
ATOM     27  H   UNL     1     -16.773 -10.196  15.540  1.00  0.00     0.293 HD
ENDBRANCH   8  26
TORSDOF 6
ENDMDL
MODEL 2
REMARK VINA RESULT:    -6.692      8.632     13.197
REMARK INTER + INTRA:          -8.273
REMARK INTER:                  -7.970
REMARK INTRA:                  -0.303
REMARK UNBOUND:                -0.212
REMARK SMILES O=c1c(O)c(-c2ccc(O)c(O)c2)oc2cc(O)cc(O)c12
REMARK SMILES IDX 5 1 3 2 2 3 1 4 22 5 20 6 19 7 17 8 16 9 15 10 14 11 6 12
REMARK SMILES IDX 7 13 8 14 9 15 13 16 11 17 10 18 12 20 4 22 21 24 18 26
REMARK H PARENT 10 19 12 21 4 23 21 25 18 27
REMARK Flexibility Score: inf
ROOT
ATOM      1  C   UNL     1      -9.830  -5.670   8.527  1.00  0.00     0.180 A 
ATOM      2  C   UNL     1      -9.623  -7.051   8.693  1.00  0.00     0.208 A 
ATOM      3  C   UNL     1     -10.487  -7.771   9.535  1.00  0.00     0.238 A 
ATOM      4  O   UNL     1     -10.343  -9.017   9.621  1.00  0.00    -0.285 OA
ATOM      5  C   UNL     1     -11.509  -7.093  10.244  1.00  0.00     0.111 A 
ATOM      6  C   UNL     1     -12.413  -7.714  11.158  1.00  0.00     0.134 A 
ATOM      7  C   UNL     1     -13.452  -6.962  11.720  1.00  0.00     0.093 A 
ATOM      8  C   UNL     1     -13.582  -5.598  11.452  1.00  0.00     0.123 A 
ATOM      9  C   UNL     1     -12.671  -4.970  10.604  1.00  0.00     0.094 A 
ATOM     10  C   UNL     1     -11.647  -5.701   9.997  1.00  0.00     0.146 A 
ATOM     11  O   UNL     1     -10.816  -5.068   9.179  1.00  0.00    -0.452 OA
ENDROOT
BRANCH   1  12
ATOM     12  C   UNL     1      -8.971  -4.847   7.645  1.00  0.00     0.025 A 
ATOM     13  C   UNL     1      -7.879  -4.122   8.155  1.00  0.00     0.016 A 
ATOM     14  C   UNL     1      -7.068  -3.373   7.298  1.00  0.00     0.051 A 
ATOM     15  C   UNL     1      -7.326  -3.346   5.921  1.00  0.00     0.157 A 
ATOM     16  C   UNL     1      -9.212  -4.834   6.262  1.00  0.00     0.062 A 
ATOM     17  C   UNL     1      -8.402  -4.083   5.402  1.00  0.00     0.158 A 
BRANCH  15  18
ATOM     18  O   UNL     1      -6.517  -2.596   5.071  1.00  0.00    -0.504 OA
ATOM     19  H   UNL     1      -6.886  -2.158   4.234  1.00  0.00     0.293 HD
ENDBRANCH  15  18
BRANCH  17  20
ATOM     20  O   UNL     1      -8.681  -4.084   4.035  1.00  0.00    -0.504 OA
ATOM     21  H   UNL     1      -8.420  -3.313   3.432  1.00  0.00     0.293 HD
ENDBRANCH  17  20
ENDBRANCH   1  12
BRANCH   2  22
ATOM     22  O   UNL     1      -8.562  -7.687   8.045  1.00  0.00    -0.502 OA
ATOM     23  H   UNL     1      -7.877  -8.244   8.541  1.00  0.00     0.293 HD
ENDBRANCH   2  22
BRANCH   6  24
ATOM     24  O   UNL     1     -12.320  -9.049  11.566  1.00  0.00    -0.507 OA
ATOM     25  H   UNL     1     -11.458  -9.556  11.692  1.00  0.00     0.293 HD
ENDBRANCH   6  24
BRANCH   8  26
ATOM     26  O   UNL     1     -14.608  -4.854  12.028  1.00  0.00    -0.508 OA
ATOM     27  H   UNL     1     -15.256  -4.316  11.462  1.00  0.00     0.293 HD
ENDBRANCH   8  26
TORSDOF 6
ENDMDL
MODEL 3
REMARK VINA RESULT:    -6.677     13.069     14.502
REMARK INTER + INTRA:          -8.255
REMARK INTER:                  -8.012
REMARK INTRA:                  -0.242
REMARK UNBOUND:                -0.212
REMARK SMILES O=c1c(O)c(-c2ccc(O)c(O)c2)oc2cc(O)cc(O)c12
REMARK SMILES IDX 5 1 3 2 2 3 1 4 22 5 20 6 19 7 17 8 16 9 15 10 14 11 6 12
REMARK SMILES IDX 7 13 8 14 9 15 13 16 11 17 10 18 12 20 4 22 21 24 18 26
REMARK H PARENT 10 19 12 21 4 23 21 25 18 27
REMARK Flexibility Score: inf
ROOT
ATOM      1  C   UNL     1      -8.044  -6.898   8.730  1.00  0.00     0.180 A 
ATOM      2  C   UNL     1      -8.410  -8.232   8.980  1.00  0.00     0.208 A 
ATOM      3  C   UNL     1      -8.199  -8.766  10.262  1.00  0.00     0.238 A 
ATOM      4  O   UNL     1      -8.597  -9.935  10.500  1.00  0.00    -0.285 OA
ATOM      5  C   UNL     1      -7.572  -7.979  11.260  1.00  0.00     0.111 A 
ATOM      6  C   UNL     1      -7.269  -8.432  12.579  1.00  0.00     0.134 A 
ATOM      7  C   UNL     1      -6.745  -7.530  13.515  1.00  0.00     0.093 A 
ATOM      8  C   UNL     1      -6.455  -6.211  13.161  1.00  0.00     0.123 A 
ATOM      9  C   UNL     1      -6.697  -5.775  11.861  1.00  0.00     0.094 A 
ATOM     10  C   UNL     1      -7.254  -6.638  10.915  1.00  0.00     0.146 A 
ATOM     11  O   UNL     1      -7.489  -6.175   9.694  1.00  0.00    -0.452 OA
ENDROOT
BRANCH   1  12
ATOM     12  C   UNL     1      -8.248  -6.260   7.409  1.00  0.00     0.025 A 
ATOM     13  C   UNL     1      -7.455  -6.603   6.299  1.00  0.00     0.016 A 
ATOM     14  C   UNL     1      -7.685  -6.006   5.056  1.00  0.00     0.051 A 
ATOM     15  C   UNL     1      -8.715  -5.069   4.900  1.00  0.00     0.157 A 
ATOM     16  C   UNL     1      -9.293  -5.337   7.242  1.00  0.00     0.062 A 
ATOM     17  C   UNL     1      -9.525  -4.737   5.998  1.00  0.00     0.158 A 
BRANCH  15  18
ATOM     18  O   UNL     1      -8.939  -4.474   3.661  1.00  0.00    -0.504 OA
ATOM     19  H   UNL     1      -9.759  -3.904   3.485  1.00  0.00     0.293 HD
ENDBRANCH  15  18
BRANCH  17  20
ATOM     20  O   UNL     1     -10.563  -3.815   5.875  1.00  0.00    -0.504 OA
ATOM     21  H   UNL     1     -11.360  -3.813   6.501  1.00  0.00     0.293 HD
ENDBRANCH  17  20
ENDBRANCH   1  12
BRANCH   2  22
ATOM     22  O   UNL     1      -8.955  -9.015   7.960  1.00  0.00    -0.502 OA
ATOM     23  H   UNL     1      -8.872 -10.025   7.946  1.00  0.00     0.293 HD
ENDBRANCH   2  22
BRANCH   6  24
ATOM     24  O   UNL     1      -7.435  -9.751  13.013  1.00  0.00    -0.507 OA
ATOM     25  H   UNL     1      -7.363 -10.566  12.423  1.00  0.00     0.293 HD
ENDBRANCH   6  24
BRANCH   8  26
ATOM     26  O   UNL     1      -5.919  -5.326  14.094  1.00  0.00    -0.508 OA
ATOM     27  H   UNL     1      -6.451  -4.536  14.441  1.00  0.00     0.293 HD
ENDBRANCH   8  26
TORSDOF 6
ENDMDL
MODEL 4
REMARK VINA RESULT:    -6.664     10.886     14.526
REMARK INTER + INTRA:          -8.240
REMARK INTER:                  -8.107
REMARK INTRA:                  -0.133
REMARK UNBOUND:                -0.212
REMARK SMILES O=c1c(O)c(-c2ccc(O)c(O)c2)oc2cc(O)cc(O)c12
REMARK SMILES IDX 5 1 3 2 2 3 1 4 22 5 20 6 19 7 17 8 16 9 15 10 14 11 6 12
REMARK SMILES IDX 7 13 8 14 9 15 13 16 11 17 10 18 12 20 4 22 21 24 18 26
REMARK H PARENT 10 19 12 21 4 23 21 25 18 27
REMARK Flexibility Score: inf
ROOT
ATOM      1  C   UNL     1      -8.194  -5.724   8.966  1.00  0.00     0.180 A 
ATOM      2  C   UNL     1      -9.459  -5.270   9.379  1.00  0.00     0.208 A 
ATOM      3  C   UNL     1      -9.623  -4.823  10.700  1.00  0.00     0.238 A 
ATOM      4  O   UNL     1     -10.737  -4.349  11.041  1.00  0.00    -0.285 OA
ATOM      5  C   UNL     1      -8.537  -4.889  11.608  1.00  0.00     0.111 A 
ATOM      6  C   UNL     1      -8.603  -4.505  12.982  1.00  0.00     0.134 A 
ATOM      7  C   UNL     1      -7.436  -4.512  13.756  1.00  0.00     0.093 A 
ATOM      8  C   UNL     1      -6.221  -4.950  13.226  1.00  0.00     0.123 A 
ATOM      9  C   UNL     1      -6.159  -5.379  11.902  1.00  0.00     0.094 A 
ATOM     10  C   UNL     1      -7.296  -5.346  11.092  1.00  0.00     0.146 A 
ATOM     11  O   UNL     1      -7.187  -5.743   9.830  1.00  0.00    -0.452 OA
ENDROOT
BRANCH   1  12
ATOM     12  C   UNL     1      -7.939  -6.197   7.587  1.00  0.00     0.025 A 
ATOM     13  C   UNL     1      -7.593  -7.534   7.322  1.00  0.00     0.016 A 
ATOM     14  C   UNL     1      -7.382  -7.961   6.008  1.00  0.00     0.051 A 
ATOM     15  C   UNL     1      -7.527  -7.066   4.940  1.00  0.00     0.157 A 
ATOM     16  C   UNL     1      -8.104  -5.309   6.511  1.00  0.00     0.062 A 
ATOM     17  C   UNL     1      -7.893  -5.734   5.194  1.00  0.00     0.158 A 
BRANCH  15  18
ATOM     18  O   UNL     1      -7.314  -7.496   3.632  1.00  0.00    -0.504 OA
ATOM     19  H   UNL     1      -7.303  -8.481   3.392  1.00  0.00     0.293 HD
ENDBRANCH  15  18
BRANCH  17  20
ATOM     20  O   UNL     1      -8.052  -4.820   4.153  1.00  0.00    -0.504 OA
ATOM     21  H   UNL     1      -8.847  -4.194   4.103  1.00  0.00     0.293 HD
ENDBRANCH  17  20
ENDBRANCH   1  12
BRANCH   2  22
ATOM     22  O   UNL     1     -10.536  -5.285   8.490  1.00  0.00    -0.502 OA
ATOM     23  H   UNL     1     -11.364  -5.847   8.648  1.00  0.00     0.293 HD
ENDBRANCH   2  22
BRANCH   6  24
ATOM     24  O   UNL     1      -9.782  -4.136  13.637  1.00  0.00    -0.507 OA
ATOM     25  H   UNL     1     -10.140  -3.195  13.694  1.00  0.00     0.293 HD
ENDBRANCH   6  24
BRANCH   8  26
ATOM     26  O   UNL     1      -5.069  -4.970  14.009  1.00  0.00    -0.508 OA
ATOM     27  H   UNL     1      -4.367  -5.695  13.901  1.00  0.00     0.293 HD
ENDBRANCH   8  26
TORSDOF 6
ENDMDL
MODEL 5
REMARK VINA RESULT:    -6.590      8.683     13.384
REMARK INTER + INTRA:          -8.151
REMARK INTER:                  -7.839
REMARK INTRA:                  -0.312
REMARK UNBOUND:                -0.212
REMARK SMILES O=c1c(O)c(-c2ccc(O)c(O)c2)oc2cc(O)cc(O)c12
REMARK SMILES IDX 5 1 3 2 2 3 1 4 22 5 20 6 19 7 17 8 16 9 15 10 14 11 6 12
REMARK SMILES IDX 7 13 8 14 9 15 13 16 11 17 10 18 12 20 4 22 21 24 18 26
REMARK H PARENT 10 19 12 21 4 23 21 25 18 27
REMARK Flexibility Score: inf
ROOT
ATOM      1  C   UNL     1      -9.472  -5.455   8.953  1.00  0.00     0.180 A 
ATOM      2  C   UNL     1      -8.670  -5.293  10.096  1.00  0.00     0.208 A 
ATOM      3  C   UNL     1      -9.286  -4.996  11.323  1.00  0.00     0.238 A 
ATOM      4  O   UNL     1      -8.571  -4.927  12.355  1.00  0.00    -0.285 OA
ATOM      5  C   UNL     1     -10.690  -4.809  11.380  1.00  0.00     0.111 A 
ATOM      6  C   UNL     1     -11.414  -4.462  12.560  1.00  0.00     0.134 A 
ATOM      7  C   UNL     1     -12.813  -4.408  12.520  1.00  0.00     0.093 A 
ATOM      8  C   UNL     1     -13.510  -4.625  11.329  1.00  0.00     0.123 A 
ATOM      9  C   UNL     1     -12.807  -4.911  10.160  1.00  0.00     0.094 A 
ATOM     10  C   UNL     1     -11.414  -5.010  10.176  1.00  0.00     0.146 A 
ATOM     11  O   UNL     1     -10.787  -5.306   9.044  1.00  0.00    -0.452 OA
ENDROOT
BRANCH   1  12
ATOM     12  C   UNL     1      -8.897  -5.783   7.628  1.00  0.00     0.025 A 
ATOM     13  C   UNL     1      -8.540  -7.100   7.290  1.00  0.00     0.016 A 
ATOM     14  C   UNL     1      -8.023  -7.387   6.023  1.00  0.00     0.051 A 
ATOM     15  C   UNL     1      -7.868  -6.369   5.073  1.00  0.00     0.157 A 
ATOM     16  C   UNL     1      -8.760  -4.769   6.665  1.00  0.00     0.062 A 
ATOM     17  C   UNL     1      -8.241  -5.055   5.396  1.00  0.00     0.158 A 
BRANCH  15  18
ATOM     18  O   UNL     1      -7.349  -6.659   3.813  1.00  0.00    -0.504 OA
ATOM     19  H   UNL     1      -6.436  -7.086   3.700  1.00  0.00     0.293 HD
ENDBRANCH  15  18
BRANCH  17  20
ATOM     20  O   UNL     1      -8.107  -4.020   4.471  1.00  0.00    -0.504 OA
ATOM     21  H   UNL     1      -8.689  -3.957   3.645  1.00  0.00     0.293 HD
ENDBRANCH  17  20
ENDBRANCH   1  12
BRANCH   2  22
ATOM     22  O   UNL     1      -7.281  -5.406  10.003  1.00  0.00    -0.502 OA
ATOM     23  H   UNL     1      -6.752  -5.003   9.239  1.00  0.00     0.293 HD
ENDBRANCH   2  22
BRANCH   6  24
ATOM     24  O   UNL     1     -10.815  -4.137  13.781  1.00  0.00    -0.507 OA
ATOM     25  H   UNL     1      -9.820  -4.100  13.945  1.00  0.00     0.293 HD
ENDBRANCH   6  24
BRANCH   8  26
ATOM     26  O   UNL     1     -14.900  -4.553  11.294  1.00  0.00    -0.508 OA
ATOM     27  H   UNL     1     -15.383  -3.943  10.644  1.00  0.00     0.293 HD
ENDBRANCH   8  26
TORSDOF 6
ENDMDL
MODEL 6
REMARK VINA RESULT:    -6.439      9.085     13.980
REMARK INTER + INTRA:          -7.968
REMARK INTER:                  -7.769
REMARK INTRA:                  -0.199
REMARK UNBOUND:                -0.212
REMARK SMILES O=c1c(O)c(-c2ccc(O)c(O)c2)oc2cc(O)cc(O)c12
REMARK SMILES IDX 5 1 3 2 2 3 1 4 22 5 20 6 19 7 17 8 16 9 15 10 14 11 6 12
REMARK SMILES IDX 7 13 8 14 9 15 13 16 11 17 10 18 12 20 4 22 21 24 18 26
REMARK H PARENT 10 19 12 21 4 23 21 25 18 27
REMARK Flexibility Score: inf
ROOT
ATOM      1  C   UNL     1      -9.365  -6.208   8.684  1.00  0.00     0.180 A 
ATOM      2  C   UNL     1     -10.757  -6.065   8.553  1.00  0.00     0.208 A 
ATOM      3  C   UNL     1     -11.479  -5.448   9.588  1.00  0.00     0.238 A 
ATOM      4  O   UNL     1     -12.712  -5.257   9.432  1.00  0.00    -0.285 OA
ATOM      5  C   UNL     1     -10.808  -5.033  10.765  1.00  0.00     0.111 A 
ATOM      6  C   UNL     1     -11.446  -4.438  11.895  1.00  0.00     0.134 A 
ATOM      7  C   UNL     1     -10.665  -3.969  12.959  1.00  0.00     0.093 A 
ATOM      8  C   UNL     1      -9.278  -4.132  12.964  1.00  0.00     0.123 A 
ATOM      9  C   UNL     1      -8.653  -4.762  11.890  1.00  0.00     0.094 A 
ATOM     10  C   UNL     1      -9.399  -5.205  10.795  1.00  0.00     0.146 A 
ATOM     11  O   UNL     1      -8.760  -5.779   9.783  1.00  0.00    -0.452 OA
ENDROOT
BRANCH   1  12
ATOM     12  C   UNL     1      -8.535  -6.834   7.629  1.00  0.00     0.025 A 
ATOM     13  C   UNL     1      -8.380  -6.235   6.367  1.00  0.00     0.016 A 
ATOM     14  C   UNL     1      -7.571  -6.834   5.396  1.00  0.00     0.051 A 
ATOM     15  C   UNL     1      -6.895  -8.029   5.677  1.00  0.00     0.157 A 
ATOM     16  C   UNL     1      -7.839  -8.020   7.912  1.00  0.00     0.062 A 
ATOM     17  C   UNL     1      -7.028  -8.622   6.942  1.00  0.00     0.158 A 
BRANCH  15  18
ATOM     18  O   UNL     1      -6.091  -8.623   4.706  1.00  0.00    -0.504 OA
ATOM     19  H   UNL     1      -6.081  -9.628   4.567  1.00  0.00     0.293 HD
ENDBRANCH  15  18
BRANCH  17  20
ATOM     20  O   UNL     1      -6.363  -9.807   7.256  1.00  0.00    -0.504 OA
ATOM     21  H   UNL     1      -5.353  -9.861   7.304  1.00  0.00     0.293 HD
ENDBRANCH  17  20
ENDBRANCH   1  12
BRANCH   2  22
ATOM     22  O   UNL     1     -11.411  -6.551   7.417  1.00  0.00    -0.502 OA
ATOM     23  H   UNL     1     -12.294  -7.044   7.467  1.00  0.00     0.293 HD
ENDBRANCH   2  22
BRANCH   6  24
ATOM     24  O   UNL     1     -12.830  -4.306  12.035  1.00  0.00    -0.507 OA
ATOM     25  H   UNL     1     -13.305  -3.464  12.325  1.00  0.00     0.293 HD
ENDBRANCH   6  24
BRANCH   8  26
ATOM     26  O   UNL     1      -8.512  -3.678  14.034  1.00  0.00    -0.508 OA
ATOM     27  H   UNL     1      -8.692  -3.987  14.984  1.00  0.00     0.293 HD
ENDBRANCH   8  26
TORSDOF 6
ENDMDL
MODEL 7
REMARK VINA RESULT:    -6.402      3.714      5.443
REMARK INTER + INTRA:          -7.924
REMARK INTER:                  -7.803
REMARK INTRA:                  -0.121
REMARK UNBOUND:                -0.212
REMARK SMILES O=c1c(O)c(-c2ccc(O)c(O)c2)oc2cc(O)cc(O)c12
REMARK SMILES IDX 5 1 3 2 2 3 1 4 22 5 20 6 19 7 17 8 16 9 15 10 14 11 6 12
REMARK SMILES IDX 7 13 8 14 9 15 13 16 11 17 10 18 12 20 4 22 21 24 18 26
REMARK H PARENT 10 19 12 21 4 23 21 25 18 27
REMARK Flexibility Score: inf
ROOT
ATOM      1  C   UNL     1     -20.950  -2.263  17.505  1.00  0.00     0.180 A 
ATOM      2  C   UNL     1     -19.744  -2.395  16.794  1.00  0.00     0.208 A 
ATOM      3  C   UNL     1     -19.700  -1.994  15.449  1.00  0.00     0.238 A 
ATOM      4  O   UNL     1     -18.600  -2.044  14.841  1.00  0.00    -0.285 OA
ATOM      5  C   UNL     1     -20.875  -1.520  14.815  1.00  0.00     0.111 A 
ATOM      6  C   UNL     1     -20.957  -1.128  13.444  1.00  0.00     0.134 A 
ATOM      7  C   UNL     1     -22.147  -0.574  12.956  1.00  0.00     0.093 A 
ATOM      8  C   UNL     1     -23.276  -0.457  13.769  1.00  0.00     0.123 A 
ATOM      9  C   UNL     1     -23.222  -0.887  15.093  1.00  0.00     0.094 A 
ATOM     10  C   UNL     1     -22.039  -1.408  15.621  1.00  0.00     0.146 A 
ATOM     11  O   UNL     1     -22.025  -1.785  16.894  1.00  0.00    -0.452 OA
ENDROOT
BRANCH   1  12
ATOM     12  C   UNL     1     -21.070  -2.651  18.929  1.00  0.00     0.025 A 
ATOM     13  C   UNL     1     -20.835  -3.971  19.351  1.00  0.00     0.016 A 
ATOM     14  C   UNL     1     -20.930  -4.307  20.705  1.00  0.00     0.051 A 
ATOM     15  C   UNL     1     -21.247  -3.328  21.656  1.00  0.00     0.157 A 
ATOM     16  C   UNL     1     -21.366  -1.670  19.889  1.00  0.00     0.062 A 
ATOM     17  C   UNL     1     -21.463  -2.003  21.245  1.00  0.00     0.158 A 
BRANCH  15  18
ATOM     18  O   UNL     1     -21.343  -3.667  23.004  1.00  0.00    -0.504 OA
ATOM     19  H   UNL     1     -22.124  -3.361  23.575  1.00  0.00     0.293 HD
ENDBRANCH  15  18
BRANCH  17  20
ATOM     20  O   UNL     1     -21.773  -1.004  22.168  1.00  0.00    -0.504 OA
ATOM     21  H   UNL     1     -21.627  -0.022  21.967  1.00  0.00     0.293 HD
ENDBRANCH  17  20
ENDBRANCH   1  12
BRANCH   2  22
ATOM     22  O   UNL     1     -18.616  -2.936  17.415  1.00  0.00    -0.502 OA
ATOM     23  H   UNL     1     -17.986  -2.379  17.981  1.00  0.00     0.293 HD
ENDBRANCH   2  22
BRANCH   6  24
ATOM     24  O   UNL     1     -19.919  -1.284  12.522  1.00  0.00    -0.507 OA
ATOM     25  H   UNL     1     -18.939  -1.328  12.757  1.00  0.00     0.293 HD
ENDBRANCH   6  24
BRANCH   8  26
ATOM     26  O   UNL     1     -24.460   0.080  13.269  1.00  0.00    -0.508 OA
ATOM     27  H   UNL     1     -24.458   0.756  12.514  1.00  0.00     0.293 HD
ENDBRANCH   8  26
TORSDOF 6
ENDMDL
MODEL 8
REMARK VINA RESULT:    -6.373      8.688     12.018
REMARK INTER + INTRA:          -7.889
REMARK INTER:                  -7.567
REMARK INTRA:                  -0.322
REMARK UNBOUND:                -0.212
REMARK SMILES O=c1c(O)c(-c2ccc(O)c(O)c2)oc2cc(O)cc(O)c12
REMARK SMILES IDX 5 1 3 2 2 3 1 4 22 5 20 6 19 7 17 8 16 9 15 10 14 11 6 12
REMARK SMILES IDX 7 13 8 14 9 15 13 16 11 17 10 18 12 20 4 22 21 24 18 26
REMARK H PARENT 10 19 12 21 4 23 21 25 18 27
REMARK Flexibility Score: inf
ROOT
ATOM      1  C   UNL     1     -10.332  -5.532   9.367  1.00  0.00     0.180 A 
ATOM      2  C   UNL     1      -9.768  -6.802   9.580  1.00  0.00     0.208 A 
ATOM      3  C   UNL     1      -8.937  -7.352   8.590  1.00  0.00     0.238 A 
ATOM      4  O   UNL     1      -8.377  -8.454   8.818  1.00  0.00    -0.285 OA
ATOM      5  C   UNL     1      -8.727  -6.651   7.376  1.00  0.00     0.111 A 
ATOM      6  C   UNL     1      -7.941  -7.134   6.286  1.00  0.00     0.134 A 
ATOM      7  C   UNL     1      -7.716  -6.306   5.179  1.00  0.00     0.093 A 
ATOM      8  C   UNL     1      -8.300  -5.040   5.093  1.00  0.00     0.123 A 
ATOM      9  C   UNL     1      -9.114  -4.583   6.128  1.00  0.00     0.094 A 
ATOM     10  C   UNL     1      -9.326  -5.369   7.263  1.00  0.00     0.146 A 
ATOM     11  O   UNL     1     -10.090  -4.885   8.235  1.00  0.00    -0.452 OA
ENDROOT
BRANCH   1  12
ATOM     12  C   UNL     1     -11.205  -4.881  10.370  1.00  0.00     0.025 A 
ATOM     13  C   UNL     1     -12.600  -5.061  10.354  1.00  0.00     0.016 A 
ATOM     14  C   UNL     1     -13.400  -4.456  11.327  1.00  0.00     0.051 A 
ATOM     15  C   UNL     1     -12.821  -3.675  12.336  1.00  0.00     0.157 A 
ATOM     16  C   UNL     1     -10.627  -4.116  11.396  1.00  0.00     0.062 A 
ATOM     17  C   UNL     1     -11.427  -3.508  12.371  1.00  0.00     0.158 A 
BRANCH  15  18
ATOM     18  O   UNL     1     -13.623  -3.072  13.303  1.00  0.00    -0.504 OA
ATOM     19  H   UNL     1     -13.232  -2.704  14.164  1.00  0.00     0.293 HD
ENDBRANCH  15  18
BRANCH  17  20
ATOM     20  O   UNL     1     -10.818  -2.744  13.367  1.00  0.00    -0.504 OA
ATOM     21  H   UNL     1     -11.283  -1.955  13.800  1.00  0.00     0.293 HD
ENDBRANCH  17  20
ENDBRANCH   1  12
BRANCH   2  22
ATOM     22  O   UNL     1     -10.050  -7.511  10.750  1.00  0.00    -0.502 OA
ATOM     23  H   UNL     1      -9.703  -7.223  11.657  1.00  0.00     0.293 HD
ENDBRANCH   2  22
BRANCH   6  24
ATOM     24  O   UNL     1      -7.384  -8.415   6.228  1.00  0.00    -0.507 OA
ATOM     25  H   UNL     1      -6.963  -8.898   7.007  1.00  0.00     0.293 HD
ENDBRANCH   6  24
BRANCH   8  26
ATOM     26  O   UNL     1      -8.085  -4.231   3.981  1.00  0.00    -0.508 OA
ATOM     27  H   UNL     1      -8.782  -3.565   3.666  1.00  0.00     0.293 HD
ENDBRANCH   8  26
TORSDOF 6
ENDMDL
MODEL 9
REMARK VINA RESULT:    -6.336      3.711      4.997
REMARK INTER + INTRA:          -7.844
REMARK INTER:                  -7.638
REMARK INTRA:                  -0.206
REMARK UNBOUND:                -0.212
REMARK SMILES O=c1c(O)c(-c2ccc(O)c(O)c2)oc2cc(O)cc(O)c12
REMARK SMILES IDX 5 1 3 2 2 3 1 4 22 5 20 6 19 7 17 8 16 9 15 10 14 11 6 12
REMARK SMILES IDX 7 13 8 14 9 15 13 16 11 17 10 18 12 20 4 22 21 24 18 26
REMARK H PARENT 10 19 12 21 4 23 21 25 18 27
REMARK Flexibility Score: inf
ROOT
ATOM      1  C   UNL     1     -21.095  -2.217  17.486  1.00  0.00     0.180 A 
ATOM      2  C   UNL     1     -22.238  -1.862  16.749  1.00  0.00     0.208 A 
ATOM      3  C   UNL     1     -22.092  -1.491  15.402  1.00  0.00     0.238 A 
ATOM      4  O   UNL     1     -23.125  -1.247  14.728  1.00  0.00    -0.285 OA
ATOM      5  C   UNL     1     -20.799  -1.425  14.825  1.00  0.00     0.111 A 
ATOM      6  C   UNL     1     -20.529  -1.019  13.483  1.00  0.00     0.134 A 
ATOM      7  C   UNL     1     -19.221  -1.096  12.990  1.00  0.00     0.093 A 
ATOM      8  C   UNL     1     -18.163  -1.501  13.808  1.00  0.00     0.123 A 
ATOM      9  C   UNL     1     -18.409  -1.847  15.135  1.00  0.00     0.094 A 
ATOM     10  C   UNL     1     -19.709  -1.818  15.646  1.00  0.00     0.146 A 
ATOM     11  O   UNL     1     -19.901  -2.177  16.909  1.00  0.00    -0.452 OA
ENDROOT
BRANCH   1  12
ATOM     12  C   UNL     1     -21.171  -2.632  18.905  1.00  0.00     0.025 A 
ATOM     13  C   UNL     1     -20.879  -3.949  19.300  1.00  0.00     0.016 A 
ATOM     14  C   UNL     1     -20.933  -4.310  20.650  1.00  0.00     0.051 A 
ATOM     15  C   UNL     1     -21.266  -3.360  21.624  1.00  0.00     0.157 A 
ATOM     16  C   UNL     1     -21.483  -1.678  19.888  1.00  0.00     0.062 A 
ATOM     17  C   UNL     1     -21.539  -2.037  21.240  1.00  0.00     0.158 A 
BRANCH  15  18
ATOM     18  O   UNL     1     -21.322  -3.724  22.967  1.00  0.00    -0.504 OA
ATOM     19  H   UNL     1     -20.594  -3.456  23.621  1.00  0.00     0.293 HD
ENDBRANCH  15  18
BRANCH  17  20
ATOM     20  O   UNL     1     -21.866  -1.065  22.186  1.00  0.00    -0.504 OA
ATOM     21  H   UNL     1     -22.827  -0.837  22.413  1.00  0.00     0.293 HD
ENDBRANCH  17  20
ENDBRANCH   1  12
BRANCH   2  22
ATOM     22  O   UNL     1     -23.496  -1.859  17.358  1.00  0.00    -0.502 OA
ATOM     23  H   UNL     1     -23.815  -1.098  17.945  1.00  0.00     0.293 HD
ENDBRANCH   2  22
BRANCH   6  24
ATOM     24  O   UNL     1     -21.495  -0.514  12.608  1.00  0.00    -0.507 OA
ATOM     25  H   UNL     1     -21.485   0.413  12.210  1.00  0.00     0.293 HD
ENDBRANCH   6  24
BRANCH   8  26
ATOM     26  O   UNL     1     -16.863  -1.558  13.313  1.00  0.00    -0.508 OA
ATOM     27  H   UNL     1     -16.617  -1.149  12.418  1.00  0.00     0.293 HD
ENDBRANCH   8  26
TORSDOF 6
ENDMDL
