MODEL 1
REMARK VINA RESULT:    -4.438      0.000      0.000
REMARK INTER + INTRA:          -6.213
REMARK INTER:                  -5.994
REMARK INTRA:                  -0.218
REMARK UNBOUND:                -0.218
REMARK SMILES CCCCCCCC(=O)[O-]
REMARK SMILES IDX 5 1 6 2 7 3 8 4 9 5 10 6 4 7 3 8 2 9 1 10
REMARK H PARENT
REMARK Flexibility Score: inf
ROOT
ATOM      1  C   UNL     1      48.314  33.531  14.823  1.00  0.00     0.000 C 
ENDROOT
BRANCH   1   2
ATOM      2  C   UNL     1      48.672  34.131  16.193  1.00  0.00     0.006 C 
BRANCH   2   3
ATOM      3  C   UNL     1      47.913  33.451  17.341  1.00  0.00     0.053 C 
BRANCH   3   4
ATOM      4  C   UNL     1      48.448  32.081  17.629  1.00  0.00     0.041 C 
ATOM      5  O   UNL     1      47.659  31.138  17.900  1.00  0.00    -0.550 OA
ATOM      6  O   UNL     1      49.815  31.841  17.569  1.00  0.00    -0.550 OA
ENDBRANCH   3   4
ENDBRANCH   2   3
ENDBRANCH   1   2
BRANCH   1   7
ATOM      7  C   UNL     1      48.940  34.309  13.656  1.00  0.00     0.000 C 
BRANCH   7   8
ATOM      8  C   UNL     1      48.085  34.248  12.377  1.00  0.00    -0.000 C 
BRANCH   8   9
ATOM      9  C   UNL     1      48.818  33.567  11.211  1.00  0.00    -0.003 C 
ATOM     10  C   UNL     1      50.338  33.616  11.361  1.00  0.00     0.004 C 
ENDBRANCH   8   9
ENDBRANCH   7   8
ENDBRANCH   1   7
TORSDOF 6
ENDMDL
MODEL 2
REMARK VINA RESULT:    -4.309      3.068      5.355
REMARK INTER + INTRA:          -6.039
REMARK INTER:                  -5.728
REMARK INTRA:                  -0.311
REMARK UNBOUND:                -0.218
REMARK SMILES CCCCCCCC(=O)[O-]
REMARK SMILES IDX 5 1 6 2 7 3 8 4 9 5 10 6 4 7 3 8 2 9 1 10
REMARK H PARENT
REMARK Flexibility Score: inf
ROOT
ATOM      1  C   UNL     1      47.787  33.777  15.643  1.00  0.00     0.000 C 
ENDROOT
BRANCH   1   2
ATOM      2  C   UNL     1      48.541  33.206  14.429  1.00  0.00     0.006 C 
BRANCH   2   3
ATOM      3  C   UNL     1      48.893  34.290  13.402  1.00  0.00     0.053 C 
BRANCH   3   4
ATOM      4  C   UNL     1      49.228  33.704  12.065  1.00  0.00     0.041 C 
ATOM      5  O   UNL     1      48.349  33.090  11.405  1.00  0.00    -0.550 OA
ATOM      6  O   UNL     1      50.502  33.861  11.536  1.00  0.00    -0.550 OA
ENDBRANCH   3   4
ENDBRANCH   2   3
ENDBRANCH   1   2
BRANCH   1   7
ATOM      7  C   UNL     1      48.700  33.987  16.860  1.00  0.00     0.000 C 
BRANCH   7   8
ATOM      8  C   UNL     1      49.217  32.662  17.449  1.00  0.00    -0.000 C 
BRANCH   8   9
ATOM      9  C   UNL     1      48.095  31.815  18.067  1.00  0.00    -0.003 C 
ATOM     10  C   UNL     1      47.974  30.435  17.421  1.00  0.00     0.004 C 
ENDBRANCH   8   9
ENDBRANCH   7   8
ENDBRANCH   1   7
TORSDOF 6
ENDMDL
MODEL 3
REMARK VINA RESULT:    -4.271      0.961      1.457
REMARK INTER + INTRA:          -5.987
REMARK INTER:                  -5.806
REMARK INTRA:                  -0.181
REMARK UNBOUND:                -0.218
REMARK SMILES CCCCCCCC(=O)[O-]
REMARK SMILES IDX 5 1 6 2 7 3 8 4 9 5 10 6 4 7 3 8 2 9 1 10
REMARK H PARENT
REMARK Flexibility Score: inf
ROOT
ATOM      1  C   UNL     1      48.965  34.312  14.376  1.00  0.00     0.000 C 
ENDROOT
BRANCH   1   2
ATOM      2  C   UNL     1      48.123  33.408  15.293  1.00  0.00     0.006 C 
BRANCH   2   3
ATOM      3  C   UNL     1      48.388  33.682  16.780  1.00  0.00     0.053 C 
BRANCH   3   4
ATOM      4  C   UNL     1      49.302  32.658  17.381  1.00  0.00     0.041 C 
ATOM      5  O   UNL     1      49.060  31.430  17.233  1.00  0.00    -0.550 OA
ATOM      6  O   UNL     1      50.434  33.058  18.079  1.00  0.00    -0.550 OA
ENDBRANCH   3   4
ENDBRANCH   2   3
ENDBRANCH   1   2
BRANCH   1   7
ATOM      7  C   UNL     1      48.558  34.199  12.899  1.00  0.00     0.000 C 
BRANCH   7   8
ATOM      8  C   UNL     1      49.725  33.763  11.995  1.00  0.00    -0.000 C 
BRANCH   8   9
ATOM      9  C   UNL     1      49.286  33.523  10.542  1.00  0.00    -0.003 C 
ATOM     10  C   UNL     1      47.771  33.374  10.401  1.00  0.00     0.004 C 
ENDBRANCH   8   9
ENDBRANCH   7   8
ENDBRANCH   1   7
TORSDOF 6
ENDMDL
MODEL 4
REMARK VINA RESULT:    -4.192     11.122     12.938
REMARK INTER + INTRA:          -5.881
REMARK INTER:                  -5.331
REMARK INTRA:                  -0.550
REMARK UNBOUND:                -0.218
REMARK SMILES CCCCCCCC(=O)[O-]
REMARK SMILES IDX 5 1 6 2 7 3 8 4 9 5 10 6 4 7 3 8 2 9 1 10
REMARK H PARENT
REMARK Flexibility Score: inf
ROOT
ATOM      1  C   UNL     1      39.677  36.121  23.848  1.00  0.00     0.000 C 
ENDROOT
BRANCH   1   2
ATOM      2  C   UNL     1      40.952  36.971  23.981  1.00  0.00     0.006 C 
BRANCH   2   3
ATOM      3  C   UNL     1      41.797  36.953  22.701  1.00  0.00     0.053 C 
BRANCH   3   4
ATOM      4  C   UNL     1      42.720  38.131  22.625  1.00  0.00     0.041 C 
ATOM      5  O   UNL     1      43.956  37.980  22.816  1.00  0.00    -0.550 OA
ATOM      6  O   UNL     1      42.220  39.389  22.316  1.00  0.00    -0.550 OA
ENDBRANCH   3   4
ENDBRANCH   2   3
ENDBRANCH   1   2
BRANCH   1   7
ATOM      7  C   UNL     1      38.469  36.939  23.367  1.00  0.00     0.000 C 
BRANCH   7   8
ATOM      8  C   UNL     1      38.496  38.391  23.876  1.00  0.00    -0.000 C 
BRANCH   8   9
ATOM      9  C   UNL     1      38.402  39.416  22.736  1.00  0.00    -0.003 C 
ATOM     10  C   UNL     1      38.813  38.833  21.384  1.00  0.00     0.004 C 
ENDBRANCH   8   9
ENDBRANCH   7   8
ENDBRANCH   1   7
TORSDOF 6
ENDMDL
MODEL 5
REMARK VINA RESULT:    -4.122     11.718     13.311
REMARK INTER + INTRA:          -5.786
REMARK INTER:                  -5.369
REMARK INTRA:                  -0.417
REMARK UNBOUND:                -0.218
REMARK SMILES CCCCCCCC(=O)[O-]
REMARK SMILES IDX 5 1 6 2 7 3 8 4 9 5 10 6 4 7 3 8 2 9 1 10
REMARK H PARENT
REMARK Flexibility Score: inf
ROOT
ATOM      1  C   UNL     1      41.740  36.860  22.711  1.00  0.00     0.000 C 
ENDROOT
BRANCH   1   2
ATOM      2  C   UNL     1      42.376  38.188  22.268  1.00  0.00     0.006 C 
BRANCH   2   3
ATOM      3  C   UNL     1      41.424  39.027  21.405  1.00  0.00     0.053 C 
BRANCH   3   4
ATOM      4  C   UNL     1      40.986  40.275  22.109  1.00  0.00     0.041 C 
ATOM      5  O   UNL     1      39.763  40.480  22.331  1.00  0.00    -0.550 OA
ATOM      6  O   UNL     1      41.929  41.196  22.546  1.00  0.00    -0.550 OA
ENDBRANCH   3   4
ENDBRANCH   2   3
ENDBRANCH   1   2
BRANCH   1   7
ATOM      7  C   UNL     1      40.912  37.000  23.997  1.00  0.00     0.000 C 
BRANCH   7   8
ATOM      8  C   UNL     1      39.579  36.235  23.931  1.00  0.00    -0.000 C 
BRANCH   8   9
ATOM      9  C   UNL     1      38.525  36.961  23.081  1.00  0.00    -0.003 C 
ATOM     10  C   UNL     1      37.521  37.742  23.928  1.00  0.00     0.004 C 
ENDBRANCH   8   9
ENDBRANCH   7   8
ENDBRANCH   1   7
TORSDOF 6
ENDMDL
MODEL 6
REMARK VINA RESULT:    -4.117      1.340      2.057
REMARK INTER + INTRA:          -5.779
REMARK INTER:                  -5.479
REMARK INTRA:                  -0.299
REMARK UNBOUND:                -0.218
REMARK SMILES CCCCCCCC(=O)[O-]
REMARK SMILES IDX 5 1 6 2 7 3 8 4 9 5 10 6 4 7 3 8 2 9 1 10
REMARK H PARENT
REMARK Flexibility Score: inf
ROOT
ATOM      1  C   UNL     1      48.827  33.961  16.794  1.00  0.00     0.000 C 
ENDROOT
BRANCH   1   2
ATOM      2  C   UNL     1      49.249  32.590  17.350  1.00  0.00     0.006 C 
BRANCH   2   3
ATOM      3  C   UNL     1      48.086  31.859  18.034  1.00  0.00     0.053 C 
BRANCH   3   4
ATOM      4  C   UNL     1      47.848  30.507  17.434  1.00  0.00     0.041 C 
ATOM      5  O   UNL     1      47.682  29.504  18.178  1.00  0.00    -0.550 OA
ATOM      6  O   UNL     1      47.781  30.359  16.055  1.00  0.00    -0.550 OA
ENDBRANCH   3   4
ENDBRANCH   2   3
ENDBRANCH   1   2
BRANCH   1   7
ATOM      7  C   UNL     1      47.822  33.845  15.639  1.00  0.00     0.000 C 
BRANCH   7   8
ATOM      8  C   UNL     1      48.455  33.278  14.356  1.00  0.00    -0.000 C 
BRANCH   8   9
ATOM      9  C   UNL     1      48.711  34.360  13.297  1.00  0.00    -0.003 C 
ATOM     10  C   UNL     1      49.548  33.851  12.123  1.00  0.00     0.004 C 
ENDBRANCH   8   9
ENDBRANCH   7   8
ENDBRANCH   1   7
TORSDOF 6
ENDMDL
MODEL 7
REMARK VINA RESULT:    -4.069     11.403     13.159
REMARK INTER + INTRA:          -5.714
REMARK INTER:                  -5.154
REMARK INTRA:                  -0.560
REMARK UNBOUND:                -0.218
REMARK SMILES CCCCCCCC(=O)[O-]
REMARK SMILES IDX 5 1 6 2 7 3 8 4 9 5 10 6 4 7 3 8 2 9 1 10
REMARK H PARENT
REMARK Flexibility Score: inf
ROOT
ATOM      1  C   UNL     1      41.017  36.987  24.011  1.00  0.00     0.000 C 
ENDROOT
BRANCH   1   2
ATOM      2  C   UNL     1      41.769  36.949  22.670  1.00  0.00     0.006 C 
BRANCH   2   3
ATOM      3  C   UNL     1      42.650  38.189  22.464  1.00  0.00     0.053 C 
BRANCH   3   4
ATOM      4  C   UNL     1      41.844  39.385  22.058  1.00  0.00     0.041 C 
ATOM      5  O   UNL     1      41.411  39.486  20.880  1.00  0.00    -0.550 OA
ATOM      6  O   UNL     1      41.547  40.373  22.988  1.00  0.00    -0.550 OA
ENDBRANCH   3   4
ENDBRANCH   2   3
ENDBRANCH   1   2
BRANCH   1   7
ATOM      7  C   UNL     1      39.749  36.120  24.002  1.00  0.00     0.000 C 
BRANCH   7   8
ATOM      8  C   UNL     1      38.557  36.820  23.324  1.00  0.00    -0.000 C 
BRANCH   8   9
ATOM      9  C   UNL     1      38.441  38.300  23.719  1.00  0.00    -0.003 C 
ATOM     10  C   UNL     1      38.134  39.206  22.527  1.00  0.00     0.004 C 
ENDBRANCH   8   9
ENDBRANCH   7   8
ENDBRANCH   1   7
TORSDOF 6
ENDMDL
MODEL 8
REMARK VINA RESULT:    -4.007     11.647     13.395
REMARK INTER + INTRA:          -5.630
REMARK INTER:                  -5.026
REMARK INTRA:                  -0.604
REMARK UNBOUND:                -0.218
REMARK SMILES CCCCCCCC(=O)[O-]
REMARK SMILES IDX 5 1 6 2 7 3 8 4 9 5 10 6 4 7 3 8 2 9 1 10
REMARK H PARENT
REMARK Flexibility Score: inf
ROOT
ATOM      1  C   UNL     1      39.840  36.127  24.111  1.00  0.00     0.000 C 
ENDROOT
BRANCH   1   2
ATOM      2  C   UNL     1      38.566  36.608  23.394  1.00  0.00     0.006 C 
BRANCH   2   3
ATOM      3  C   UNL     1      38.169  38.030  23.811  1.00  0.00     0.053 C 
BRANCH   3   4
ATOM      4  C   UNL     1      38.146  38.968  22.643  1.00  0.00     0.041 C 
ATOM      5  O   UNL     1      37.688  40.134  22.775  1.00  0.00    -0.550 OA
ATOM      6  O   UNL     1      38.658  38.564  21.416  1.00  0.00    -0.550 OA
ENDBRANCH   3   4
ENDBRANCH   2   3
ENDBRANCH   1   2
BRANCH   1   7
ATOM      7  C   UNL     1      41.019  37.096  23.934  1.00  0.00     0.000 C 
BRANCH   7   8
ATOM      8  C   UNL     1      41.775  36.874  22.611  1.00  0.00    -0.000 C 
BRANCH   8   9
ATOM      9  C   UNL     1      42.104  38.192  21.893  1.00  0.00    -0.003 C 
ATOM     10  C   UNL     1      41.820  39.421  22.757  1.00  0.00     0.004 C 
ENDBRANCH   8   9
ENDBRANCH   7   8
ENDBRANCH   1   7
TORSDOF 6
ENDMDL
MODEL 9
REMARK VINA RESULT:    -3.999     11.597     13.612
REMARK INTER + INTRA:          -5.620
REMARK INTER:                  -5.036
REMARK INTRA:                  -0.585
REMARK UNBOUND:                -0.218
REMARK SMILES CCCCCCCC(=O)[O-]
REMARK SMILES IDX 5 1 6 2 7 3 8 4 9 5 10 6 4 7 3 8 2 9 1 10
REMARK H PARENT
REMARK Flexibility Score: inf
ROOT
ATOM      1  C   UNL     1      38.234  38.124  23.900  1.00  0.00     0.000 C 
ENDROOT
BRANCH   1   2
ATOM      2  C   UNL     1      37.975  39.149  22.783  1.00  0.00     0.006 C 
BRANCH   2   3
ATOM      3  C   UNL     1      38.875  38.916  21.562  1.00  0.00     0.053 C 
BRANCH   3   4
ATOM      4  C   UNL     1      40.015  39.888  21.516  1.00  0.00     0.041 C 
ATOM      5  O   UNL     1      40.964  39.712  20.707  1.00  0.00    -0.550 OA
ATOM      6  O   UNL     1      40.014  41.002  22.345  1.00  0.00    -0.550 OA
ENDBRANCH   3   4
ENDBRANCH   2   3
ENDBRANCH   1   2
BRANCH   1   7
ATOM      7  C   UNL     1      38.611  36.738  23.354  1.00  0.00     0.000 C 
BRANCH   7   8
ATOM      8  C   UNL     1      39.855  36.148  24.042  1.00  0.00    -0.000 C 
BRANCH   8   9
ATOM      9  C   UNL     1      41.072  37.081  23.960  1.00  0.00    -0.003 C 
ATOM     10  C   UNL     1      41.887  36.877  22.684  1.00  0.00     0.004 C 
ENDBRANCH   8   9
ENDBRANCH   7   8
ENDBRANCH   1   7
TORSDOF 6
ENDMDL
