MODEL 1
REMARK VINA RESULT:    -4.682      0.000      0.000
REMARK INTER + INTRA:          -5.636
REMARK INTER:                  -5.503
REMARK INTRA:                  -0.133
REMARK UNBOUND:                -0.133
REMARK SMILES O=C([O-])C=Cc1ccc(O)c(O)c1
REMARK SMILES IDX 6 1 13 2 7 3 11 4 8 5 9 6 5 7 4 8 2 9 1 10 3 11 12 12 10 14
REMARK H PARENT 12 13 10 15
REMARK Flexibility Score: inf
ROOT
ATOM      1  C   UNL     1      41.936   9.037  11.323  1.00  0.00    -0.022 A 
ATOM      2  C   UNL     1      42.030   9.608  12.607  1.00  0.00     0.058 A 
ATOM      3  C   UNL     1      41.101   7.924  11.137  1.00  0.00     0.012 A 
ATOM      4  C   UNL     1      41.322   9.057  13.687  1.00  0.00     0.157 A 
ATOM      5  C   UNL     1      40.397   7.373  12.211  1.00  0.00     0.051 A 
ATOM      6  C   UNL     1      40.505   7.933  13.487  1.00  0.00     0.157 A 
ENDROOT
BRANCH   1   7
ATOM      7  C   UNL     1      42.654   9.590  10.148  1.00  0.00     0.010 C 
ATOM      8  C   UNL     1      42.039  10.114   9.078  1.00  0.00     0.025 C 
BRANCH   8   9
ATOM      9  C   UNL     1      42.786  10.665   7.935  1.00  0.00     0.064 C 
ATOM     10  O   UNL     1      43.125  11.878   7.900  1.00  0.00    -0.545 OA
ATOM     11  O   UNL     1      43.124   9.832   6.876  1.00  0.00    -0.545 OA
ENDBRANCH   8   9
ENDBRANCH   1   7
BRANCH   4  12
ATOM     12  O   UNL     1      41.424   9.627  14.956  1.00  0.00    -0.504 OA
ATOM     13  H   UNL     1      42.102   9.296  15.634  1.00  0.00     0.293 HD
ENDBRANCH   4  12
BRANCH   6  14
ATOM     14  O   UNL     1      39.792   7.361  14.541  1.00  0.00    -0.504 OA
ATOM     15  H   UNL     1      39.994   7.582  15.509  1.00  0.00     0.293 HD
ENDBRANCH   6  14
TORSDOF 4
ENDMDL
MODEL 2
REMARK VINA RESULT:    -4.453      1.476      5.992
REMARK INTER + INTRA:          -5.367
REMARK INTER:                  -5.235
REMARK INTRA:                  -0.132
REMARK UNBOUND:                -0.133
REMARK SMILES O=C([O-])C=Cc1ccc(O)c(O)c1
REMARK SMILES IDX 6 1 13 2 7 3 11 4 8 5 9 6 5 7 4 8 2 9 1 10 3 11 12 12 10 14
REMARK H PARENT 12 13 10 15
REMARK Flexibility Score: inf
ROOT
ATOM      1  C   UNL     1      41.447   8.868  10.096  1.00  0.00    -0.022 A 
ATOM      2  C   UNL     1      40.497   9.345   9.171  1.00  0.00     0.058 A 
ATOM      3  C   UNL     1      42.759   9.364  10.036  1.00  0.00     0.012 A 
ATOM      4  C   UNL     1      40.863  10.281   8.191  1.00  0.00     0.157 A 
ATOM      5  C   UNL     1      43.125  10.295   9.060  1.00  0.00     0.051 A 
ATOM      6  C   UNL     1      42.184  10.754   8.134  1.00  0.00     0.157 A 
ENDROOT
BRANCH   1   7
ATOM      7  C   UNL     1      41.107   7.888  11.157  1.00  0.00     0.010 C 
ATOM      8  C   UNL     1      41.107   8.179  12.466  1.00  0.00     0.025 C 
BRANCH   8   9
ATOM      9  C   UNL     1      40.751   7.184  13.492  1.00  0.00     0.064 C 
ATOM     10  O   UNL     1      39.743   7.340  14.231  1.00  0.00    -0.545 OA
ATOM     11  O   UNL     1      41.541   6.051  13.645  1.00  0.00    -0.545 OA
ENDBRANCH   8   9
ENDBRANCH   1   7
BRANCH   4  12
ATOM     12  O   UNL     1      39.917  10.745   7.278  1.00  0.00    -0.504 OA
ATOM     13  H   UNL     1      40.133  10.842   6.292  1.00  0.00     0.293 HD
ENDBRANCH   4  12
BRANCH   6  14
ATOM     14  O   UNL     1      42.579  11.681   7.170  1.00  0.00    -0.504 OA
ATOM     15  H   UNL     1      42.842  12.630   7.412  1.00  0.00     0.293 HD
ENDBRANCH   6  14
TORSDOF 4
ENDMDL
MODEL 3
REMARK VINA RESULT:    -4.207      2.557      3.184
REMARK INTER + INTRA:          -5.078
REMARK INTER:                  -4.949
REMARK INTRA:                  -0.130
REMARK UNBOUND:                -0.133
REMARK SMILES O=C([O-])C=Cc1ccc(O)c(O)c1
REMARK SMILES IDX 6 1 13 2 7 3 11 4 8 5 9 6 5 7 4 8 2 9 1 10 3 11 12 12 10 14
REMARK H PARENT 12 13 10 15
REMARK Flexibility Score: inf
ROOT
ATOM      1  C   UNL     1      42.013   8.388  10.714  1.00  0.00    -0.022 A 
ATOM      2  C   UNL     1      41.267   9.537  11.045  1.00  0.00     0.058 A 
ATOM      3  C   UNL     1      42.719   7.723  11.729  1.00  0.00     0.012 A 
ATOM      4  C   UNL     1      41.251  10.022  12.361  1.00  0.00     0.157 A 
ATOM      5  C   UNL     1      42.705   8.207  13.040  1.00  0.00     0.051 A 
ATOM      6  C   UNL     1      41.977   9.356  13.362  1.00  0.00     0.157 A 
ENDROOT
BRANCH   1   7
ATOM      7  C   UNL     1      42.051   7.829   9.340  1.00  0.00     0.010 C 
ATOM      8  C   UNL     1      41.163   6.940   8.873  1.00  0.00     0.025 C 
BRANCH   8   9
ATOM      9  C   UNL     1      41.225   6.416   7.498  1.00  0.00     0.064 C 
ATOM     10  O   UNL     1      42.318   6.345   6.876  1.00  0.00    -0.545 OA
ATOM     11  O   UNL     1      40.058   5.990   6.878  1.00  0.00    -0.545 OA
ENDBRANCH   8   9
ENDBRANCH   1   7
BRANCH   4  12
ATOM     12  O   UNL     1      40.513  11.162  12.679  1.00  0.00    -0.504 OA
ATOM     13  H   UNL     1      39.666  11.404  12.177  1.00  0.00     0.293 HD
ENDBRANCH   4  12
BRANCH   6  14
ATOM     14  O   UNL     1      41.984   9.816  14.679  1.00  0.00    -0.504 OA
ATOM     15  H   UNL     1      42.353   9.259  15.441  1.00  0.00     0.293 HD
ENDBRANCH   6  14
TORSDOF 4
ENDMDL
MODEL 4
REMARK VINA RESULT:    -2.978      0.732      0.756
REMARK INTER + INTRA:          -3.633
REMARK INTER:                  -3.510
REMARK INTRA:                  -0.123
REMARK UNBOUND:                -0.133
REMARK SMILES O=C([O-])C=Cc1ccc(O)c(O)c1
REMARK SMILES IDX 6 1 13 2 7 3 11 4 8 5 9 6 5 7 4 8 2 9 1 10 3 11 12 12 10 14
REMARK H PARENT 12 13 10 15
REMARK Flexibility Score: inf
ROOT
ATOM      1  C   UNL     1      41.353   8.407  11.161  1.00  0.00    -0.022 A 
ATOM      2  C   UNL     1      41.276   9.290  12.257  1.00  0.00     0.058 A 
ATOM      3  C   UNL     1      41.059   7.050  11.364  1.00  0.00     0.012 A 
ATOM      4  C   UNL     1      40.936   8.816  13.533  1.00  0.00     0.157 A 
ATOM      5  C   UNL     1      40.722   6.576  12.635  1.00  0.00     0.051 A 
ATOM      6  C   UNL     1      40.662   7.452  13.722  1.00  0.00     0.157 A 
ENDROOT
BRANCH   1   7
ATOM      7  C   UNL     1      41.696   8.862   9.791  1.00  0.00     0.010 C 
ATOM      8  C   UNL     1      42.368   9.992   9.528  1.00  0.00     0.025 C 
BRANCH   8   9
ATOM      9  C   UNL     1      42.702  10.406   8.155  1.00  0.00     0.064 C 
ATOM     10  O   UNL     1      43.004  11.599   7.888  1.00  0.00    -0.545 OA
ATOM     11  O   UNL     1      42.687   9.462   7.136  1.00  0.00    -0.545 OA
ENDBRANCH   8   9
ENDBRANCH   1   7
BRANCH   4  12
ATOM     12  O   UNL     1      40.866   9.697  14.612  1.00  0.00    -0.504 OA
ATOM     13  H   UNL     1      41.099  10.679  14.512  1.00  0.00     0.293 HD
ENDBRANCH   4  12
BRANCH   6  14
ATOM     14  O   UNL     1      40.325   6.950  14.979  1.00  0.00    -0.504 OA
ATOM     15  H   UNL     1      39.369   6.722  15.229  1.00  0.00     0.293 HD
ENDBRANCH   6  14
TORSDOF 4
ENDMDL
MODEL 5
REMARK VINA RESULT:    -2.611      2.565      5.484
REMARK INTER + INTRA:          -3.203
REMARK INTER:                  -3.064
REMARK INTRA:                  -0.139
REMARK UNBOUND:                -0.133
REMARK SMILES O=C([O-])C=Cc1ccc(O)c(O)c1
REMARK SMILES IDX 6 1 13 2 7 3 11 4 8 5 9 6 5 7 4 8 2 9 1 10 3 11 12 12 10 14
REMARK H PARENT 12 13 10 15
REMARK Flexibility Score: inf
ROOT
ATOM      1  C   UNL     1      41.163   8.532  10.121  1.00  0.00    -0.022 A 
ATOM      2  C   UNL     1      40.306   8.854   9.050  1.00  0.00     0.058 A 
ATOM      3  C   UNL     1      41.888   7.331  10.071  1.00  0.00     0.012 A 
ATOM      4  C   UNL     1      40.161   7.976   7.965  1.00  0.00     0.157 A 
ATOM      5  C   UNL     1      41.743   6.456   8.992  1.00  0.00     0.051 A 
ATOM      6  C   UNL     1      40.881   6.770   7.938  1.00  0.00     0.157 A 
ENDROOT
BRANCH   1   7
ATOM      7  C   UNL     1      41.359   9.432  11.285  1.00  0.00     0.010 C 
ATOM      8  C   UNL     1      41.299   9.024  12.561  1.00  0.00     0.025 C 
BRANCH   8   9
ATOM      9  C   UNL     1      41.511   9.943  13.691  1.00  0.00     0.064 C 
ATOM     10  O   UNL     1      42.290   9.647  14.635  1.00  0.00    -0.545 OA
ATOM     11  O   UNL     1      40.842  11.160  13.715  1.00  0.00    -0.545 OA
ENDBRANCH   8   9
ENDBRANCH   1   7
BRANCH   4  12
ATOM     12  O   UNL     1      39.308   8.301   6.910  1.00  0.00    -0.504 OA
ATOM     13  H   UNL     1      39.366   7.828   6.015  1.00  0.00     0.293 HD
ENDBRANCH   4  12
BRANCH   6  14
ATOM     14  O   UNL     1      40.755   5.876   6.875  1.00  0.00    -0.504 OA
ATOM     15  H   UNL     1      40.493   6.181   5.945  1.00  0.00     0.293 HD
ENDBRANCH   6  14
TORSDOF 4
ENDMDL
MODEL 6
REMARK VINA RESULT:    -2.376      1.475      2.247
REMARK INTER + INTRA:          -2.926
REMARK INTER:                  -2.783
REMARK INTRA:                  -0.143
REMARK UNBOUND:                -0.133
REMARK SMILES O=C([O-])C=Cc1ccc(O)c(O)c1
REMARK SMILES IDX 6 1 13 2 7 3 11 4 8 5 9 6 5 7 4 8 2 9 1 10 3 11 12 12 10 14
REMARK H PARENT 12 13 10 15
REMARK Flexibility Score: inf
ROOT
ATOM      1  C   UNL     1      41.041   8.948  11.119  1.00  0.00    -0.022 A 
ATOM      2  C   UNL     1      40.786   7.709  11.739  1.00  0.00     0.058 A 
ATOM      3  C   UNL     1      41.321  10.064  11.924  1.00  0.00     0.012 A 
ATOM      4  C   UNL     1      40.788   7.598  13.138  1.00  0.00     0.157 A 
ATOM      5  C   UNL     1      41.321   9.955  13.317  1.00  0.00     0.051 A 
ATOM      6  C   UNL     1      41.053   8.727  13.929  1.00  0.00     0.157 A 
ENDROOT
BRANCH   1   7
ATOM      7  C   UNL     1      41.062   9.114   9.645  1.00  0.00     0.010 C 
ATOM      8  C   UNL     1      40.787  10.269   9.021  1.00  0.00     0.025 C 
BRANCH   8   9
ATOM      9  C   UNL     1      40.830  10.400   7.555  1.00  0.00     0.064 C 
ATOM     10  O   UNL     1      39.773  10.502   6.878  1.00  0.00    -0.545 OA
ATOM     11  O   UNL     1      42.059  10.412   6.907  1.00  0.00    -0.545 OA
ENDBRANCH   8   9
ENDBRANCH   1   7
BRANCH   4  12
ATOM     12  O   UNL     1      40.531   6.368  13.744  1.00  0.00    -0.504 OA
ATOM     13  H   UNL     1      40.048   6.304  14.632  1.00  0.00     0.293 HD
ENDBRANCH   4  12
BRANCH   6  14
ATOM     14  O   UNL     1      41.058   8.649  15.322  1.00  0.00    -0.504 OA
ATOM     15  H   UNL     1      40.207   8.515  15.856  1.00  0.00     0.293 HD
ENDBRANCH   6  14
TORSDOF 4
ENDMDL
MODEL 7
REMARK VINA RESULT:    -2.170      2.935      3.599
REMARK INTER + INTRA:          -2.684
REMARK INTER:                  -2.540
REMARK INTRA:                  -0.144
REMARK UNBOUND:                -0.133
REMARK SMILES O=C([O-])C=Cc1ccc(O)c(O)c1
REMARK SMILES IDX 6 1 13 2 7 3 11 4 8 5 9 6 5 7 4 8 2 9 1 10 3 11 12 12 10 14
REMARK H PARENT 12 13 10 15
REMARK Flexibility Score: inf
ROOT
ATOM      1  C   UNL     1      41.113   9.759  11.254  1.00  0.00    -0.022 A 
ATOM      2  C   UNL     1      40.975   8.478  10.685  1.00  0.00     0.058 A 
ATOM      3  C   UNL     1      41.713   9.878  12.518  1.00  0.00     0.012 A 
ATOM      4  C   UNL     1      41.407   7.338  11.381  1.00  0.00     0.157 A 
ATOM      5  C   UNL     1      42.142   8.744  13.213  1.00  0.00     0.051 A 
ATOM      6  C   UNL     1      41.989   7.473  12.652  1.00  0.00     0.157 A 
ENDROOT
BRANCH   1   7
ATOM      7  C   UNL     1      40.684  10.995  10.554  1.00  0.00     0.010 C 
ATOM      8  C   UNL     1      40.128  12.047  11.172  1.00  0.00     0.025 C 
BRANCH   8   9
ATOM      9  C   UNL     1      39.725  13.263  10.446  1.00  0.00     0.064 C 
ATOM     10  O   UNL     1      39.972  14.409  10.905  1.00  0.00    -0.545 OA
ATOM     11  O   UNL     1      39.063  13.143   9.231  1.00  0.00    -0.545 OA
ENDBRANCH   8   9
ENDBRANCH   1   7
BRANCH   4  12
ATOM     12  O   UNL     1      41.263   6.073  10.812  1.00  0.00    -0.504 OA
ATOM     13  H   UNL     1      42.062   5.469  10.651  1.00  0.00     0.293 HD
ENDBRANCH   4  12
BRANCH   6  14
ATOM     14  O   UNL     1      42.425   6.359  13.370  1.00  0.00    -0.504 OA
ATOM     15  H   UNL     1      41.935   6.024  14.191  1.00  0.00     0.293 HD
ENDBRANCH   6  14
TORSDOF 4
ENDMDL
MODEL 8
REMARK VINA RESULT:    -1.855      2.875      3.370
REMARK INTER + INTRA:          -2.314
REMARK INTER:                  -2.191
REMARK INTRA:                  -0.123
REMARK UNBOUND:                -0.133
REMARK SMILES O=C([O-])C=Cc1ccc(O)c(O)c1
REMARK SMILES IDX 6 1 13 2 7 3 11 4 8 5 9 6 5 7 4 8 2 9 1 10 3 11 12 12 10 14
REMARK H PARENT 12 13 10 15
REMARK Flexibility Score: inf
ROOT
ATOM      1  C   UNL     1      41.196   9.764  10.579  1.00  0.00    -0.022 A 
ATOM      2  C   UNL     1      41.787   9.567  11.843  1.00  0.00     0.058 A 
ATOM      3  C   UNL     1      40.949   8.647   9.766  1.00  0.00     0.012 A 
ATOM      4  C   UNL     1      42.146   8.279  12.270  1.00  0.00     0.157 A 
ATOM      5  C   UNL     1      41.307   7.364  10.189  1.00  0.00     0.051 A 
ATOM      6  C   UNL     1      41.907   7.174  11.437  1.00  0.00     0.157 A 
ENDROOT
BRANCH   1   7
ATOM      7  C   UNL     1      40.789  11.103  10.088  1.00  0.00     0.010 C 
ATOM      8  C   UNL     1      40.120  11.997  10.831  1.00  0.00     0.025 C 
BRANCH   8   9
ATOM      9  C   UNL     1      39.742  13.323  10.314  1.00  0.00     0.064 C 
ATOM     10  O   UNL     1      39.085  13.444   9.247  1.00  0.00    -0.545 OA
ATOM     11  O   UNL     1      40.115  14.461  11.018  1.00  0.00    -0.545 OA
ENDBRANCH   8   9
ENDBRANCH   1   7
BRANCH   4  12
ATOM     12  O   UNL     1      42.733   8.094  13.521  1.00  0.00    -0.504 OA
ATOM     13  H   UNL     1      42.486   7.309  14.113  1.00  0.00     0.293 HD
ENDBRANCH   4  12
BRANCH   6  14
ATOM     14  O   UNL     1      42.256   5.882  11.832  1.00  0.00    -0.504 OA
ATOM     15  H   UNL     1      42.646   5.686  12.746  1.00  0.00     0.293 HD
ENDBRANCH   6  14
TORSDOF 4
ENDMDL
