MODEL 1
REMARK VINA RESULT:    -4.266      0.000      0.000
REMARK INTER + INTRA:          -9.567
REMARK INTER:                  -7.508
REMARK INTRA:                  -2.058
REMARK UNBOUND:                -2.058
REMARK SMILES CCCCCCCCCCCCCCC(=O)[O-]
REMARK SMILES IDX 9 1 10 2 11 3 12 4 13 5 14 6 15 7 16 8 17 9 8 10 7 11 6 12
REMARK SMILES IDX 5 13 4 14 3 15 2 16 1 17
REMARK H PARENT
REMARK Flexibility Score: inf
ROOT
ATOM      1  C   UNL     1       8.636   3.657   1.060  1.00  0.00     0.000 C 
ENDROOT
BRANCH   1   2
ATOM      2  C   UNL     1      10.080   3.139   0.971  1.00  0.00     0.000 C 
BRANCH   2   3
ATOM      3  C   UNL     1      10.355   2.374  -0.333  1.00  0.00     0.000 C 
BRANCH   3   4
ATOM      4  C   UNL     1      11.604   1.490  -0.195  1.00  0.00     0.000 C 
BRANCH   4   5
ATOM      5  C   UNL     1      12.440   1.432  -1.487  1.00  0.00     0.006 C 
BRANCH   5   6
ATOM      6  C   UNL     1      12.141   2.561  -2.487  1.00  0.00     0.053 C 
BRANCH   6   7
ATOM      7  C   UNL     1      11.613   2.036  -3.787  1.00  0.00     0.041 C 
ATOM      8  O   UNL     1      11.516   0.795  -3.976  1.00  0.00    -0.550 OA
ATOM      9  O   UNL     1      11.261   2.917  -4.801  1.00  0.00    -0.550 OA
ENDBRANCH   6   7
ENDBRANCH   5   6
ENDBRANCH   4   5
ENDBRANCH   3   4
ENDBRANCH   2   3
ENDBRANCH   1   2
BRANCH   1  10
ATOM     10  C   UNL     1       8.547   5.185   0.907  1.00  0.00     0.000 C 
BRANCH  10  11
ATOM     11  C   UNL     1       9.926   5.848   0.737  1.00  0.00    -0.000 C 
BRANCH  11  12
ATOM     12  C   UNL     1      10.035   6.739  -0.518  1.00  0.00    -0.000 C 
BRANCH  12  13
ATOM     13  C   UNL     1      11.007   6.156  -1.559  1.00  0.00    -0.000 C 
BRANCH  13  14
ATOM     14  C   UNL     1      10.297   5.676  -2.836  1.00  0.00    -0.000 C 
BRANCH  14  15
ATOM     15  C   UNL     1       8.769   5.608  -2.671  1.00  0.00    -0.000 C 
BRANCH  15  16
ATOM     16  C   UNL     1       8.244   4.164  -2.649  1.00  0.00    -0.003 C 
ATOM     17  C   UNL     1       6.728   4.087  -2.467  1.00  0.00     0.004 C 
ENDBRANCH  15  16
ENDBRANCH  14  15
ENDBRANCH  13  14
ENDBRANCH  12  13
ENDBRANCH  11  12
ENDBRANCH  10  11
ENDBRANCH   1  10
TORSDOF 13
ENDMDL
MODEL 2
REMARK VINA RESULT:    -4.195      3.403      5.789
REMARK INTER + INTRA:          -9.441
REMARK INTER:                  -8.261
REMARK INTRA:                  -1.180
REMARK UNBOUND:                -2.058
REMARK SMILES CCCCCCCCCCCCCCC(=O)[O-]
REMARK SMILES IDX 9 1 10 2 11 3 12 4 13 5 14 6 15 7 16 8 17 9 8 10 7 11 6 12
REMARK SMILES IDX 5 13 4 14 3 15 2 16 1 17
REMARK H PARENT
REMARK Flexibility Score: inf
ROOT
ATOM      1  C   UNL     1      10.057   2.923   0.788  1.00  0.00     0.000 C 
ENDROOT
BRANCH   1   2
ATOM      2  C   UNL     1       8.766   3.737   0.609  1.00  0.00     0.000 C 
BRANCH   2   3
ATOM      3  C   UNL     1       8.728   4.504  -0.722  1.00  0.00     0.000 C 
BRANCH   3   4
ATOM      4  C   UNL     1       8.823   6.018  -0.484  1.00  0.00     0.000 C 
BRANCH   4   5
ATOM      5  C   UNL     1      10.084   6.420   0.303  1.00  0.00     0.006 C 
BRANCH   5   6
ATOM      6  C   UNL     1       9.820   7.368   1.484  1.00  0.00     0.053 C 
BRANCH   6   7
ATOM      7  C   UNL     1       9.752   6.636   2.789  1.00  0.00     0.041 C 
ATOM      8  O   UNL     1      10.773   6.056   3.244  1.00  0.00    -0.550 OA
ATOM      9  O   UNL     1       8.553   6.567   3.486  1.00  0.00    -0.550 OA
ENDBRANCH   6   7
ENDBRANCH   5   6
ENDBRANCH   4   5
ENDBRANCH   3   4
ENDBRANCH   2   3
ENDBRANCH   1   2
BRANCH   1  10
ATOM     10  C   UNL     1      10.292   1.929  -0.362  1.00  0.00     0.000 C 
BRANCH  10  11
ATOM     11  C   UNL     1      11.759   1.473  -0.465  1.00  0.00    -0.000 C 
BRANCH  11  12
ATOM     12  C   UNL     1      12.416   1.804  -1.822  1.00  0.00    -0.000 C 
BRANCH  12  13
ATOM     13  C   UNL     1      11.761   3.020  -2.502  1.00  0.00    -0.000 C 
BRANCH  13  14
ATOM     14  C   UNL     1      11.133   2.677  -3.862  1.00  0.00    -0.000 C 
BRANCH  14  15
ATOM     15  C   UNL     1      11.341   1.204  -4.253  1.00  0.00    -0.000 C 
BRANCH  15  16
ATOM     16  C   UNL     1      11.632   1.030  -5.752  1.00  0.00    -0.003 C 
ATOM     17  C   UNL     1      11.995  -0.408  -6.123  1.00  0.00     0.004 C 
ENDBRANCH  15  16
ENDBRANCH  14  15
ENDBRANCH  13  14
ENDBRANCH  12  13
ENDBRANCH  11  12
ENDBRANCH  10  11
ENDBRANCH   1  10
TORSDOF 13
ENDMDL
MODEL 3
REMARK VINA RESULT:    -4.148      1.087      2.396
REMARK INTER + INTRA:          -9.358
REMARK INTER:                  -7.359
REMARK INTRA:                  -1.999
REMARK UNBOUND:                -2.058
REMARK SMILES CCCCCCCCCCCCCCC(=O)[O-]
REMARK SMILES IDX 9 1 10 2 11 3 12 4 13 5 14 6 15 7 16 8 17 9 8 10 7 11 6 12
REMARK SMILES IDX 5 13 4 14 3 15 2 16 1 17
REMARK H PARENT
REMARK Flexibility Score: inf
ROOT
ATOM      1  C   UNL     1       8.926   3.293   0.788  1.00  0.00     0.000 C 
ENDROOT
BRANCH   1   2
ATOM      2  C   UNL     1      10.347   2.749   0.571  1.00  0.00     0.000 C 
BRANCH   2   3
ATOM      3  C   UNL     1      10.499   2.001  -0.762  1.00  0.00     0.000 C 
BRANCH   3   4
ATOM      4  C   UNL     1      11.961   2.012  -1.232  1.00  0.00     0.000 C 
BRANCH   4   5
ATOM      5  C   UNL     1      12.096   2.191  -2.756  1.00  0.00     0.006 C 
BRANCH   5   6
ATOM      6  C   UNL     1      11.167   1.290  -3.585  1.00  0.00     0.053 C 
BRANCH   6   7
ATOM      7  C   UNL     1      11.503   1.326  -5.045  1.00  0.00     0.041 C 
ATOM      8  O   UNL     1      11.465   2.414  -5.677  1.00  0.00    -0.550 OA
ATOM      9  O   UNL     1      11.826   0.152  -5.713  1.00  0.00    -0.550 OA
ENDBRANCH   6   7
ENDBRANCH   5   6
ENDBRANCH   4   5
ENDBRANCH   3   4
ENDBRANCH   2   3
ENDBRANCH   1   2
BRANCH   1  10
ATOM     10  C   UNL     1       8.845   4.819   0.606  1.00  0.00     0.000 C 
BRANCH  10  11
ATOM     11  C   UNL     1       7.396   5.331   0.511  1.00  0.00    -0.000 C 
BRANCH  11  12
ATOM     12  C   UNL     1       6.689   4.947  -0.805  1.00  0.00    -0.000 C 
BRANCH  12  13
ATOM     13  C   UNL     1       7.490   5.386  -2.044  1.00  0.00    -0.000 C 
BRANCH  13  14
ATOM     14  C   UNL     1       8.192   4.212  -2.747  1.00  0.00    -0.000 C 
BRANCH  14  15
ATOM     15  C   UNL     1       9.473   4.644  -3.481  1.00  0.00    -0.000 C 
BRANCH  15  16
ATOM     16  C   UNL     1      10.054   5.954  -2.926  1.00  0.00    -0.003 C 
ATOM     17  C   UNL     1      11.167   5.722  -1.903  1.00  0.00     0.004 C 
ENDBRANCH  15  16
ENDBRANCH  14  15
ENDBRANCH  13  14
ENDBRANCH  12  13
ENDBRANCH  11  12
ENDBRANCH  10  11
ENDBRANCH   1  10
TORSDOF 13
ENDMDL
MODEL 4
REMARK VINA RESULT:    -4.145      3.441      5.512
REMARK INTER + INTRA:          -9.353
REMARK INTER:                  -7.371
REMARK INTRA:                  -1.981
REMARK UNBOUND:                -2.058
REMARK SMILES CCCCCCCCCCCCCCC(=O)[O-]
REMARK SMILES IDX 9 1 10 2 11 3 12 4 13 5 14 6 15 7 16 8 17 9 8 10 7 11 6 12
REMARK SMILES IDX 5 13 4 14 3 15 2 16 1 17
REMARK H PARENT
REMARK Flexibility Score: inf
ROOT
ATOM      1  C   UNL     1      11.693   1.621  -0.523  1.00  0.00     0.000 C 
ENDROOT
BRANCH   1   2
ATOM      2  C   UNL     1      10.227   2.056  -0.366  1.00  0.00     0.000 C 
BRANCH   2   3
ATOM      3  C   UNL     1      10.041   3.137   0.710  1.00  0.00     0.000 C 
BRANCH   3   4
ATOM      4  C   UNL     1       8.602   3.673   0.704  1.00  0.00     0.000 C 
BRANCH   4   5
ATOM      5  C   UNL     1       8.507   5.134   1.181  1.00  0.00     0.006 C 
BRANCH   5   6
ATOM      6  C   UNL     1       9.739   5.630   1.955  1.00  0.00     0.053 C 
BRANCH   6   7
ATOM      7  C   UNL     1       9.407   6.764   2.875  1.00  0.00     0.041 C 
ATOM      8  O   UNL     1       8.398   6.697   3.625  1.00  0.00    -0.550 OA
ATOM      9  O   UNL     1      10.194   7.909   2.879  1.00  0.00    -0.550 OA
ENDBRANCH   6   7
ENDBRANCH   5   6
ENDBRANCH   4   5
ENDBRANCH   3   4
ENDBRANCH   2   3
ENDBRANCH   1   2
BRANCH   1  10
ATOM     10  C   UNL     1      12.294   2.049  -1.873  1.00  0.00     0.000 C 
BRANCH  10  11
ATOM     11  C   UNL     1      11.581   1.402  -3.074  1.00  0.00    -0.000 C 
BRANCH  11  12
ATOM     12  C   UNL     1      11.211   2.403  -4.187  1.00  0.00    -0.000 C 
BRANCH  12  13
ATOM     13  C   UNL     1      10.982   3.823  -3.637  1.00  0.00    -0.000 C 
BRANCH  13  14
ATOM     14  C   UNL     1       9.521   4.078  -3.232  1.00  0.00    -0.000 C 
BRANCH  14  15
ATOM     15  C   UNL     1       9.328   5.439  -2.543  1.00  0.00    -0.000 C 
BRANCH  15  16
ATOM     16  C   UNL     1      10.620   5.955  -1.890  1.00  0.00    -0.003 C 
ATOM     17  C   UNL     1      10.442   7.318  -1.220  1.00  0.00     0.004 C 
ENDBRANCH  15  16
ENDBRANCH  14  15
ENDBRANCH  13  14
ENDBRANCH  12  13
ENDBRANCH  11  12
ENDBRANCH  10  11
ENDBRANCH   1  10
TORSDOF 13
ENDMDL
MODEL 5
REMARK VINA RESULT:    -4.025      2.404      5.048
REMARK INTER + INTRA:          -9.142
REMARK INTER:                  -7.858
REMARK INTRA:                  -1.284
REMARK UNBOUND:                -2.058
REMARK SMILES CCCCCCCCCCCCCCC(=O)[O-]
REMARK SMILES IDX 9 1 10 2 11 3 12 4 13 5 14 6 15 7 16 8 17 9 8 10 7 11 6 12
REMARK SMILES IDX 5 13 4 14 3 15 2 16 1 17
REMARK H PARENT
REMARK Flexibility Score: inf
ROOT
ATOM      1  C   UNL     1       9.960   3.164   0.879  1.00  0.00     0.000 C 
ENDROOT
BRANCH   1   2
ATOM      2  C   UNL     1       8.630   3.933   0.817  1.00  0.00     0.000 C 
BRANCH   2   3
ATOM      3  C   UNL     1       8.301   4.434  -0.598  1.00  0.00     0.000 C 
BRANCH   3   4
ATOM      4  C   UNL     1       8.403   5.965  -0.673  1.00  0.00     0.000 C 
BRANCH   4   5
ATOM      5  C   UNL     1       9.844   6.457  -0.900  1.00  0.00     0.006 C 
BRANCH   5   6
ATOM      6  C   UNL     1      10.314   6.391  -2.363  1.00  0.00     0.053 C 
BRANCH   6   7
ATOM      7  C   UNL     1      10.561   7.753  -2.936  1.00  0.00     0.041 C 
ATOM      8  O   UNL     1       9.881   8.738  -2.545  1.00  0.00    -0.550 OA
ATOM      9  O   UNL     1      11.520   7.927  -3.925  1.00  0.00    -0.550 OA
ENDBRANCH   6   7
ENDBRANCH   5   6
ENDBRANCH   4   5
ENDBRANCH   3   4
ENDBRANCH   2   3
ENDBRANCH   1   2
BRANCH   1  10
ATOM     10  C   UNL     1      10.144   2.208  -0.312  1.00  0.00     0.000 C 
BRANCH  10  11
ATOM     11  C   UNL     1      11.530   1.541  -0.332  1.00  0.00    -0.000 C 
BRANCH  11  12
ATOM     12  C   UNL     1      12.290   1.730  -1.662  1.00  0.00    -0.000 C 
BRANCH  12  13
ATOM     13  C   UNL     1      11.813   2.976  -2.430  1.00  0.00    -0.000 C 
BRANCH  13  14
ATOM     14  C   UNL     1      11.274   2.643  -3.830  1.00  0.00    -0.000 C 
BRANCH  14  15
ATOM     15  C   UNL     1      11.497   1.170  -4.214  1.00  0.00    -0.000 C 
BRANCH  15  16
ATOM     16  C   UNL     1      11.553   0.962  -5.736  1.00  0.00    -0.003 C 
ATOM     17  C   UNL     1      11.928  -0.468  -6.125  1.00  0.00     0.004 C 
ENDBRANCH  15  16
ENDBRANCH  14  15
ENDBRANCH  13  14
ENDBRANCH  12  13
ENDBRANCH  11  12
ENDBRANCH  10  11
ENDBRANCH   1  10
TORSDOF 13
ENDMDL
MODEL 6
REMARK VINA RESULT:    -3.977      2.404      4.602
REMARK INTER + INTRA:          -9.057
REMARK INTER:                  -6.890
REMARK INTRA:                  -2.167
REMARK UNBOUND:                -2.058
REMARK SMILES CCCCCCCCCCCCCCC(=O)[O-]
REMARK SMILES IDX 9 1 10 2 11 3 12 4 13 5 14 6 15 7 16 8 17 9 8 10 7 11 6 12
REMARK SMILES IDX 5 13 4 14 3 15 2 16 1 17
REMARK H PARENT
REMARK Flexibility Score: inf
ROOT
ATOM      1  C   UNL     1       7.648   5.230  -0.550  1.00  0.00     0.000 C 
ENDROOT
BRANCH   1   2
ATOM      2  C   UNL     1       7.167   4.221  -1.605  1.00  0.00     0.000 C 
BRANCH   2   3
ATOM      3  C   UNL     1       8.227   3.936  -2.680  1.00  0.00     0.000 C 
BRANCH   3   4
ATOM      4  C   UNL     1       8.800   5.245  -3.244  1.00  0.00     0.000 C 
BRANCH   4   5
ATOM      5  C   UNL     1      10.339   5.251  -3.295  1.00  0.00     0.006 C 
BRANCH   5   6
ATOM      6  C   UNL     1      11.012   5.877  -2.064  1.00  0.00     0.053 C 
BRANCH   6   7
ATOM      7  C   UNL     1      10.625   7.313  -1.880  1.00  0.00     0.041 C 
ATOM      8  O   UNL     1      10.753   8.130  -2.829  1.00  0.00    -0.550 OA
ATOM      9  O   UNL     1      10.155   7.753  -0.650  1.00  0.00    -0.550 OA
ENDBRANCH   6   7
ENDBRANCH   5   6
ENDBRANCH   4   5
ENDBRANCH   3   4
ENDBRANCH   2   3
ENDBRANCH   1   2
BRANCH   1  10
ATOM     10  C   UNL     1       8.082   4.550   0.760  1.00  0.00     0.000 C 
BRANCH  10  11
ATOM     11  C   UNL     1       9.611   4.457   0.905  1.00  0.00    -0.000 C 
BRANCH  11  12
ATOM     12  C   UNL     1      10.138   3.010   1.001  1.00  0.00    -0.000 C 
BRANCH  12  13
ATOM     13  C   UNL     1      10.170   2.313  -0.372  1.00  0.00    -0.000 C 
BRANCH  13  14
ATOM     14  C   UNL     1      11.558   1.758  -0.726  1.00  0.00    -0.000 C 
BRANCH  14  15
ATOM     15  C   UNL     1      12.023   2.182  -2.130  1.00  0.00    -0.000 C 
BRANCH  15  16
ATOM     16  C   UNL     1      11.313   1.398  -3.245  1.00  0.00    -0.003 C 
ATOM     17  C   UNL     1      11.528   2.011  -4.629  1.00  0.00     0.004 C 
ENDBRANCH  15  16
ENDBRANCH  14  15
ENDBRANCH  13  14
ENDBRANCH  12  13
ENDBRANCH  11  12
ENDBRANCH  10  11
ENDBRANCH   1  10
TORSDOF 13
ENDMDL
MODEL 7
REMARK VINA RESULT:    -3.931      1.357      2.982
REMARK INTER + INTRA:          -8.976
REMARK INTER:                  -7.039
REMARK INTRA:                  -1.938
REMARK UNBOUND:                -2.058
REMARK SMILES CCCCCCCCCCCCCCC(=O)[O-]
REMARK SMILES IDX 9 1 10 2 11 3 12 4 13 5 14 6 15 7 16 8 17 9 8 10 7 11 6 12
REMARK SMILES IDX 5 13 4 14 3 15 2 16 1 17
REMARK H PARENT
REMARK Flexibility Score: inf
ROOT
ATOM      1  C   UNL     1       8.567   4.278  -0.443  1.00  0.00     0.000 C 
ENDROOT
BRANCH   1   2
ATOM      2  C   UNL     1       9.421   3.233   0.292  1.00  0.00     0.000 C 
BRANCH   2   3
ATOM      3  C   UNL     1       9.874   2.086  -0.624  1.00  0.00     0.000 C 
BRANCH   3   4
ATOM      4  C   UNL     1      11.397   1.900  -0.554  1.00  0.00     0.000 C 
BRANCH   4   5
ATOM      5  C   UNL     1      12.092   2.164  -1.903  1.00  0.00     0.006 C 
BRANCH   5   6
ATOM      6  C   UNL     1      11.543   1.333  -3.073  1.00  0.00     0.053 C 
BRANCH   6   7
ATOM      7  C   UNL     1      11.381   2.152  -4.317  1.00  0.00     0.041 C 
ATOM      8  O   UNL     1      11.125   3.382  -4.237  1.00  0.00    -0.550 OA
ATOM      9  O   UNL     1      11.480   1.548  -5.564  1.00  0.00    -0.550 OA
ENDBRANCH   6   7
ENDBRANCH   5   6
ENDBRANCH   4   5
ENDBRANCH   3   4
ENDBRANCH   2   3
ENDBRANCH   1   2
BRANCH   1  10
ATOM     10  C   UNL     1       9.299   4.896  -1.647  1.00  0.00     0.000 C 
BRANCH  10  11
ATOM     11  C   UNL     1      10.537   5.713  -1.236  1.00  0.00    -0.000 C 
BRANCH  11  12
ATOM     12  C   UNL     1      10.461   7.200  -1.641  1.00  0.00    -0.000 C 
BRANCH  12  13
ATOM     13  C   UNL     1       9.454   7.984  -0.780  1.00  0.00    -0.000 C 
BRANCH  13  14
ATOM     14  C   UNL     1       9.758   7.895   0.724  1.00  0.00    -0.000 C 
BRANCH  14  15
ATOM     15  C   UNL     1       8.541   7.439   1.546  1.00  0.00    -0.000 C 
BRANCH  15  16
ATOM     16  C   UNL     1       8.915   6.414   2.628  1.00  0.00    -0.003 C 
ATOM     17  C   UNL     1      10.380   5.984   2.556  1.00  0.00     0.004 C 
ENDBRANCH  15  16
ENDBRANCH  14  15
ENDBRANCH  13  14
ENDBRANCH  12  13
ENDBRANCH  11  12
ENDBRANCH  10  11
ENDBRANCH   1  10
TORSDOF 13
ENDMDL
MODEL 8
REMARK VINA RESULT:    -3.906      1.694      4.346
REMARK INTER + INTRA:          -8.932
REMARK INTER:                  -7.320
REMARK INTRA:                  -1.612
REMARK UNBOUND:                -2.058
REMARK SMILES CCCCCCCCCCCCCCC(=O)[O-]
REMARK SMILES IDX 9 1 10 2 11 3 12 4 13 5 14 6 15 7 16 8 17 9 8 10 7 11 6 12
REMARK SMILES IDX 5 13 4 14 3 15 2 16 1 17
REMARK H PARENT
REMARK Flexibility Score: inf
ROOT
ATOM      1  C   UNL     1       8.522   5.249   1.111  1.00  0.00     0.000 C 
ENDROOT
BRANCH   1   2
ATOM      2  C   UNL     1       9.942   5.833   1.051  1.00  0.00     0.000 C 
BRANCH   2   3
ATOM      3  C   UNL     1       9.978   7.243   0.441  1.00  0.00     0.000 C 
BRANCH   3   4
ATOM      4  C   UNL     1      10.284   7.180  -1.063  1.00  0.00     0.000 C 
BRANCH   4   5
ATOM      5  C   UNL     1      10.822   5.806  -1.505  1.00  0.00     0.006 C 
BRANCH   5   6
ATOM      6  C   UNL     1      10.233   5.290  -2.828  1.00  0.00     0.053 C 
BRANCH   6   7
ATOM      7  C   UNL     1       8.753   5.077  -2.739  1.00  0.00     0.041 C 
ATOM      8  O   UNL     1       8.289   3.919  -2.568  1.00  0.00    -0.550 OA
ATOM      9  O   UNL     1       7.886   6.153  -2.880  1.00  0.00    -0.550 OA
ENDBRANCH   6   7
ENDBRANCH   5   6
ENDBRANCH   4   5
ENDBRANCH   3   4
ENDBRANCH   2   3
ENDBRANCH   1   2
BRANCH   1  10
ATOM     10  C   UNL     1       8.511   3.713   1.013  1.00  0.00     0.000 C 
BRANCH  10  11
ATOM     11  C   UNL     1       9.926   3.111   0.947  1.00  0.00    -0.000 C 
BRANCH  11  12
ATOM     12  C   UNL     1      10.192   2.297  -0.337  1.00  0.00    -0.000 C 
BRANCH  12  13
ATOM     13  C   UNL     1      11.660   1.843  -0.441  1.00  0.00    -0.000 C 
BRANCH  13  14
ATOM     14  C   UNL     1      12.050   1.407  -1.862  1.00  0.00    -0.000 C 
BRANCH  14  15
ATOM     15  C   UNL     1      10.947   1.701  -2.894  1.00  0.00    -0.000 C 
BRANCH  15  16
ATOM     16  C   UNL     1      11.510   1.937  -4.304  1.00  0.00    -0.003 C 
ATOM     17  C   UNL     1      11.560   0.660  -5.144  1.00  0.00     0.004 C 
ENDBRANCH  15  16
ENDBRANCH  14  15
ENDBRANCH  13  14
ENDBRANCH  12  13
ENDBRANCH  11  12
ENDBRANCH  10  11
ENDBRANCH   1  10
TORSDOF 13
ENDMDL
MODEL 9
REMARK VINA RESULT:    -3.879      3.375      5.582
REMARK INTER + INTRA:          -8.885
REMARK INTER:                  -7.273
REMARK INTRA:                  -1.612
REMARK UNBOUND:                -2.058
REMARK SMILES CCCCCCCCCCCCCCC(=O)[O-]
REMARK SMILES IDX 9 1 10 2 11 3 12 4 13 5 14 6 15 7 16 8 17 9 8 10 7 11 6 12
REMARK SMILES IDX 5 13 4 14 3 15 2 16 1 17
REMARK H PARENT
REMARK Flexibility Score: inf
ROOT
ATOM      1  C   UNL     1       8.725   3.781   0.655  1.00  0.00     0.000 C 
ENDROOT
BRANCH   1   2
ATOM      2  C   UNL     1       8.369   4.060  -0.813  1.00  0.00     0.000 C 
BRANCH   2   3
ATOM      3  C   UNL     1       8.492   5.547  -1.181  1.00  0.00     0.000 C 
BRANCH   3   4
ATOM      4  C   UNL     1       9.832   6.121  -0.696  1.00  0.00     0.000 C 
BRANCH   4   5
ATOM      5  C   UNL     1       9.672   7.455   0.056  1.00  0.00     0.006 C 
BRANCH   5   6
ATOM      6  C   UNL     1       8.923   7.344   1.393  1.00  0.00     0.053 C 
BRANCH   6   7
ATOM      7  C   UNL     1       9.857   7.355   2.565  1.00  0.00     0.041 C 
ATOM      8  O   UNL     1      10.270   8.447   3.035  1.00  0.00    -0.550 OA
ATOM      9  O   UNL     1      10.296   6.158   3.115  1.00  0.00    -0.550 OA
ENDBRANCH   6   7
ENDBRANCH   5   6
ENDBRANCH   4   5
ENDBRANCH   3   4
ENDBRANCH   2   3
ENDBRANCH   1   2
BRANCH   1  10
ATOM     10  C   UNL     1       9.997   2.928   0.802  1.00  0.00     0.000 C 
BRANCH  10  11
ATOM     11  C   UNL     1      10.237   2.004  -0.406  1.00  0.00    -0.000 C 
BRANCH  11  12
ATOM     12  C   UNL     1      11.709   1.574  -0.573  1.00  0.00    -0.000 C 
BRANCH  12  13
ATOM     13  C   UNL     1      12.319   2.093  -1.888  1.00  0.00    -0.000 C 
BRANCH  13  14
ATOM     14  C   UNL     1      11.709   1.428  -3.132  1.00  0.00    -0.000 C 
BRANCH  14  15
ATOM     15  C   UNL     1      11.283   2.450  -4.199  1.00  0.00    -0.000 C 
BRANCH  15  16
ATOM     16  C   UNL     1      10.866   3.798  -3.589  1.00  0.00    -0.003 C 
ATOM     17  C   UNL     1      10.081   4.673  -4.565  1.00  0.00     0.004 C 
ENDBRANCH  15  16
ENDBRANCH  14  15
ENDBRANCH  13  14
ENDBRANCH  12  13
ENDBRANCH  11  12
ENDBRANCH  10  11
ENDBRANCH   1  10
TORSDOF 13
ENDMDL
