MODEL 1
REMARK VINA RESULT:    -2.872      0.000      0.000
REMARK INTER + INTRA:         -12.973
REMARK INTER:                  -7.236
REMARK INTRA:                  -5.737
REMARK UNBOUND:                -5.737
REMARK SMILES CCCCCCCCCCCCCCCCCCCCCCCCCCCC(=O)[O-]
REMARK SMILES IDX 15 1 16 2 17 3 18 4 19 5 20 6 21 7 22 8 23 9 24 10 25 11
REMARK SMILES IDX 26 12 27 13 28 14 29 15 30 16 14 17 13 18 12 19 11 20 10 21
REMARK SMILES IDX 9 22 8 23 7 24 6 25 5 26 4 27 3 28 2 29 1 30
REMARK H PARENT
REMARK Flexibility Score: inf
ROOT
ATOM      1  C   UNL     1      64.003  34.445  57.958  1.00  0.00     0.000 C 
ENDROOT
BRANCH   1   2
ATOM      2  C   UNL     1      63.620  33.092  58.595  1.00  0.00     0.000 C 
BRANCH   2   3
ATOM      3  C   UNL     1      64.493  32.647  59.787  1.00  0.00     0.000 C 
BRANCH   3   4
ATOM      4  C   UNL     1      63.715  32.181  61.030  1.00  0.00     0.000 C 
BRANCH   4   5
ATOM      5  C   UNL     1      62.220  31.954  60.743  1.00  0.00     0.000 C 
BRANCH   5   6
ATOM      6  C   UNL     1      61.574  30.978  61.751  1.00  0.00     0.000 C 
BRANCH   6   7
ATOM      7  C   UNL     1      60.445  30.127  61.144  1.00  0.00     0.000 C 
BRANCH   7   8
ATOM      8  C   UNL     1      60.937  28.765  60.627  1.00  0.00     0.000 C 
BRANCH   8   9
ATOM      9  C   UNL     1      61.931  28.092  61.586  1.00  0.00     0.000 C 
BRANCH   9  10
ATOM     10  C   UNL     1      63.194  27.592  60.870  1.00  0.00     0.000 C 
BRANCH  10  11
ATOM     11  C   UNL     1      63.509  28.457  59.641  1.00  0.00     0.000 C 
BRANCH  11  12
ATOM     12  C   UNL     1      64.946  29.011  59.644  1.00  0.00     0.006 C 
BRANCH  12  13
ATOM     13  C   UNL     1      65.599  29.042  61.037  1.00  0.00     0.053 C 
BRANCH  13  14
ATOM     14  C   UNL     1      67.091  28.912  60.977  1.00  0.00     0.041 C 
ATOM     15  O   UNL     1      67.748  28.676  62.025  1.00  0.00    -0.550 OA
ATOM     16  O   UNL     1      67.761  29.078  59.771  1.00  0.00    -0.550 OA
ENDBRANCH  13  14
ENDBRANCH  12  13
ENDBRANCH  11  12
ENDBRANCH  10  11
ENDBRANCH   9  10
ENDBRANCH   8   9
ENDBRANCH   7   8
ENDBRANCH   6   7
ENDBRANCH   5   6
ENDBRANCH   4   5
ENDBRANCH   3   4
ENDBRANCH   2   3
ENDBRANCH   1   2
BRANCH   1  17
ATOM     17  C   UNL     1      65.332  35.049  58.465  1.00  0.00     0.000 C 
BRANCH  17  18
ATOM     18  C   UNL     1      65.154  36.278  59.376  1.00  0.00     0.000 C 
BRANCH  18  19
ATOM     19  C   UNL     1      65.429  36.025  60.871  1.00  0.00     0.000 C 
BRANCH  19  20
ATOM     20  C   UNL     1      64.172  35.803  61.742  1.00  0.00     0.000 C 
BRANCH  20  21
ATOM     21  C   UNL     1      62.954  36.665  61.361  1.00  0.00     0.000 C 
BRANCH  21  22
ATOM     22  C   UNL     1      61.843  35.852  60.687  1.00  0.00    -0.000 C 
BRANCH  22  23
ATOM     23  C   UNL     1      61.435  36.472  59.345  1.00  0.00    -0.000 C 
BRANCH  23  24
ATOM     24  C   UNL     1      60.236  35.745  58.695  1.00  0.00    -0.000 C 
BRANCH  24  25
ATOM     25  C   UNL     1      60.186  34.236  58.998  1.00  0.00    -0.000 C 
BRANCH  25  26
ATOM     26  C   UNL     1      59.719  33.368  57.817  1.00  0.00    -0.000 C 
BRANCH  26  27
ATOM     27  C   UNL     1      59.333  31.928  58.228  1.00  0.00    -0.000 C 
BRANCH  27  28
ATOM     28  C   UNL     1      59.824  30.879  57.220  1.00  0.00    -0.000 C 
BRANCH  28  29
ATOM     29  C   UNL     1      61.291  30.512  57.470  1.00  0.00    -0.003 C 
ATOM     30  C   UNL     1      62.128  30.701  56.208  1.00  0.00     0.004 C 
ENDBRANCH  28  29
ENDBRANCH  27  28
ENDBRANCH  26  27
ENDBRANCH  25  26
ENDBRANCH  24  25
ENDBRANCH  23  24
ENDBRANCH  22  23
ENDBRANCH  21  22
ENDBRANCH  20  21
ENDBRANCH  19  20
ENDBRANCH  18  19
ENDBRANCH  17  18
ENDBRANCH   1  17
TORSDOF 26
ENDMDL
MODEL 2
REMARK VINA RESULT:    -2.801      3.067      5.683
REMARK INTER + INTRA:         -12.795
REMARK INTER:                  -7.666
REMARK INTRA:                  -5.128
REMARK UNBOUND:                -5.737
REMARK SMILES CCCCCCCCCCCCCCCCCCCCCCCCCCCC(=O)[O-]
REMARK SMILES IDX 15 1 16 2 17 3 18 4 19 5 20 6 21 7 22 8 23 9 24 10 25 11
REMARK SMILES IDX 26 12 27 13 28 14 29 15 30 16 14 17 13 18 12 19 11 20 10 21
REMARK SMILES IDX 9 22 8 23 7 24 6 25 5 26 4 27 3 28 2 29 1 30
REMARK H PARENT
REMARK Flexibility Score: inf
ROOT
ATOM      1  C   UNL     1      62.264  28.792  58.577  1.00  0.00     0.000 C 
ENDROOT
BRANCH   1   2
ATOM      2  C   UNL     1      62.979  30.116  58.231  1.00  0.00     0.000 C 
BRANCH   2   3
ATOM      3  C   UNL     1      64.500  30.139  58.489  1.00  0.00     0.000 C 
BRANCH   3   4
ATOM      4  C   UNL     1      64.920  30.644  59.880  1.00  0.00     0.000 C 
BRANCH   4   5
ATOM      5  C   UNL     1      65.872  29.674  60.601  1.00  0.00     0.000 C 
BRANCH   5   6
ATOM      6  C   UNL     1      65.309  28.237  60.656  1.00  0.00     0.000 C 
BRANCH   6   7
ATOM      7  C   UNL     1      66.262  27.182  60.068  1.00  0.00     0.000 C 
BRANCH   7   8
ATOM      8  C   UNL     1      65.519  26.035  59.364  1.00  0.00     0.000 C 
BRANCH   8   9
ATOM      9  C   UNL     1      64.001  26.082  59.594  1.00  0.00     0.000 C 
BRANCH   9  10
ATOM     10  C   UNL     1      63.480  24.855  60.356  1.00  0.00     0.000 C 
BRANCH  10  11
ATOM     11  C   UNL     1      62.110  25.139  60.987  1.00  0.00     0.000 C 
BRANCH  11  12
ATOM     12  C   UNL     1      62.159  25.229  62.523  1.00  0.00     0.006 C 
BRANCH  12  13
ATOM     13  C   UNL     1      60.890  25.826  63.155  1.00  0.00     0.053 C 
BRANCH  13  14
ATOM     14  C   UNL     1      59.712  24.903  63.064  1.00  0.00     0.041 C 
ATOM     15  O   UNL     1      58.863  25.050  62.145  1.00  0.00    -0.550 OA
ATOM     16  O   UNL     1      59.534  23.899  64.007  1.00  0.00    -0.550 OA
ENDBRANCH  13  14
ENDBRANCH  12  13
ENDBRANCH  11  12
ENDBRANCH  10  11
ENDBRANCH   9  10
ENDBRANCH   8   9
ENDBRANCH   7   8
ENDBRANCH   6   7
ENDBRANCH   5   6
ENDBRANCH   4   5
ENDBRANCH   3   4
ENDBRANCH   2   3
ENDBRANCH   1   2
BRANCH   1  17
ATOM     17  C   UNL     1      61.188  28.903  59.680  1.00  0.00     0.000 C 
BRANCH  17  18
ATOM     18  C   UNL     1      61.751  28.844  61.113  1.00  0.00     0.000 C 
BRANCH  18  19
ATOM     19  C   UNL     1      61.871  30.207  61.822  1.00  0.00     0.000 C 
BRANCH  19  20
ATOM     20  C   UNL     1      60.889  31.293  61.329  1.00  0.00     0.000 C 
BRANCH  20  21
ATOM     21  C   UNL     1      61.548  32.602  60.857  1.00  0.00     0.000 C 
BRANCH  21  22
ATOM     22  C   UNL     1      61.135  32.991  59.432  1.00  0.00    -0.000 C 
BRANCH  22  23
ATOM     23  C   UNL     1      60.870  34.498  59.322  1.00  0.00    -0.000 C 
BRANCH  23  24
ATOM     24  C   UNL     1      61.132  35.245  60.649  1.00  0.00    -0.000 C 
BRANCH  24  25
ATOM     25  C   UNL     1      62.310  36.235  60.583  1.00  0.00    -0.000 C 
BRANCH  25  26
ATOM     26  C   UNL     1      63.514  35.847  61.458  1.00  0.00    -0.000 C 
BRANCH  26  27
ATOM     27  C   UNL     1      64.509  34.901  60.748  1.00  0.00    -0.000 C 
BRANCH  27  28
ATOM     28  C   UNL     1      64.622  35.191  59.244  1.00  0.00    -0.000 C 
BRANCH  28  29
ATOM     29  C   UNL     1      64.639  33.893  58.428  1.00  0.00    -0.003 C 
ATOM     30  C   UNL     1      63.888  34.063  57.110  1.00  0.00     0.004 C 
ENDBRANCH  28  29
ENDBRANCH  27  28
ENDBRANCH  26  27
ENDBRANCH  25  26
ENDBRANCH  24  25
ENDBRANCH  23  24
ENDBRANCH  22  23
ENDBRANCH  21  22
ENDBRANCH  20  21
ENDBRANCH  19  20
ENDBRANCH  18  19
ENDBRANCH  17  18
ENDBRANCH   1  17
TORSDOF 26
ENDMDL
MODEL 3
REMARK VINA RESULT:    -2.689      2.341      5.568
REMARK INTER + INTRA:         -12.514
REMARK INTER:                  -7.449
REMARK INTRA:                  -5.065
REMARK UNBOUND:                -5.737
REMARK SMILES CCCCCCCCCCCCCCCCCCCCCCCCCCCC(=O)[O-]
REMARK SMILES IDX 15 1 16 2 17 3 18 4 19 5 20 6 21 7 22 8 23 9 24 10 25 11
REMARK SMILES IDX 26 12 27 13 28 14 29 15 30 16 14 17 13 18 12 19 11 20 10 21
REMARK SMILES IDX 9 22 8 23 7 24 6 25 5 26 4 27 3 28 2 29 1 30
REMARK H PARENT
REMARK Flexibility Score: inf
ROOT
ATOM      1  C   UNL     1      60.759  31.250  61.819  1.00  0.00     0.000 C 
ENDROOT
BRANCH   1   2
ATOM      2  C   UNL     1      60.812  32.173  60.583  1.00  0.00     0.000 C 
BRANCH   2   3
ATOM      3  C   UNL     1      60.360  31.532  59.254  1.00  0.00     0.000 C 
BRANCH   3   4
ATOM      4  C   UNL     1      61.440  31.464  58.160  1.00  0.00     0.000 C 
BRANCH   4   5
ATOM      5  C   UNL     1      61.528  30.078  57.499  1.00  0.00     0.000 C 
BRANCH   5   6
ATOM      6  C   UNL     1      61.553  28.936  58.539  1.00  0.00     0.000 C 
BRANCH   6   7
ATOM      7  C   UNL     1      61.079  27.584  57.978  1.00  0.00     0.000 C 
BRANCH   7   8
ATOM      8  C   UNL     1      59.889  27.001  58.757  1.00  0.00     0.000 C 
BRANCH   8   9
ATOM      9  C   UNL     1      59.062  28.080  59.473  1.00  0.00     0.000 C 
BRANCH   9  10
ATOM     10  C   UNL     1      59.155  27.976  61.002  1.00  0.00     0.000 C 
BRANCH  10  11
ATOM     11  C   UNL     1      59.433  26.530  61.440  1.00  0.00     0.000 C 
BRANCH  11  12
ATOM     12  C   UNL     1      60.743  26.382  62.235  1.00  0.00     0.006 C 
BRANCH  12  13
ATOM     13  C   UNL     1      61.449  25.031  62.028  1.00  0.00     0.053 C 
BRANCH  13  14
ATOM     14  C   UNL     1      62.708  25.155  61.222  1.00  0.00     0.041 C 
ATOM     15  O   UNL     1      62.977  26.235  60.633  1.00  0.00    -0.550 OA
ATOM     16  O   UNL     1      63.570  24.073  61.099  1.00  0.00    -0.550 OA
ENDBRANCH  13  14
ENDBRANCH  12  13
ENDBRANCH  11  12
ENDBRANCH  10  11
ENDBRANCH   9  10
ENDBRANCH   8   9
ENDBRANCH   7   8
ENDBRANCH   6   7
ENDBRANCH   5   6
ENDBRANCH   4   5
ENDBRANCH   3   4
ENDBRANCH   2   3
ENDBRANCH   1   2
BRANCH   1  17
ATOM     17  C   UNL     1      61.871  30.178  61.879  1.00  0.00     0.000 C 
BRANCH  17  18
ATOM     18  C   UNL     1      63.263  30.696  61.469  1.00  0.00     0.000 C 
BRANCH  18  19
ATOM     19  C   UNL     1      64.294  29.599  61.141  1.00  0.00     0.000 C 
BRANCH  19  20
ATOM     20  C   UNL     1      65.435  30.031  60.193  1.00  0.00     0.000 C 
BRANCH  20  21
ATOM     21  C   UNL     1      65.059  30.078  58.701  1.00  0.00     0.000 C 
BRANCH  21  22
ATOM     22  C   UNL     1      65.801  31.183  57.938  1.00  0.00    -0.000 C 
BRANCH  22  23
ATOM     23  C   UNL     1      64.863  32.347  57.593  1.00  0.00    -0.000 C 
BRANCH  23  24
ATOM     24  C   UNL     1      65.069  33.568  58.519  1.00  0.00    -0.000 C 
BRANCH  24  25
ATOM     25  C   UNL     1      63.872  33.855  59.444  1.00  0.00    -0.000 C 
BRANCH  25  26
ATOM     26  C   UNL     1      64.241  34.000  60.931  1.00  0.00    -0.000 C 
BRANCH  26  27
ATOM     27  C   UNL     1      63.972  35.414  61.494  1.00  0.00    -0.000 C 
BRANCH  27  28
ATOM     28  C   UNL     1      63.259  36.322  60.483  1.00  0.00    -0.000 C 
BRANCH  28  29
ATOM     29  C   UNL     1      61.924  36.832  61.039  1.00  0.00    -0.003 C 
ATOM     30  C   UNL     1      60.775  35.909  60.641  1.00  0.00     0.004 C 
ENDBRANCH  28  29
ENDBRANCH  27  28
ENDBRANCH  26  27
ENDBRANCH  25  26
ENDBRANCH  24  25
ENDBRANCH  23  24
ENDBRANCH  22  23
ENDBRANCH  21  22
ENDBRANCH  20  21
ENDBRANCH  19  20
ENDBRANCH  18  19
ENDBRANCH  17  18
ENDBRANCH   1  17
TORSDOF 26
ENDMDL
MODEL 4
REMARK VINA RESULT:    -2.670      1.650      3.029
REMARK INTER + INTRA:         -12.465
REMARK INTER:                  -7.716
REMARK INTRA:                  -4.749
REMARK UNBOUND:                -5.737
REMARK SMILES CCCCCCCCCCCCCCCCCCCCCCCCCCCC(=O)[O-]
REMARK SMILES IDX 15 1 16 2 17 3 18 4 19 5 20 6 21 7 22 8 23 9 24 10 25 11
REMARK SMILES IDX 26 12 27 13 28 14 29 15 30 16 14 17 13 18 12 19 11 20 10 21
REMARK SMILES IDX 9 22 8 23 7 24 6 25 5 26 4 27 3 28 2 29 1 30
REMARK H PARENT
REMARK Flexibility Score: inf
ROOT
ATOM      1  C   UNL     1      62.725  31.000  58.279  1.00  0.00     0.000 C 
ENDROOT
BRANCH   1   2
ATOM      2  C   UNL     1      61.438  31.853  58.286  1.00  0.00     0.000 C 
BRANCH   2   3
ATOM      3  C   UNL     1      60.424  31.520  59.401  1.00  0.00     0.000 C 
BRANCH   3   4
ATOM      4  C   UNL     1      60.744  32.126  60.778  1.00  0.00     0.000 C 
BRANCH   4   5
ATOM      5  C   UNL     1      61.119  31.061  61.823  1.00  0.00     0.000 C 
BRANCH   5   6
ATOM      6  C   UNL     1      61.030  29.629  61.254  1.00  0.00     0.000 C 
BRANCH   6   7
ATOM      7  C   UNL     1      62.323  28.814  61.439  1.00  0.00     0.000 C 
BRANCH   7   8
ATOM      8  C   UNL     1      62.634  27.908  60.237  1.00  0.00     0.000 C 
BRANCH   8   9
ATOM      9  C   UNL     1      64.049  28.128  59.679  1.00  0.00     0.000 C 
BRANCH   9  10
ATOM     10  C   UNL     1      65.144  27.790  60.701  1.00  0.00     0.000 C 
BRANCH  10  11
ATOM     11  C   UNL     1      66.448  28.534  60.377  1.00  0.00     0.000 C 
BRANCH  11  12
ATOM     12  C   UNL     1      67.640  28.061  61.228  1.00  0.00     0.006 C 
BRANCH  12  13
ATOM     13  C   UNL     1      68.559  29.200  61.703  1.00  0.00     0.053 C 
BRANCH  13  14
ATOM     14  C   UNL     1      69.745  29.396  60.806  1.00  0.00     0.041 C 
ATOM     15  O   UNL     1      70.871  29.670  61.298  1.00  0.00    -0.550 OA
ATOM     16  O   UNL     1      69.604  29.303  59.428  1.00  0.00    -0.550 OA
ENDBRANCH  13  14
ENDBRANCH  12  13
ENDBRANCH  11  12
ENDBRANCH  10  11
ENDBRANCH   9  10
ENDBRANCH   8   9
ENDBRANCH   7   8
ENDBRANCH   6   7
ENDBRANCH   5   6
ENDBRANCH   4   5
ENDBRANCH   3   4
ENDBRANCH   2   3
ENDBRANCH   1   2
BRANCH   1  17
ATOM     17  C   UNL     1      63.994  31.743  57.804  1.00  0.00     0.000 C 
BRANCH  17  18
ATOM     18  C   UNL     1      65.032  31.984  58.917  1.00  0.00     0.000 C 
BRANCH  18  19
ATOM     19  C   UNL     1      64.474  31.920  60.352  1.00  0.00     0.000 C 
BRANCH  19  20
ATOM     20  C   UNL     1      64.105  33.285  60.975  1.00  0.00     0.000 C 
BRANCH  20  21
ATOM     21  C   UNL     1      64.403  34.508  60.089  1.00  0.00     0.000 C 
BRANCH  21  22
ATOM     22  C   UNL     1      63.141  35.303  59.733  1.00  0.00    -0.000 C 
BRANCH  22  23
ATOM     23  C   UNL     1      62.295  35.590  60.979  1.00  0.00    -0.000 C 
BRANCH  23  24
ATOM     24  C   UNL     1      60.783  35.670  60.664  1.00  0.00    -0.000 C 
BRANCH  24  25
ATOM     25  C   UNL     1      60.433  36.671  59.547  1.00  0.00    -0.000 C 
BRANCH  25  26
ATOM     26  C   UNL     1      59.236  36.254  58.675  1.00  0.00    -0.000 C 
BRANCH  26  27
ATOM     27  C   UNL     1      59.505  34.988  57.829  1.00  0.00    -0.000 C 
BRANCH  27  28
ATOM     28  C   UNL     1      60.741  35.136  56.930  1.00  0.00    -0.000 C 
BRANCH  28  29
ATOM     29  C   UNL     1      60.564  34.370  55.614  1.00  0.00    -0.003 C 
ATOM     30  C   UNL     1      61.898  33.823  55.113  1.00  0.00     0.004 C 
ENDBRANCH  28  29
ENDBRANCH  27  28
ENDBRANCH  26  27
ENDBRANCH  25  26
ENDBRANCH  24  25
ENDBRANCH  23  24
ENDBRANCH  22  23
ENDBRANCH  21  22
ENDBRANCH  20  21
ENDBRANCH  19  20
ENDBRANCH  18  19
ENDBRANCH  17  18
ENDBRANCH   1  17
TORSDOF 26
ENDMDL
MODEL 5
REMARK VINA RESULT:    -2.670      3.430      7.319
REMARK INTER + INTRA:         -12.465
REMARK INTER:                  -7.030
REMARK INTRA:                  -5.434
REMARK UNBOUND:                -5.737
REMARK SMILES CCCCCCCCCCCCCCCCCCCCCCCCCCCC(=O)[O-]
REMARK SMILES IDX 15 1 16 2 17 3 18 4 19 5 20 6 21 7 22 8 23 9 24 10 25 11
REMARK SMILES IDX 26 12 27 13 28 14 29 15 30 16 14 17 13 18 12 19 11 20 10 21
REMARK SMILES IDX 9 22 8 23 7 24 6 25 5 26 4 27 3 28 2 29 1 30
REMARK H PARENT
REMARK Flexibility Score: inf
ROOT
ATOM      1  C   UNL     1      60.721  32.522  59.474  1.00  0.00     0.000 C 
ENDROOT
BRANCH   1   2
ATOM      2  C   UNL     1      61.770  33.110  58.506  1.00  0.00     0.000 C 
BRANCH   2   3
ATOM      3  C   UNL     1      63.205  32.567  58.668  1.00  0.00     0.000 C 
BRANCH   3   4
ATOM      4  C   UNL     1      64.267  33.621  59.023  1.00  0.00     0.000 C 
BRANCH   4   5
ATOM      5  C   UNL     1      64.313  33.933  60.529  1.00  0.00     0.000 C 
BRANCH   5   6
ATOM      6  C   UNL     1      64.307  35.451  60.811  1.00  0.00     0.000 C 
BRANCH   6   7
ATOM      7  C   UNL     1      62.948  35.978  61.305  1.00  0.00     0.000 C 
BRANCH   7   8
ATOM      8  C   UNL     1      62.021  36.404  60.154  1.00  0.00     0.000 C 
BRANCH   8   9
ATOM      9  C   UNL     1      60.539  36.134  60.456  1.00  0.00     0.000 C 
BRANCH   9  10
ATOM     10  C   UNL     1      59.600  36.782  59.429  1.00  0.00     0.000 C 
BRANCH  10  11
ATOM     11  C   UNL     1      59.149  35.761  58.374  1.00  0.00     0.000 C 
BRANCH  11  12
ATOM     12  C   UNL     1      59.307  36.275  56.931  1.00  0.00     0.006 C 
BRANCH  12  13
ATOM     13  C   UNL     1      60.474  35.632  56.163  1.00  0.00     0.053 C 
BRANCH  13  14
ATOM     14  C   UNL     1      60.492  36.016  54.714  1.00  0.00     0.041 C 
ATOM     15  O   UNL     1      59.423  36.027  54.050  1.00  0.00    -0.550 OA
ATOM     16  O   UNL     1      61.691  36.334  54.088  1.00  0.00    -0.550 OA
ENDBRANCH  13  14
ENDBRANCH  12  13
ENDBRANCH  11  12
ENDBRANCH  10  11
ENDBRANCH   9  10
ENDBRANCH   8   9
ENDBRANCH   7   8
ENDBRANCH   6   7
ENDBRANCH   5   6
ENDBRANCH   4   5
ENDBRANCH   3   4
ENDBRANCH   2   3
ENDBRANCH   1   2
BRANCH   1  17
ATOM     17  C   UNL     1      61.172  32.443  60.951  1.00  0.00     0.000 C 
BRANCH  17  18
ATOM     18  C   UNL     1      60.703  31.170  61.681  1.00  0.00     0.000 C 
BRANCH  18  19
ATOM     19  C   UNL     1      61.795  30.104  61.897  1.00  0.00     0.000 C 
BRANCH  19  20
ATOM     20  C   UNL     1      63.242  30.588  61.658  1.00  0.00     0.000 C 
BRANCH  20  21
ATOM     21  C   UNL     1      64.197  29.527  61.080  1.00  0.00     0.000 C 
BRANCH  21  22
ATOM     22  C   UNL     1      65.351  30.144  60.281  1.00  0.00    -0.000 C 
BRANCH  22  23
ATOM     23  C   UNL     1      65.703  29.286  59.059  1.00  0.00    -0.000 C 
BRANCH  23  24
ATOM     24  C   UNL     1      64.848  28.001  58.970  1.00  0.00    -0.000 C 
BRANCH  24  25
ATOM     25  C   UNL     1      63.952  27.935  57.720  1.00  0.00    -0.000 C 
BRANCH  25  26
ATOM     26  C   UNL     1      63.054  29.168  57.518  1.00  0.00    -0.000 C 
BRANCH  26  27
ATOM     27  C   UNL     1      61.730  29.099  58.313  1.00  0.00    -0.000 C 
BRANCH  27  28
ATOM     28  C   UNL     1      61.186  27.668  58.422  1.00  0.00    -0.000 C 
BRANCH  28  29
ATOM     29  C   UNL     1      60.735  27.353  59.854  1.00  0.00    -0.003 C 
ATOM     30  C   UNL     1      61.824  26.608  60.622  1.00  0.00     0.004 C 
ENDBRANCH  28  29
ENDBRANCH  27  28
ENDBRANCH  26  27
ENDBRANCH  25  26
ENDBRANCH  24  25
ENDBRANCH  23  24
ENDBRANCH  22  23
ENDBRANCH  21  22
ENDBRANCH  20  21
ENDBRANCH  19  20
ENDBRANCH  18  19
ENDBRANCH  17  18
ENDBRANCH   1  17
TORSDOF 26
ENDMDL
MODEL 6
REMARK VINA RESULT:    -2.661      3.376      4.668
REMARK INTER + INTRA:         -12.442
REMARK INTER:                  -8.034
REMARK INTRA:                  -4.408
REMARK UNBOUND:                -5.737
REMARK SMILES CCCCCCCCCCCCCCCCCCCCCCCCCCCC(=O)[O-]
REMARK SMILES IDX 15 1 16 2 17 3 18 4 19 5 20 6 21 7 22 8 23 9 24 10 25 11
REMARK SMILES IDX 26 12 27 13 28 14 29 15 30 16 14 17 13 18 12 19 11 20 10 21
REMARK SMILES IDX 9 22 8 23 7 24 6 25 5 26 4 27 3 28 2 29 1 30
REMARK H PARENT
REMARK Flexibility Score: inf
ROOT
ATOM      1  C   UNL     1      62.254  33.251  57.942  1.00  0.00     0.000 C 
ENDROOT
BRANCH   1   2
ATOM      2  C   UNL     1      61.082  33.065  58.929  1.00  0.00     0.000 C 
BRANCH   2   3
ATOM      3  C   UNL     1      61.019  31.696  59.638  1.00  0.00     0.000 C 
BRANCH   3   4
ATOM      4  C   UNL     1      60.837  31.757  61.164  1.00  0.00     0.000 C 
BRANCH   4   5
ATOM      5  C   UNL     1      61.555  30.609  61.893  1.00  0.00     0.000 C 
BRANCH   5   6
ATOM      6  C   UNL     1      63.022  30.455  61.436  1.00  0.00     0.000 C 
BRANCH   6   7
ATOM      7  C   UNL     1      63.432  28.995  61.169  1.00  0.00     0.000 C 
BRANCH   7   8
ATOM      8  C   UNL     1      62.231  28.036  61.137  1.00  0.00     0.000 C 
BRANCH   8   9
ATOM      9  C   UNL     1      61.972  27.456  59.738  1.00  0.00     0.000 C 
BRANCH   9  10
ATOM     10  C   UNL     1      60.971  28.292  58.928  1.00  0.00     0.000 C 
BRANCH  10  11
ATOM     11  C   UNL     1      59.533  27.811  59.166  1.00  0.00     0.000 C 
BRANCH  11  12
ATOM     12  C   UNL     1      58.786  28.640  60.226  1.00  0.00     0.006 C 
BRANCH  12  13
ATOM     13  C   UNL     1      57.304  28.260  60.386  1.00  0.00     0.053 C 
BRANCH  13  14
ATOM     14  C   UNL     1      57.027  27.546  61.674  1.00  0.00     0.041 C 
ATOM     15  O   UNL     1      57.826  26.669  62.096  1.00  0.00    -0.550 OA
ATOM     16  O   UNL     1      55.875  27.828  62.398  1.00  0.00    -0.550 OA
ENDBRANCH  13  14
ENDBRANCH  12  13
ENDBRANCH  11  12
ENDBRANCH  10  11
ENDBRANCH   9  10
ENDBRANCH   8   9
ENDBRANCH   7   8
ENDBRANCH   6   7
ENDBRANCH   5   6
ENDBRANCH   4   5
ENDBRANCH   3   4
ENDBRANCH   2   3
ENDBRANCH   1   2
BRANCH   1  17
ATOM     17  C   UNL     1      63.412  34.131  58.465  1.00  0.00     0.000 C 
BRANCH  17  18
ATOM     18  C   UNL     1      64.202  33.500  59.628  1.00  0.00     0.000 C 
BRANCH  18  19
ATOM     19  C   UNL     1      63.793  33.985  61.032  1.00  0.00     0.000 C 
BRANCH  19  20
ATOM     20  C   UNL     1      64.344  35.370  61.435  1.00  0.00     0.000 C 
BRANCH  20  21
ATOM     21  C   UNL     1      63.333  36.527  61.339  1.00  0.00     0.000 C 
BRANCH  21  22
ATOM     22  C   UNL     1      61.900  36.042  61.093  1.00  0.00    -0.000 C 
BRANCH  22  23
ATOM     23  C   UNL     1      61.251  36.792  59.923  1.00  0.00    -0.000 C 
BRANCH  23  24
ATOM     24  C   UNL     1      59.751  36.454  59.761  1.00  0.00    -0.000 C 
BRANCH  24  25
ATOM     25  C   UNL     1      59.325  36.198  58.304  1.00  0.00    -0.000 C 
BRANCH  25  26
ATOM     26  C   UNL     1      57.817  35.961  58.116  1.00  0.00    -0.000 C 
BRANCH  26  27
ATOM     27  C   UNL     1      57.479  35.119  56.864  1.00  0.00    -0.000 C 
BRANCH  27  28
ATOM     28  C   UNL     1      58.166  33.747  56.877  1.00  0.00    -0.000 C 
BRANCH  28  29
ATOM     29  C   UNL     1      57.159  32.625  57.156  1.00  0.00    -0.003 C 
ATOM     30  C   UNL     1      57.820  31.464  57.895  1.00  0.00     0.004 C 
ENDBRANCH  28  29
ENDBRANCH  27  28
ENDBRANCH  26  27
ENDBRANCH  25  26
ENDBRANCH  24  25
ENDBRANCH  23  24
ENDBRANCH  22  23
ENDBRANCH  21  22
ENDBRANCH  20  21
ENDBRANCH  19  20
ENDBRANCH  18  19
ENDBRANCH  17  18
ENDBRANCH   1  17
TORSDOF 26
ENDMDL
MODEL 7
REMARK VINA RESULT:    -2.636      8.124     11.783
REMARK INTER + INTRA:         -12.380
REMARK INTER:                  -6.983
REMARK INTRA:                  -5.397
REMARK UNBOUND:                -5.737
REMARK SMILES CCCCCCCCCCCCCCCCCCCCCCCCCCCC(=O)[O-]
REMARK SMILES IDX 15 1 16 2 17 3 18 4 19 5 20 6 21 7 22 8 23 9 24 10 25 11
REMARK SMILES IDX 26 12 27 13 28 14 29 15 30 16 14 17 13 18 12 19 11 20 10 21
REMARK SMILES IDX 9 22 8 23 7 24 6 25 5 26 4 27 3 28 2 29 1 30
REMARK H PARENT
REMARK Flexibility Score: inf
ROOT
ATOM      1  C   UNL     1      56.939  26.837  53.658  1.00  0.00     0.000 C 
ENDROOT
BRANCH   1   2
ATOM      2  C   UNL     1      56.000  26.164  52.634  1.00  0.00     0.000 C 
BRANCH   2   3
ATOM      3  C   UNL     1      56.608  25.914  51.238  1.00  0.00     0.000 C 
BRANCH   3   4
ATOM      4  C   UNL     1      56.102  26.849  50.127  1.00  0.00     0.000 C 
BRANCH   4   5
ATOM      5  C   UNL     1      54.644  26.564  49.728  1.00  0.00     0.000 C 
BRANCH   5   6
ATOM      6  C   UNL     1      53.766  27.832  49.781  1.00  0.00     0.000 C 
BRANCH   6   7
ATOM      7  C   UNL     1      54.446  29.022  50.481  1.00  0.00     0.000 C 
BRANCH   7   8
ATOM      8  C   UNL     1      53.676  29.502  51.722  1.00  0.00     0.000 C 
BRANCH   8   9
ATOM      9  C   UNL     1      54.586  30.177  52.760  1.00  0.00     0.000 C 
BRANCH   9  10
ATOM     10  C   UNL     1      56.073  30.091  52.386  1.00  0.00     0.000 C 
BRANCH  10  11
ATOM     11  C   UNL     1      56.944  30.819  53.420  1.00  0.00     0.000 C 
BRANCH  11  12
ATOM     12  C   UNL     1      57.262  32.272  53.025  1.00  0.00     0.006 C 
BRANCH  12  13
ATOM     13  C   UNL     1      58.388  32.913  53.856  1.00  0.00     0.053 C 
BRANCH  13  14
ATOM     14  C   UNL     1      58.858  34.216  53.283  1.00  0.00     0.041 C 
ATOM     15  O   UNL     1      59.951  34.275  52.660  1.00  0.00    -0.550 OA
ATOM     16  O   UNL     1      58.106  35.370  53.458  1.00  0.00    -0.550 OA
ENDBRANCH  13  14
ENDBRANCH  12  13
ENDBRANCH  11  12
ENDBRANCH  10  11
ENDBRANCH   9  10
ENDBRANCH   8   9
ENDBRANCH   7   8
ENDBRANCH   6   7
ENDBRANCH   5   6
ENDBRANCH   4   5
ENDBRANCH   3   4
ENDBRANCH   2   3
ENDBRANCH   1   2
BRANCH   1  17
ATOM     17  C   UNL     1      58.445  26.730  53.328  1.00  0.00     0.000 C 
BRANCH  17  18
ATOM     18  C   UNL     1      59.216  28.054  53.486  1.00  0.00     0.000 C 
BRANCH  18  19
ATOM     19  C   UNL     1      60.732  27.960  53.228  1.00  0.00     0.000 C 
BRANCH  19  20
ATOM     20  C   UNL     1      61.386  29.244  52.672  1.00  0.00     0.000 C 
BRANCH  20  21
ATOM     21  C   UNL     1      60.398  30.312  52.166  1.00  0.00     0.000 C 
BRANCH  21  22
ATOM     22  C   UNL     1      60.278  30.328  50.638  1.00  0.00    -0.000 C 
BRANCH  22  23
ATOM     23  C   UNL     1      59.010  29.602  50.171  1.00  0.00    -0.000 C 
BRANCH  23  24
ATOM     24  C   UNL     1      59.299  28.541  49.085  1.00  0.00    -0.000 C 
BRANCH  24  25
ATOM     25  C   UNL     1      59.654  27.154  49.650  1.00  0.00    -0.000 C 
BRANCH  25  26
ATOM     26  C   UNL     1      61.164  26.902  49.810  1.00  0.00    -0.000 C 
BRANCH  26  27
ATOM     27  C   UNL     1      61.492  25.563  50.510  1.00  0.00    -0.000 C 
BRANCH  27  28
ATOM     28  C   UNL     1      60.321  24.572  50.457  1.00  0.00    -0.000 C 
BRANCH  28  29
ATOM     29  C   UNL     1      60.071  23.933  51.828  1.00  0.00    -0.003 C 
ATOM     30  C   UNL     1      59.794  22.437  51.695  1.00  0.00     0.004 C 
ENDBRANCH  28  29
ENDBRANCH  27  28
ENDBRANCH  26  27
ENDBRANCH  25  26
ENDBRANCH  24  25
ENDBRANCH  23  24
ENDBRANCH  22  23
ENDBRANCH  21  22
ENDBRANCH  20  21
ENDBRANCH  19  20
ENDBRANCH  18  19
ENDBRANCH  17  18
ENDBRANCH   1  17
TORSDOF 26
ENDMDL
MODEL 8
REMARK VINA RESULT:    -2.635      2.533      6.933
REMARK INTER + INTRA:         -12.376
REMARK INTER:                  -7.993
REMARK INTRA:                  -4.384
REMARK UNBOUND:                -5.737
REMARK SMILES CCCCCCCCCCCCCCCCCCCCCCCCCCCC(=O)[O-]
REMARK SMILES IDX 15 1 16 2 17 3 18 4 19 5 20 6 21 7 22 8 23 9 24 10 25 11
REMARK SMILES IDX 26 12 27 13 28 14 29 15 30 16 14 17 13 18 12 19 11 20 10 21
REMARK SMILES IDX 9 22 8 23 7 24 6 25 5 26 4 27 3 28 2 29 1 30
REMARK H PARENT
REMARK Flexibility Score: inf
ROOT
ATOM      1  C   UNL     1      62.502  32.535  58.125  1.00  0.00     0.000 C 
ENDROOT
BRANCH   1   2
ATOM      2  C   UNL     1      61.148  32.635  58.857  1.00  0.00     0.000 C 
BRANCH   2   3
ATOM      3  C   UNL     1      61.103  33.620  60.044  1.00  0.00     0.000 C 
BRANCH   3   4
ATOM      4  C   UNL     1      61.695  35.011  59.762  1.00  0.00     0.000 C 
BRANCH   4   5
ATOM      5  C   UNL     1      61.758  35.895  61.020  1.00  0.00     0.000 C 
BRANCH   5   6
ATOM      6  C   UNL     1      63.178  36.445  61.276  1.00  0.00     0.000 C 
BRANCH   6   7
ATOM      7  C   UNL     1      64.295  35.437  60.952  1.00  0.00     0.000 C 
BRANCH   7   8
ATOM      8  C   UNL     1      65.302  35.973  59.922  1.00  0.00     0.000 C 
BRANCH   8   9
ATOM      9  C   UNL     1      65.218  35.241  58.574  1.00  0.00     0.000 C 
BRANCH   9  10
ATOM     10  C   UNL     1      66.058  35.917  57.481  1.00  0.00     0.000 C 
BRANCH  10  11
ATOM     11  C   UNL     1      66.921  37.043  58.069  1.00  0.00     0.000 C 
BRANCH  11  12
ATOM     12  C   UNL     1      68.397  36.958  57.639  1.00  0.00     0.006 C 
BRANCH  12  13
ATOM     13  C   UNL     1      69.175  35.808  58.301  1.00  0.00     0.053 C 
BRANCH  13  14
ATOM     14  C   UNL     1      70.141  35.149  57.363  1.00  0.00     0.041 C 
ATOM     15  O   UNL     1      71.222  35.721  57.064  1.00  0.00    -0.550 OA
ATOM     16  O   UNL     1      69.838  33.917  56.797  1.00  0.00    -0.550 OA
ENDBRANCH  13  14
ENDBRANCH  12  13
ENDBRANCH  11  12
ENDBRANCH  10  11
ENDBRANCH   9  10
ENDBRANCH   8   9
ENDBRANCH   7   8
ENDBRANCH   6   7
ENDBRANCH   5   6
ENDBRANCH   4   5
ENDBRANCH   3   4
ENDBRANCH   2   3
ENDBRANCH   1   2
BRANCH   1  17
ATOM     17  C   UNL     1      63.403  31.365  58.580  1.00  0.00     0.000 C 
BRANCH  17  18
ATOM     18  C   UNL     1      64.492  31.770  59.593  1.00  0.00     0.000 C 
BRANCH  18  19
ATOM     19  C   UNL     1      64.040  31.777  61.066  1.00  0.00     0.000 C 
BRANCH  19  20
ATOM     20  C   UNL     1      63.464  30.441  61.583  1.00  0.00     0.000 C 
BRANCH  20  21
ATOM     21  C   UNL     1      61.943  30.435  61.822  1.00  0.00     0.000 C 
BRANCH  21  22
ATOM     22  C   UNL     1      61.217  29.374  60.986  1.00  0.00    -0.000 C 
BRANCH  22  23
ATOM     23  C   UNL     1      61.573  27.958  61.452  1.00  0.00    -0.000 C 
BRANCH  23  24
ATOM     24  C   UNL     1      62.075  27.061  60.297  1.00  0.00    -0.000 C 
BRANCH  24  25
ATOM     25  C   UNL     1      62.697  27.846  59.127  1.00  0.00    -0.000 C 
BRANCH  25  26
ATOM     26  C   UNL     1      64.207  27.617  58.942  1.00  0.00    -0.000 C 
BRANCH  26  27
ATOM     27  C   UNL     1      64.955  27.360  60.270  1.00  0.00    -0.000 C 
BRANCH  27  28
ATOM     28  C   UNL     1      66.433  27.769  60.199  1.00  0.00    -0.000 C 
BRANCH  28  29
ATOM     29  C   UNL     1      66.715  28.989  61.083  1.00  0.00    -0.003 C 
ATOM     30  C   UNL     1      68.059  28.854  61.794  1.00  0.00     0.004 C 
ENDBRANCH  28  29
ENDBRANCH  27  28
ENDBRANCH  26  27
ENDBRANCH  25  26
ENDBRANCH  24  25
ENDBRANCH  23  24
ENDBRANCH  22  23
ENDBRANCH  21  22
ENDBRANCH  20  21
ENDBRANCH  19  20
ENDBRANCH  18  19
ENDBRANCH  17  18
ENDBRANCH   1  17
TORSDOF 26
ENDMDL
MODEL 9
REMARK VINA RESULT:    -2.619      7.817     11.755
REMARK INTER + INTRA:         -12.336
REMARK INTER:                  -6.568
REMARK INTRA:                  -5.768
REMARK UNBOUND:                -5.737
REMARK SMILES CCCCCCCCCCCCCCCCCCCCCCCCCCCC(=O)[O-]
REMARK SMILES IDX 15 1 16 2 17 3 18 4 19 5 20 6 21 7 22 8 23 9 24 10 25 11
REMARK SMILES IDX 26 12 27 13 28 14 29 15 30 16 14 17 13 18 12 19 11 20 10 21
REMARK SMILES IDX 9 22 8 23 7 24 6 25 5 26 4 27 3 28 2 29 1 30
REMARK H PARENT
REMARK Flexibility Score: inf
ROOT
ATOM      1  C   UNL     1      53.558  26.789  49.405  1.00  0.00     0.000 C 
ENDROOT
BRANCH   1   2
ATOM      2  C   UNL     1      54.947  26.175  49.684  1.00  0.00     0.000 C 
BRANCH   2   3
ATOM      3  C   UNL     1      55.352  26.094  51.171  1.00  0.00     0.000 C 
BRANCH   3   4
ATOM      4  C   UNL     1      56.703  26.743  51.516  1.00  0.00     0.000 C 
BRANCH   4   5
ATOM      5  C   UNL     1      57.428  27.299  50.279  1.00  0.00     0.000 C 
BRANCH   5   6
ATOM      6  C   UNL     1      57.478  28.842  50.275  1.00  0.00     0.000 C 
BRANCH   6   7
ATOM      7  C   UNL     1      58.616  29.418  49.414  1.00  0.00     0.000 C 
BRANCH   7   8
ATOM      8  C   UNL     1      59.686  28.372  49.065  1.00  0.00     0.000 C 
BRANCH   8   9
ATOM      9  C   UNL     1      61.044  28.672  49.718  1.00  0.00     0.000 C 
BRANCH   9  10
ATOM     10  C   UNL     1      61.677  27.430  50.362  1.00  0.00     0.000 C 
BRANCH  10  11
ATOM     11  C   UNL     1      60.800  26.189  50.142  1.00  0.00     0.000 C 
BRANCH  11  12
ATOM     12  C   UNL     1      60.726  25.275  51.379  1.00  0.00     0.006 C 
BRANCH  12  13
ATOM     13  C   UNL     1      59.523  24.316  51.375  1.00  0.00     0.053 C 
BRANCH  13  14
ATOM     14  C   UNL     1      58.972  24.077  52.749  1.00  0.00     0.041 C 
ATOM     15  O   UNL     1      59.673  24.328  53.764  1.00  0.00    -0.550 OA
ATOM     16  O   UNL     1      57.696  23.551  52.910  1.00  0.00    -0.550 OA
ENDBRANCH  13  14
ENDBRANCH  12  13
ENDBRANCH  11  12
ENDBRANCH  10  11
ENDBRANCH   9  10
ENDBRANCH   8   9
ENDBRANCH   7   8
ENDBRANCH   6   7
ENDBRANCH   5   6
ENDBRANCH   4   5
ENDBRANCH   3   4
ENDBRANCH   2   3
ENDBRANCH   1   2
BRANCH   1  17
ATOM     17  C   UNL     1      53.100  27.853  50.428  1.00  0.00     0.000 C 
BRANCH  17  18
ATOM     18  C   UNL     1      53.600  29.277  50.118  1.00  0.00     0.000 C 
BRANCH  18  19
ATOM     19  C   UNL     1      54.198  30.033  51.320  1.00  0.00     0.000 C 
BRANCH  19  20
ATOM     20  C   UNL     1      54.252  29.232  52.640  1.00  0.00     0.000 C 
BRANCH  20  21
ATOM     21  C   UNL     1      55.398  29.621  53.592  1.00  0.00     0.000 C 
BRANCH  21  22
ATOM     22  C   UNL     1      56.212  30.815  53.080  1.00  0.00    -0.000 C 
BRANCH  22  23
ATOM     23  C   UNL     1      57.695  30.675  53.446  1.00  0.00    -0.000 C 
BRANCH  23  24
ATOM     24  C   UNL     1      58.024  29.301  54.073  1.00  0.00    -0.000 C 
BRANCH  24  25
ATOM     25  C   UNL     1      59.190  28.567  53.384  1.00  0.00    -0.000 C 
BRANCH  25  26
ATOM     26  C   UNL     1      60.489  29.387  53.292  1.00  0.00    -0.000 C 
BRANCH  26  27
ATOM     27  C   UNL     1      61.579  28.921  54.284  1.00  0.00    -0.000 C 
BRANCH  27  28
ATOM     28  C   UNL     1      61.974  27.452  54.075  1.00  0.00    -0.000 C 
BRANCH  28  29
ATOM     29  C   UNL     1      63.496  27.277  54.099  1.00  0.00    -0.003 C 
ATOM     30  C   UNL     1      64.160  28.085  52.986  1.00  0.00     0.004 C 
ENDBRANCH  28  29
ENDBRANCH  27  28
ENDBRANCH  26  27
ENDBRANCH  25  26
ENDBRANCH  24  25
ENDBRANCH  23  24
ENDBRANCH  22  23
ENDBRANCH  21  22
ENDBRANCH  20  21
ENDBRANCH  19  20
ENDBRANCH  18  19
ENDBRANCH  17  18
ENDBRANCH   1  17
TORSDOF 26
ENDMDL
