MODEL 1
REMARK VINA RESULT:     0.000      0.000      0.000
REMARK INTER + INTRA:          -0.332
REMARK INTER:                   0.000
REMARK INTRA:                  -0.332
REMARK UNBOUND:                -0.332
REMARK SMILES O=c1c(O)c(-c2ccc(O)c(O)c2)oc2cc(O)cc(O)c12
REMARK SMILES IDX 5 1 3 2 2 3 1 4 22 5 20 6 19 7 17 8 16 9 15 10 14 11 6 12
REMARK SMILES IDX 7 13 8 14 9 15 13 16 11 17 10 18 12 20 4 22 21 24 18 26
REMARK H PARENT 10 19 12 21 4 23 21 25 18 27
REMARK Flexibility Score: inf
ROOT
ATOM      1  C   UNL     1      17.701 111.036  89.721  1.00  0.00     0.180 A 
ATOM      2  C   UNL     1      17.691 110.175  88.605  1.00  0.00     0.208 A 
ATOM      3  C   UNL     1      17.692 108.789  88.819  1.00  0.00     0.238 A 
ATOM      4  O   UNL     1      17.694 108.008  87.828  1.00  0.00    -0.285 OA
ATOM      5  C   UNL     1      17.683 108.286  90.136  1.00  0.00     0.111 A 
ATOM      6  C   UNL     1      17.679 106.903  90.437  1.00  0.00     0.134 A 
ATOM      7  C   UNL     1      17.660 106.481  91.775  1.00  0.00     0.093 A 
ATOM      8  C   UNL     1      17.645 107.414  92.815  1.00  0.00     0.123 A 
ATOM      9  C   UNL     1      17.648 108.781  92.524  1.00  0.00     0.094 A 
ATOM     10  C   UNL     1      17.669 109.221  91.198  1.00  0.00     0.146 A 
ATOM     11  O   UNL     1      17.677 110.526  90.948  1.00  0.00    -0.452 OA
ENDROOT
BRANCH   1  12
ATOM     12  C   UNL     1      17.719 112.509  89.578  1.00  0.00     0.025 A 
ATOM     13  C   UNL     1      18.929 113.222  89.498  1.00  0.00     0.016 A 
ATOM     14  C   UNL     1      18.923 114.615  89.389  1.00  0.00     0.051 A 
ATOM     15  C   UNL     1      17.709 115.317  89.370  1.00  0.00     0.157 A 
ATOM     16  C   UNL     1      16.508 113.219  89.580  1.00  0.00     0.062 A 
ATOM     17  C   UNL     1      16.500 114.617  89.468  1.00  0.00     0.158 A 
BRANCH  15  18
ATOM     18  O   UNL     1      17.698 116.706  89.258  1.00  0.00    -0.504 OA
ATOM     19  H   UNL     1      16.847 117.214  89.044  1.00  0.00     0.293 HD
ENDBRANCH  15  18
BRANCH  17  20
ATOM     20  O   UNL     1      15.295 115.317  89.457  1.00  0.00    -0.504 OA
ATOM     21  H   UNL     1      15.266 116.322  89.333  1.00  0.00     0.293 HD
ENDBRANCH  17  20
ENDBRANCH   1  12
BRANCH   2  22
ATOM     22  O   UNL     1      17.651 110.700  87.311  1.00  0.00    -0.502 OA
ATOM     23  H   UNL     1      17.193 110.219  86.546  1.00  0.00     0.293 HD
ENDBRANCH   2  22
BRANCH   6  24
ATOM     24  O   UNL     1      17.694 105.946  89.420  1.00  0.00    -0.507 OA
ATOM     25  H   UNL     1      17.556 106.199  88.448  1.00  0.00     0.293 HD
ENDBRANCH   6  24
BRANCH   8  26
ATOM     26  O   UNL     1      17.625 106.969  94.135  1.00  0.00    -0.508 OA
ATOM     27  H   UNL     1      16.858 106.415  94.496  1.00  0.00     0.293 HD
ENDBRANCH   8  26
TORSDOF 6
ENDMDL
MODEL 2
REMARK VINA RESULT:     0.000      5.027      6.859
REMARK INTER + INTRA:          -0.332
REMARK INTER:                   0.000
REMARK INTRA:                  -0.332
REMARK UNBOUND:                -0.332
REMARK SMILES O=c1c(O)c(-c2ccc(O)c(O)c2)oc2cc(O)cc(O)c12
REMARK SMILES IDX 5 1 3 2 2 3 1 4 22 5 20 6 19 7 17 8 16 9 15 10 14 11 6 12
REMARK SMILES IDX 7 13 8 14 9 15 13 16 11 17 10 18 12 20 4 22 21 24 18 26
REMARK H PARENT 10 19 12 21 4 23 21 25 18 27
REMARK Flexibility Score: inf
ROOT
ATOM      1  C   UNL     1      21.162 111.554  92.951  1.00  0.00     0.180 A 
ATOM      2  C   UNL     1      20.678 110.232  92.900  1.00  0.00     0.208 A 
ATOM      3  C   UNL     1      19.496 109.970  92.190  1.00  0.00     0.238 A 
ATOM      4  O   UNL     1      19.048 108.792  92.146  1.00  0.00    -0.285 OA
ATOM      5  C   UNL     1      18.830 111.023  91.531  1.00  0.00     0.111 A 
ATOM      6  C   UNL     1      17.636 110.842  90.793  1.00  0.00     0.134 A 
ATOM      7  C   UNL     1      17.038 111.941  90.156  1.00  0.00     0.093 A 
ATOM      8  C   UNL     1      17.609 113.212  90.244  1.00  0.00     0.123 A 
ATOM      9  C   UNL     1      18.789 113.397  90.972  1.00  0.00     0.094 A 
ATOM     10  C   UNL     1      19.399 112.316  91.615  1.00  0.00     0.146 A 
ATOM     11  O   UNL     1      20.515 112.520  92.305  1.00  0.00    -0.452 OA
ENDROOT
BRANCH   1  12
ATOM     12  C   UNL     1      22.391 111.914  93.693  1.00  0.00     0.025 A 
ATOM     13  C   UNL     1      22.346 112.284  95.049  1.00  0.00     0.016 A 
ATOM     14  C   UNL     1      23.516 112.643  95.723  1.00  0.00     0.051 A 
ATOM     15  C   UNL     1      24.746 112.651  95.049  1.00  0.00     0.157 A 
ATOM     16  C   UNL     1      23.622 111.944  93.018  1.00  0.00     0.062 A 
ATOM     17  C   UNL     1      24.798 112.303  93.694  1.00  0.00     0.158 A 
BRANCH  15  18
ATOM     18  O   UNL     1      25.915 113.007  95.718  1.00  0.00    -0.504 OA
ATOM     19  H   UNL     1      26.112 113.970  95.965  1.00  0.00     0.293 HD
ENDBRANCH  15  18
BRANCH  17  20
ATOM     20  O   UNL     1      26.020 112.320  93.024  1.00  0.00    -0.504 OA
ATOM     21  H   UNL     1      26.856 112.697  93.454  1.00  0.00     0.293 HD
ENDBRANCH  17  20
ENDBRANCH   1  12
BRANCH   2  22
ATOM     22  O   UNL     1      21.384 109.199  93.520  1.00  0.00    -0.502 OA
ATOM     23  H   UNL     1      22.210 109.368  94.082  1.00  0.00     0.293 HD
ENDBRANCH   2  22
BRANCH   6  24
ATOM     24  O   UNL     1      17.041 109.584  90.686  1.00  0.00    -0.507 OA
ATOM     25  H   UNL     1      17.244 108.962  89.912  1.00  0.00     0.293 HD
ENDBRANCH   6  24
BRANCH   8  26
ATOM     26  O   UNL     1      16.996 114.286  89.603  1.00  0.00    -0.508 OA
ATOM     27  H   UNL     1      16.748 115.131  90.103  1.00  0.00     0.293 HD
ENDBRANCH   8  26
TORSDOF 6
ENDMDL
MODEL 3
REMARK VINA RESULT:     0.000      7.457      8.863
REMARK INTER + INTRA:          -0.332
REMARK INTER:                   0.000
REMARK INTRA:                  -0.332
REMARK UNBOUND:                -0.332
REMARK SMILES O=c1c(O)c(-c2ccc(O)c(O)c2)oc2cc(O)cc(O)c12
REMARK SMILES IDX 5 1 3 2 2 3 1 4 22 5 20 6 19 7 17 8 16 9 15 10 14 11 6 12
REMARK SMILES IDX 7 13 8 14 9 15 13 16 11 17 10 18 12 20 4 22 21 24 18 26
REMARK H PARENT 10 19 12 21 4 23 21 25 18 27
REMARK Flexibility Score: inf
ROOT
ATOM      1  C   UNL     1      16.038 107.647  96.727  1.00  0.00     0.180 A 
ATOM      2  C   UNL     1      14.779 108.231  96.480  1.00  0.00     0.208 A 
ATOM      3  C   UNL     1      13.963 107.683  95.479  1.00  0.00     0.238 A 
ATOM      4  O   UNL     1      12.839 108.204  95.241  1.00  0.00    -0.285 OA
ATOM      5  C   UNL     1      14.406 106.556  94.757  1.00  0.00     0.111 A 
ATOM      6  C   UNL     1      13.643 105.942  93.735  1.00  0.00     0.134 A 
ATOM      7  C   UNL     1      14.150 104.816  93.068  1.00  0.00     0.093 A 
ATOM      8  C   UNL     1      15.401 104.294  93.403  1.00  0.00     0.123 A 
ATOM      9  C   UNL     1      16.159 104.896  94.412  1.00  0.00     0.094 A 
ATOM     10  C   UNL     1      15.673 106.019  95.087  1.00  0.00     0.146 A 
ATOM     11  O   UNL     1      16.416 106.575  96.037  1.00  0.00    -0.452 OA
ENDROOT
BRANCH   1  12
ATOM     12  C   UNL     1      16.963 108.177  97.754  1.00  0.00     0.025 A 
ATOM     13  C   UNL     1      17.911 109.169  97.443  1.00  0.00     0.016 A 
ATOM     14  C   UNL     1      18.791 109.637  98.423  1.00  0.00     0.051 A 
ATOM     15  C   UNL     1      18.746 109.112  99.722  1.00  0.00     0.157 A 
ATOM     16  C   UNL     1      16.937 107.640  99.051  1.00  0.00     0.062 A 
ATOM     17  C   UNL     1      17.819 108.110 100.036  1.00  0.00     0.158 A 
BRANCH  15  18
ATOM     18  O   UNL     1      19.620 109.578 100.702  1.00  0.00    -0.504 OA
ATOM     19  H   UNL     1      19.444 110.441 101.204  1.00  0.00     0.293 HD
ENDBRANCH  15  18
BRANCH  17  20
ATOM     20  O   UNL     1      17.781 107.584 101.326  1.00  0.00    -0.504 OA
ATOM     21  H   UNL     1      18.427 107.893 102.043  1.00  0.00     0.293 HD
ENDBRANCH  17  20
ENDBRANCH   1  12
BRANCH   2  22
ATOM     22  O   UNL     1      14.344 109.316  97.243  1.00  0.00    -0.502 OA
ATOM     23  H   UNL     1      13.411 109.701  97.156  1.00  0.00     0.293 HD
ENDBRANCH   2  22
BRANCH   6  24
ATOM     24  O   UNL     1      12.389 106.440  93.377  1.00  0.00    -0.507 OA
ATOM     25  H   UNL     1      12.287 107.210  92.724  1.00  0.00     0.293 HD
ENDBRANCH   6  24
BRANCH   8  26
ATOM     26  O   UNL     1      15.881 103.174  92.727  1.00  0.00    -0.508 OA
ATOM     27  H   UNL     1      16.874 103.016  92.603  1.00  0.00     0.293 HD
ENDBRANCH   8  26
TORSDOF 6
ENDMDL
MODEL 4
REMARK VINA RESULT:     0.000      2.125      2.829
REMARK INTER + INTRA:          -0.332
REMARK INTER:                   0.000
REMARK INTRA:                  -0.332
REMARK UNBOUND:                -0.332
REMARK SMILES O=c1c(O)c(-c2ccc(O)c(O)c2)oc2cc(O)cc(O)c12
REMARK SMILES IDX 5 1 3 2 2 3 1 4 22 5 20 6 19 7 17 8 16 9 15 10 14 11 6 12
REMARK SMILES IDX 7 13 8 14 9 15 13 16 11 17 10 18 12 20 4 22 21 24 18 26
REMARK H PARENT 10 19 12 21 4 23 21 25 18 27
REMARK Flexibility Score: inf
ROOT
ATOM      1  C   UNL     1      17.586 111.085  91.201  1.00  0.00     0.180 A 
ATOM      2  C   UNL     1      18.786 110.504  91.657  1.00  0.00     0.208 A 
ATOM      3  C   UNL     1      18.740 109.237  92.257  1.00  0.00     0.238 A 
ATOM      4  O   UNL     1      19.806 108.711  92.679  1.00  0.00    -0.285 OA
ATOM      5  C   UNL     1      17.506 108.564  92.374  1.00  0.00     0.111 A 
ATOM      6  C   UNL     1      17.374 107.284  92.962  1.00  0.00     0.134 A 
ATOM      7  C   UNL     1      16.111 106.677  93.032  1.00  0.00     0.093 A 
ATOM      8  C   UNL     1      14.981 107.324  92.527  1.00  0.00     0.123 A 
ATOM      9  C   UNL     1      15.105 108.589  91.945  1.00  0.00     0.094 A 
ATOM     10  C   UNL     1      16.354 109.211  91.867  1.00  0.00     0.146 A 
ATOM     11  O   UNL     1      16.443 110.416  91.314  1.00  0.00    -0.452 OA
ENDROOT
BRANCH   1  12
ATOM     12  C   UNL     1      17.550 112.426  90.573  1.00  0.00     0.025 A 
ATOM     13  C   UNL     1      17.374 113.589  91.343  1.00  0.00     0.016 A 
ATOM     14  C   UNL     1      17.318 114.843  90.727  1.00  0.00     0.051 A 
ATOM     15  C   UNL     1      17.425 114.950  89.333  1.00  0.00     0.157 A 
ATOM     16  C   UNL     1      17.635 112.538  89.176  1.00  0.00     0.062 A 
ATOM     17  C   UNL     1      17.581 113.795  88.557  1.00  0.00     0.158 A 
BRANCH  15  18
ATOM     18  O   UNL     1      17.372 116.198  88.715  1.00  0.00    -0.504 OA
ATOM     19  H   UNL     1      18.124 116.527  88.120  1.00  0.00     0.293 HD
ENDBRANCH  15  18
BRANCH  17  20
ATOM     20  O   UNL     1      17.679 113.903  87.171  1.00  0.00    -0.504 OA
ATOM     21  H   UNL     1      18.539 113.687  86.681  1.00  0.00     0.293 HD
ENDBRANCH  17  20
ENDBRANCH   1  12
BRANCH   2  22
ATOM     22  O   UNL     1      20.002 111.170  91.485  1.00  0.00    -0.502 OA
ATOM     23  H   UNL     1      20.059 112.098  91.082  1.00  0.00     0.293 HD
ENDBRANCH   2  22
BRANCH   6  24
ATOM     24  O   UNL     1      18.484 106.612  93.476  1.00  0.00    -0.507 OA
ATOM     25  H   UNL     1      18.391 105.896  94.188  1.00  0.00     0.293 HD
ENDBRANCH   6  24
BRANCH   8  26
ATOM     26  O   UNL     1      13.738 106.699  92.608  1.00  0.00    -0.508 OA
ATOM     27  H   UNL     1      13.537 105.852  92.091  1.00  0.00     0.293 HD
ENDBRANCH   8  26
TORSDOF 6
ENDMDL
MODEL 5
REMARK VINA RESULT:     0.000      6.503      9.328
REMARK INTER + INTRA:          -0.332
REMARK INTER:                   0.000
REMARK INTRA:                  -0.332
REMARK UNBOUND:                -0.332
REMARK SMILES O=c1c(O)c(-c2ccc(O)c(O)c2)oc2cc(O)cc(O)c12
REMARK SMILES IDX 5 1 3 2 2 3 1 4 22 5 20 6 19 7 17 8 16 9 15 10 14 11 6 12
REMARK SMILES IDX 7 13 8 14 9 15 13 16 11 17 10 18 12 20 4 22 21 24 18 26
REMARK H PARENT 10 19 12 21 4 23 21 25 18 27
REMARK Flexibility Score: inf
ROOT
ATOM      1  C   UNL     1      22.542 108.965  86.344  1.00  0.00     0.180 A 
ATOM      2  C   UNL     1      22.185 110.252  85.893  1.00  0.00     0.208 A 
ATOM      3  C   UNL     1      23.201 111.157  85.553  1.00  0.00     0.238 A 
ATOM      4  O   UNL     1      22.895 112.315  85.158  1.00  0.00    -0.285 OA
ATOM      5  C   UNL     1      24.551 110.759  85.650  1.00  0.00     0.111 A 
ATOM      6  C   UNL     1      25.634 111.610  85.323  1.00  0.00     0.134 A 
ATOM      7  C   UNL     1      26.950 111.136  85.437  1.00  0.00     0.093 A 
ATOM      8  C   UNL     1      27.203 109.832  85.870  1.00  0.00     0.123 A 
ATOM      9  C   UNL     1      26.137 108.988  86.193  1.00  0.00     0.094 A 
ATOM     10  C   UNL     1      24.819 109.441  86.089  1.00  0.00     0.146 A 
ATOM     11  O   UNL     1      23.824 108.620  86.408  1.00  0.00    -0.452 OA
ENDROOT
BRANCH   1  12
ATOM     12  C   UNL     1      21.529 107.961  86.738  1.00  0.00     0.025 A 
ATOM     13  C   UNL     1      21.058 107.876  88.060  1.00  0.00     0.016 A 
ATOM     14  C   UNL     1      20.119 106.903  88.415  1.00  0.00     0.051 A 
ATOM     15  C   UNL     1      19.648 105.994  87.458  1.00  0.00     0.157 A 
ATOM     16  C   UNL     1      21.069 107.033  85.789  1.00  0.00     0.062 A 
ATOM     17  C   UNL     1      20.126 106.057  86.143  1.00  0.00     0.158 A 
BRANCH  15  18
ATOM     18  O   UNL     1      18.711 105.023  87.808  1.00  0.00    -0.504 OA
ATOM     19  H   UNL     1      18.172 105.091  88.663  1.00  0.00     0.293 HD
ENDBRANCH  15  18
BRANCH  17  20
ATOM     20  O   UNL     1      19.663 105.147  85.196  1.00  0.00    -0.504 OA
ATOM     21  H   UNL     1      20.113 104.250  85.057  1.00  0.00     0.293 HD
ENDBRANCH  17  20
ENDBRANCH   1  12
BRANCH   2  22
ATOM     22  O   UNL     1      20.840 110.604  85.759  1.00  0.00    -0.502 OA
ATOM     23  H   UNL     1      20.459 111.450  86.164  1.00  0.00     0.293 HD
ENDBRANCH   2  22
BRANCH   6  24
ATOM     24  O   UNL     1      25.415 112.918  84.888  1.00  0.00    -0.507 OA
ATOM     25  H   UNL     1      24.479 113.294  84.779  1.00  0.00     0.293 HD
ENDBRANCH   6  24
BRANCH   8  26
ATOM     26  O   UNL     1      28.518 109.386  85.973  1.00  0.00    -0.508 OA
ATOM     27  H   UNL     1      29.163 109.787  86.644  1.00  0.00     0.293 HD
ENDBRANCH   8  26
TORSDOF 6
ENDMDL
MODEL 6
REMARK VINA RESULT:     0.000      4.730      8.604
REMARK INTER + INTRA:          -0.332
REMARK INTER:                   0.000
REMARK INTRA:                  -0.332
REMARK UNBOUND:                -0.332
REMARK SMILES O=c1c(O)c(-c2ccc(O)c(O)c2)oc2cc(O)cc(O)c12
REMARK SMILES IDX 5 1 3 2 2 3 1 4 22 5 20 6 19 7 17 8 16 9 15 10 14 11 6 12
REMARK SMILES IDX 7 13 8 14 9 15 13 16 11 17 10 18 12 20 4 22 21 24 18 26
REMARK H PARENT 10 19 12 21 4 23 21 25 18 27
REMARK Flexibility Score: inf
ROOT
ATOM      1  C   UNL     1      22.151 109.087  92.243  1.00  0.00     0.180 A 
ATOM      2  C   UNL     1      22.878 109.443  93.397  1.00  0.00     0.208 A 
ATOM      3  C   UNL     1      23.110 110.801  93.659  1.00  0.00     0.238 A 
ATOM      4  O   UNL     1      23.768 111.132  94.683  1.00  0.00    -0.285 OA
ATOM      5  C   UNL     1      22.598 111.779  92.781  1.00  0.00     0.111 A 
ATOM      6  C   UNL     1      22.785 113.169  92.976  1.00  0.00     0.134 A 
ATOM      7  C   UNL     1      22.236 114.080  92.061  1.00  0.00     0.093 A 
ATOM      8  C   UNL     1      21.506 113.629  90.958  1.00  0.00     0.123 A 
ATOM      9  C   UNL     1      21.319 112.258  90.760  1.00  0.00     0.094 A 
ATOM     10  C   UNL     1      21.859 111.334  91.659  1.00  0.00     0.146 A 
ATOM     11  O   UNL     1      21.672 110.037  91.445  1.00  0.00    -0.452 OA
ENDROOT
BRANCH   1  12
ATOM     12  C   UNL     1      21.881 107.676  91.887  1.00  0.00     0.025 A 
ATOM     13  C   UNL     1      22.773 106.939  91.088  1.00  0.00     0.016 A 
ATOM     14  C   UNL     1      22.485 105.615  90.745  1.00  0.00     0.051 A 
ATOM     15  C   UNL     1      21.297 105.013  91.184  1.00  0.00     0.157 A 
ATOM     16  C   UNL     1      20.683 107.075  92.307  1.00  0.00     0.062 A 
ATOM     17  C   UNL     1      20.394 105.746  91.964  1.00  0.00     0.158 A 
BRANCH  15  18
ATOM     18  O   UNL     1      21.008 103.693  90.845  1.00  0.00    -0.504 OA
ATOM     19  H   UNL     1      21.742 103.008  90.705  1.00  0.00     0.293 HD
ENDBRANCH  15  18
BRANCH  17  20
ATOM     20  O   UNL     1      19.210 105.148  92.392  1.00  0.00    -0.504 OA
ATOM     21  H   UNL     1      18.311 105.417  92.009  1.00  0.00     0.293 HD
ENDBRANCH  17  20
ENDBRANCH   1  12
BRANCH   2  22
ATOM     22  O   UNL     1      23.331 108.457  94.276  1.00  0.00    -0.502 OA
ATOM     23  H   UNL     1      23.972 107.728  93.989  1.00  0.00     0.293 HD
ENDBRANCH   2  22
BRANCH   6  24
ATOM     24  O   UNL     1      23.508 113.650  94.068  1.00  0.00    -0.507 OA
ATOM     25  H   UNL     1      23.889 114.590  94.083  1.00  0.00     0.293 HD
ENDBRANCH   6  24
BRANCH   8  26
ATOM     26  O   UNL     1      20.971 114.554  90.065  1.00  0.00    -0.508 OA
ATOM     27  H   UNL     1      20.002 114.508  89.772  1.00  0.00     0.293 HD
ENDBRANCH   8  26
TORSDOF 6
ENDMDL
MODEL 7
REMARK VINA RESULT:     0.000      2.900      4.990
REMARK INTER + INTRA:          -0.332
REMARK INTER:                   0.000
REMARK INTRA:                  -0.332
REMARK UNBOUND:                -0.332
REMARK SMILES O=c1c(O)c(-c2ccc(O)c(O)c2)oc2cc(O)cc(O)c12
REMARK SMILES IDX 5 1 3 2 2 3 1 4 22 5 20 6 19 7 17 8 16 9 15 10 14 11 6 12
REMARK SMILES IDX 7 13 8 14 9 15 13 16 11 17 10 18 12 20 4 22 21 24 18 26
REMARK H PARENT 10 19 12 21 4 23 21 25 18 27
REMARK Flexibility Score: inf
ROOT
ATOM      1  C   UNL     1      18.820 112.039  89.391  1.00  0.00     0.180 A 
ATOM      2  C   UNL     1      18.725 110.768  89.993  1.00  0.00     0.208 A 
ATOM      3  C   UNL     1      17.714 110.539  90.937  1.00  0.00     0.238 A 
ATOM      4  O   UNL     1      17.626 109.409  91.490  1.00  0.00    -0.285 OA
ATOM      5  C   UNL     1      16.805 111.571  91.251  1.00  0.00     0.111 A 
ATOM      6  C   UNL     1      15.756 111.419  92.189  1.00  0.00     0.134 A 
ATOM      7  C   UNL     1      14.886 112.492  92.439  1.00  0.00     0.093 A 
ATOM      8  C   UNL     1      15.045 113.708  91.772  1.00  0.00     0.123 A 
ATOM      9  C   UNL     1      16.080 113.863  90.844  1.00  0.00     0.094 A 
ATOM     10  C   UNL     1      16.958 112.808  90.582  1.00  0.00     0.146 A 
ATOM     11  O   UNL     1      17.936 112.983  89.701  1.00  0.00    -0.452 OA
ENDROOT
BRANCH   1  12
ATOM     12  C   UNL     1      19.869 112.364  88.400  1.00  0.00     0.025 A 
ATOM     13  C   UNL     1      21.116 112.882  88.796  1.00  0.00     0.016 A 
ATOM     14  C   UNL     1      22.083 113.205  87.840  1.00  0.00     0.051 A 
ATOM     15  C   UNL     1      21.814 113.028  86.475  1.00  0.00     0.157 A 
ATOM     16  C   UNL     1      19.599 112.209  87.030  1.00  0.00     0.062 A 
ATOM     17  C   UNL     1      20.569 112.532  86.070  1.00  0.00     0.158 A 
BRANCH  15  18
ATOM     18  O   UNL     1      22.777 113.347  85.520  1.00  0.00    -0.504 OA
ATOM     19  H   UNL     1      22.849 114.281  85.131  1.00  0.00     0.293 HD
ENDBRANCH  15  18
BRANCH  17  20
ATOM     20  O   UNL     1      20.302 112.365  84.713  1.00  0.00    -0.504 OA
ATOM     21  H   UNL     1      20.634 111.555  84.202  1.00  0.00     0.293 HD
ENDBRANCH  17  20
ENDBRANCH   1  12
BRANCH   2  22
ATOM     22  O   UNL     1      19.608 109.749  89.628  1.00  0.00    -0.502 OA
ATOM     23  H   UNL     1      19.437 108.777  89.857  1.00  0.00     0.293 HD
ENDBRANCH   2  22
BRANCH   6  24
ATOM     24  O   UNL     1      15.570 110.216  92.872  1.00  0.00    -0.507 OA
ATOM     25  H   UNL     1      15.194 109.395  92.412  1.00  0.00     0.293 HD
ENDBRANCH   6  24
BRANCH   8  26
ATOM     26  O   UNL     1      14.168 114.757  92.038  1.00  0.00    -0.508 OA
ATOM     27  H   UNL     1      13.193 114.590  92.255  1.00  0.00     0.293 HD
ENDBRANCH   8  26
TORSDOF 6
ENDMDL
MODEL 8
REMARK VINA RESULT:     0.000      5.336      7.020
REMARK INTER + INTRA:          -0.332
REMARK INTER:                   0.000
REMARK INTRA:                  -0.332
REMARK UNBOUND:                -0.332
REMARK SMILES O=c1c(O)c(-c2ccc(O)c(O)c2)oc2cc(O)cc(O)c12
REMARK SMILES IDX 5 1 3 2 2 3 1 4 22 5 20 6 19 7 17 8 16 9 15 10 14 11 6 12
REMARK SMILES IDX 7 13 8 14 9 15 13 16 11 17 10 18 12 20 4 22 21 24 18 26
REMARK H PARENT 10 19 12 21 4 23 21 25 18 27
REMARK Flexibility Score: inf
ROOT
ATOM      1  C   UNL     1      19.999 111.474  94.127  1.00  0.00     0.180 A 
ATOM      2  C   UNL     1      20.263 110.097  93.991  1.00  0.00     0.208 A 
ATOM      3  C   UNL     1      21.448 109.693  93.357  1.00  0.00     0.238 A 
ATOM      4  O   UNL     1      21.690 108.463  93.220  1.00  0.00    -0.285 OA
ATOM      5  C   UNL     1      22.355 110.666  92.888  1.00  0.00     0.111 A 
ATOM      6  C   UNL     1      23.572 110.342  92.242  1.00  0.00     0.134 A 
ATOM      7  C   UNL     1      24.426 111.369  91.813  1.00  0.00     0.093 A 
ATOM      8  C   UNL     1      24.088 112.709  92.016  1.00  0.00     0.123 A 
ATOM      9  C   UNL     1      22.887 113.035  92.654  1.00  0.00     0.094 A 
ATOM     10  C   UNL     1      22.022 112.027  93.088  1.00  0.00     0.146 A 
ATOM     11  O   UNL     1      20.884 112.363  93.686  1.00  0.00    -0.452 OA
ENDROOT
BRANCH   1  12
ATOM     12  C   UNL     1      18.764 111.979  94.767  1.00  0.00     0.025 A 
ATOM     13  C   UNL     1      17.597 112.219  94.019  1.00  0.00     0.016 A 
ATOM     14  C   UNL     1      16.450 112.719  94.641  1.00  0.00     0.051 A 
ATOM     15  C   UNL     1      16.455 112.999  96.015  1.00  0.00     0.157 A 
ATOM     16  C   UNL     1      18.770 112.281  96.139  1.00  0.00     0.062 A 
ATOM     17  C   UNL     1      17.618 112.782  96.764  1.00  0.00     0.158 A 
BRANCH  15  18
ATOM     18  O   UNL     1      15.313 113.496  96.639  1.00  0.00    -0.504 OA
ATOM     19  H   UNL     1      15.346 114.321  97.227  1.00  0.00     0.293 HD
ENDBRANCH  15  18
BRANCH  17  20
ATOM     20  O   UNL     1      17.624 113.068  98.128  1.00  0.00    -0.504 OA
ATOM     21  H   UNL     1      18.034 112.433  98.802  1.00  0.00     0.293 HD
ENDBRANCH  17  20
ENDBRANCH   1  12
BRANCH   2  22
ATOM     22  O   UNL     1      19.372 109.154  94.508  1.00  0.00    -0.502 OA
ATOM     23  H   UNL     1      19.433 108.816  95.461  1.00  0.00     0.293 HD
ENDBRANCH   2  22
BRANCH   6  24
ATOM     24  O   UNL     1      23.938 109.013  92.024  1.00  0.00    -0.507 OA
ATOM     25  H   UNL     1      24.492 108.738  91.220  1.00  0.00     0.293 HD
ENDBRANCH   6  24
BRANCH   8  26
ATOM     26  O   UNL     1      24.954 113.710  91.581  1.00  0.00    -0.508 OA
ATOM     27  H   UNL     1      25.765 113.981  92.124  1.00  0.00     0.293 HD
ENDBRANCH   8  26
TORSDOF 6
ENDMDL
MODEL 9
REMARK VINA RESULT:     0.000      4.028      5.192
REMARK INTER + INTRA:          -0.332
REMARK INTER:                   0.000
REMARK INTRA:                  -0.332
REMARK UNBOUND:                -0.332
REMARK SMILES O=c1c(O)c(-c2ccc(O)c(O)c2)oc2cc(O)cc(O)c12
REMARK SMILES IDX 5 1 3 2 2 3 1 4 22 5 20 6 19 7 17 8 16 9 15 10 14 11 6 12
REMARK SMILES IDX 7 13 8 14 9 15 13 16 11 17 10 18 12 20 4 22 21 24 18 26
REMARK H PARENT 10 19 12 21 4 23 21 25 18 27
REMARK Flexibility Score: inf
ROOT
ATOM      1  C   UNL     1      19.039 112.214  92.774  1.00  0.00     0.180 A 
ATOM      2  C   UNL     1      18.023 112.662  91.905  1.00  0.00     0.208 A 
ATOM      3  C   UNL     1      16.727 112.147  92.056  1.00  0.00     0.238 A 
ATOM      4  O   UNL     1      15.812 112.532  91.278  1.00  0.00    -0.285 OA
ATOM      5  C   UNL     1      16.462 111.212  93.079  1.00  0.00     0.111 A 
ATOM      6  C   UNL     1      15.183 110.648  93.299  1.00  0.00     0.134 A 
ATOM      7  C   UNL     1      14.998 109.731  94.345  1.00  0.00     0.093 A 
ATOM      8  C   UNL     1      16.064 109.368  95.171  1.00  0.00     0.123 A 
ATOM      9  C   UNL     1      17.330 109.922  94.958  1.00  0.00     0.094 A 
ATOM     10  C   UNL     1      17.536 110.836  93.920  1.00  0.00     0.146 A 
ATOM     11  O   UNL     1      18.749 111.344  93.736  1.00  0.00    -0.452 OA
ENDROOT
BRANCH   1  12
ATOM     12  C   UNL     1      20.434 112.697  92.667  1.00  0.00     0.025 A 
ATOM     13  C   UNL     1      21.374 112.044  91.849  1.00  0.00     0.016 A 
ATOM     14  C   UNL     1      22.693 112.502  91.783  1.00  0.00     0.051 A 
ATOM     15  C   UNL     1      23.094 113.611  92.542  1.00  0.00     0.157 A 
ATOM     16  C   UNL     1      20.848 113.793  93.441  1.00  0.00     0.062 A 
ATOM     17  C   UNL     1      22.170 114.255  93.374  1.00  0.00     0.158 A 
BRANCH  15  18
ATOM     18  O   UNL     1      24.408 114.072  92.477  1.00  0.00    -0.504 OA
ATOM     19  H   UNL     1      25.181 113.522  92.833  1.00  0.00     0.293 HD
ENDBRANCH  15  18
BRANCH  17  20
ATOM     20  O   UNL     1      22.574 115.352  94.133  1.00  0.00    -0.504 OA
ATOM     21  H   UNL     1      22.148 116.264  94.016  1.00  0.00     0.293 HD
ENDBRANCH  17  20
ENDBRANCH   1  12
BRANCH   2  22
ATOM     22  O   UNL     1      18.301 113.625  90.933  1.00  0.00    -0.502 OA
ATOM     23  H   UNL     1      17.686 114.410  90.755  1.00  0.00     0.293 HD
ENDBRANCH   2  22
BRANCH   6  24
ATOM     24  O   UNL     1      14.098 110.990  92.491  1.00  0.00    -0.507 OA
ATOM     25  H   UNL     1      13.908 111.952  92.232  1.00  0.00     0.293 HD
ENDBRANCH   6  24
BRANCH   8  26
ATOM     26  O   UNL     1      15.854 108.456  96.203  1.00  0.00    -0.508 OA
ATOM     27  H   UNL     1      15.394 108.727  97.064  1.00  0.00     0.293 HD
ENDBRANCH   8  26
TORSDOF 6
ENDMDL
