MODEL 1
REMARK VINA RESULT:    -3.904      0.000      0.000
REMARK INTER + INTRA:          -8.267
REMARK INTER:                  -7.556
REMARK INTRA:                  -0.711
REMARK UNBOUND:                -0.711
REMARK SMILES CCCCCCCCCCCCCCCCCC(=O)[O-]
REMARK SMILES IDX 10 1 11 2 12 3 13 4 14 5 15 6 16 7 17 8 18 9 19 10 20 11
REMARK SMILES IDX 9 12 8 13 7 14 6 15 5 16 4 17 3 18 2 19 1 20
REMARK H PARENT
REMARK Flexibility Score: inf
ROOT
ATOM      1  C   UNL     1     120.957  70.995   0.964  1.00  0.00     0.000 C 
ENDROOT
BRANCH   1   2
ATOM      2  C   UNL     1     120.578  70.387  -0.399  1.00  0.00     0.000 C 
BRANCH   2   3
ATOM      3  C   UNL     1     121.280  69.057  -0.732  1.00  0.00     0.000 C 
BRANCH   3   4
ATOM      4  C   UNL     1     120.403  67.811  -0.475  1.00  0.00     0.000 C 
BRANCH   4   5
ATOM      5  C   UNL     1     120.142  67.004  -1.756  1.00  0.00     0.000 C 
BRANCH   5   6
ATOM      6  C   UNL     1     120.037  67.890  -3.010  1.00  0.00     0.000 C 
BRANCH   6   7
ATOM      7  C   UNL     1     119.876  67.086  -4.318  1.00  0.00     0.006 C 
BRANCH   7   8
ATOM      8  C   UNL     1     120.058  67.962  -5.563  1.00  0.00     0.053 C 
BRANCH   8   9
ATOM      9  C   UNL     1     120.979  67.301  -6.538  1.00  0.00     0.041 C 
ATOM     10  O   UNL     1     121.296  66.091  -6.392  1.00  0.00    -0.550 OA
ATOM     11  O   UNL     1     121.537  68.038  -7.576  1.00  0.00    -0.550 OA
ENDBRANCH   8   9
ENDBRANCH   7   8
ENDBRANCH   6   7
ENDBRANCH   5   6
ENDBRANCH   4   5
ENDBRANCH   3   4
ENDBRANCH   2   3
ENDBRANCH   1   2
BRANCH   1  12
ATOM     12  C   UNL     1     120.524  72.462   1.166  1.00  0.00     0.000 C 
BRANCH  12  13
ATOM     13  C   UNL     1     120.664  72.991   2.608  1.00  0.00    -0.000 C 
BRANCH  13  14
ATOM     14  C   UNL     1     119.875  72.200   3.670  1.00  0.00    -0.000 C 
BRANCH  14  15
ATOM     15  C   UNL     1     120.738  71.526   4.756  1.00  0.00    -0.000 C 
BRANCH  15  16
ATOM     16  C   UNL     1     119.951  70.701   5.792  1.00  0.00    -0.000 C 
BRANCH  16  17
ATOM     17  C   UNL     1     120.264  71.107   7.240  1.00  0.00    -0.000 C 
BRANCH  17  18
ATOM     18  C   UNL     1     120.371  72.633   7.369  1.00  0.00    -0.000 C 
BRANCH  18  19
ATOM     19  C   UNL     1     119.905  73.145   8.741  1.00  0.00    -0.003 C 
ATOM     20  C   UNL     1     120.221  72.172   9.874  1.00  0.00     0.004 C 
ENDBRANCH  18  19
ENDBRANCH  17  18
ENDBRANCH  16  17
ENDBRANCH  15  16
ENDBRANCH  14  15
ENDBRANCH  13  14
ENDBRANCH  12  13
ENDBRANCH   1  12
TORSDOF 16
ENDMDL
MODEL 2
REMARK VINA RESULT:    -3.793      5.539     11.525
REMARK INTER + INTRA:          -8.052
REMARK INTER:                  -7.335
REMARK INTRA:                  -0.718
REMARK UNBOUND:                -0.711
REMARK SMILES CCCCCCCCCCCCCCCCCC(=O)[O-]
REMARK SMILES IDX 10 1 11 2 12 3 13 4 14 5 15 6 16 7 17 8 18 9 19 10 20 11
REMARK SMILES IDX 9 12 8 13 7 14 6 15 5 16 4 17 3 18 2 19 1 20
REMARK H PARENT
REMARK Flexibility Score: inf
ROOT
ATOM      1  C   UNL     1     120.947  71.082   1.085  1.00  0.00     0.000 C 
ENDROOT
BRANCH   1   2
ATOM      2  C   UNL     1     120.830  72.616   1.167  1.00  0.00     0.000 C 
BRANCH   2   3
ATOM      3  C   UNL     1     120.887  73.194   2.594  1.00  0.00     0.000 C 
BRANCH   3   4
ATOM      4  C   UNL     1     121.342  72.171   3.659  1.00  0.00     0.000 C 
BRANCH   4   5
ATOM      5  C   UNL     1     120.234  71.849   4.674  1.00  0.00     0.000 C 
BRANCH   5   6
ATOM      6  C   UNL     1     120.571  70.638   5.562  1.00  0.00     0.000 C 
BRANCH   6   7
ATOM      7  C   UNL     1     119.882  70.679   6.943  1.00  0.00     0.006 C 
BRANCH   7   8
ATOM      8  C   UNL     1     120.242  71.944   7.732  1.00  0.00     0.053 C 
BRANCH   8   9
ATOM      9  C   UNL     1     120.074  71.710   9.200  1.00  0.00     0.041 C 
ATOM     10  O   UNL     1     119.966  72.685   9.989  1.00  0.00    -0.550 OA
ATOM     11  O   UNL     1     120.098  70.415   9.704  1.00  0.00    -0.550 OA
ENDBRANCH   8   9
ENDBRANCH   7   8
ENDBRANCH   6   7
ENDBRANCH   5   6
ENDBRANCH   4   5
ENDBRANCH   3   4
ENDBRANCH   2   3
ENDBRANCH   1   2
BRANCH   1  12
ATOM     12  C   UNL     1     120.099  70.422  -0.022  1.00  0.00     0.000 C 
BRANCH  12  13
ATOM     13  C   UNL     1     120.842  69.379  -0.879  1.00  0.00    -0.000 C 
BRANCH  13  14
ATOM     14  C   UNL     1     119.942  68.308  -1.527  1.00  0.00    -0.000 C 
BRANCH  14  15
ATOM     15  C   UNL     1     119.877  68.354  -3.067  1.00  0.00    -0.000 C 
BRANCH  15  16
ATOM     16  C   UNL     1     120.328  69.684  -3.697  1.00  0.00    -0.000 C 
BRANCH  16  17
ATOM     17  C   UNL     1     120.111  69.728  -5.217  1.00  0.00    -0.000 C 
BRANCH  17  18
ATOM     18  C   UNL     1     120.614  68.438  -5.879  1.00  0.00    -0.000 C 
BRANCH  18  19
ATOM     19  C   UNL     1     119.901  68.136  -7.207  1.00  0.00    -0.003 C 
ATOM     20  C   UNL     1     120.874  67.904  -8.361  1.00  0.00     0.004 C 
ENDBRANCH  18  19
ENDBRANCH  17  18
ENDBRANCH  16  17
ENDBRANCH  15  16
ENDBRANCH  14  15
ENDBRANCH  13  14
ENDBRANCH  12  13
ENDBRANCH   1  12
TORSDOF 16
ENDMDL
MODEL 3
REMARK VINA RESULT:    -3.351      5.253     11.576
REMARK INTER + INTRA:          -7.196
REMARK INTER:                  -6.327
REMARK INTRA:                  -0.869
REMARK UNBOUND:                -0.711
REMARK SMILES CCCCCCCCCCCCCCCCCC(=O)[O-]
REMARK SMILES IDX 10 1 11 2 12 3 13 4 14 5 15 6 16 7 17 8 18 9 19 10 20 11
REMARK SMILES IDX 9 12 8 13 7 14 6 15 5 16 4 17 3 18 2 19 1 20
REMARK H PARENT
REMARK Flexibility Score: inf
ROOT
ATOM      1  C   UNL     1     120.798  68.926  -0.203  1.00  0.00     0.000 C 
ENDROOT
BRANCH   1   2
ATOM      2  C   UNL     1     119.960  70.026   0.476  1.00  0.00     0.000 C 
BRANCH   2   3
ATOM      3  C   UNL     1     120.728  71.324   0.788  1.00  0.00     0.000 C 
BRANCH   3   4
ATOM      4  C   UNL     1     120.148  72.116   1.981  1.00  0.00     0.000 C 
BRANCH   4   5
ATOM      5  C   UNL     1     119.875  71.222   3.202  1.00  0.00     0.000 C 
BRANCH   5   6
ATOM      6  C   UNL     1     120.624  71.689   4.463  1.00  0.00     0.000 C 
BRANCH   6   7
ATOM      7  C   UNL     1     120.013  71.149   5.773  1.00  0.00     0.006 C 
BRANCH   7   8
ATOM      8  C   UNL     1     121.003  71.212   6.943  1.00  0.00     0.053 C 
BRANCH   8   9
ATOM      9  C   UNL     1     120.640  72.323   7.876  1.00  0.00     0.041 C 
ATOM     10  O   UNL     1     120.617  72.126   9.120  1.00  0.00    -0.550 OA
ATOM     11  O   UNL     1     120.269  73.563   7.369  1.00  0.00    -0.550 OA
ENDBRANCH   8   9
ENDBRANCH   7   8
ENDBRANCH   6   7
ENDBRANCH   5   6
ENDBRANCH   4   5
ENDBRANCH   3   4
ENDBRANCH   2   3
ENDBRANCH   1   2
BRANCH   1  12
ATOM     12  C   UNL     1     121.336  69.288  -1.603  1.00  0.00     0.000 C 
BRANCH  12  13
ATOM     13  C   UNL     1     120.285  69.851  -2.581  1.00  0.00    -0.000 C 
BRANCH  13  14
ATOM     14  C   UNL     1     120.069  69.014  -3.857  1.00  0.00    -0.000 C 
BRANCH  14  15
ATOM     15  C   UNL     1     119.875  67.502  -3.622  1.00  0.00    -0.000 C 
BRANCH  15  16
ATOM     16  C   UNL     1     120.380  66.597  -4.760  1.00  0.00    -0.000 C 
BRANCH  16  17
ATOM     17  C   UNL     1     121.027  67.386  -5.908  1.00  0.00    -0.000 C 
BRANCH  17  18
ATOM     18  C   UNL     1     120.340  67.070  -7.244  1.00  0.00    -0.000 C 
BRANCH  18  19
ATOM     19  C   UNL     1     120.247  65.561  -7.518  1.00  0.00    -0.003 C 
ATOM     20  C   UNL     1     121.424  65.034  -8.338  1.00  0.00     0.004 C 
ENDBRANCH  18  19
ENDBRANCH  17  18
ENDBRANCH  16  17
ENDBRANCH  15  16
ENDBRANCH  14  15
ENDBRANCH  13  14
ENDBRANCH  12  13
ENDBRANCH   1  12
TORSDOF 16
ENDMDL
MODEL 4
REMARK VINA RESULT:    -2.970      4.458     11.075
REMARK INTER + INTRA:          -6.459
REMARK INTER:                  -5.758
REMARK INTRA:                  -0.701
REMARK UNBOUND:                -0.711
REMARK SMILES CCCCCCCCCCCCCCCCCC(=O)[O-]
REMARK SMILES IDX 10 1 11 2 12 3 13 4 14 5 15 6 16 7 17 8 18 9 19 10 20 11
REMARK SMILES IDX 9 12 8 13 7 14 6 15 5 16 4 17 3 18 2 19 1 20
REMARK H PARENT
REMARK Flexibility Score: inf
ROOT
ATOM      1  C   UNL     1     121.978  68.720  -0.474  1.00  0.00     0.000 C 
ENDROOT
BRANCH   1   2
ATOM      2  C   UNL     1     121.630  70.221  -0.440  1.00  0.00     0.000 C 
BRANCH   2   3
ATOM      3  C   UNL     1     120.151  70.535  -0.148  1.00  0.00     0.000 C 
BRANCH   3   4
ATOM      4  C   UNL     1     119.875  70.909   1.325  1.00  0.00     0.000 C 
BRANCH   4   5
ATOM      5  C   UNL     1     121.115  71.488   2.025  1.00  0.00     0.000 C 
BRANCH   5   6
ATOM      6  C   UNL     1     120.872  72.892   2.605  1.00  0.00     0.000 C 
BRANCH   6   7
ATOM      7  C   UNL     1     120.055  72.881   3.915  1.00  0.00     0.006 C 
BRANCH   7   8
ATOM      8  C   UNL     1     119.957  71.478   4.525  1.00  0.00     0.053 C 
BRANCH   8   9
ATOM      9  C   UNL     1     120.949  71.317   5.631  1.00  0.00     0.041 C 
ATOM     10  O   UNL     1     122.012  70.667   5.442  1.00  0.00    -0.550 OA
ATOM     11  O   UNL     1     120.674  71.834   6.891  1.00  0.00    -0.550 OA
ENDBRANCH   8   9
ENDBRANCH   7   8
ENDBRANCH   6   7
ENDBRANCH   5   6
ENDBRANCH   4   5
ENDBRANCH   3   4
ENDBRANCH   2   3
ENDBRANCH   1   2
BRANCH   1  12
ATOM     12  C   UNL     1     120.764  67.769  -0.468  1.00  0.00     0.000 C 
BRANCH  12  13
ATOM     13  C   UNL     1     120.533  66.997  -1.782  1.00  0.00    -0.000 C 
BRANCH  13  14
ATOM     14  C   UNL     1     120.349  67.880  -3.032  1.00  0.00    -0.000 C 
BRANCH  14  15
ATOM     15  C   UNL     1     119.875  67.134  -4.295  1.00  0.00    -0.000 C 
BRANCH  15  16
ATOM     16  C   UNL     1     120.781  67.303  -5.529  1.00  0.00    -0.000 C 
BRANCH  16  17
ATOM     17  C   UNL     1     120.015  67.171  -6.854  1.00  0.00    -0.000 C 
BRANCH  17  18
ATOM     18  C   UNL     1     120.239  68.405  -7.740  1.00  0.00    -0.000 C 
BRANCH  18  19
ATOM     19  C   UNL     1     120.967  68.068  -9.051  1.00  0.00    -0.003 C 
ATOM     20  C   UNL     1     122.225  67.229  -8.830  1.00  0.00     0.004 C 
ENDBRANCH  18  19
ENDBRANCH  17  18
ENDBRANCH  16  17
ENDBRANCH  15  16
ENDBRANCH  14  15
ENDBRANCH  13  14
ENDBRANCH  12  13
ENDBRANCH   1  12
TORSDOF 16
ENDMDL
MODEL 5
REMARK VINA RESULT:    -2.876      1.232      3.084
REMARK INTER + INTRA:          -6.276
REMARK INTER:                  -5.397
REMARK INTRA:                  -0.879
REMARK UNBOUND:                -0.711
REMARK SMILES CCCCCCCCCCCCCCCCCC(=O)[O-]
REMARK SMILES IDX 10 1 11 2 12 3 13 4 14 5 15 6 16 7 17 8 18 9 19 10 20 11
REMARK SMILES IDX 9 12 8 13 7 14 6 15 5 16 4 17 3 18 2 19 1 20
REMARK H PARENT
REMARK Flexibility Score: inf
ROOT
ATOM      1  C   UNL     1     121.444  72.025   3.335  1.00  0.00     0.000 C 
ENDROOT
BRANCH   1   2
ATOM      2  C   UNL     1     121.324  72.993   2.144  1.00  0.00     0.000 C 
BRANCH   2   3
ATOM      3  C   UNL     1     120.608  72.414   0.909  1.00  0.00     0.000 C 
BRANCH   3   4
ATOM      4  C   UNL     1     120.605  70.870   0.861  1.00  0.00     0.000 C 
BRANCH   4   5
ATOM      5  C   UNL     1     120.475  70.328  -0.571  1.00  0.00     0.000 C 
BRANCH   5   6
ATOM      6  C   UNL     1     120.058  68.847  -0.613  1.00  0.00     0.000 C 
BRANCH   6   7
ATOM      7  C   UNL     1     120.603  68.092  -1.845  1.00  0.00     0.006 C 
BRANCH   7   8
ATOM      8  C   UNL     1     119.894  68.507  -3.139  1.00  0.00     0.053 C 
BRANCH   8   9
ATOM      9  C   UNL     1     120.044  67.446  -4.182  1.00  0.00     0.041 C 
ATOM     10  O   UNL     1     120.261  66.252  -3.846  1.00  0.00    -0.550 OA
ATOM     11  O   UNL     1     120.004  67.786  -5.529  1.00  0.00    -0.550 OA
ENDBRANCH   8   9
ENDBRANCH   7   8
ENDBRANCH   6   7
ENDBRANCH   5   6
ENDBRANCH   4   5
ENDBRANCH   3   4
ENDBRANCH   2   3
ENDBRANCH   1   2
BRANCH   1  12
ATOM     12  C   UNL     1     120.244  72.030   4.304  1.00  0.00     0.000 C 
BRANCH  12  13
ATOM     13  C   UNL     1     120.238  70.891   5.343  1.00  0.00    -0.000 C 
BRANCH  13  14
ATOM     14  C   UNL     1     120.791  71.273   6.730  1.00  0.00    -0.000 C 
BRANCH  14  15
ATOM     15  C   UNL     1     120.457  72.705   7.195  1.00  0.00    -0.000 C 
BRANCH  15  16
ATOM     16  C   UNL     1     121.139  73.139   8.505  1.00  0.00    -0.000 C 
BRANCH  16  17
ATOM     17  C   UNL     1     120.142  73.660   9.552  1.00  0.00    -0.000 C 
BRANCH  17  18
ATOM     18  C   UNL     1     119.875  72.600  10.629  1.00  0.00    -0.000 C 
BRANCH  18  19
ATOM     19  C   UNL     1     120.844  71.410  10.540  1.00  0.00    -0.003 C 
ATOM     20  C   UNL     1     120.126  70.061  10.560  1.00  0.00     0.004 C 
ENDBRANCH  18  19
ENDBRANCH  17  18
ENDBRANCH  16  17
ENDBRANCH  15  16
ENDBRANCH  14  15
ENDBRANCH  13  14
ENDBRANCH  12  13
ENDBRANCH   1  12
TORSDOF 16
ENDMDL
MODEL 6
REMARK VINA RESULT:    -2.863      4.981     10.743
REMARK INTER + INTRA:          -6.252
REMARK INTER:                  -5.299
REMARK INTRA:                  -0.953
REMARK UNBOUND:                -0.711
REMARK SMILES CCCCCCCCCCCCCCCCCC(=O)[O-]
REMARK SMILES IDX 10 1 11 2 12 3 13 4 14 5 15 6 16 7 17 8 18 9 19 10 20 11
REMARK SMILES IDX 9 12 8 13 7 14 6 15 5 16 4 17 3 18 2 19 1 20
REMARK H PARENT
REMARK Flexibility Score: inf
ROOT
ATOM      1  C   UNL     1     120.571  68.794   0.709  1.00  0.00     0.000 C 
ENDROOT
BRANCH   1   2
ATOM      2  C   UNL     1     121.382  69.907   0.021  1.00  0.00     0.000 C 
BRANCH   2   3
ATOM      3  C   UNL     1     121.198  71.311   0.627  1.00  0.00     0.000 C 
BRANCH   3   4
ATOM      4  C   UNL     1     119.879  71.479   1.414  1.00  0.00     0.000 C 
BRANCH   4   5
ATOM      5  C   UNL     1     120.009  71.031   2.879  1.00  0.00     0.000 C 
BRANCH   5   6
ATOM      6  C   UNL     1     121.257  71.607   3.570  1.00  0.00     0.000 C 
BRANCH   6   7
ATOM      7  C   UNL     1     121.351  71.242   5.068  1.00  0.00     0.006 C 
BRANCH   7   8
ATOM      8  C   UNL     1     120.247  71.909   5.897  1.00  0.00     0.053 C 
BRANCH   8   9
ATOM      9  C   UNL     1     120.317  71.458   7.321  1.00  0.00     0.041 C 
ATOM     10  O   UNL     1     119.953  70.295   7.637  1.00  0.00    -0.550 OA
ATOM     11  O   UNL     1     120.728  72.343   8.310  1.00  0.00    -0.550 OA
ENDBRANCH   8   9
ENDBRANCH   7   8
ENDBRANCH   6   7
ENDBRANCH   5   6
ENDBRANCH   4   5
ENDBRANCH   3   4
ENDBRANCH   2   3
ENDBRANCH   1   2
BRANCH   1  12
ATOM     12  C   UNL     1     120.228  67.587  -0.188  1.00  0.00     0.000 C 
BRANCH  12  13
ATOM     13  C   UNL     1     119.900  67.936  -1.654  1.00  0.00    -0.000 C 
BRANCH  13  14
ATOM     14  C   UNL     1     120.782  67.232  -2.704  1.00  0.00    -0.000 C 
BRANCH  14  15
ATOM     15  C   UNL     1     120.072  66.138  -3.526  1.00  0.00    -0.000 C 
BRANCH  15  16
ATOM     16  C   UNL     1     119.875  66.469  -5.016  1.00  0.00    -0.000 C 
BRANCH  16  17
ATOM     17  C   UNL     1     121.184  66.860  -5.719  1.00  0.00    -0.000 C 
BRANCH  17  18
ATOM     18  C   UNL     1     120.999  68.137  -6.551  1.00  0.00    -0.000 C 
BRANCH  18  19
ATOM     19  C   UNL     1     119.976  69.102  -5.932  1.00  0.00    -0.003 C 
ATOM     20  C   UNL     1     120.629  70.191  -5.083  1.00  0.00     0.004 C 
ENDBRANCH  18  19
ENDBRANCH  17  18
ENDBRANCH  16  17
ENDBRANCH  15  16
ENDBRANCH  14  15
ENDBRANCH  13  14
ENDBRANCH  12  13
ENDBRANCH   1  12
TORSDOF 16
ENDMDL
MODEL 7
REMARK VINA RESULT:    -2.785      1.146      2.183
REMARK INTER + INTRA:          -6.100
REMARK INTER:                  -5.738
REMARK INTRA:                  -0.362
REMARK UNBOUND:                -0.711
REMARK SMILES CCCCCCCCCCCCCCCCCC(=O)[O-]
REMARK SMILES IDX 10 1 11 2 12 3 13 4 14 5 15 6 16 7 17 8 18 9 19 10 20 11
REMARK SMILES IDX 9 12 8 13 7 14 6 15 5 16 4 17 3 18 2 19 1 20
REMARK H PARENT
REMARK Flexibility Score: inf
ROOT
ATOM      1  C   UNL     1     120.910  68.845   0.047  1.00  0.00     0.000 C 
ENDROOT
BRANCH   1   2
ATOM      2  C   UNL     1     120.595  68.406  -1.396  1.00  0.00     0.000 C 
BRANCH   2   3
ATOM      3  C   UNL     1     120.345  66.897  -1.573  1.00  0.00     0.000 C 
BRANCH   3   4
ATOM      4  C   UNL     1     119.876  66.508  -2.993  1.00  0.00     0.000 C 
BRANCH   4   5
ATOM      5  C   UNL     1     119.990  67.673  -3.988  1.00  0.00     0.000 C 
BRANCH   5   6
ATOM      6  C   UNL     1     119.973  67.209  -5.455  1.00  0.00     0.000 C 
BRANCH   6   7
ATOM      7  C   UNL     1     119.944  68.375  -6.467  1.00  0.00     0.006 C 
BRANCH   7   8
ATOM      8  C   UNL     1     120.132  67.894  -7.911  1.00  0.00     0.053 C 
BRANCH   8   9
ATOM      9  C   UNL     1     120.947  66.641  -7.943  1.00  0.00     0.041 C 
ATOM     10  O   UNL     1     122.186  66.684  -7.720  1.00  0.00    -0.550 OA
ATOM     11  O   UNL     1     120.350  65.432  -8.279  1.00  0.00    -0.550 OA
ENDBRANCH   8   9
ENDBRANCH   7   8
ENDBRANCH   6   7
ENDBRANCH   5   6
ENDBRANCH   4   5
ENDBRANCH   3   4
ENDBRANCH   2   3
ENDBRANCH   1   2
BRANCH   1  12
ATOM     12  C   UNL     1     121.140  70.359   0.231  1.00  0.00     0.000 C 
BRANCH  12  13
ATOM     13  C   UNL     1     120.079  71.081   1.086  1.00  0.00    -0.000 C 
BRANCH  13  14
ATOM     14  C   UNL     1     120.643  71.947   2.229  1.00  0.00    -0.000 C 
BRANCH  14  15
ATOM     15  C   UNL     1     119.875  71.849   3.563  1.00  0.00    -0.000 C 
BRANCH  15  16
ATOM     16  C   UNL     1     120.758  71.869   4.824  1.00  0.00    -0.000 C 
BRANCH  16  17
ATOM     17  C   UNL     1     119.966  72.187   6.102  1.00  0.00    -0.000 C 
BRANCH  17  18
ATOM     18  C   UNL     1     119.909  70.965   7.029  1.00  0.00    -0.000 C 
BRANCH  18  19
ATOM     19  C   UNL     1     120.935  71.040   8.171  1.00  0.00    -0.003 C 
ATOM     20  C   UNL     1     120.834  72.338   8.970  1.00  0.00     0.004 C 
ENDBRANCH  18  19
ENDBRANCH  17  18
ENDBRANCH  16  17
ENDBRANCH  15  16
ENDBRANCH  14  15
ENDBRANCH  13  14
ENDBRANCH  12  13
ENDBRANCH   1  12
TORSDOF 16
ENDMDL
MODEL 8
REMARK VINA RESULT:    -2.778      1.732      3.831
REMARK INTER + INTRA:          -6.088
REMARK INTER:                  -5.577
REMARK INTRA:                  -0.512
REMARK UNBOUND:                -0.711
REMARK SMILES CCCCCCCCCCCCCCCCCC(=O)[O-]
REMARK SMILES IDX 10 1 11 2 12 3 13 4 14 5 15 6 16 7 17 8 18 9 19 10 20 11
REMARK SMILES IDX 9 12 8 13 7 14 6 15 5 16 4 17 3 18 2 19 1 20
REMARK H PARENT
REMARK Flexibility Score: inf
ROOT
ATOM      1  C   UNL     1     120.296  69.403  -2.472  1.00  0.00     0.000 C 
ENDROOT
BRANCH   1   2
ATOM      2  C   UNL     1     119.890  69.914  -3.867  1.00  0.00     0.000 C 
BRANCH   2   3
ATOM      3  C   UNL     1     119.880  68.840  -4.972  1.00  0.00     0.000 C 
BRANCH   3   4
ATOM      4  C   UNL     1     120.990  69.028  -6.030  1.00  0.00     0.000 C 
BRANCH   4   5
ATOM      5  C   UNL     1     120.429  69.149  -7.455  1.00  0.00     0.000 C 
BRANCH   5   6
ATOM      6  C   UNL     1     119.888  67.814  -7.999  1.00  0.00     0.000 C 
BRANCH   6   7
ATOM      7  C   UNL     1     120.936  67.006  -8.793  1.00  0.00     0.006 C 
BRANCH   7   8
ATOM      8  C   UNL     1     121.844  66.176  -7.876  1.00  0.00     0.053 C 
BRANCH   8   9
ATOM      9  C   UNL     1     121.362  64.762  -7.805  1.00  0.00     0.041 C 
ATOM     10  O   UNL     1     121.382  64.139  -6.711  1.00  0.00    -0.550 OA
ATOM     11  O   UNL     1     120.948  64.110  -8.960  1.00  0.00    -0.550 OA
ENDBRANCH   8   9
ENDBRANCH   7   8
ENDBRANCH   6   7
ENDBRANCH   5   6
ENDBRANCH   4   5
ENDBRANCH   3   4
ENDBRANCH   2   3
ENDBRANCH   1   2
BRANCH   1  12
ATOM     12  C   UNL     1     119.884  70.316  -1.299  1.00  0.00     0.000 C 
BRANCH  12  13
ATOM     13  C   UNL     1     120.761  70.191  -0.036  1.00  0.00    -0.000 C 
BRANCH  13  14
ATOM     14  C   UNL     1     120.170  70.835   1.233  1.00  0.00    -0.000 C 
BRANCH  14  15
ATOM     15  C   UNL     1     120.808  72.177   1.643  1.00  0.00    -0.000 C 
BRANCH  15  16
ATOM     16  C   UNL     1     120.303  72.757   2.977  1.00  0.00    -0.000 C 
BRANCH  16  17
ATOM     17  C   UNL     1     119.875  71.671   3.976  1.00  0.00    -0.000 C 
BRANCH  17  18
ATOM     18  C   UNL     1     120.881  71.564   5.131  1.00  0.00    -0.000 C 
BRANCH  18  19
ATOM     19  C   UNL     1     120.213  71.188   6.463  1.00  0.00    -0.003 C 
ATOM     20  C   UNL     1     121.007  71.666   7.677  1.00  0.00     0.004 C 
ENDBRANCH  18  19
ENDBRANCH  17  18
ENDBRANCH  16  17
ENDBRANCH  15  16
ENDBRANCH  14  15
ENDBRANCH  13  14
ENDBRANCH  12  13
ENDBRANCH   1  12
TORSDOF 16
ENDMDL
MODEL 9
REMARK VINA RESULT:    -2.235      5.874     11.648
REMARK INTER + INTRA:          -5.036
REMARK INTER:                  -5.556
REMARK INTRA:                   0.520
REMARK UNBOUND:                -0.711
REMARK SMILES CCCCCCCCCCCCCCCCCC(=O)[O-]
REMARK SMILES IDX 10 1 11 2 12 3 13 4 14 5 15 6 16 7 17 8 18 9 19 10 20 11
REMARK SMILES IDX 9 12 8 13 7 14 6 15 5 16 4 17 3 18 2 19 1 20
REMARK H PARENT
REMARK Flexibility Score: inf
ROOT
ATOM      1  C   UNL     1     121.669  72.077   3.126  1.00  0.00     0.000 C 
ENDROOT
BRANCH   1   2
ATOM      2  C   UNL     1     121.303  71.458   4.489  1.00  0.00     0.000 C 
BRANCH   2   3
ATOM      3  C   UNL     1     120.285  72.268   5.314  1.00  0.00     0.000 C 
BRANCH   3   4
ATOM      4  C   UNL     1     119.920  71.612   6.665  1.00  0.00     0.000 C 
BRANCH   4   5
ATOM      5  C   UNL     1     121.155  71.086   7.414  1.00  0.00     0.000 C 
BRANCH   5   6
ATOM      6  C   UNL     1     121.322  71.717   8.807  1.00  0.00     0.000 C 
BRANCH   6   7
ATOM      7  C   UNL     1     120.146  71.417   9.761  1.00  0.00     0.006 C 
BRANCH   7   8
ATOM      8  C   UNL     1     119.877  72.575  10.731  1.00  0.00     0.053 C 
BRANCH   8   9
ATOM      9  C   UNL     1     120.187  73.885  10.080  1.00  0.00     0.041 C 
ATOM     10  O   UNL     1     120.312  74.926  10.777  1.00  0.00    -0.550 OA
ATOM     11  O   UNL     1     120.276  73.969   8.696  1.00  0.00    -0.550 OA
ENDBRANCH   8   9
ENDBRANCH   7   8
ENDBRANCH   6   7
ENDBRANCH   5   6
ENDBRANCH   4   5
ENDBRANCH   3   4
ENDBRANCH   2   3
ENDBRANCH   1   2
BRANCH   1  12
ATOM     12  C   UNL     1     120.466  72.501   2.259  1.00  0.00     0.000 C 
BRANCH  12  13
ATOM     13  C   UNL     1     120.552  72.085   0.777  1.00  0.00    -0.000 C 
BRANCH  13  14
ATOM     14  C   UNL     1     119.875  70.742   0.438  1.00  0.00    -0.000 C 
BRANCH  14  15
ATOM     15  C   UNL     1     120.711  69.795  -0.447  1.00  0.00    -0.000 C 
BRANCH  15  16
ATOM     16  C   UNL     1     120.037  69.373  -1.765  1.00  0.00    -0.000 C 
BRANCH  16  17
ATOM     17  C   UNL     1     120.971  69.497  -2.979  1.00  0.00    -0.000 C 
BRANCH  17  18
ATOM     18  C   UNL     1     120.165  69.563  -4.284  1.00  0.00    -0.000 C 
BRANCH  18  19
ATOM     19  C   UNL     1     120.481  68.398  -5.235  1.00  0.00    -0.003 C 
ATOM     20  C   UNL     1     120.612  67.061  -4.508  1.00  0.00     0.004 C 
ENDBRANCH  18  19
ENDBRANCH  17  18
ENDBRANCH  16  17
ENDBRANCH  15  16
ENDBRANCH  14  15
ENDBRANCH  13  14
ENDBRANCH  12  13
ENDBRANCH   1  12
TORSDOF 16
ENDMDL
