MODEL 1
REMARK VINA RESULT:    -6.067      0.000      0.000
REMARK INTER + INTRA:          -7.551
REMARK INTER:                  -7.485
REMARK INTRA:                  -0.065
REMARK UNBOUND:                -0.065
REMARK SMILES O=c1c(O)c(-c2cc(O)c(O)c(O)c2)oc2cc(O)cc(O)c12
REMARK SMILES IDX 5 1 3 2 2 3 1 4 23 5 21 6 20 7 18 8 17 9 16 10 15 11 6 12
REMARK SMILES IDX 7 13 8 14 14 15 10 16 12 17 9 18 11 20 13 22 4 24 22 26
REMARK SMILES IDX 19 28
REMARK H PARENT 9 19 11 21 13 23 4 25 22 27 19 29
REMARK Flexibility Score: inf
ROOT
ATOM      1  C   UNL     1      82.071   1.655  -0.090  1.00  0.00     0.180 A 
ATOM      2  C   UNL     1      82.897   0.885   0.753  1.00  0.00     0.208 A 
ATOM      3  C   UNL     1      84.282   1.111   0.735  1.00  0.00     0.238 A 
ATOM      4  O   UNL     1      85.030   0.436   1.494  1.00  0.00    -0.285 OA
ATOM      5  C   UNL     1      84.819   2.083  -0.134  1.00  0.00     0.111 A 
ATOM      6  C   UNL     1      86.203   2.369  -0.215  1.00  0.00     0.134 A 
ATOM      7  C   UNL     1      86.661   3.345  -1.113  1.00  0.00     0.093 A 
ATOM      8  C   UNL     1      85.760   4.039  -1.930  1.00  0.00     0.123 A 
ATOM      9  C   UNL     1      84.395   3.761  -1.853  1.00  0.00     0.094 A 
ATOM     10  C   UNL     1      83.919   2.793  -0.963  1.00  0.00     0.146 A 
ATOM     11  O   UNL     1      82.614   2.552  -0.907  1.00  0.00    -0.452 OA
ENDROOT
BRANCH   1  12
ATOM     12  C   UNL     1      80.600   1.488  -0.115  1.00  0.00     0.029 A 
ATOM     13  C   UNL     1      79.737   2.583   0.064  1.00  0.00     0.062 A 
ATOM     14  C   UNL     1      78.346   2.411   0.013  1.00  0.00     0.162 A 
ATOM     15  C   UNL     1      80.052   0.224  -0.383  1.00  0.00     0.062 A 
ATOM     16  C   UNL     1      77.809   1.136  -0.232  1.00  0.00     0.200 A 
ATOM     17  C   UNL     1      78.664   0.045  -0.433  1.00  0.00     0.162 A 
BRANCH  14  18
ATOM     18  O   UNL     1      77.499   3.501   0.199  1.00  0.00    -0.504 OA
ATOM     19  H   UNL     1      76.764   3.723  -0.464  1.00  0.00     0.293 HD
ENDBRANCH  14  18
BRANCH  16  20
ATOM     20  O   UNL     1      76.429   0.938  -0.284  1.00  0.00    -0.502 OA
ATOM     21  H   UNL     1      75.941   0.765  -1.154  1.00  0.00     0.293 HD
ENDBRANCH  16  20
BRANCH  17  22
ATOM     22  O   UNL     1      78.125  -1.216  -0.684  1.00  0.00    -0.504 OA
ATOM     23  H   UNL     1      77.982  -1.889   0.061  1.00  0.00     0.293 HD
ENDBRANCH  17  22
ENDBRANCH   1  12
BRANCH   2  24
ATOM     24  O   UNL     1      82.345  -0.106   1.569  1.00  0.00    -0.502 OA
ATOM     25  H   UNL     1      82.914  -0.718   2.140  1.00  0.00     0.293 HD
ENDBRANCH   2  24
BRANCH   6  26
ATOM     26  O   UNL     1      87.125   1.693   0.586  1.00  0.00    -0.507 OA
ATOM     27  H   UNL     1      87.418   0.747   0.379  1.00  0.00     0.293 HD
ENDBRANCH   6  26
BRANCH   8  28
ATOM     28  O   UNL     1      86.214   5.008  -2.822  1.00  0.00    -0.508 OA
ATOM     29  H   UNL     1      86.974   4.821  -3.467  1.00  0.00     0.293 HD
ENDBRANCH   8  28
TORSDOF 7
ENDMDL
MODEL 2
REMARK VINA RESULT:    -5.982      7.070      8.607
REMARK INTER + INTRA:          -7.447
REMARK INTER:                  -7.146
REMARK INTRA:                  -0.301
REMARK UNBOUND:                -0.065
REMARK SMILES O=c1c(O)c(-c2cc(O)c(O)c(O)c2)oc2cc(O)cc(O)c12
REMARK SMILES IDX 5 1 3 2 2 3 1 4 23 5 21 6 20 7 18 8 17 9 16 10 15 11 6 12
REMARK SMILES IDX 7 13 8 14 14 15 10 16 12 17 9 18 11 20 13 22 4 24 22 26
REMARK SMILES IDX 19 28
REMARK H PARENT 9 19 11 21 13 23 4 25 22 27 19 29
REMARK Flexibility Score: inf
ROOT
ATOM      1  C   UNL     1      84.792   2.532   7.134  1.00  0.00     0.180 A 
ATOM      2  C   UNL     1      85.052   1.355   7.863  1.00  0.00     0.208 A 
ATOM      3  C   UNL     1      85.723   0.298   7.228  1.00  0.00     0.238 A 
ATOM      4  O   UNL     1      85.972  -0.757   7.873  1.00  0.00    -0.285 OA
ATOM      5  C   UNL     1      86.103   0.426   5.875  1.00  0.00     0.111 A 
ATOM      6  C   UNL     1      86.779  -0.593   5.162  1.00  0.00     0.134 A 
ATOM      7  C   UNL     1      87.115  -0.393   3.814  1.00  0.00     0.093 A 
ATOM      8  C   UNL     1      86.788   0.805   3.169  1.00  0.00     0.123 A 
ATOM      9  C   UNL     1      86.123   1.813   3.870  1.00  0.00     0.094 A 
ATOM     10  C   UNL     1      85.780   1.633   5.213  1.00  0.00     0.146 A 
ATOM     11  O   UNL     1      85.152   2.611   5.856  1.00  0.00    -0.452 OA
ENDROOT
BRANCH   1  12
ATOM     12  C   UNL     1      84.106   3.696   7.739  1.00  0.00     0.029 A 
ATOM     13  C   UNL     1      84.760   4.533   8.659  1.00  0.00     0.062 A 
ATOM     14  C   UNL     1      84.102   5.645   9.203  1.00  0.00     0.162 A 
ATOM     15  C   UNL     1      82.796   4.007   7.344  1.00  0.00     0.062 A 
ATOM     16  C   UNL     1      82.782   5.934   8.819  1.00  0.00     0.200 A 
ATOM     17  C   UNL     1      82.133   5.116   7.886  1.00  0.00     0.162 A 
BRANCH  14  18
ATOM     18  O   UNL     1      84.758   6.467  10.119  1.00  0.00    -0.504 OA
ATOM     19  H   UNL     1      84.742   6.271  11.114  1.00  0.00     0.293 HD
ENDBRANCH  14  18
BRANCH  16  20
ATOM     20  O   UNL     1      82.105   7.033   9.349  1.00  0.00    -0.502 OA
ATOM     21  H   UNL     1      81.902   7.114  10.338  1.00  0.00     0.293 HD
ENDBRANCH  16  20
BRANCH  17  22
ATOM     22  O   UNL     1      80.825   5.412   7.502  1.00  0.00    -0.504 OA
ATOM     23  H   UNL     1      80.201   4.694   7.153  1.00  0.00     0.293 HD
ENDBRANCH  17  22
ENDBRANCH   1  12
BRANCH   2  24
ATOM     24  O   UNL     1      84.621   1.234   9.187  1.00  0.00    -0.502 OA
ATOM     25  H   UNL     1      84.491   2.037   9.791  1.00  0.00     0.293 HD
ENDBRANCH   2  24
BRANCH   6  26
ATOM     26  O   UNL     1      87.117  -1.799   5.778  1.00  0.00    -0.507 OA
ATOM     27  H   UNL     1      88.080  -2.098   5.871  1.00  0.00     0.293 HD
ENDBRANCH   6  26
BRANCH   8  28
ATOM     28  O   UNL     1      87.121   1.004   1.831  1.00  0.00    -0.508 OA
ATOM     29  H   UNL     1      87.135   0.237   1.169  1.00  0.00     0.293 HD
ENDBRANCH   8  28
TORSDOF 7
ENDMDL
MODEL 3
REMARK VINA RESULT:    -5.904      1.189      2.920
REMARK INTER + INTRA:          -7.350
REMARK INTER:                  -7.282
REMARK INTRA:                  -0.068
REMARK UNBOUND:                -0.065
REMARK SMILES O=c1c(O)c(-c2cc(O)c(O)c(O)c2)oc2cc(O)cc(O)c12
REMARK SMILES IDX 5 1 3 2 2 3 1 4 23 5 21 6 20 7 18 8 17 9 16 10 15 11 6 12
REMARK SMILES IDX 7 13 8 14 14 15 10 16 12 17 9 18 11 20 13 22 4 24 22 26
REMARK SMILES IDX 19 28
REMARK H PARENT 9 19 11 21 13 23 4 25 22 27 19 29
REMARK Flexibility Score: inf
ROOT
ATOM      1  C   UNL     1      82.199   1.807  -0.060  1.00  0.00     0.180 A 
ATOM      2  C   UNL     1      82.836   2.763  -0.875  1.00  0.00     0.208 A 
ATOM      3  C   UNL     1      84.232   2.889  -0.810  1.00  0.00     0.238 A 
ATOM      4  O   UNL     1      84.814   3.734  -1.544  1.00  0.00    -0.285 OA
ATOM      5  C   UNL     1      84.965   2.077   0.080  1.00  0.00     0.111 A 
ATOM      6  C   UNL     1      86.373   2.144   0.210  1.00  0.00     0.134 A 
ATOM      7  C   UNL     1      87.028   1.308   1.125  1.00  0.00     0.093 A 
ATOM      8  C   UNL     1      86.302   0.407   1.913  1.00  0.00     0.123 A 
ATOM      9  C   UNL     1      84.913   0.336   1.788  1.00  0.00     0.094 A 
ATOM     10  C   UNL     1      84.242   1.160   0.880  1.00  0.00     0.146 A 
ATOM     11  O   UNL     1      82.921   1.069   0.778  1.00  0.00    -0.452 OA
ENDROOT
BRANCH   1  12
ATOM     12  C   UNL     1      80.734   1.602  -0.085  1.00  0.00     0.029 A 
ATOM     13  C   UNL     1      79.842   2.671   0.109  1.00  0.00     0.062 A 
ATOM     14  C   UNL     1      78.457   2.463   0.058  1.00  0.00     0.162 A 
ATOM     15  C   UNL     1      80.219   0.327  -0.368  1.00  0.00     0.062 A 
ATOM     16  C   UNL     1      77.952   1.177  -0.202  1.00  0.00     0.200 A 
ATOM     17  C   UNL     1      78.836   0.112  -0.418  1.00  0.00     0.162 A 
BRANCH  14  18
ATOM     18  O   UNL     1      77.581   3.528   0.259  1.00  0.00    -0.504 OA
ATOM     19  H   UNL     1      77.701   4.177   1.029  1.00  0.00     0.293 HD
ENDBRANCH  14  18
BRANCH  16  20
ATOM     20  O   UNL     1      76.578   0.944  -0.254  1.00  0.00    -0.502 OA
ATOM     21  H   UNL     1      76.154   0.125   0.164  1.00  0.00     0.293 HD
ENDBRANCH  16  20
BRANCH  17  22
ATOM     22  O   UNL     1      78.330  -1.159  -0.684  1.00  0.00    -0.504 OA
ATOM     23  H   UNL     1      77.696  -1.326  -1.457  1.00  0.00     0.293 HD
ENDBRANCH  17  22
ENDBRANCH   1  12
BRANCH   2  24
ATOM     24  O   UNL     1      82.082   3.591  -1.713  1.00  0.00    -0.502 OA
ATOM     25  H   UNL     1      81.115   3.396  -1.940  1.00  0.00     0.293 HD
ENDBRANCH   2  24
BRANCH   6  26
ATOM     26  O   UNL     1      87.124   3.033  -0.561  1.00  0.00    -0.507 OA
ATOM     27  H   UNL     1      87.942   2.732  -1.076  1.00  0.00     0.293 HD
ENDBRANCH   6  26
BRANCH   8  28
ATOM     28  O   UNL     1      86.952  -0.424   2.823  1.00  0.00    -0.508 OA
ATOM     29  H   UNL     1      87.240  -1.363   2.573  1.00  0.00     0.293 HD
ENDBRANCH   8  28
TORSDOF 7
ENDMDL
MODEL 4
REMARK VINA RESULT:    -5.793      4.218      7.090
REMARK INTER + INTRA:          -7.214
REMARK INTER:                  -6.847
REMARK INTRA:                  -0.366
REMARK UNBOUND:                -0.065
REMARK SMILES O=c1c(O)c(-c2cc(O)c(O)c(O)c2)oc2cc(O)cc(O)c12
REMARK SMILES IDX 5 1 3 2 2 3 1 4 23 5 21 6 20 7 18 8 17 9 16 10 15 11 6 12
REMARK SMILES IDX 7 13 8 14 14 15 10 16 12 17 9 18 11 20 13 22 4 24 22 26
REMARK SMILES IDX 19 28
REMARK H PARENT 9 19 11 21 13 23 4 25 22 27 19 29
REMARK Flexibility Score: inf
ROOT
ATOM      1  C   UNL     1      85.834   1.072   2.802  1.00  0.00     0.180 A 
ATOM      2  C   UNL     1      86.384  -0.208   3.008  1.00  0.00     0.208 A 
ATOM      3  C   UNL     1      86.642  -0.633   4.320  1.00  0.00     0.238 A 
ATOM      4  O   UNL     1      87.124  -1.782   4.518  1.00  0.00    -0.285 OA
ATOM      5  C   UNL     1      86.366   0.232   5.400  1.00  0.00     0.111 A 
ATOM      6  C   UNL     1      86.600  -0.118   6.752  1.00  0.00     0.134 A 
ATOM      7  C   UNL     1      86.307   0.802   7.769  1.00  0.00     0.093 A 
ATOM      8  C   UNL     1      85.787   2.064   7.460  1.00  0.00     0.123 A 
ATOM      9  C   UNL     1      85.554   2.413   6.128  1.00  0.00     0.094 A 
ATOM     10  C   UNL     1      85.837   1.509   5.100  1.00  0.00     0.146 A 
ATOM     11  O   UNL     1      85.601   1.866   3.843  1.00  0.00    -0.452 OA
ENDROOT
BRANCH   1  12
ATOM     12  C   UNL     1      85.518   1.585   1.450  1.00  0.00     0.029 A 
ATOM     13  C   UNL     1      84.268   1.350   0.853  1.00  0.00     0.062 A 
ATOM     14  C   UNL     1      83.977   1.863  -0.419  1.00  0.00     0.162 A 
ATOM     15  C   UNL     1      86.461   2.371   0.770  1.00  0.00     0.062 A 
ATOM     16  C   UNL     1      84.938   2.629  -1.100  1.00  0.00     0.200 A 
ATOM     17  C   UNL     1      86.178   2.885  -0.501  1.00  0.00     0.162 A 
BRANCH  14  18
ATOM     18  O   UNL     1      82.736   1.620  -1.005  1.00  0.00    -0.504 OA
ATOM     19  H   UNL     1      82.629   0.964  -1.771  1.00  0.00     0.293 HD
ENDBRANCH  14  18
BRANCH  16  20
ATOM     20  O   UNL     1      84.674   3.148  -2.368  1.00  0.00    -0.502 OA
ATOM     21  H   UNL     1      84.939   4.089  -2.632  1.00  0.00     0.293 HD
ENDBRANCH  16  20
BRANCH  17  22
ATOM     22  O   UNL     1      87.125   3.653  -1.178  1.00  0.00    -0.504 OA
ATOM     23  H   UNL     1      88.098   3.662  -0.896  1.00  0.00     0.293 HD
ENDBRANCH  17  22
ENDBRANCH   1  12
BRANCH   2  24
ATOM     24  O   UNL     1      86.695  -1.027   1.918  1.00  0.00    -0.502 OA
ATOM     25  H   UNL     1      87.167  -1.916   2.025  1.00  0.00     0.293 HD
ENDBRANCH   2  24
BRANCH   6  26
ATOM     26  O   UNL     1      87.119  -1.369   7.091  1.00  0.00    -0.507 OA
ATOM     27  H   UNL     1      88.091  -1.491   7.345  1.00  0.00     0.293 HD
ENDBRANCH   6  26
BRANCH   8  28
ATOM     28  O   UNL     1      85.497   2.978   8.470  1.00  0.00    -0.508 OA
ATOM     29  H   UNL     1      85.847   2.855   9.413  1.00  0.00     0.293 HD
ENDBRANCH   8  28
TORSDOF 7
ENDMDL
MODEL 5
REMARK VINA RESULT:    -5.783      4.332      7.076
REMARK INTER + INTRA:          -7.200
REMARK INTER:                  -6.861
REMARK INTRA:                  -0.339
REMARK UNBOUND:                -0.065
REMARK SMILES O=c1c(O)c(-c2cc(O)c(O)c(O)c2)oc2cc(O)cc(O)c12
REMARK SMILES IDX 5 1 3 2 2 3 1 4 23 5 21 6 20 7 18 8 17 9 16 10 15 11 6 12
REMARK SMILES IDX 7 13 8 14 14 15 10 16 12 17 9 18 11 20 13 22 4 24 22 26
REMARK SMILES IDX 19 28
REMARK H PARENT 9 19 11 21 13 23 4 25 22 27 19 29
REMARK Flexibility Score: inf
ROOT
ATOM      1  C   UNL     1      85.762   0.998   3.002  1.00  0.00     0.180 A 
ATOM      2  C   UNL     1      86.355  -0.253   3.266  1.00  0.00     0.208 A 
ATOM      3  C   UNL     1      86.601  -0.619   4.598  1.00  0.00     0.238 A 
ATOM      4  O   UNL     1      87.121  -1.742   4.847  1.00  0.00    -0.285 OA
ATOM      5  C   UNL     1      86.273   0.273   5.639  1.00  0.00     0.111 A 
ATOM      6  C   UNL     1      86.492  -0.018   7.007  1.00  0.00     0.134 A 
ATOM      7  C   UNL     1      86.146   0.927   7.984  1.00  0.00     0.093 A 
ATOM      8  C   UNL     1      85.586   2.157   7.618  1.00  0.00     0.123 A 
ATOM      9  C   UNL     1      85.367   2.448   6.271  1.00  0.00     0.094 A 
ATOM     10  C   UNL     1      85.704   1.518   5.282  1.00  0.00     0.146 A 
ATOM     11  O   UNL     1      85.479   1.820   4.009  1.00  0.00    -0.452 OA
ENDROOT
BRANCH   1  12
ATOM     12  C   UNL     1      85.454   1.448   1.626  1.00  0.00     0.029 A 
ATOM     13  C   UNL     1      86.443   2.017   0.805  1.00  0.00     0.062 A 
ATOM     14  C   UNL     1      86.139   2.416  -0.505  1.00  0.00     0.162 A 
ATOM     15  C   UNL     1      84.166   1.251   1.106  1.00  0.00     0.062 A 
ATOM     16  C   UNL     1      84.839   2.236  -1.006  1.00  0.00     0.200 A 
ATOM     17  C   UNL     1      83.856   1.650  -0.200  1.00  0.00     0.162 A 
BRANCH  14  18
ATOM     18  O   UNL     1      87.125   2.985  -1.309  1.00  0.00    -0.504 OA
ATOM     19  H   UNL     1      87.119   3.972  -1.540  1.00  0.00     0.293 HD
ENDBRANCH  14  18
BRANCH  16  20
ATOM     20  O   UNL     1      84.512   2.628  -2.305  1.00  0.00    -0.502 OA
ATOM     21  H   UNL     1      83.635   2.369  -2.741  1.00  0.00     0.293 HD
ENDBRANCH  16  20
BRANCH  17  22
ATOM     22  O   UNL     1      82.569   1.466  -0.706  1.00  0.00    -0.504 OA
ATOM     23  H   UNL     1      82.077   0.587  -0.595  1.00  0.00     0.293 HD
ENDBRANCH  17  22
ENDBRANCH   1  12
BRANCH   2  24
ATOM     24  O   UNL     1      86.716  -1.099   2.213  1.00  0.00    -0.502 OA
ATOM     25  H   UNL     1      86.134  -1.871   1.913  1.00  0.00     0.293 HD
ENDBRANCH   2  24
BRANCH   6  26
ATOM     26  O   UNL     1      87.050  -1.235   7.402  1.00  0.00    -0.507 OA
ATOM     27  H   UNL     1      86.587  -2.117   7.221  1.00  0.00     0.293 HD
ENDBRANCH   6  26
BRANCH   8  28
ATOM     28  O   UNL     1      85.243   3.096   8.588  1.00  0.00    -0.508 OA
ATOM     29  H   UNL     1      84.303   3.467   8.658  1.00  0.00     0.293 HD
ENDBRANCH   8  28
TORSDOF 7
ENDMDL
MODEL 6
REMARK VINA RESULT:    -5.556      6.414      8.410
REMARK INTER + INTRA:          -6.921
REMARK INTER:                  -7.004
REMARK INTRA:                   0.083
REMARK UNBOUND:                -0.065
REMARK SMILES O=c1c(O)c(-c2cc(O)c(O)c(O)c2)oc2cc(O)cc(O)c12
REMARK SMILES IDX 5 1 3 2 2 3 1 4 23 5 21 6 20 7 18 8 17 9 16 10 15 11 6 12
REMARK SMILES IDX 7 13 8 14 14 15 10 16 12 17 9 18 11 20 13 22 4 24 22 26
REMARK SMILES IDX 19 28
REMARK H PARENT 9 19 11 21 13 23 4 25 22 27 19 29
REMARK Flexibility Score: inf
ROOT
ATOM      1  C   UNL     1      85.392   1.879   6.347  1.00  0.00     0.180 A 
ATOM      2  C   UNL     1      85.740   0.612   6.856  1.00  0.00     0.208 A 
ATOM      3  C   UNL     1      86.195  -0.374   5.967  1.00  0.00     0.238 A 
ATOM      4  O   UNL     1      86.521  -1.509   6.413  1.00  0.00    -0.285 OA
ATOM      5  C   UNL     1      86.274  -0.088   4.588  1.00  0.00     0.111 A 
ATOM      6  C   UNL     1      86.718  -1.027   3.627  1.00  0.00     0.134 A 
ATOM      7  C   UNL     1      86.760  -0.669   2.271  1.00  0.00     0.093 A 
ATOM      8  C   UNL     1      86.366   0.610   1.861  1.00  0.00     0.123 A 
ATOM      9  C   UNL     1      85.928   1.540   2.806  1.00  0.00     0.094 A 
ATOM     10  C   UNL     1      85.881   1.202   4.161  1.00  0.00     0.146 A 
ATOM     11  O   UNL     1      85.465   2.108   5.039  1.00  0.00    -0.452 OA
ENDROOT
BRANCH   1  12
ATOM     12  C   UNL     1      84.921   2.976   7.222  1.00  0.00     0.029 A 
ATOM     13  C   UNL     1      84.008   2.739   8.264  1.00  0.00     0.062 A 
ATOM     14  C   UNL     1      83.591   3.786   9.098  1.00  0.00     0.162 A 
ATOM     15  C   UNL     1      85.440   4.268   7.050  1.00  0.00     0.062 A 
ATOM     16  C   UNL     1      84.099   5.081   8.901  1.00  0.00     0.200 A 
ATOM     17  C   UNL     1      85.026   5.319   7.878  1.00  0.00     0.162 A 
BRANCH  14  18
ATOM     18  O   UNL     1      82.681   3.543  10.125  1.00  0.00    -0.504 OA
ATOM     19  H   UNL     1      81.690   3.728  10.012  1.00  0.00     0.293 HD
ENDBRANCH  14  18
BRANCH  16  20
ATOM     20  O   UNL     1      83.697   6.141   9.716  1.00  0.00    -0.502 OA
ATOM     21  H   UNL     1      83.026   6.833   9.407  1.00  0.00     0.293 HD
ENDBRANCH  16  20
BRANCH  17  22
ATOM     22  O   UNL     1      85.533   6.604   7.692  1.00  0.00    -0.504 OA
ATOM     23  H   UNL     1      85.011   7.426   7.977  1.00  0.00     0.293 HD
ENDBRANCH  17  22
ENDBRANCH   1  12
BRANCH   2  24
ATOM     24  O   UNL     1      85.606   0.338   8.220  1.00  0.00    -0.502 OA
ATOM     25  H   UNL     1      84.737   0.484   8.720  1.00  0.00     0.293 HD
ENDBRANCH   2  24
BRANCH   6  26
ATOM     26  O   UNL     1      87.117  -2.310   4.006  1.00  0.00    -0.507 OA
ATOM     27  H   UNL     1      86.770  -2.748   4.850  1.00  0.00     0.293 HD
ENDBRANCH   6  26
BRANCH   8  28
ATOM     28  O   UNL     1      86.406   0.967   0.515  1.00  0.00    -0.508 OA
ATOM     29  H   UNL     1      85.569   1.243   0.014  1.00  0.00     0.293 HD
ENDBRANCH   8  28
TORSDOF 7
ENDMDL
MODEL 7
REMARK VINA RESULT:    -5.470      3.377      6.577
REMARK INTER + INTRA:          -6.814
REMARK INTER:                  -6.496
REMARK INTRA:                  -0.318
REMARK UNBOUND:                -0.065
REMARK SMILES O=c1c(O)c(-c2cc(O)c(O)c(O)c2)oc2cc(O)cc(O)c12
REMARK SMILES IDX 5 1 3 2 2 3 1 4 23 5 21 6 20 7 18 8 17 9 16 10 15 11 6 12
REMARK SMILES IDX 7 13 8 14 14 15 10 16 12 17 9 18 11 20 13 22 4 24 22 26
REMARK SMILES IDX 19 28
REMARK H PARENT 9 19 11 21 13 23 4 25 22 27 19 29
REMARK Flexibility Score: inf
ROOT
ATOM      1  C   UNL     1      85.815   2.874  -2.683  1.00  0.00     0.180 A 
ATOM      2  C   UNL     1      86.235   4.194  -2.936  1.00  0.00     0.208 A 
ATOM      3  C   UNL     1      86.527   4.572  -4.256  1.00  0.00     0.238 A 
ATOM      4  O   UNL     1      86.892   5.755  -4.497  1.00  0.00    -0.285 OA
ATOM      5  C   UNL     1      86.415   3.623  -5.294  1.00  0.00     0.111 A 
ATOM      6  C   UNL     1      86.694   3.922  -6.649  1.00  0.00     0.134 A 
ATOM      7  C   UNL     1      86.568   2.920  -7.623  1.00  0.00     0.093 A 
ATOM      8  C   UNL     1      86.168   1.626  -7.266  1.00  0.00     0.123 A 
ATOM      9  C   UNL     1      85.891   1.328  -5.930  1.00  0.00     0.094 A 
ATOM     10  C   UNL     1      86.010   2.313  -4.946  1.00  0.00     0.146 A 
ATOM     11  O   UNL     1      85.735   2.002  -3.684  1.00  0.00    -0.452 OA
ENDROOT
BRANCH   1  12
ATOM     12  C   UNL     1      85.471   2.405  -1.321  1.00  0.00     0.029 A 
ATOM     13  C   UNL     1      86.470   2.093  -0.383  1.00  0.00     0.062 A 
ATOM     14  C   UNL     1      86.126   1.673   0.910  1.00  0.00     0.162 A 
ATOM     15  C   UNL     1      84.124   2.326  -0.937  1.00  0.00     0.062 A 
ATOM     16  C   UNL     1      84.773   1.575   1.277  1.00  0.00     0.200 A 
ATOM     17  C   UNL     1      83.775   1.905   0.353  1.00  0.00     0.162 A 
BRANCH  14  18
ATOM     18  O   UNL     1      87.123   1.360   1.833  1.00  0.00    -0.504 OA
ATOM     19  H   UNL     1      88.092   1.254   1.553  1.00  0.00     0.293 HD
ENDBRANCH  14  18
BRANCH  16  20
ATOM     20  O   UNL     1      84.406   1.156   2.556  1.00  0.00    -0.502 OA
ATOM     21  H   UNL     1      85.086   1.019   3.294  1.00  0.00     0.293 HD
ENDBRANCH  16  20
BRANCH  17  22
ATOM     22  O   UNL     1      82.434   1.814   0.724  1.00  0.00    -0.504 OA
ATOM     23  H   UNL     1      81.702   2.257   0.181  1.00  0.00     0.293 HD
ENDBRANCH  17  22
ENDBRANCH   1  12
BRANCH   2  24
ATOM     24  O   UNL     1      86.385   5.102  -1.884  1.00  0.00    -0.502 OA
ATOM     25  H   UNL     1      85.956   4.958  -0.978  1.00  0.00     0.293 HD
ENDBRANCH   2  24
BRANCH   6  26
ATOM     26  O   UNL     1      87.094   5.202  -7.036  1.00  0.00    -0.507 OA
ATOM     27  H   UNL     1      86.749   5.636  -7.883  1.00  0.00     0.293 HD
ENDBRANCH   6  26
BRANCH   8  28
ATOM     28  O   UNL     1      86.044   0.631  -8.232  1.00  0.00    -0.508 OA
ATOM     29  H   UNL     1      86.843   0.092  -8.544  1.00  0.00     0.293 HD
ENDBRANCH   8  28
TORSDOF 7
ENDMDL
MODEL 8
REMARK VINA RESULT:    -5.010      8.570     10.534
REMARK INTER + INTRA:          -6.247
REMARK INTER:                  -5.982
REMARK INTRA:                  -0.265
REMARK UNBOUND:                -0.065
REMARK SMILES O=c1c(O)c(-c2cc(O)c(O)c(O)c2)oc2cc(O)cc(O)c12
REMARK SMILES IDX 5 1 3 2 2 3 1 4 23 5 21 6 20 7 18 8 17 9 16 10 15 11 6 12
REMARK SMILES IDX 7 13 8 14 14 15 10 16 12 17 9 18 11 20 13 22 4 24 22 26
REMARK SMILES IDX 19 28
REMARK H PARENT 9 19 11 21 13 23 4 25 22 27 19 29
REMARK Flexibility Score: inf
ROOT
ATOM      1  C   UNL     1      84.725   7.443   5.967  1.00  0.00     0.180 A 
ATOM      2  C   UNL     1      85.846   6.658   6.300  1.00  0.00     0.208 A 
ATOM      3  C   UNL     1      85.661   5.507   7.081  1.00  0.00     0.238 A 
ATOM      4  O   UNL     1      86.656   4.789   7.376  1.00  0.00    -0.285 OA
ATOM      5  C   UNL     1      84.367   5.172   7.533  1.00  0.00     0.111 A 
ATOM      6  C   UNL     1      84.096   4.031   8.326  1.00  0.00     0.134 A 
ATOM      7  C   UNL     1      82.782   3.770   8.743  1.00  0.00     0.093 A 
ATOM      8  C   UNL     1      81.737   4.628   8.382  1.00  0.00     0.123 A 
ATOM      9  C   UNL     1      82.000   5.754   7.598  1.00  0.00     0.094 A 
ATOM     10  C   UNL     1      83.302   6.030   7.172  1.00  0.00     0.146 A 
ATOM     11  O   UNL     1      83.523   7.104   6.423  1.00  0.00    -0.452 OA
ENDROOT
BRANCH   1  12
ATOM     12  C   UNL     1      84.837   8.661   5.133  1.00  0.00     0.029 A 
ATOM     13  C   UNL     1      85.441   9.831   5.624  1.00  0.00     0.062 A 
ATOM     14  C   UNL     1      85.560  10.967   4.812  1.00  0.00     0.162 A 
ATOM     15  C   UNL     1      84.386   8.632   3.804  1.00  0.00     0.062 A 
ATOM     16  C   UNL     1      85.083  10.935   3.491  1.00  0.00     0.200 A 
ATOM     17  C   UNL     1      84.500   9.765   2.989  1.00  0.00     0.162 A 
BRANCH  14  18
ATOM     18  O   UNL     1      86.155  12.125   5.311  1.00  0.00    -0.504 OA
ATOM     19  H   UNL     1      87.125  12.139   5.606  1.00  0.00     0.293 HD
ENDBRANCH  14  18
BRANCH  16  20
ATOM     20  O   UNL     1      85.186  12.054   2.664  1.00  0.00    -0.502 OA
ATOM     21  H   UNL     1      84.669  12.133   1.797  1.00  0.00     0.293 HD
ENDBRANCH  16  20
BRANCH  17  22
ATOM     22  O   UNL     1      84.035   9.736   1.674  1.00  0.00    -0.504 OA
ATOM     23  H   UNL     1      83.319  10.376   1.351  1.00  0.00     0.293 HD
ENDBRANCH  17  22
ENDBRANCH   1  12
BRANCH   2  24
ATOM     24  O   UNL     1      87.125   7.039   5.882  1.00  0.00    -0.502 OA
ATOM     25  H   UNL     1      87.275   7.708   5.136  1.00  0.00     0.293 HD
ENDBRANCH   2  24
BRANCH   6  26
ATOM     26  O   UNL     1      85.117   3.158   8.703  1.00  0.00    -0.507 OA
ATOM     27  H   UNL     1      85.336   2.982   9.676  1.00  0.00     0.293 HD
ENDBRANCH   6  26
BRANCH   8  28
ATOM     28  O   UNL     1      80.432   4.371   8.796  1.00  0.00    -0.508 OA
ATOM     29  H   UNL     1      79.671   5.002   8.575  1.00  0.00     0.293 HD
ENDBRANCH   8  28
TORSDOF 7
ENDMDL
MODEL 9
REMARK VINA RESULT:    -3.836      8.994     10.490
REMARK INTER + INTRA:          -4.798
REMARK INTER:                  -5.216
REMARK INTRA:                   0.417
REMARK UNBOUND:                -0.065
REMARK SMILES O=c1c(O)c(-c2cc(O)c(O)c(O)c2)oc2cc(O)cc(O)c12
REMARK SMILES IDX 5 1 3 2 2 3 1 4 23 5 21 6 20 7 18 8 17 9 16 10 15 11 6 12
REMARK SMILES IDX 7 13 8 14 14 15 10 16 12 17 9 18 11 20 13 22 4 24 22 26
REMARK SMILES IDX 19 28
REMARK H PARENT 9 19 11 21 13 23 4 25 22 27 19 29
REMARK Flexibility Score: inf
ROOT
ATOM      1  C   UNL     1      84.822   6.259   6.768  1.00  0.00     0.180 A 
ATOM      2  C   UNL     1      86.012   5.515   6.641  1.00  0.00     0.208 A 
ATOM      3  C   UNL     1      86.069   4.228   7.196  1.00  0.00     0.238 A 
ATOM      4  O   UNL     1      87.125   3.548   7.079  1.00  0.00    -0.285 OA
ATOM      5  C   UNL     1      84.950   3.715   7.884  1.00  0.00     0.111 A 
ATOM      6  C   UNL     1      84.927   2.428   8.475  1.00  0.00     0.134 A 
ATOM      7  C   UNL     1      83.778   1.993   9.151  1.00  0.00     0.093 A 
ATOM      8  C   UNL     1      82.652   2.819   9.246  1.00  0.00     0.123 A 
ATOM      9  C   UNL     1      82.670   4.088   8.664  1.00  0.00     0.094 A 
ATOM     10  C   UNL     1      83.805   4.539   7.985  1.00  0.00     0.146 A 
ATOM     11  O   UNL     1      83.792   5.749   7.437  1.00  0.00    -0.452 OA
ENDROOT
BRANCH   1  12
ATOM     12  C   UNL     1      84.678   7.616   6.195  1.00  0.00     0.029 A 
ATOM     13  C   UNL     1      83.414   8.203   6.013  1.00  0.00     0.062 A 
ATOM     14  C   UNL     1      83.297   9.499   5.491  1.00  0.00     0.162 A 
ATOM     15  C   UNL     1      85.826   8.359   5.879  1.00  0.00     0.062 A 
ATOM     16  C   UNL     1      84.453  10.224   5.156  1.00  0.00     0.200 A 
ATOM     17  C   UNL     1      85.716   9.653   5.355  1.00  0.00     0.162 A 
BRANCH  14  18
ATOM     18  O   UNL     1      82.038  10.069   5.309  1.00  0.00    -0.504 OA
ATOM     19  H   UNL     1      81.413   9.755   4.576  1.00  0.00     0.293 HD
ENDBRANCH  14  18
BRANCH  16  20
ATOM     20  O   UNL     1      84.363  11.514   4.631  1.00  0.00    -0.502 OA
ATOM     21  H   UNL     1      84.477  11.702   3.643  1.00  0.00     0.293 HD
ENDBRANCH  16  20
BRANCH  17  22
ATOM     22  O   UNL     1      86.860  10.381   5.028  1.00  0.00    -0.504 OA
ATOM     23  H   UNL     1      87.605  10.526   5.701  1.00  0.00     0.293 HD
ENDBRANCH  17  22
ENDBRANCH   1  12
BRANCH   2  24
ATOM     24  O   UNL     1      87.124   6.066   5.998  1.00  0.00    -0.502 OA
ATOM     25  H   UNL     1      87.951   6.362   6.502  1.00  0.00     0.293 HD
ENDBRANCH   2  24
BRANCH   6  26
ATOM     26  O   UNL     1      86.035   1.582   8.397  1.00  0.00    -0.507 OA
ATOM     27  H   UNL     1      86.565   1.475   7.541  1.00  0.00     0.293 HD
ENDBRANCH   6  26
BRANCH   8  28
ATOM     28  O   UNL     1      81.510   2.388   9.918  1.00  0.00    -0.508 OA
ATOM     29  H   UNL     1      81.013   1.551   9.636  1.00  0.00     0.293 HD
ENDBRANCH   8  28
TORSDOF 7
ENDMDL
