MODEL 1
REMARK VINA RESULT:    -3.907      0.000      0.000
REMARK INTER + INTRA:          -5.560
REMARK INTER:                  -5.278
REMARK INTRA:                  -0.282
REMARK UNBOUND:                -0.282
REMARK SMILES CCCCCCC=CC(=O)[O-]
REMARK SMILES IDX 5 1 6 2 7 3 8 4 9 5 10 6 11 7 4 8 3 9 2 10 1 11
REMARK H PARENT
REMARK Flexibility Score: inf
ROOT
ATOM      1  C   UNL     1       9.124   1.624  -8.397  1.00  0.00     0.004 C 
ENDROOT
BRANCH   1   2
ATOM      2  C   UNL     1      10.349   2.555  -8.357  1.00  0.00     0.027 C 
BRANCH   2   3
ATOM      3  C   UNL     1      10.525   3.222  -7.021  1.00  0.00    -0.025 C 
ATOM      4  C   UNL     1      11.217   4.358  -6.893  1.00  0.00     0.020 C 
BRANCH   4   5
ATOM      5  C   UNL     1      11.391   5.024  -5.593  1.00  0.00     0.064 C 
ATOM      6  O   UNL     1      11.415   6.280  -5.537  1.00  0.00    -0.545 OA
ATOM      7  O   UNL     1      11.530   4.284  -4.423  1.00  0.00    -0.545 OA
ENDBRANCH   4   5
ENDBRANCH   2   3
ENDBRANCH   1   2
BRANCH   1   8
ATOM      8  C   UNL     1       8.836   0.901  -7.068  1.00  0.00     0.000 C 
BRANCH   8   9
ATOM      9  C   UNL     1       7.691  -0.117  -7.181  1.00  0.00    -0.000 C 
BRANCH   9  10
ATOM     10  C   UNL     1       6.594   0.394  -8.121  1.00  0.00    -0.003 C 
ATOM     11  C   UNL     1       5.582  -0.703  -8.436  1.00  0.00     0.004 C 
ENDBRANCH   9  10
ENDBRANCH   8   9
ENDBRANCH   1   8
TORSDOF 6
ENDMDL
MODEL 2
REMARK VINA RESULT:    -3.889     16.482     17.170
REMARK INTER + INTRA:          -5.535
REMARK INTER:                  -4.933
REMARK INTRA:                  -0.602
REMARK UNBOUND:                -0.282
REMARK SMILES CCCCCCC=CC(=O)[O-]
REMARK SMILES IDX 5 1 6 2 7 3 8 4 9 5 10 6 11 7 4 8 3 9 2 10 1 11
REMARK H PARENT
REMARK Flexibility Score: inf
ROOT
ATOM      1  C   UNL     1      -0.349   6.927   6.839  1.00  0.00     0.004 C 
ENDROOT
BRANCH   1   2
ATOM      2  C   UNL     1       0.588   7.570   5.801  1.00  0.00     0.027 C 
BRANCH   2   3
ATOM      3  C   UNL     1       0.546   6.871   4.472  1.00  0.00    -0.025 C 
ATOM      4  C   UNL     1      -0.546   6.222   4.057  1.00  0.00     0.020 C 
BRANCH   4   5
ATOM      5  C   UNL     1      -0.601   5.539   2.755  1.00  0.00     0.064 C 
ATOM      6  O   UNL     1      -1.241   6.062   1.807  1.00  0.00    -0.545 OA
ATOM      7  O   UNL     1       0.042   4.322   2.558  1.00  0.00    -0.545 OA
ENDBRANCH   4   5
ENDBRANCH   2   3
ENDBRANCH   1   2
BRANCH   1   8
ATOM      8  C   UNL     1      -1.325   7.914   7.506  1.00  0.00     0.000 C 
BRANCH   8   9
ATOM      9  C   UNL     1      -1.914   8.929   6.516  1.00  0.00    -0.000 C 
BRANCH   9  10
ATOM     10  C   UNL     1      -3.428   8.739   6.372  1.00  0.00    -0.003 C 
ATOM     11  C   UNL     1      -3.753   7.502   5.541  1.00  0.00     0.004 C 
ENDBRANCH   9  10
ENDBRANCH   8   9
ENDBRANCH   1   8
TORSDOF 6
ENDMDL
MODEL 3
REMARK VINA RESULT:    -3.804     15.547     16.684
REMARK INTER + INTRA:          -5.420
REMARK INTER:                  -4.858
REMARK INTRA:                  -0.563
REMARK UNBOUND:                -0.282
REMARK SMILES CCCCCCC=CC(=O)[O-]
REMARK SMILES IDX 5 1 6 2 7 3 8 4 9 5 10 6 11 7 4 8 3 9 2 10 1 11
REMARK H PARENT
REMARK Flexibility Score: inf
ROOT
ATOM      1  C   UNL     1      -0.086   6.776   6.827  1.00  0.00     0.004 C 
ENDROOT
BRANCH   1   2
ATOM      2  C   UNL     1      -1.273   7.311   6.007  1.00  0.00     0.027 C 
BRANCH   2   3
ATOM      3  C   UNL     1      -1.427   6.608   4.687  1.00  0.00    -0.025 C 
ATOM      4  C   UNL     1      -0.366   6.201   3.984  1.00  0.00     0.020 C 
BRANCH   4   5
ATOM      5  C   UNL     1      -0.505   5.507   2.694  1.00  0.00     0.064 C 
ATOM      6  O   UNL     1       0.095   4.417   2.509  1.00  0.00    -0.545 OA
ATOM      7  O   UNL     1      -1.287   6.039   1.675  1.00  0.00    -0.545 OA
ENDBRANCH   4   5
ENDBRANCH   2   3
ENDBRANCH   1   2
BRANCH   1   8
ATOM      8  C   UNL     1       0.589   7.831   7.723  1.00  0.00     0.000 C 
BRANCH   8   9
ATOM      9  C   UNL     1       2.059   8.077   7.350  1.00  0.00    -0.000 C 
BRANCH   9  10
ATOM     10  C   UNL     1       2.325   7.691   5.890  1.00  0.00    -0.003 C 
ATOM     11  C   UNL     1       2.266   8.912   4.977  1.00  0.00     0.004 C 
ENDBRANCH   9  10
ENDBRANCH   8   9
ENDBRANCH   1   8
TORSDOF 6
ENDMDL
MODEL 4
REMARK VINA RESULT:    -3.701      5.174      7.661
REMARK INTER + INTRA:          -5.281
REMARK INTER:                  -5.112
REMARK INTRA:                  -0.169
REMARK UNBOUND:                -0.282
REMARK SMILES CCCCCCC=CC(=O)[O-]
REMARK SMILES IDX 5 1 6 2 7 3 8 4 9 5 10 6 11 7 4 8 3 9 2 10 1 11
REMARK H PARENT
REMARK Flexibility Score: inf
ROOT
ATOM      1  C   UNL     1       7.218   0.286  -7.656  1.00  0.00     0.004 C 
ENDROOT
BRANCH   1   2
ATOM      2  C   UNL     1       6.415  -0.949  -8.103  1.00  0.00     0.027 C 
BRANCH   2   3
ATOM      3  C   UNL     1       4.974  -0.629  -8.388  1.00  0.00    -0.025 C 
ATOM      4  C   UNL     1       3.992  -1.475  -8.061  1.00  0.00     0.020 C 
BRANCH   4   5
ATOM      5  C   UNL     1       2.578  -1.171  -8.330  1.00  0.00     0.064 C 
ATOM      6  O   UNL     1       1.782  -1.020  -7.367  1.00  0.00    -0.545 OA
ATOM      7  O   UNL     1       2.108  -1.048  -9.632  1.00  0.00    -0.545 OA
ENDBRANCH   4   5
ENDBRANCH   2   3
ENDBRANCH   1   2
BRANCH   1   8
ATOM      8  C   UNL     1       8.514  -0.046  -6.894  1.00  0.00     0.000 C 
BRANCH   8   9
ATOM      9  C   UNL     1       9.277   1.209  -6.444  1.00  0.00    -0.000 C 
BRANCH   9  10
ATOM     10  C   UNL     1       9.548   2.141  -7.630  1.00  0.00    -0.003 C 
ATOM     11  C   UNL     1      10.526   3.249  -7.250  1.00  0.00     0.004 C 
ENDBRANCH   9  10
ENDBRANCH   8   9
ENDBRANCH   1   8
TORSDOF 6
ENDMDL
MODEL 5
REMARK VINA RESULT:    -3.694     11.337     12.844
REMARK INTER + INTRA:          -5.272
REMARK INTER:                  -4.726
REMARK INTRA:                  -0.546
REMARK UNBOUND:                -0.282
REMARK SMILES CCCCCCC=CC(=O)[O-]
REMARK SMILES IDX 5 1 6 2 7 3 8 4 9 5 10 6 11 7 4 8 3 9 2 10 1 11
REMARK H PARENT
REMARK Flexibility Score: inf
ROOT
ATOM      1  C   UNL     1       6.873  -1.994   2.559  1.00  0.00     0.004 C 
ENDROOT
BRANCH   1   2
ATOM      2  C   UNL     1       8.058  -2.385   1.657  1.00  0.00     0.027 C 
BRANCH   2   3
ATOM      3  C   UNL     1       7.889  -3.743   1.037  1.00  0.00    -0.025 C 
ATOM      4  C   UNL     1       6.882  -4.550   1.385  1.00  0.00     0.020 C 
BRANCH   4   5
ATOM      5  C   UNL     1       6.703  -5.880   0.781  1.00  0.00     0.064 C 
ATOM      6  O   UNL     1       5.697  -6.570   1.088  1.00  0.00    -0.545 OA
ATOM      7  O   UNL     1       7.630  -6.386  -0.124  1.00  0.00    -0.545 OA
ENDBRANCH   4   5
ENDBRANCH   2   3
ENDBRANCH   1   2
BRANCH   1   8
ATOM      8  C   UNL     1       7.284  -1.362   3.902  1.00  0.00     0.000 C 
BRANCH   8   9
ATOM      9  C   UNL     1       7.839  -2.390   4.898  1.00  0.00    -0.000 C 
BRANCH   9  10
ATOM     10  C   UNL     1       6.894  -3.589   5.033  1.00  0.00    -0.003 C 
ATOM     11  C   UNL     1       5.900  -3.383   6.173  1.00  0.00     0.004 C 
ENDBRANCH   9  10
ENDBRANCH   8   9
ENDBRANCH   1   8
TORSDOF 6
ENDMDL
MODEL 6
REMARK VINA RESULT:    -3.683     16.196     17.154
REMARK INTER + INTRA:          -5.257
REMARK INTER:                  -4.528
REMARK INTRA:                  -0.729
REMARK UNBOUND:                -0.282
REMARK SMILES CCCCCCC=CC(=O)[O-]
REMARK SMILES IDX 5 1 6 2 7 3 8 4 9 5 10 6 11 7 4 8 3 9 2 10 1 11
REMARK H PARENT
REMARK Flexibility Score: inf
ROOT
ATOM      1  C   UNL     1      -1.873   7.759   6.544  1.00  0.00     0.004 C 
ENDROOT
BRANCH   1   2
ATOM      2  C   UNL     1      -0.488   7.087   6.524  1.00  0.00     0.027 C 
BRANCH   2   3
ATOM      3  C   UNL     1      -0.097   6.608   5.154  1.00  0.00    -0.025 C 
ATOM      4  C   UNL     1      -1.015   6.263   4.246  1.00  0.00     0.020 C 
BRANCH   4   5
ATOM      5  C   UNL     1      -0.646   5.799   2.900  1.00  0.00     0.064 C 
ATOM      6  O   UNL     1       0.145   4.828   2.774  1.00  0.00    -0.545 OA
ATOM      7  O   UNL     1      -1.156   6.417   1.764  1.00  0.00    -0.545 OA
ENDBRANCH   4   5
ENDBRANCH   2   3
ENDBRANCH   1   2
BRANCH   1   8
ATOM      8  C   UNL     1      -1.829   9.292   6.674  1.00  0.00     0.000 C 
BRANCH   8   9
ATOM      9  C   UNL     1      -1.849  10.006   5.315  1.00  0.00    -0.000 C 
BRANCH   9  10
ATOM     10  C   UNL     1      -0.430  10.387   4.875  1.00  0.00    -0.003 C 
ATOM     11  C   UNL     1      -0.110   9.824   3.493  1.00  0.00     0.004 C 
ENDBRANCH   9  10
ENDBRANCH   8   9
ENDBRANCH   1   8
TORSDOF 6
ENDMDL
MODEL 7
REMARK VINA RESULT:    -3.669     16.397     17.194
REMARK INTER + INTRA:          -5.239
REMARK INTER:                  -4.500
REMARK INTRA:                  -0.738
REMARK UNBOUND:                -0.282
REMARK SMILES CCCCCCC=CC(=O)[O-]
REMARK SMILES IDX 5 1 6 2 7 3 8 4 9 5 10 6 11 7 4 8 3 9 2 10 1 11
REMARK H PARENT
REMARK Flexibility Score: inf
ROOT
ATOM      1  C   UNL     1      -2.243   9.676   4.266  1.00  0.00     0.004 C 
ENDROOT
BRANCH   1   2
ATOM      2  C   UNL     1      -0.784   9.681   3.774  1.00  0.00     0.027 C 
BRANCH   2   3
ATOM      3  C   UNL     1      -0.311   8.319   3.351  1.00  0.00    -0.025 C 
ATOM      4  C   UNL     1      -1.173   7.336   3.070  1.00  0.00     0.020 C 
BRANCH   4   5
ATOM      5  C   UNL     1      -0.722   6.000   2.650  1.00  0.00     0.064 C 
ATOM      6  O   UNL     1       0.140   5.392   3.335  1.00  0.00    -0.545 OA
ATOM      7  O   UNL     1      -1.235   5.399   1.505  1.00  0.00    -0.545 OA
ENDBRANCH   4   5
ENDBRANCH   2   3
ENDBRANCH   1   2
BRANCH   1   8
ATOM      8  C   UNL     1      -2.393   9.665   5.798  1.00  0.00     0.000 C 
BRANCH   8   9
ATOM      9  C   UNL     1      -2.775   8.283   6.349  1.00  0.00    -0.000 C 
BRANCH   9  10
ATOM     10  C   UNL     1      -1.535   7.526   6.837  1.00  0.00    -0.003 C 
ATOM     11  C   UNL     1      -0.455   8.489   7.324  1.00  0.00     0.004 C 
ENDBRANCH   9  10
ENDBRANCH   8   9
ENDBRANCH   1   8
TORSDOF 6
ENDMDL
MODEL 8
REMARK VINA RESULT:    -3.633      4.377      6.519
REMARK INTER + INTRA:          -5.190
REMARK INTER:                  -4.851
REMARK INTRA:                  -0.339
REMARK UNBOUND:                -0.282
REMARK SMILES CCCCCCC=CC(=O)[O-]
REMARK SMILES IDX 5 1 6 2 7 3 8 4 9 5 10 6 11 7 4 8 3 9 2 10 1 11
REMARK H PARENT
REMARK Flexibility Score: inf
ROOT
ATOM      1  C   UNL     1       7.958  -0.592  -7.243  1.00  0.00     0.004 C 
ENDROOT
BRANCH   1   2
ATOM      2  C   UNL     1       6.696  -1.021  -8.013  1.00  0.00     0.027 C 
BRANCH   2   3
ATOM      3  C   UNL     1       5.934   0.148  -8.570  1.00  0.00    -0.025 C 
ATOM      4  C   UNL     1       4.609   0.100  -8.744  1.00  0.00     0.020 C 
BRANCH   4   5
ATOM      5  C   UNL     1       3.852   1.240  -9.283  1.00  0.00     0.064 C 
ATOM      6  O   UNL     1       4.296   1.864 -10.281  1.00  0.00    -0.545 OA
ATOM      7  O   UNL     1       2.651   1.639  -8.706  1.00  0.00    -0.545 OA
ENDBRANCH   4   5
ENDBRANCH   2   3
ENDBRANCH   1   2
BRANCH   1   8
ATOM      8  C   UNL     1       8.131   0.932  -7.111  1.00  0.00     0.000 C 
BRANCH   8   9
ATOM      9  C   UNL     1       9.399   1.323  -6.339  1.00  0.00    -0.000 C 
BRANCH   9  10
ATOM     10  C   UNL     1      10.132   2.475  -7.036  1.00  0.00    -0.003 C 
ATOM     11  C   UNL     1      10.125   2.297  -8.551  1.00  0.00     0.004 C 
ENDBRANCH   9  10
ENDBRANCH   8   9
ENDBRANCH   1   8
TORSDOF 6
ENDMDL
MODEL 9
REMARK VINA RESULT:    -3.617     11.046     12.601
REMARK INTER + INTRA:          -5.168
REMARK INTER:                  -4.928
REMARK INTRA:                  -0.240
REMARK UNBOUND:                -0.282
REMARK SMILES CCCCCCC=CC(=O)[O-]
REMARK SMILES IDX 5 1 6 2 7 3 8 4 9 5 10 6 11 7 4 8 3 9 2 10 1 11
REMARK H PARENT
REMARK Flexibility Score: inf
ROOT
ATOM      1  C   UNL     1       8.175  -2.083   2.377  1.00  0.00     0.004 C 
ENDROOT
BRANCH   1   2
ATOM      2  C   UNL     1       8.118  -2.806   1.019  1.00  0.00     0.027 C 
BRANCH   2   3
ATOM      3  C   UNL     1       7.321  -4.079   1.074  1.00  0.00    -0.025 C 
ATOM      4  C   UNL     1       7.767  -5.208   0.515  1.00  0.00     0.020 C 
BRANCH   4   5
ATOM      5  C   UNL     1       6.999  -6.461   0.568  1.00  0.00     0.064 C 
ATOM      6  O   UNL     1       7.519  -7.525   0.143  1.00  0.00    -0.545 OA
ATOM      7  O   UNL     1       5.706  -6.487   1.078  1.00  0.00    -0.545 OA
ENDBRANCH   4   5
ENDBRANCH   2   3
ENDBRANCH   1   2
BRANCH   1   8
ATOM      8  C   UNL     1       6.803  -1.628   2.908  1.00  0.00     0.000 C 
BRANCH   8   9
ATOM      9  C   UNL     1       6.827  -1.290   4.406  1.00  0.00    -0.000 C 
BRANCH   9  10
ATOM     10  C   UNL     1       6.638   0.215   4.631  1.00  0.00    -0.003 C 
ATOM     11  C   UNL     1       7.942   0.877   5.068  1.00  0.00     0.004 C 
ENDBRANCH   9  10
ENDBRANCH   8   9
ENDBRANCH   1   8
TORSDOF 6
ENDMDL
