MODEL 1
REMARK VINA RESULT:    -4.327      0.000      0.000
REMARK INTER + INTRA:          -5.355
REMARK INTER:                  -5.086
REMARK INTRA:                  -0.270
REMARK UNBOUND:                -0.270
REMARK SMILES COc1cc2ccc(=O)oc2c(OC)c1OC
REMARK SMILES IDX 3 1 15 2 12 3 11 4 5 5 4 6 6 7 7 8 8 9 9 10 10 11 2 12 1 13
REMARK SMILES IDX 16 14 17 15 13 16 14 17
REMARK H PARENT
REMARK Flexibility Score: inf
ROOT
ATOM      1  C   UNL     1       3.027  38.745   5.518  1.00  0.00     0.165 A 
ATOM      2  C   UNL     1       1.989  39.506   6.079  1.00  0.00     0.207 A 
ATOM      3  C   UNL     1       0.754  38.887   6.422  1.00  0.00     0.208 A 
ATOM      4  C   UNL     1       0.593  37.497   6.188  1.00  0.00     0.184 A 
ATOM      5  C   UNL     1       1.650  36.750   5.623  1.00  0.00     0.025 A 
ATOM      6  C   UNL     1       2.854  37.372   5.292  1.00  0.00     0.062 A 
ATOM      7  C   UNL     1       1.466  35.380   5.402  1.00  0.00     0.020 A 
ATOM      8  C   UNL     1       0.255  34.786   5.740  1.00  0.00     0.094 A 
ATOM      9  C   UNL     1      -0.750  35.579   6.296  1.00  0.00     0.336 A 
ATOM     10  O   UNL     1      -1.855  35.066   6.611  1.00  0.00    -0.246 OA
ATOM     11  O   UNL     1      -0.547  36.878   6.495  1.00  0.00    -0.419 OA
ENDROOT
BRANCH   1  12
ATOM     12  O   UNL     1       4.228  39.400   5.195  1.00  0.00    -0.493 OA
ATOM     13  C   UNL     1       4.616  39.782   3.879  1.00  0.00     0.278 C 
ENDBRANCH   1  12
BRANCH   2  14
ATOM     14  O   UNL     1       2.257  40.877   6.268  1.00  0.00    -0.490 OA
ATOM     15  C   UNL     1       1.894  41.948   5.404  1.00  0.00     0.278 C 
ENDBRANCH   2  14
BRANCH   3  16
ATOM     16  O   UNL     1      -0.265  39.681   6.983  1.00  0.00    -0.490 OA
ATOM     17  C   UNL     1      -0.355  40.138   8.328  1.00  0.00     0.278 C 
ENDBRANCH   3  16
TORSDOF 3
ENDMDL
MODEL 2
REMARK VINA RESULT:    -4.260      2.192      5.303
REMARK INTER + INTRA:          -5.277
REMARK INTER:                  -4.966
REMARK INTRA:                  -0.311
REMARK UNBOUND:                -0.270
REMARK SMILES COc1cc2ccc(=O)oc2c(OC)c1OC
REMARK SMILES IDX 3 1 15 2 12 3 11 4 5 5 4 6 6 7 7 8 8 9 9 10 10 11 2 12 1 13
REMARK SMILES IDX 16 14 17 15 13 16 14 17
REMARK H PARENT
REMARK Flexibility Score: inf
ROOT
ATOM      1  C   UNL     1      -2.714  35.921   7.127  1.00  0.00     0.165 A 
ATOM      2  C   UNL     1      -2.533  37.308   7.258  1.00  0.00     0.207 A 
ATOM      3  C   UNL     1      -1.300  37.907   6.876  1.00  0.00     0.208 A 
ATOM      4  C   UNL     1      -0.265  37.084   6.364  1.00  0.00     0.184 A 
ATOM      5  C   UNL     1      -0.468  35.691   6.240  1.00  0.00     0.025 A 
ATOM      6  C   UNL     1      -1.682  35.119   6.619  1.00  0.00     0.062 A 
ATOM      7  C   UNL     1       0.569  34.899   5.732  1.00  0.00     0.020 A 
ATOM      8  C   UNL     1       1.771  35.496   5.362  1.00  0.00     0.094 A 
ATOM      9  C   UNL     1       1.908  36.877   5.508  1.00  0.00     0.336 A 
ATOM     10  O   UNL     1       2.984  37.440   5.180  1.00  0.00    -0.246 OA
ATOM     11  O   UNL     1       0.905  37.603   5.994  1.00  0.00    -0.419 OA
ENDROOT
BRANCH   1  12
ATOM     12  O   UNL     1      -3.949  35.376   7.518  1.00  0.00    -0.493 OA
ATOM     13  C   UNL     1      -4.164  34.627   8.710  1.00  0.00     0.278 C 
ENDBRANCH   1  12
BRANCH   2  14
ATOM     14  O   UNL     1      -3.626  38.030   7.777  1.00  0.00    -0.490 OA
ATOM     15  C   UNL     1      -3.832  38.418   9.132  1.00  0.00     0.278 C 
ENDBRANCH   2  14
BRANCH   3  16
ATOM     16  O   UNL     1      -1.154  39.300   7.021  1.00  0.00    -0.490 OA
ATOM     17  C   UNL     1      -0.563  39.991   8.116  1.00  0.00     0.278 C 
ENDBRANCH   3  16
TORSDOF 3
ENDMDL
MODEL 3
REMARK VINA RESULT:    -4.193      3.026      5.505
REMARK INTER + INTRA:          -5.198
REMARK INTER:                  -4.938
REMARK INTRA:                  -0.260
REMARK UNBOUND:                -0.270
REMARK SMILES COc1cc2ccc(=O)oc2c(OC)c1OC
REMARK SMILES IDX 3 1 15 2 12 3 11 4 5 5 4 6 6 7 7 8 8 9 9 10 10 11 2 12 1 13
REMARK SMILES IDX 16 14 17 15 13 16 14 17
REMARK H PARENT
REMARK Flexibility Score: inf
ROOT
ATOM      1  C   UNL     1       2.819  38.189   6.040  1.00  0.00     0.165 A 
ATOM      2  C   UNL     1       3.056  39.547   5.771  1.00  0.00     0.207 A 
ATOM      3  C   UNL     1       4.144  40.220   6.396  1.00  0.00     0.208 A 
ATOM      4  C   UNL     1       4.978  39.499   7.288  1.00  0.00     0.184 A 
ATOM      5  C   UNL     1       4.722  38.133   7.544  1.00  0.00     0.025 A 
ATOM      6  C   UNL     1       3.652  37.488   6.924  1.00  0.00     0.062 A 
ATOM      7  C   UNL     1       5.560  37.442   8.428  1.00  0.00     0.020 A 
ATOM      8  C   UNL     1       6.620  38.110   9.033  1.00  0.00     0.094 A 
ATOM      9  C   UNL     1       6.820  39.460   8.738  1.00  0.00     0.336 A 
ATOM     10  O   UNL     1       7.771  40.086   9.272  1.00  0.00    -0.246 OA
ATOM     11  O   UNL     1       6.008  40.090   7.894  1.00  0.00    -0.419 OA
ENDROOT
BRANCH   1  12
ATOM     12  O   UNL     1       1.733  37.569   5.400  1.00  0.00    -0.493 OA
ATOM     13  C   UNL     1       1.750  36.246   4.871  1.00  0.00     0.278 C 
ENDBRANCH   1  12
BRANCH   2  14
ATOM     14  O   UNL     1       2.167  40.166   4.870  1.00  0.00    -0.490 OA
ATOM     15  C   UNL     1       1.056  40.994   5.195  1.00  0.00     0.278 C 
ENDBRANCH   2  14
BRANCH   3  16
ATOM     16  O   UNL     1       4.352  41.581   6.103  1.00  0.00    -0.490 OA
ATOM     17  C   UNL     1       5.168  42.123   5.070  1.00  0.00     0.278 C 
ENDBRANCH   3  16
TORSDOF 3
ENDMDL
MODEL 4
REMARK VINA RESULT:    -4.097      2.510      5.201
REMARK INTER + INTRA:          -5.085
REMARK INTER:                  -4.774
REMARK INTRA:                  -0.311
REMARK UNBOUND:                -0.270
REMARK SMILES COc1cc2ccc(=O)oc2c(OC)c1OC
REMARK SMILES IDX 3 1 15 2 12 3 11 4 5 5 4 6 6 7 7 8 8 9 9 10 10 11 2 12 1 13
REMARK SMILES IDX 16 14 17 15 13 16 14 17
REMARK H PARENT
REMARK Flexibility Score: inf
ROOT
ATOM      1  C   UNL     1      -3.059  36.972   8.010  1.00  0.00     0.165 A 
ATOM      2  C   UNL     1      -2.536  38.245   7.727  1.00  0.00     0.207 A 
ATOM      3  C   UNL     1      -1.327  38.372   6.986  1.00  0.00     0.208 A 
ATOM      4  C   UNL     1      -0.666  37.199   6.541  1.00  0.00     0.184 A 
ATOM      5  C   UNL     1      -1.210  35.929   6.835  1.00  0.00     0.025 A 
ATOM      6  C   UNL     1      -2.395  35.820   7.563  1.00  0.00     0.062 A 
ATOM      7  C   UNL     1      -0.539  34.785   6.384  1.00  0.00     0.020 A 
ATOM      8  C   UNL     1       0.641  34.922   5.661  1.00  0.00     0.094 A 
ATOM      9  C   UNL     1       1.126  36.205   5.402  1.00  0.00     0.336 A 
ATOM     10  O   UNL     1       2.191  36.355   4.750  1.00  0.00    -0.246 OA
ATOM     11  O   UNL     1       0.467  37.273   5.843  1.00  0.00    -0.419 OA
ENDROOT
BRANCH   1  12
ATOM     12  O   UNL     1      -4.254  36.897   8.745  1.00  0.00    -0.493 OA
ATOM     13  C   UNL     1      -4.343  36.501  10.111  1.00  0.00     0.278 C 
ENDBRANCH   1  12
BRANCH   2  14
ATOM     14  O   UNL     1      -3.273  39.341   8.218  1.00  0.00    -0.490 OA
ATOM     15  C   UNL     1      -3.051  40.049   9.433  1.00  0.00     0.278 C 
ENDBRANCH   2  14
BRANCH   3  16
ATOM     16  O   UNL     1      -0.832  39.663   6.722  1.00  0.00    -0.490 OA
ATOM     17  C   UNL     1       0.155  40.372   7.463  1.00  0.00     0.278 C 
ENDBRANCH   3  16
TORSDOF 3
ENDMDL
MODEL 5
REMARK VINA RESULT:    -3.916      1.900      4.046
REMARK INTER + INTRA:          -4.872
REMARK INTER:                  -4.630
REMARK INTRA:                  -0.242
REMARK UNBOUND:                -0.270
REMARK SMILES COc1cc2ccc(=O)oc2c(OC)c1OC
REMARK SMILES IDX 3 1 15 2 12 3 11 4 5 5 4 6 6 7 7 8 8 9 9 10 10 11 2 12 1 13
REMARK SMILES IDX 16 14 17 15 13 16 14 17
REMARK H PARENT
REMARK Flexibility Score: inf
ROOT
ATOM      1  C   UNL     1       1.836  38.700   6.526  1.00  0.00     0.165 A 
ATOM      2  C   UNL     1       1.193  37.547   6.047  1.00  0.00     0.207 A 
ATOM      3  C   UNL     1      -0.184  37.324   6.334  1.00  0.00     0.208 A 
ATOM      4  C   UNL     1      -0.889  38.283   7.106  1.00  0.00     0.184 A 
ATOM      5  C   UNL     1      -0.224  39.436   7.577  1.00  0.00     0.025 A 
ATOM      6  C   UNL     1       1.126  39.639   7.288  1.00  0.00     0.062 A 
ATOM      7  C   UNL     1      -0.941  40.368   8.337  1.00  0.00     0.020 A 
ATOM      8  C   UNL     1      -2.286  40.140   8.611  1.00  0.00     0.094 A 
ATOM      9  C   UNL     1      -2.886  38.981   8.116  1.00  0.00     0.336 A 
ATOM     10  O   UNL     1      -4.100  38.752   8.350  1.00  0.00    -0.246 OA
ATOM     11  O   UNL     1      -2.179  38.114   7.397  1.00  0.00    -0.419 OA
ENDROOT
BRANCH   1  12
ATOM     12  O   UNL     1       3.196  38.875   6.218  1.00  0.00    -0.493 OA
ATOM     13  C   UNL     1       4.275  38.506   7.070  1.00  0.00     0.278 C 
ENDBRANCH   1  12
BRANCH   2  14
ATOM     14  O   UNL     1       1.988  36.662   5.292  1.00  0.00    -0.490 OA
ATOM     15  C   UNL     1       2.125  36.630   3.875  1.00  0.00     0.278 C 
ENDBRANCH   2  14
BRANCH   3  16
ATOM     16  O   UNL     1      -0.795  36.157   5.838  1.00  0.00    -0.490 OA
ATOM     17  C   UNL     1      -0.880  34.892   6.485  1.00  0.00     0.278 C 
ENDBRANCH   3  16
TORSDOF 3
ENDMDL
MODEL 6
REMARK VINA RESULT:    -3.899      5.974      9.165
REMARK INTER + INTRA:          -4.853
REMARK INTER:                  -4.548
REMARK INTRA:                  -0.305
REMARK UNBOUND:                -0.270
REMARK SMILES COc1cc2ccc(=O)oc2c(OC)c1OC
REMARK SMILES IDX 3 1 15 2 12 3 11 4 5 5 4 6 6 7 7 8 8 9 9 10 10 11 2 12 1 13
REMARK SMILES IDX 16 14 17 15 13 16 14 17
REMARK H PARENT
REMARK Flexibility Score: inf
ROOT
ATOM      1  C   UNL     1      -3.672  40.724   9.084  1.00  0.00     0.165 A 
ATOM      2  C   UNL     1      -4.620  41.101  10.048  1.00  0.00     0.207 A 
ATOM      3  C   UNL     1      -5.186  42.407  10.023  1.00  0.00     0.208 A 
ATOM      4  C   UNL     1      -4.777  43.314   9.012  1.00  0.00     0.184 A 
ATOM      5  C   UNL     1      -3.822  42.914   8.051  1.00  0.00     0.025 A 
ATOM      6  C   UNL     1      -3.276  41.631   8.090  1.00  0.00     0.062 A 
ATOM      7  C   UNL     1      -3.435  43.828   7.063  1.00  0.00     0.020 A 
ATOM      8  C   UNL     1      -3.993  45.102   7.048  1.00  0.00     0.094 A 
ATOM      9  C   UNL     1      -4.933  45.434   8.025  1.00  0.00     0.336 A 
ATOM     10  O   UNL     1      -5.453  46.580   8.033  1.00  0.00    -0.246 OA
ATOM     11  O   UNL     1      -5.282  44.546   8.952  1.00  0.00    -0.419 OA
ENDROOT
BRANCH   1  12
ATOM     12  O   UNL     1      -3.141  39.424   9.150  1.00  0.00    -0.493 OA
ATOM     13  C   UNL     1      -3.477  38.364   8.261  1.00  0.00     0.278 C 
ENDBRANCH   1  12
BRANCH   2  14
ATOM     14  O   UNL     1      -4.954  40.122  11.006  1.00  0.00    -0.490 OA
ATOM     15  C   UNL     1      -6.085  39.258  10.992  1.00  0.00     0.278 C 
ENDBRANCH   2  14
BRANCH   3  16
ATOM     16  O   UNL     1      -6.133  42.750  11.006  1.00  0.00    -0.490 OA
ATOM     17  C   UNL     1      -7.551  42.754  10.869  1.00  0.00     0.278 C 
ENDBRANCH   3  16
TORSDOF 3
ENDMDL
MODEL 7
REMARK VINA RESULT:    -3.862     10.695     13.256
REMARK INTER + INTRA:          -4.809
REMARK INTER:                  -4.508
REMARK INTRA:                  -0.301
REMARK UNBOUND:                -0.270
REMARK SMILES COc1cc2ccc(=O)oc2c(OC)c1OC
REMARK SMILES IDX 3 1 15 2 12 3 11 4 5 5 4 6 6 7 7 8 8 9 9 10 10 11 2 12 1 13
REMARK SMILES IDX 16 14 17 15 13 16 14 17
REMARK H PARENT
REMARK Flexibility Score: inf
ROOT
ATOM      1  C   UNL     1      -4.105  50.393  10.322  1.00  0.00     0.165 A 
ATOM      2  C   UNL     1      -5.200  50.682   9.491  1.00  0.00     0.207 A 
ATOM      3  C   UNL     1      -5.753  49.668   8.659  1.00  0.00     0.208 A 
ATOM      4  C   UNL     1      -5.181  48.369   8.685  1.00  0.00     0.184 A 
ATOM      5  C   UNL     1      -4.081  48.100   9.528  1.00  0.00     0.025 A 
ATOM      6  C   UNL     1      -3.549  49.105  10.337  1.00  0.00     0.062 A 
ATOM      7  C   UNL     1      -3.534  46.811   9.536  1.00  0.00     0.020 A 
ATOM      8  C   UNL     1      -4.083  45.828   8.718  1.00  0.00     0.094 A 
ATOM      9  C   UNL     1      -5.171  46.158   7.909  1.00  0.00     0.336 A 
ATOM     10  O   UNL     1      -5.685  45.286   7.161  1.00  0.00    -0.246 OA
ATOM     11  O   UNL     1      -5.668  47.391   7.922  1.00  0.00    -0.419 OA
ENDROOT
BRANCH   1  12
ATOM     12  O   UNL     1      -3.593  51.427  11.124  1.00  0.00    -0.493 OA
ATOM     13  C   UNL     1      -2.251  51.903  11.077  1.00  0.00     0.278 C 
ENDBRANCH   1  12
BRANCH   2  14
ATOM     14  O   UNL     1      -5.687  52.003   9.544  1.00  0.00    -0.490 OA
ATOM     15  C   UNL     1      -5.348  53.077   8.675  1.00  0.00     0.278 C 
ENDBRANCH   2  14
BRANCH   3  16
ATOM     16  O   UNL     1      -6.850  49.993   7.839  1.00  0.00    -0.490 OA
ATOM     17  C   UNL     1      -6.811  50.407   6.477  1.00  0.00     0.278 C 
ENDBRANCH   3  16
TORSDOF 3
ENDMDL
MODEL 8
REMARK VINA RESULT:    -3.828      4.893      7.757
REMARK INTER + INTRA:          -4.769
REMARK INTER:                  -4.470
REMARK INTRA:                  -0.299
REMARK UNBOUND:                -0.270
REMARK SMILES COc1cc2ccc(=O)oc2c(OC)c1OC
REMARK SMILES IDX 3 1 15 2 12 3 11 4 5 5 4 6 6 7 7 8 8 9 9 10 10 11 2 12 1 13
REMARK SMILES IDX 16 14 17 15 13 16 14 17
REMARK H PARENT
REMARK Flexibility Score: inf
ROOT
ATOM      1  C   UNL     1      -2.418  41.778   7.289  1.00  0.00     0.165 A 
ATOM      2  C   UNL     1      -2.535  40.728   8.215  1.00  0.00     0.207 A 
ATOM      3  C   UNL     1      -3.536  40.775   9.226  1.00  0.00     0.208 A 
ATOM      4  C   UNL     1      -4.407  41.894   9.280  1.00  0.00     0.184 A 
ATOM      5  C   UNL     1      -4.273  42.938   8.338  1.00  0.00     0.025 A 
ATOM      6  C   UNL     1      -3.286  42.877   7.354  1.00  0.00     0.062 A 
ATOM      7  C   UNL     1      -5.145  44.031   8.412  1.00  0.00     0.020 A 
ATOM      8  C   UNL     1      -6.119  44.066   9.404  1.00  0.00     0.094 A 
ATOM      9  C   UNL     1      -6.200  43.002  10.304  1.00  0.00     0.336 A 
ATOM     10  O   UNL     1      -7.073  43.010  11.210  1.00  0.00    -0.246 OA
ATOM     11  O   UNL     1      -5.358  41.977  10.209  1.00  0.00    -0.419 OA
ENDROOT
BRANCH   1  12
ATOM     12  O   UNL     1      -1.414  41.687   6.309  1.00  0.00    -0.493 OA
ATOM     13  C   UNL     1      -1.649  41.667   4.905  1.00  0.00     0.278 C 
ENDBRANCH   1  12
BRANCH   2  14
ATOM     14  O   UNL     1      -1.618  39.668   8.070  1.00  0.00    -0.490 OA
ATOM     15  C   UNL     1      -1.803  38.471   7.322  1.00  0.00     0.278 C 
ENDBRANCH   2  14
BRANCH   3  16
ATOM     16  O   UNL     1      -3.623  39.706  10.137  1.00  0.00    -0.490 OA
ATOM     17  C   UNL     1      -4.425  38.536  10.014  1.00  0.00     0.278 C 
ENDBRANCH   3  16
TORSDOF 3
ENDMDL
MODEL 9
REMARK VINA RESULT:    -3.724      2.276      5.382
REMARK INTER + INTRA:          -4.647
REMARK INTER:                  -4.364
REMARK INTRA:                  -0.282
REMARK UNBOUND:                -0.270
REMARK SMILES COc1cc2ccc(=O)oc2c(OC)c1OC
REMARK SMILES IDX 3 1 15 2 12 3 11 4 5 5 4 6 6 7 7 8 8 9 9 10 10 11 2 12 1 13
REMARK SMILES IDX 16 14 17 15 13 16 14 17
REMARK H PARENT
REMARK Flexibility Score: inf
ROOT
ATOM      1  C   UNL     1      -1.865  39.755   8.046  1.00  0.00     0.165 A 
ATOM      2  C   UNL     1      -2.271  38.490   7.593  1.00  0.00     0.207 A 
ATOM      3  C   UNL     1      -1.358  37.655   6.888  1.00  0.00     0.208 A 
ATOM      4  C   UNL     1      -0.039  38.123   6.654  1.00  0.00     0.184 A 
ATOM      5  C   UNL     1       0.349  39.399   7.118  1.00  0.00     0.025 A 
ATOM      6  C   UNL     1      -0.558  40.205   7.807  1.00  0.00     0.062 A 
ATOM      7  C   UNL     1       1.656  39.838   6.875  1.00  0.00     0.020 A 
ATOM      8  C   UNL     1       2.540  39.014   6.184  1.00  0.00     0.094 A 
ATOM      9  C   UNL     1       2.094  37.764   5.753  1.00  0.00     0.336 A 
ATOM     10  O   UNL     1       2.874  37.001   5.127  1.00  0.00    -0.246 OA
ATOM     11  O   UNL     1       0.847  37.374   5.999  1.00  0.00    -0.419 OA
ENDROOT
BRANCH   1  12
ATOM     12  O   UNL     1      -2.802  40.543   8.736  1.00  0.00    -0.493 OA
ATOM     13  C   UNL     1      -3.469  41.676   8.189  1.00  0.00     0.278 C 
ENDBRANCH   1  12
BRANCH   2  14
ATOM     14  O   UNL     1      -3.602  38.126   7.880  1.00  0.00    -0.490 OA
ATOM     15  C   UNL     1      -4.058  37.329   8.967  1.00  0.00     0.278 C 
ENDBRANCH   2  14
BRANCH   3  16
ATOM     16  O   UNL     1      -1.800  36.393   6.449  1.00  0.00    -0.490 OA
ATOM     17  C   UNL     1      -1.620  35.143   7.107  1.00  0.00     0.278 C 
ENDBRANCH   3  16
TORSDOF 3
ENDMDL
