MODEL 1
REMARK VINA RESULT:    -2.600      0.000      0.000
REMARK INTER + INTRA:          -2.828
REMARK INTER:                  -2.828
REMARK INTRA:                   0.000
REMARK UNBOUND:                 0.000
REMARK SMILES Oc1cccc(O)c1O
REMARK SMILES IDX 4 1 5 2 6 3 8 4 2 5 3 6 7 7 1 9 9 11
REMARK H PARENT 7 8 1 10 9 12
REMARK Flexibility Score: inf
ROOT
ATOM      1  C   UNL     1     166.226 166.315 148.817  1.00  0.00     0.008 A 
ATOM      2  C   UNL     1     165.899 167.664 148.965  1.00  0.00     0.050 A 
ATOM      3  C   UNL     1     166.718 168.660 148.418  1.00  0.00     0.161 A 
ATOM      4  C   UNL     1     167.889 168.290 147.710  1.00  0.00     0.200 A 
ATOM      5  C   UNL     1     168.208 166.926 147.567  1.00  0.00     0.161 A 
ATOM      6  C   UNL     1     167.376 165.948 148.121  1.00  0.00     0.050 A 
ENDROOT
BRANCH   3   7
ATOM      7  O   UNL     1     166.334 169.989 148.603  1.00  0.00    -0.504 OA
ATOM      8  H   UNL     1     166.128 170.629 147.850  1.00  0.00     0.293 HD
ENDBRANCH   3   7
BRANCH   5   9
ATOM      9  O   UNL     1     169.351 166.520 146.876  1.00  0.00    -0.504 OA
ATOM     10  H   UNL     1     169.341 166.326 145.883  1.00  0.00     0.293 HD
ENDBRANCH   5   9
BRANCH   4  11
ATOM     11  O   UNL     1     168.746 169.236 147.142  1.00  0.00    -0.502 OA
ATOM     12  H   UNL     1     169.754 169.186 147.182  1.00  0.00     0.293 HD
ENDBRANCH   4  11
TORSDOF 3
ENDMDL
MODEL 2
REMARK VINA RESULT:    -2.581     13.901     15.268
REMARK INTER + INTRA:          -2.807
REMARK INTER:                  -2.807
REMARK INTRA:                   0.000
REMARK UNBOUND:                 0.000
REMARK SMILES Oc1cccc(O)c1O
REMARK SMILES IDX 4 1 5 2 6 3 8 4 2 5 3 6 7 7 1 9 9 11
REMARK H PARENT 7 8 1 10 9 12
REMARK Flexibility Score: inf
ROOT
ATOM      1  C   UNL     1     166.211 153.866 148.836  1.00  0.00     0.008 A 
ATOM      2  C   UNL     1     167.563 154.176 148.993  1.00  0.00     0.050 A 
ATOM      3  C   UNL     1     168.553 153.350 148.447  1.00  0.00     0.161 A 
ATOM      4  C   UNL     1     168.174 152.187 147.729  1.00  0.00     0.200 A 
ATOM      5  C   UNL     1     166.807 151.884 147.577  1.00  0.00     0.161 A 
ATOM      6  C   UNL     1     165.835 152.725 148.131  1.00  0.00     0.050 A 
ENDROOT
BRANCH   3   7
ATOM      7  O   UNL     1     169.885 153.718 148.642  1.00  0.00    -0.504 OA
ATOM      8  H   UNL     1     170.339 154.479 148.158  1.00  0.00     0.293 HD
ENDBRANCH   3   7
BRANCH   5   9
ATOM      9  O   UNL     1     166.392 150.751 146.877  1.00  0.00    -0.504 OA
ATOM     10  H   UNL     1     166.721 150.543 145.942  1.00  0.00     0.293 HD
ENDBRANCH   5   9
BRANCH   4  11
ATOM     11  O   UNL     1     169.113 151.324 147.161  1.00  0.00    -0.502 OA
ATOM     12  H   UNL     1     168.931 150.356 146.936  1.00  0.00     0.293 HD
ENDBRANCH   4  11
TORSDOF 3
ENDMDL
MODEL 3
REMARK VINA RESULT:    -2.566     20.527     21.682
REMARK INTER + INTRA:          -2.790
REMARK INTER:                  -2.790
REMARK INTRA:                   0.000
REMARK UNBOUND:                 0.000
REMARK SMILES Oc1cccc(O)c1O
REMARK SMILES IDX 4 1 5 2 6 3 8 4 2 5 3 6 7 7 1 9 9 11
REMARK H PARENT 7 8 1 10 9 12
REMARK Flexibility Score: inf
ROOT
ATOM      1  C   UNL     1     153.843 153.652 148.887  1.00  0.00     0.008 A 
ATOM      2  C   UNL     1     154.123 152.297 149.069  1.00  0.00     0.050 A 
ATOM      3  C   UNL     1     153.287 151.316 148.523  1.00  0.00     0.161 A 
ATOM      4  C   UNL     1     152.145 151.707 147.779  1.00  0.00     0.200 A 
ATOM      5  C   UNL     1     151.872 153.077 147.601  1.00  0.00     0.161 A 
ATOM      6  C   UNL     1     152.722 154.040 148.156  1.00  0.00     0.050 A 
ENDROOT
BRANCH   3   7
ATOM      7  O   UNL     1     153.625 149.980 148.744  1.00  0.00    -0.504 OA
ATOM      8  H   UNL     1     153.486 149.242 148.069  1.00  0.00     0.293 HD
ENDBRANCH   3   7
BRANCH   5   9
ATOM      9  O   UNL     1     150.760 153.503 146.875  1.00  0.00    -0.504 OA
ATOM     10  H   UNL     1     150.289 152.905 146.208  1.00  0.00     0.293 HD
ENDBRANCH   5   9
BRANCH   4  11
ATOM     11  O   UNL     1     151.273 150.776 147.210  1.00  0.00    -0.502 OA
ATOM     12  H   UNL     1     150.290 150.944 147.049  1.00  0.00     0.293 HD
ENDBRANCH   4  11
TORSDOF 3
ENDMDL
MODEL 4
REMARK VINA RESULT:    -2.563      0.121      2.827
REMARK INTER + INTRA:          -2.788
REMARK INTER:                  -2.788
REMARK INTRA:                   0.000
REMARK UNBOUND:                 0.000
REMARK SMILES Oc1cccc(O)c1O
REMARK SMILES IDX 4 1 5 2 6 3 8 4 2 5 3 6 7 7 1 9 9 11
REMARK H PARENT 7 8 1 10 9 12
REMARK Flexibility Score: inf
ROOT
ATOM      1  C   UNL     1     166.166 166.228 148.652  1.00  0.00     0.008 A 
ATOM      2  C   UNL     1     167.349 165.886 147.997  1.00  0.00     0.050 A 
ATOM      3  C   UNL     1     168.214 166.880 147.522  1.00  0.00     0.161 A 
ATOM      4  C   UNL     1     167.880 168.245 147.711  1.00  0.00     0.200 A 
ATOM      5  C   UNL     1     166.683 168.578 148.374  1.00  0.00     0.161 A 
ATOM      6  C   UNL     1     165.834 167.569 148.840  1.00  0.00     0.050 A 
ENDROOT
BRANCH   3   7
ATOM      7  O   UNL     1     169.381 166.470 146.875  1.00  0.00    -0.504 OA
ATOM      8  H   UNL     1     169.477 166.398 145.872  1.00  0.00     0.293 HD
ENDBRANCH   3   7
BRANCH   5   9
ATOM      9  O   UNL     1     166.318 169.909 148.581  1.00  0.00    -0.504 OA
ATOM     10  H   UNL     1     166.587 170.648 147.943  1.00  0.00     0.293 HD
ENDBRANCH   5   9
BRANCH   4  11
ATOM     11  O   UNL     1     168.701 169.282 147.261  1.00  0.00    -0.502 OA
ATOM     12  H   UNL     1     169.078 169.342 146.326  1.00  0.00     0.293 HD
ENDBRANCH   4  11
TORSDOF 3
ENDMDL
MODEL 5
REMARK VINA RESULT:    -2.504     13.903     15.163
REMARK INTER + INTRA:          -2.724
REMARK INTER:                  -2.724
REMARK INTRA:                   0.000
REMARK UNBOUND:                 0.000
REMARK SMILES Oc1cccc(O)c1O
REMARK SMILES IDX 4 1 5 2 6 3 8 4 2 5 3 6 7 7 1 9 9 11
REMARK H PARENT 7 8 1 10 9 12
REMARK Flexibility Score: inf
ROOT
ATOM      1  C   UNL     1     166.278 154.015 149.031  1.00  0.00     0.008 A 
ATOM      2  C   UNL     1     165.795 152.946 148.276  1.00  0.00     0.050 A 
ATOM      3  C   UNL     1     166.678 152.083 147.615  1.00  0.00     0.161 A 
ATOM      4  C   UNL     1     168.076 152.302 147.716  1.00  0.00     0.200 A 
ATOM      5  C   UNL     1     168.552 153.385 148.481  1.00  0.00     0.161 A 
ATOM      6  C   UNL     1     167.651 154.234 149.133  1.00  0.00     0.050 A 
ENDROOT
BRANCH   3   7
ATOM      7  O   UNL     1     166.129 151.034 146.876  1.00  0.00    -0.504 OA
ATOM      8  H   UNL     1     165.139 150.850 146.804  1.00  0.00     0.293 HD
ENDBRANCH   3   7
BRANCH   5   9
ATOM      9  O   UNL     1     169.918 153.635 148.607  1.00  0.00    -0.504 OA
ATOM     10  H   UNL     1     170.600 152.889 148.666  1.00  0.00     0.293 HD
ENDBRANCH   5   9
BRANCH   4  11
ATOM     11  O   UNL     1     169.007 151.478 147.081  1.00  0.00    -0.502 OA
ATOM     12  H   UNL     1     168.832 150.984 146.217  1.00  0.00     0.293 HD
ENDBRANCH   4  11
TORSDOF 3
ENDMDL
MODEL 6
REMARK VINA RESULT:    -2.462     20.365     21.374
REMARK INTER + INTRA:          -2.678
REMARK INTER:                  -2.678
REMARK INTRA:                   0.000
REMARK UNBOUND:                 0.000
REMARK SMILES Oc1cccc(O)c1O
REMARK SMILES IDX 4 1 5 2 6 3 8 4 2 5 3 6 7 7 1 9 9 11
REMARK H PARENT 7 8 1 10 9 12
REMARK Flexibility Score: inf
ROOT
ATOM      1  C   UNL     1     153.767 153.893 148.909  1.00  0.00     0.008 A 
ATOM      2  C   UNL     1     152.637 154.300 148.198  1.00  0.00     0.050 A 
ATOM      3  C   UNL     1     151.812 153.358 147.570  1.00  0.00     0.161 A 
ATOM      4  C   UNL     1     152.132 151.980 147.660  1.00  0.00     0.200 A 
ATOM      5  C   UNL     1     153.275 151.581 148.380  1.00  0.00     0.161 A 
ATOM      6  C   UNL     1     154.084 152.539 148.999  1.00  0.00     0.050 A 
ENDROOT
BRANCH   3   7
ATOM      7  O   UNL     1     150.699 153.833 146.875  1.00  0.00    -0.504 OA
ATOM      8  H   UNL     1     150.742 154.264 145.963  1.00  0.00     0.293 HD
ENDBRANCH   3   7
BRANCH   5   9
ATOM      9  O   UNL     1     153.623 150.235 148.493  1.00  0.00    -0.504 OA
ATOM     10  H   UNL     1     154.571 149.937 148.689  1.00  0.00     0.293 HD
ENDBRANCH   5   9
BRANCH   4  11
ATOM     11  O   UNL     1     151.349 150.993 147.056  1.00  0.00    -0.502 OA
ATOM     12  H   UNL     1     150.347 150.920 147.162  1.00  0.00     0.293 HD
ENDBRANCH   4  11
TORSDOF 3
ENDMDL
MODEL 7
REMARK VINA RESULT:    -2.427     10.700     12.523
REMARK INTER + INTRA:          -2.640
REMARK INTER:                  -2.640
REMARK INTRA:                   0.000
REMARK UNBOUND:                 0.000
REMARK SMILES Oc1cccc(O)c1O
REMARK SMILES IDX 4 1 5 2 6 3 8 4 2 5 3 6 7 7 1 9 9 11
REMARK H PARENT 7 8 1 10 9 12
REMARK Flexibility Score: inf
ROOT
ATOM      1  C   UNL     1     170.111 156.743 147.931  1.00  0.00     0.008 A 
ATOM      2  C   UNL     1     170.125 155.453 148.462  1.00  0.00     0.050 A 
ATOM      3  C   UNL     1     168.928 154.764 148.694  1.00  0.00     0.161 A 
ATOM      4  C   UNL     1     167.692 155.387 148.384  1.00  0.00     0.200 A 
ATOM      5  C   UNL     1     167.691 156.690 147.848  1.00  0.00     0.161 A 
ATOM      6  C   UNL     1     168.898 157.358 147.625  1.00  0.00     0.050 A 
ENDROOT
BRANCH   3   7
ATOM      7  O   UNL     1     169.013 153.476 149.227  1.00  0.00    -0.504 OA
ATOM      8  H   UNL     1     168.275 152.790 149.169  1.00  0.00     0.293 HD
ENDBRANCH   3   7
BRANCH   5   9
ATOM      9  O   UNL     1     166.497 157.337 147.530  1.00  0.00    -0.504 OA
ATOM     10  H   UNL     1     166.443 158.341 147.409  1.00  0.00     0.293 HD
ENDBRANCH   5   9
BRANCH   4  11
ATOM     11  O   UNL     1     166.466 154.752 148.592  1.00  0.00    -0.502 OA
ATOM     12  H   UNL     1     165.755 154.643 147.882  1.00  0.00     0.293 HD
ENDBRANCH   4  11
TORSDOF 3
ENDMDL
MODEL 8
REMARK VINA RESULT:    -2.414     14.306     15.837
REMARK INTER + INTRA:          -2.626
REMARK INTER:                  -2.626
REMARK INTRA:                   0.000
REMARK UNBOUND:                 0.000
REMARK SMILES Oc1cccc(O)c1O
REMARK SMILES IDX 4 1 5 2 6 3 8 4 2 5 3 6 7 7 1 9 9 11
REMARK H PARENT 7 8 1 10 9 12
REMARK Flexibility Score: inf
ROOT
ATOM      1  C   UNL     1     165.779 151.174 147.627  1.00  0.00     0.008 A 
ATOM      2  C   UNL     1     166.987 150.587 147.249  1.00  0.00     0.050 A 
ATOM      3  C   UNL     1     168.199 151.264 147.436  1.00  0.00     0.161 A 
ATOM      4  C   UNL     1     168.193 152.558 148.017  1.00  0.00     0.200 A 
ATOM      5  C   UNL     1     166.967 153.140 148.396  1.00  0.00     0.161 A 
ATOM      6  C   UNL     1     165.769 152.445 148.199  1.00  0.00     0.050 A 
ENDROOT
BRANCH   3   7
ATOM      7  O   UNL     1     169.371 150.621 147.035  1.00  0.00    -0.504 OA
ATOM      8  H   UNL     1     169.585 149.655 147.238  1.00  0.00     0.293 HD
ENDBRANCH   3   7
BRANCH   5   9
ATOM      9  O   UNL     1     166.918 154.410 148.971  1.00  0.00    -0.504 OA
ATOM     10  H   UNL     1     167.659 154.763 149.564  1.00  0.00     0.293 HD
ENDBRANCH   5   9
BRANCH   4  11
ATOM     11  O   UNL     1     169.367 153.283 148.230  1.00  0.00    -0.502 OA
ATOM     12  H   UNL     1     169.456 154.277 148.073  1.00  0.00     0.293 HD
ENDBRANCH   4  11
TORSDOF 3
ENDMDL
MODEL 9
REMARK VINA RESULT:    -2.413     10.678     12.257
REMARK INTER + INTRA:          -2.625
REMARK INTER:                  -2.625
REMARK INTRA:                   0.000
REMARK UNBOUND:                 0.000
REMARK SMILES Oc1cccc(O)c1O
REMARK SMILES IDX 4 1 5 2 6 3 8 4 2 5 3 6 7 7 1 9 9 11
REMARK H PARENT 7 8 1 10 9 12
REMARK Flexibility Score: inf
ROOT
ATOM      1  C   UNL     1     170.080 156.775 147.919  1.00  0.00     0.008 A 
ATOM      2  C   UNL     1     168.857 157.367 147.601  1.00  0.00     0.050 A 
ATOM      3  C   UNL     1     167.652 156.705 147.868  1.00  0.00     0.161 A 
ATOM      4  C   UNL     1     167.680 155.420 148.468  1.00  0.00     0.200 A 
ATOM      5  C   UNL     1     168.920 154.832 148.785  1.00  0.00     0.161 A 
ATOM      6  C   UNL     1     170.111 155.513 148.509  1.00  0.00     0.050 A 
ENDROOT
BRANCH   3   7
ATOM      7  O   UNL     1     166.465 157.353 147.524  1.00  0.00    -0.504 OA
ATOM      8  H   UNL     1     165.726 156.931 146.980  1.00  0.00     0.293 HD
ENDBRANCH   3   7
BRANCH   5   9
ATOM      9  O   UNL     1     168.991 153.571 149.377  1.00  0.00    -0.504 OA
ATOM     10  H   UNL     1     168.370 153.290 150.126  1.00  0.00     0.293 HD
ENDBRANCH   5   9
BRANCH   4  11
ATOM     11  O   UNL     1     166.514 154.709 148.759  1.00  0.00    -0.502 OA
ATOM     12  H   UNL     1     165.670 154.750 148.205  1.00  0.00     0.293 HD
ENDBRANCH   4  11
TORSDOF 3
ENDMDL
