MODEL 1
REMARK VINA RESULT:    -4.349      0.000      0.000
REMARK INTER + INTRA:          -4.349
REMARK INTER:                  -4.349
REMARK INTRA:                   0.000
REMARK UNBOUND:                 0.000
REMARK SMILES C=C1[C@H]2CC[C@H](C2)C1(C)C
REMARK SMILES IDX 9 1 8 2 6 3 5 4 4 5 3 6 7 7 2 8 1 9 10 10
REMARK H PARENT
REMARK Flexibility Score: inf
ROOT
ATOM      1  C   UNL     1      29.604   9.763  33.426  1.00  0.00     0.016 C 
ATOM      2  C   UNL     1      31.032   9.967  33.981  1.00  0.00    -0.012 C 
ATOM      3  C   UNL     1      31.598  11.415  33.768  1.00  0.00    -0.001 C 
ATOM      4  C   UNL     1      31.400  11.882  32.306  1.00  0.00     0.005 C 
ATOM      5  C   UNL     1      32.358  10.961  31.519  1.00  0.00     0.008 C 
ATOM      6  C   UNL     1      33.061  10.163  32.631  1.00  0.00     0.015 C 
ATOM      7  C   UNL     1      33.104  11.182  33.749  1.00  0.00     0.012 C 
ATOM      8  C   UNL     1      32.058   9.190  33.190  1.00  0.00    -0.068 C 
ATOM      9  C   UNL     1      32.058   7.870  32.969  1.00  0.00     0.008 C 
ATOM     10  C   UNL     1      31.052   9.571  35.475  1.00  0.00     0.016 C 
ENDROOT
TORSDOF 0
ENDMDL
MODEL 2
REMARK VINA RESULT:    -4.348      1.251      3.219
REMARK INTER + INTRA:          -4.348
REMARK INTER:                  -4.348
REMARK INTRA:                   0.000
REMARK UNBOUND:                 0.000
REMARK SMILES C=C1[C@H]2CC[C@H](C2)C1(C)C
REMARK SMILES IDX 9 1 8 2 6 3 5 4 4 5 3 6 7 7 2 8 1 9 10 10
REMARK H PARENT
REMARK Flexibility Score: inf
ROOT
ATOM      1  C   UNL     1      30.076  11.521  31.154  1.00  0.00     0.016 C 
ATOM      2  C   UNL     1      31.313  10.596  31.210  1.00  0.00    -0.012 C 
ATOM      3  C   UNL     1      31.284   9.566  32.394  1.00  0.00    -0.001 C 
ATOM      4  C   UNL     1      30.937  10.263  33.732  1.00  0.00     0.005 C 
ATOM      5  C   UNL     1      32.182  11.138  33.996  1.00  0.00     0.008 C 
ATOM      6  C   UNL     1      33.125  10.753  32.843  1.00  0.00     0.015 C 
ATOM      7  C   UNL     1      32.766   9.298  32.634  1.00  0.00     0.012 C 
ATOM      8  C   UNL     1      32.565  11.354  31.582  1.00  0.00    -0.068 C 
ATOM      9  C   UNL     1      33.071  12.414  30.942  1.00  0.00     0.008 C 
ATOM     10  C   UNL     1      31.467   9.881  29.849  1.00  0.00     0.016 C 
ENDROOT
TORSDOF 0
ENDMDL
MODEL 3
REMARK VINA RESULT:    -4.283      1.007      3.491
REMARK INTER + INTRA:          -4.283
REMARK INTER:                  -4.283
REMARK INTRA:                   0.000
REMARK UNBOUND:                 0.000
REMARK SMILES C=C1[C@H]2CC[C@H](C2)C1(C)C
REMARK SMILES IDX 9 1 8 2 6 3 5 4 4 5 3 6 7 7 2 8 1 9 10 10
REMARK H PARENT
REMARK Flexibility Score: inf
ROOT
ATOM      1  C   UNL     1      31.986  10.448  30.094  1.00  0.00     0.016 C 
ATOM      2  C   UNL     1      32.336  11.310  31.328  1.00  0.00    -0.012 C 
ATOM      3  C   UNL     1      33.123  10.536  32.444  1.00  0.00    -0.001 C 
ATOM      4  C   UNL     1      32.442   9.185  32.771  1.00  0.00     0.005 C 
ATOM      5  C   UNL     1      31.122   9.620  33.444  1.00  0.00     0.008 C 
ATOM      6  C   UNL     1      31.260  11.151  33.517  1.00  0.00     0.015 C 
ATOM      7  C   UNL     1      32.752  11.309  33.705  1.00  0.00     0.012 C 
ATOM      8  C   UNL     1      31.104  11.685  32.119  1.00  0.00    -0.068 C 
ATOM      9  C   UNL     1      30.028  12.330  31.655  1.00  0.00     0.008 C 
ATOM     10  C   UNL     1      33.111  12.563  30.862  1.00  0.00     0.016 C 
ENDROOT
TORSDOF 0
ENDMDL
MODEL 4
REMARK VINA RESULT:    -4.138      1.127      1.939
REMARK INTER + INTRA:          -4.138
REMARK INTER:                  -4.138
REMARK INTRA:                   0.000
REMARK UNBOUND:                 0.000
REMARK SMILES C=C1[C@H]2CC[C@H](C2)C1(C)C
REMARK SMILES IDX 9 1 8 2 6 3 5 4 4 5 3 6 7 7 2 8 1 9 10 10
REMARK H PARENT
REMARK Flexibility Score: inf
ROOT
ATOM      1  C   UNL     1      29.897   8.685  33.138  1.00  0.00     0.016 C 
ATOM      2  C   UNL     1      31.385   8.974  32.841  1.00  0.00    -0.012 C 
ATOM      3  C   UNL     1      31.996  10.129  33.709  1.00  0.00    -0.001 C 
ATOM      4  C   UNL     1      31.081  11.378  33.699  1.00  0.00     0.005 C 
ATOM      5  C   UNL     1      31.192  11.874  32.241  1.00  0.00     0.008 C 
ATOM      6  C   UNL     1      32.235  10.921  31.632  1.00  0.00     0.015 C 
ATOM      7  C   UNL     1      33.125  10.647  32.824  1.00  0.00     0.012 C 
ATOM      8  C   UNL     1      31.577   9.577  31.469  1.00  0.00    -0.068 C 
ATOM      9  C   UNL     1      31.184   9.046  30.306  1.00  0.00     0.008 C 
ATOM     10  C   UNL     1      32.192   7.666  33.001  1.00  0.00     0.016 C 
ENDROOT
TORSDOF 0
ENDMDL
MODEL 5
REMARK VINA RESULT:    -4.041      1.308      3.403
REMARK INTER + INTRA:          -4.041
REMARK INTER:                  -4.041
REMARK INTRA:                   0.000
REMARK UNBOUND:                 0.000
REMARK SMILES C=C1[C@H]2CC[C@H](C2)C1(C)C
REMARK SMILES IDX 9 1 8 2 6 3 5 4 4 5 3 6 7 7 2 8 1 9 10 10
REMARK H PARENT
REMARK Flexibility Score: inf
ROOT
ATOM      1  C   UNL     1      30.280  10.408  32.456  1.00  0.00     0.016 C 
ATOM      2  C   UNL     1      31.481   9.529  32.874  1.00  0.00    -0.012 C 
ATOM      3  C   UNL     1      31.541   8.143  32.141  1.00  0.00    -0.001 C 
ATOM      4  C   UNL     1      30.170   7.426  32.189  1.00  0.00     0.005 C 
ATOM      5  C   UNL     1      30.014   7.080  33.686  1.00  0.00     0.008 C 
ATOM      6  C   UNL     1      31.355   7.538  34.286  1.00  0.00     0.015 C 
ATOM      7  C   UNL     1      32.304   7.276  33.138  1.00  0.00     0.012 C 
ATOM      8  C   UNL     1      31.353   9.043  34.298  1.00  0.00    -0.068 C 
ATOM      9  C   UNL     1      31.205   9.806  35.387  1.00  0.00     0.008 C 
ATOM     10  C   UNL     1      32.786  10.330  32.665  1.00  0.00     0.016 C 
ENDROOT
TORSDOF 0
ENDMDL
MODEL 6
REMARK VINA RESULT:    -3.976      1.730      3.394
REMARK INTER + INTRA:          -3.976
REMARK INTER:                  -3.976
REMARK INTRA:                   0.000
REMARK UNBOUND:                 0.000
REMARK SMILES C=C1[C@H]2CC[C@H](C2)C1(C)C
REMARK SMILES IDX 9 1 8 2 6 3 5 4 4 5 3 6 7 7 2 8 1 9 10 10
REMARK H PARENT
REMARK Flexibility Score: inf
ROOT
ATOM      1  C   UNL     1      32.718  11.423  29.629  1.00  0.00     0.016 C 
ATOM      2  C   UNL     1      31.508  11.181  30.560  1.00  0.00    -0.012 C 
ATOM      3  C   UNL     1      31.751  11.618  32.047  1.00  0.00    -0.001 C 
ATOM      4  C   UNL     1      33.096  11.065  32.579  1.00  0.00     0.005 C 
ATOM      5  C   UNL     1      32.838   9.544  32.648  1.00  0.00     0.008 C 
ATOM      6  C   UNL     1      31.355   9.428  32.256  1.00  0.00     0.015 C 
ATOM      7  C   UNL     1      30.794  10.715  32.818  1.00  0.00     0.012 C 
ATOM      8  C   UNL     1      31.255   9.709  30.781  1.00  0.00    -0.068 C 
ATOM      9  C   UNL     1      31.034   8.790  29.834  1.00  0.00     0.008 C 
ATOM     10  C   UNL     1      30.268  11.885  29.964  1.00  0.00     0.016 C 
ENDROOT
TORSDOF 0
ENDMDL
MODEL 7
REMARK VINA RESULT:    -3.974      2.076      3.820
REMARK INTER + INTRA:          -3.974
REMARK INTER:                  -3.974
REMARK INTRA:                   0.000
REMARK UNBOUND:                 0.000
REMARK SMILES C=C1[C@H]2CC[C@H](C2)C1(C)C
REMARK SMILES IDX 9 1 8 2 6 3 5 4 4 5 3 6 7 7 2 8 1 9 10 10
REMARK H PARENT
REMARK Flexibility Score: inf
ROOT
ATOM      1  C   UNL     1      31.290   9.239  30.777  1.00  0.00     0.016 C 
ATOM      2  C   UNL     1      31.716  10.668  30.371  1.00  0.00    -0.012 C 
ATOM      3  C   UNL     1      33.043  11.155  31.052  1.00  0.00    -0.001 C 
ATOM      4  C   UNL     1      33.013  10.900  32.578  1.00  0.00     0.005 C 
ATOM      5  C   UNL     1      31.929  11.883  33.070  1.00  0.00     0.008 C 
ATOM      6  C   UNL     1      31.555  12.651  31.791  1.00  0.00     0.015 C 
ATOM      7  C   UNL     1      32.876  12.671  31.055  1.00  0.00     0.012 C 
ATOM      8  C   UNL     1      30.770  11.713  30.915  1.00  0.00    -0.068 C 
ATOM      9  C   UNL     1      29.449  11.773  30.708  1.00  0.00     0.008 C 
ATOM     10  C   UNL     1      31.816  10.743  28.831  1.00  0.00     0.016 C 
ENDROOT
TORSDOF 0
ENDMDL
MODEL 8
REMARK VINA RESULT:    -3.898      1.127      2.431
REMARK INTER + INTRA:          -3.898
REMARK INTER:                  -3.898
REMARK INTRA:                   0.000
REMARK UNBOUND:                 0.000
REMARK SMILES C=C1[C@H]2CC[C@H](C2)C1(C)C
REMARK SMILES IDX 9 1 8 2 6 3 5 4 4 5 3 6 7 7 2 8 1 9 10 10
REMARK H PARENT
REMARK Flexibility Score: inf
ROOT
ATOM      1  C   UNL     1      31.259   7.809  34.504  1.00  0.00     0.016 C 
ATOM      2  C   UNL     1      30.677   9.210  34.210  1.00  0.00    -0.012 C 
ATOM      3  C   UNL     1      30.897   9.695  32.734  1.00  0.00    -0.001 C 
ATOM      4  C   UNL     1      32.369   9.502  32.296  1.00  0.00     0.005 C 
ATOM      5  C   UNL     1      33.124  10.528  33.168  1.00  0.00     0.008 C 
ATOM      6  C   UNL     1      31.987  11.252  33.910  1.00  0.00     0.015 C 
ATOM      7  C   UNL     1      30.882  11.213  32.879  1.00  0.00     0.012 C 
ATOM      8  C   UNL     1      31.437  10.297  34.935  1.00  0.00    -0.068 C 
ATOM      9  C   UNL     1      31.641  10.378  36.254  1.00  0.00     0.008 C 
ATOM     10  C   UNL     1      29.179   9.221  34.587  1.00  0.00     0.016 C 
ENDROOT
TORSDOF 0
ENDMDL
MODEL 9
REMARK VINA RESULT:    -3.869      2.672      4.227
REMARK INTER + INTRA:          -3.869
REMARK INTER:                  -3.869
REMARK INTRA:                   0.000
REMARK UNBOUND:                 0.000
REMARK SMILES C=C1[C@H]2CC[C@H](C2)C1(C)C
REMARK SMILES IDX 9 1 8 2 6 3 5 4 4 5 3 6 7 7 2 8 1 9 10 10
REMARK H PARENT
REMARK Flexibility Score: inf
ROOT
ATOM      1  C   UNL     1      30.626  12.350  31.297  1.00  0.00     0.016 C 
ATOM      2  C   UNL     1      31.775  11.775  30.439  1.00  0.00    -0.012 C 
ATOM      3  C   UNL     1      31.729  12.218  28.934  1.00  0.00    -0.001 C 
ATOM      4  C   UNL     1      30.315  12.018  28.336  1.00  0.00     0.005 C 
ATOM      5  C   UNL     1      30.169  10.481  28.304  1.00  0.00     0.008 C 
ATOM      6  C   UNL     1      31.549   9.995  28.779  1.00  0.00     0.015 C 
ATOM      7  C   UNL     1      32.455  11.075  28.231  1.00  0.00     0.012 C 
ATOM      8  C   UNL     1      31.646  10.282  30.253  1.00  0.00    -0.068 C 
ATOM      9  C   UNL     1      31.571   9.364  31.225  1.00  0.00     0.008 C 
ATOM     10  C   UNL     1      33.125  12.149  31.092  1.00  0.00     0.016 C 
ENDROOT
TORSDOF 0
ENDMDL
