MODEL 1
REMARK VINA RESULT:    -4.630      0.000      0.000
REMARK INTER + INTRA:         -15.640
REMARK INTER:                 -12.208
REMARK INTRA:                  -3.432
REMARK UNBOUND:                -3.432
REMARK SMILES CCCCCCCCCCCCCCCCCCCCCCCCCCCCCC(=O)[O-]
REMARK SMILES IDX 16 1 17 2 18 3 19 4 20 5 21 6 22 7 23 8 24 9 25 10 26 11
REMARK SMILES IDX 27 12 28 13 29 14 30 15 31 16 32 17 15 18 14 19 13 20 12 21
REMARK SMILES IDX 11 22 10 23 9 24 8 25 7 26 6 27 5 28 4 29 3 30 2 31 1 32
REMARK H PARENT
REMARK Flexibility Score: inf
ROOT
ATOM      1  C   UNL     1      28.904   6.136  40.962  1.00  0.00     0.000 C 
ENDROOT
BRANCH   1   2
ATOM      2  C   UNL     1      30.345   6.394  40.499  1.00  0.00     0.000 C 
BRANCH   2   3
ATOM      3  C   UNL     1      31.153   5.088  40.457  1.00  0.00     0.000 C 
BRANCH   3   4
ATOM      4  C   UNL     1      32.405   5.138  41.351  1.00  0.00     0.000 C 
BRANCH   4   5
ATOM      5  C   UNL     1      32.074   5.516  42.806  1.00  0.00     0.000 C 
BRANCH   5   6
ATOM      6  C   UNL     1      33.256   6.179  43.536  1.00  0.00     0.000 C 
BRANCH   6   7
ATOM      7  C   UNL     1      33.163   7.710  43.670  1.00  0.00     0.000 C 
BRANCH   7   8
ATOM      8  C   UNL     1      33.979   8.257  44.854  1.00  0.00     0.000 C 
BRANCH   8   9
ATOM      9  C   UNL     1      33.178   8.296  46.167  1.00  0.00     0.000 C 
BRANCH   9  10
ATOM     10  C   UNL     1      31.649   8.393  45.996  1.00  0.00     0.000 C 
BRANCH  10  11
ATOM     11  C   UNL     1      30.858   7.379  46.853  1.00  0.00     0.000 C 
BRANCH  11  12
ATOM     12  C   UNL     1      31.739   6.269  47.453  1.00  0.00     0.000 C 
BRANCH  12  13
ATOM     13  C   UNL     1      30.922   5.241  48.251  1.00  0.00     0.006 C 
BRANCH  13  14
ATOM     14  C   UNL     1      31.362   5.212  49.718  1.00  0.00     0.053 C 
BRANCH  14  15
ATOM     15  C   UNL     1      32.160   3.981  50.010  1.00  0.00     0.041 C 
ATOM     16  O   UNL     1      32.612   3.779  51.169  1.00  0.00    -0.550 OA
ATOM     17  O   UNL     1      32.416   3.060  49.002  1.00  0.00    -0.550 OA
ENDBRANCH  14  15
ENDBRANCH  13  14
ENDBRANCH  12  13
ENDBRANCH  11  12
ENDBRANCH  10  11
ENDBRANCH   9  10
ENDBRANCH   8   9
ENDBRANCH   7   8
ENDBRANCH   6   7
ENDBRANCH   5   6
ENDBRANCH   4   5
ENDBRANCH   3   4
ENDBRANCH   2   3
ENDBRANCH   1   2
BRANCH   1  18
ATOM     18  C   UNL     1      28.511   4.651  40.903  1.00  0.00     0.000 C 
BRANCH  18  19
ATOM     19  C   UNL     1      27.947   4.133  42.238  1.00  0.00     0.000 C 
BRANCH  19  20
ATOM     20  C   UNL     1      26.449   3.792  42.169  1.00  0.00     0.000 C 
BRANCH  20  21
ATOM     21  C   UNL     1      25.539   4.908  41.623  1.00  0.00     0.000 C 
BRANCH  21  22
ATOM     22  C   UNL     1      24.851   4.530  40.301  1.00  0.00     0.000 C 
BRANCH  22  23
ATOM     23  C   UNL     1      25.134   3.080  39.866  1.00  0.00     0.000 C 
BRANCH  23  24
ATOM     24  C   UNL     1      23.954   2.346  39.201  1.00  0.00    -0.000 C 
BRANCH  24  25
ATOM     25  C   UNL     1      23.399   1.194  40.057  1.00  0.00    -0.000 C 
BRANCH  25  26
ATOM     26  C   UNL     1      23.638   1.394  41.564  1.00  0.00    -0.000 C 
BRANCH  26  27
ATOM     27  C   UNL     1      22.396   1.790  42.389  1.00  0.00    -0.000 C 
BRANCH  27  28
ATOM     28  C   UNL     1      22.398   3.231  42.932  1.00  0.00    -0.000 C 
BRANCH  28  29
ATOM     29  C   UNL     1      21.759   4.237  41.961  1.00  0.00    -0.000 C 
BRANCH  29  30
ATOM     30  C   UNL     1      20.655   3.609  41.094  1.00  0.00    -0.000 C 
BRANCH  30  31
ATOM     31  C   UNL     1      19.263   3.615  41.757  1.00  0.00    -0.003 C 
ATOM     32  C   UNL     1      18.134   3.424  40.745  1.00  0.00     0.004 C 
ENDBRANCH  30  31
ENDBRANCH  29  30
ENDBRANCH  28  29
ENDBRANCH  27  28
ENDBRANCH  26  27
ENDBRANCH  25  26
ENDBRANCH  24  25
ENDBRANCH  23  24
ENDBRANCH  22  23
ENDBRANCH  21  22
ENDBRANCH  20  21
ENDBRANCH  19  20
ENDBRANCH  18  19
ENDBRANCH   1  18
TORSDOF 28
ENDMDL
MODEL 2
REMARK VINA RESULT:    -4.599      5.813      7.916
REMARK INTER + INTRA:         -15.558
REMARK INTER:                  -9.594
REMARK INTRA:                  -5.964
REMARK UNBOUND:                -3.432
REMARK SMILES CCCCCCCCCCCCCCCCCCCCCCCCCCCCCC(=O)[O-]
REMARK SMILES IDX 16 1 17 2 18 3 19 4 20 5 21 6 22 7 23 8 24 9 25 10 26 11
REMARK SMILES IDX 27 12 28 13 29 14 30 15 31 16 32 17 15 18 14 19 13 20 12 21
REMARK SMILES IDX 11 22 10 23 9 24 8 25 7 26 6 27 5 28 4 29 3 30 2 31 1 32
REMARK H PARENT
REMARK Flexibility Score: inf
ROOT
ATOM      1  C   UNL     1      32.198   5.949  40.273  1.00  0.00     0.000 C 
ENDROOT
BRANCH   1   2
ATOM      2  C   UNL     1      33.196   4.784  40.204  1.00  0.00     0.000 C 
BRANCH   2   3
ATOM      3  C   UNL     1      34.336   4.973  41.217  1.00  0.00     0.000 C 
BRANCH   3   4
ATOM      4  C   UNL     1      35.618   4.224  40.812  1.00  0.00     0.000 C 
BRANCH   4   5
ATOM      5  C   UNL     1      35.634   3.851  39.319  1.00  0.00     0.000 C 
BRANCH   5   6
ATOM      6  C   UNL     1      36.848   4.430  38.569  1.00  0.00     0.000 C 
BRANCH   6   7
ATOM      7  C   UNL     1      37.000   5.959  38.662  1.00  0.00     0.000 C 
BRANCH   7   8
ATOM      8  C   UNL     1      35.747   6.714  38.183  1.00  0.00     0.000 C 
BRANCH   8   9
ATOM      9  C   UNL     1      35.321   7.837  39.145  1.00  0.00     0.000 C 
BRANCH   9  10
ATOM     10  C   UNL     1      36.427   8.340  40.094  1.00  0.00     0.000 C 
BRANCH  10  11
ATOM     11  C   UNL     1      35.896   8.902  41.432  1.00  0.00     0.000 C 
BRANCH  11  12
ATOM     12  C   UNL     1      34.398   8.628  41.657  1.00  0.00     0.000 C 
BRANCH  12  13
ATOM     13  C   UNL     1      34.097   8.172  43.093  1.00  0.00     0.006 C 
BRANCH  13  14
ATOM     14  C   UNL     1      33.844   9.375  44.008  1.00  0.00     0.053 C 
BRANCH  14  15
ATOM     15  C   UNL     1      33.717   8.941  45.434  1.00  0.00     0.041 C 
ATOM     16  O   UNL     1      34.409   7.983  45.869  1.00  0.00    -0.550 OA
ATOM     17  O   UNL     1      32.825   9.586  46.281  1.00  0.00    -0.550 OA
ENDBRANCH  14  15
ENDBRANCH  13  14
ENDBRANCH  12  13
ENDBRANCH  11  12
ENDBRANCH  10  11
ENDBRANCH   9  10
ENDBRANCH   8   9
ENDBRANCH   7   8
ENDBRANCH   6   7
ENDBRANCH   5   6
ENDBRANCH   4   5
ENDBRANCH   3   4
ENDBRANCH   2   3
ENDBRANCH   1   2
BRANCH   1  18
ATOM     18  C   UNL     1      30.889   5.664  39.517  1.00  0.00     0.000 C 
BRANCH  18  19
ATOM     19  C   UNL     1      30.753   6.495  38.230  1.00  0.00     0.000 C 
BRANCH  19  20
ATOM     20  C   UNL     1      31.737   7.677  38.168  1.00  0.00     0.000 C 
BRANCH  20  21
ATOM     21  C   UNL     1      31.152   9.048  38.554  1.00  0.00     0.000 C 
BRANCH  21  22
ATOM     22  C   UNL     1      29.622   9.030  38.700  1.00  0.00     0.000 C 
BRANCH  22  23
ATOM     23  C   UNL     1      29.156   8.967  40.167  1.00  0.00     0.000 C 
BRANCH  23  24
ATOM     24  C   UNL     1      30.279   8.997  41.220  1.00  0.00    -0.000 C 
BRANCH  24  25
ATOM     25  C   UNL     1      29.795   8.623  42.632  1.00  0.00    -0.000 C 
BRANCH  25  26
ATOM     26  C   UNL     1      30.662   7.541  43.300  1.00  0.00    -0.000 C 
BRANCH  26  27
ATOM     27  C   UNL     1      30.080   6.113  43.278  1.00  0.00    -0.000 C 
BRANCH  27  28
ATOM     28  C   UNL     1      31.020   5.010  43.800  1.00  0.00    -0.000 C 
BRANCH  28  29
ATOM     29  C   UNL     1      32.061   5.536  44.801  1.00  0.00    -0.000 C 
BRANCH  29  30
ATOM     30  C   UNL     1      31.703   5.207  46.260  1.00  0.00    -0.000 C 
BRANCH  30  31
ATOM     31  C   UNL     1      31.458   6.451  47.137  1.00  0.00    -0.003 C 
ATOM     32  C   UNL     1      30.048   7.017  46.965  1.00  0.00     0.004 C 
ENDBRANCH  30  31
ENDBRANCH  29  30
ENDBRANCH  28  29
ENDBRANCH  27  28
ENDBRANCH  26  27
ENDBRANCH  25  26
ENDBRANCH  24  25
ENDBRANCH  23  24
ENDBRANCH  22  23
ENDBRANCH  21  22
ENDBRANCH  20  21
ENDBRANCH  19  20
ENDBRANCH  18  19
ENDBRANCH   1  18
TORSDOF 28
ENDMDL
MODEL 3
REMARK VINA RESULT:    -4.463      4.282      6.957
REMARK INTER + INTRA:         -15.200
REMARK INTER:                  -9.315
REMARK INTRA:                  -5.886
REMARK UNBOUND:                -3.432
REMARK SMILES CCCCCCCCCCCCCCCCCCCCCCCCCCCCCC(=O)[O-]
REMARK SMILES IDX 16 1 17 2 18 3 19 4 20 5 21 6 22 7 23 8 24 9 25 10 26 11
REMARK SMILES IDX 27 12 28 13 29 14 30 15 31 16 32 17 15 18 14 19 13 20 12 21
REMARK SMILES IDX 11 22 10 23 9 24 8 25 7 26 6 27 5 28 4 29 3 30 2 31 1 32
REMARK H PARENT
REMARK Flexibility Score: inf
ROOT
ATOM      1  C   UNL     1      34.086   5.548  40.964  1.00  0.00     0.000 C 
ENDROOT
BRANCH   1   2
ATOM      2  C   UNL     1      35.121   4.414  40.930  1.00  0.00     0.000 C 
BRANCH   2   3
ATOM      3  C   UNL     1      35.612   4.157  39.497  1.00  0.00     0.000 C 
BRANCH   3   4
ATOM      4  C   UNL     1      36.977   4.809  39.214  1.00  0.00     0.000 C 
BRANCH   4   5
ATOM      5  C   UNL     1      36.918   5.817  38.052  1.00  0.00     0.000 C 
BRANCH   5   6
ATOM      6  C   UNL     1      35.744   6.806  38.176  1.00  0.00     0.000 C 
BRANCH   6   7
ATOM      7  C   UNL     1      36.127   8.210  38.677  1.00  0.00     0.000 C 
BRANCH   7   8
ATOM      8  C   UNL     1      36.516   8.227  40.166  1.00  0.00     0.000 C 
BRANCH   8   9
ATOM      9  C   UNL     1      35.598   9.124  41.014  1.00  0.00     0.000 C 
BRANCH   9  10
ATOM     10  C   UNL     1      35.714   8.922  42.538  1.00  0.00     0.000 C 
BRANCH  10  11
ATOM     11  C   UNL     1      34.392   8.497  43.216  1.00  0.00     0.000 C 
BRANCH  11  12
ATOM     12  C   UNL     1      33.909   9.491  44.287  1.00  0.00     0.000 C 
BRANCH  12  13
ATOM     13  C   UNL     1      33.380   8.784  45.545  1.00  0.00     0.006 C 
BRANCH  13  14
ATOM     14  C   UNL     1      32.144   7.940  45.220  1.00  0.00     0.053 C 
BRANCH  14  15
ATOM     15  C   UNL     1      32.113   6.698  46.055  1.00  0.00     0.041 C 
ATOM     16  O   UNL     1      31.927   6.776  47.298  1.00  0.00    -0.550 OA
ATOM     17  O   UNL     1      32.303   5.456  45.463  1.00  0.00    -0.550 OA
ENDBRANCH  14  15
ENDBRANCH  13  14
ENDBRANCH  12  13
ENDBRANCH  11  12
ENDBRANCH  10  11
ENDBRANCH   9  10
ENDBRANCH   8   9
ENDBRANCH   7   8
ENDBRANCH   6   7
ENDBRANCH   5   6
ENDBRANCH   4   5
ENDBRANCH   3   4
ENDBRANCH   2   3
ENDBRANCH   1   2
BRANCH   1  18
ATOM     18  C   UNL     1      32.944   5.290  41.960  1.00  0.00     0.000 C 
BRANCH  18  19
ATOM     19  C   UNL     1      31.583   5.105  41.268  1.00  0.00     0.000 C 
BRANCH  19  20
ATOM     20  C   UNL     1      31.684   5.083  39.733  1.00  0.00     0.000 C 
BRANCH  20  21
ATOM     21  C   UNL     1      30.428   5.558  38.978  1.00  0.00     0.000 C 
BRANCH  21  22
ATOM     22  C   UNL     1      30.604   6.942  38.330  1.00  0.00     0.000 C 
BRANCH  22  23
ATOM     23  C   UNL     1      32.060   7.442  38.361  1.00  0.00     0.000 C 
BRANCH  23  24
ATOM     24  C   UNL     1      32.294   8.748  39.145  1.00  0.00    -0.000 C 
BRANCH  24  25
ATOM     25  C   UNL     1      32.003   8.611  40.649  1.00  0.00    -0.000 C 
BRANCH  25  26
ATOM     26  C   UNL     1      31.195   9.792  41.217  1.00  0.00    -0.000 C 
BRANCH  26  27
ATOM     27  C   UNL     1      30.061   9.416  42.192  1.00  0.00    -0.000 C 
BRANCH  27  28
ATOM     28  C   UNL     1      29.637   7.936  42.171  1.00  0.00    -0.000 C 
BRANCH  28  29
ATOM     29  C   UNL     1      28.389   7.683  41.310  1.00  0.00    -0.000 C 
BRANCH  29  30
ATOM     30  C   UNL     1      27.484   6.579  41.881  1.00  0.00    -0.000 C 
BRANCH  30  31
ATOM     31  C   UNL     1      27.896   5.155  41.456  1.00  0.00    -0.003 C 
ATOM     32  C   UNL     1      28.214   4.259  42.654  1.00  0.00     0.004 C 
ENDBRANCH  30  31
ENDBRANCH  29  30
ENDBRANCH  28  29
ENDBRANCH  27  28
ENDBRANCH  26  27
ENDBRANCH  25  26
ENDBRANCH  24  25
ENDBRANCH  23  24
ENDBRANCH  22  23
ENDBRANCH  21  22
ENDBRANCH  20  21
ENDBRANCH  19  20
ENDBRANCH  18  19
ENDBRANCH   1  18
TORSDOF 28
ENDMDL
MODEL 4
REMARK VINA RESULT:    -4.432      3.965      9.960
REMARK INTER + INTRA:         -15.119
REMARK INTER:                 -10.866
REMARK INTRA:                  -4.253
REMARK UNBOUND:                -3.432
REMARK SMILES CCCCCCCCCCCCCCCCCCCCCCCCCCCCCC(=O)[O-]
REMARK SMILES IDX 16 1 17 2 18 3 19 4 20 5 21 6 22 7 23 8 24 9 25 10 26 11
REMARK SMILES IDX 27 12 28 13 29 14 30 15 31 16 32 17 15 18 14 19 13 20 12 21
REMARK SMILES IDX 11 22 10 23 9 24 8 25 7 26 6 27 5 28 4 29 3 30 2 31 1 32
REMARK H PARENT
REMARK Flexibility Score: inf
ROOT
ATOM      1  C   UNL     1      31.629   5.923  41.381  1.00  0.00     0.000 C 
ENDROOT
BRANCH   1   2
ATOM      2  C   UNL     1      30.446   6.178  40.435  1.00  0.00     0.000 C 
BRANCH   2   3
ATOM      3  C   UNL     1      30.210   4.974  39.510  1.00  0.00     0.000 C 
BRANCH   3   4
ATOM      4  C   UNL     1      28.886   4.249  39.810  1.00  0.00     0.000 C 
BRANCH   4   5
ATOM      5  C   UNL     1      28.109   4.899  40.969  1.00  0.00     0.000 C 
BRANCH   5   6
ATOM      6  C   UNL     1      27.843   3.925  42.132  1.00  0.00     0.000 C 
BRANCH   6   7
ATOM      7  C   UNL     1      28.396   4.373  43.496  1.00  0.00     0.000 C 
BRANCH   7   8
ATOM      8  C   UNL     1      27.290   4.623  44.537  1.00  0.00     0.000 C 
BRANCH   8   9
ATOM      9  C   UNL     1      26.056   3.730  44.325  1.00  0.00     0.000 C 
BRANCH   9  10
ATOM     10  C   UNL     1      24.713   4.481  44.233  1.00  0.00     0.000 C 
BRANCH  10  11
ATOM     11  C   UNL     1      24.173   4.624  42.792  1.00  0.00     0.000 C 
BRANCH  11  12
ATOM     12  C   UNL     1      24.431   3.383  41.919  1.00  0.00     0.000 C 
BRANCH  12  13
ATOM     13  C   UNL     1      23.141   2.607  41.610  1.00  0.00     0.006 C 
BRANCH  13  14
ATOM     14  C   UNL     1      23.451   1.148  41.262  1.00  0.00     0.053 C 
BRANCH  14  15
ATOM     15  C   UNL     1      23.526   0.959  39.779  1.00  0.00     0.041 C 
ATOM     16  O   UNL     1      23.446  -0.196  39.283  1.00  0.00    -0.550 OA
ATOM     17  O   UNL     1      23.697   2.056  38.945  1.00  0.00    -0.550 OA
ENDBRANCH  14  15
ENDBRANCH  13  14
ENDBRANCH  12  13
ENDBRANCH  11  12
ENDBRANCH  10  11
ENDBRANCH   9  10
ENDBRANCH   8   9
ENDBRANCH   7   8
ENDBRANCH   6   7
ENDBRANCH   5   6
ENDBRANCH   4   5
ENDBRANCH   3   4
ENDBRANCH   2   3
ENDBRANCH   1   2
BRANCH   1  18
ATOM     18  C   UNL     1      31.384   6.449  42.805  1.00  0.00     0.000 C 
BRANCH  18  19
ATOM     19  C   UNL     1      31.827   5.453  43.891  1.00  0.00     0.000 C 
BRANCH  19  20
ATOM     20  C   UNL     1      32.801   6.067  44.912  1.00  0.00     0.000 C 
BRANCH  20  21
ATOM     21  C   UNL     1      33.783   7.110  44.348  1.00  0.00     0.000 C 
BRANCH  21  22
ATOM     22  C   UNL     1      34.285   8.100  45.412  1.00  0.00     0.000 C 
BRANCH  22  23
ATOM     23  C   UNL     1      33.177   8.565  46.375  1.00  0.00     0.000 C 
BRANCH  23  24
ATOM     24  C   UNL     1      32.333   9.757  45.887  1.00  0.00    -0.000 C 
BRANCH  24  25
ATOM     25  C   UNL     1      30.943   9.343  45.372  1.00  0.00    -0.000 C 
BRANCH  25  26
ATOM     26  C   UNL     1      30.042   8.757  46.473  1.00  0.00    -0.000 C 
BRANCH  26  27
ATOM     27  C   UNL     1      29.213   7.521  46.068  1.00  0.00    -0.000 C 
BRANCH  27  28
ATOM     28  C   UNL     1      29.594   6.210  46.780  1.00  0.00    -0.000 C 
BRANCH  28  29
ATOM     29  C   UNL     1      30.572   6.425  47.946  1.00  0.00    -0.000 C 
BRANCH  29  30
ATOM     30  C   UNL     1      31.499   5.219  48.176  1.00  0.00    -0.000 C 
BRANCH  30  31
ATOM     31  C   UNL     1      31.660   4.833  49.661  1.00  0.00    -0.003 C 
ATOM     32  C   UNL     1      32.220   3.421  49.837  1.00  0.00     0.004 C 
ENDBRANCH  30  31
ENDBRANCH  29  30
ENDBRANCH  28  29
ENDBRANCH  27  28
ENDBRANCH  26  27
ENDBRANCH  25  26
ENDBRANCH  24  25
ENDBRANCH  23  24
ENDBRANCH  22  23
ENDBRANCH  21  22
ENDBRANCH  20  21
ENDBRANCH  19  20
ENDBRANCH  18  19
ENDBRANCH   1  18
TORSDOF 28
ENDMDL
MODEL 5
REMARK VINA RESULT:    -4.415     10.497     14.271
REMARK INTER + INTRA:         -15.073
REMARK INTER:                 -10.370
REMARK INTRA:                  -4.703
REMARK UNBOUND:                -3.432
REMARK SMILES CCCCCCCCCCCCCCCCCCCCCCCCCCCCCC(=O)[O-]
REMARK SMILES IDX 16 1 17 2 18 3 19 4 20 5 21 6 22 7 23 8 24 9 25 10 26 11
REMARK SMILES IDX 27 12 28 13 29 14 30 15 31 16 32 17 15 18 14 19 13 20 12 21
REMARK SMILES IDX 11 22 10 23 9 24 8 25 7 26 6 27 5 28 4 29 3 30 2 31 1 32
REMARK H PARENT
REMARK Flexibility Score: inf
ROOT
ATOM      1  C   UNL     1      23.458  -6.153  48.889  1.00  0.00     0.000 C 
ENDROOT
BRANCH   1   2
ATOM      2  C   UNL     1      21.978  -5.994  49.268  1.00  0.00     0.000 C 
BRANCH   2   3
ATOM      3  C   UNL     1      21.264  -7.354  49.288  1.00  0.00     0.000 C 
BRANCH   3   4
ATOM      4  C   UNL     1      19.900  -7.295  49.997  1.00  0.00     0.000 C 
BRANCH   4   5
ATOM      5  C   UNL     1      19.476  -5.856  50.340  1.00  0.00     0.000 C 
BRANCH   5   6
ATOM      6  C   UNL     1      19.322  -5.621  51.854  1.00  0.00     0.000 C 
BRANCH   6   7
ATOM      7  C   UNL     1      20.563  -5.037  52.551  1.00  0.00     0.000 C 
BRANCH   7   8
ATOM      8  C   UNL     1      21.272  -6.058  53.460  1.00  0.00     0.000 C 
BRANCH   8   9
ATOM      9  C   UNL     1      22.663  -6.460  52.938  1.00  0.00     0.000 C 
BRANCH   9  10
ATOM     10  C   UNL     1      23.680  -5.306  52.833  1.00  0.00     0.000 C 
BRANCH  10  11
ATOM     11  C   UNL     1      23.848  -4.499  54.139  1.00  0.00     0.000 C 
BRANCH  11  12
ATOM     12  C   UNL     1      23.488  -3.010  53.987  1.00  0.00     0.000 C 
BRANCH  12  13
ATOM     13  C   UNL     1      23.831  -2.194  55.243  1.00  0.00     0.006 C 
BRANCH  13  14
ATOM     14  C   UNL     1      22.680  -2.233  56.252  1.00  0.00     0.053 C 
BRANCH  14  15
ATOM     15  C   UNL     1      22.058  -0.881  56.403  1.00  0.00     0.041 C 
ATOM     16  O   UNL     1      21.919  -0.372  57.547  1.00  0.00    -0.550 OA
ATOM     17  O   UNL     1      21.619  -0.186  55.282  1.00  0.00    -0.550 OA
ENDBRANCH  14  15
ENDBRANCH  13  14
ENDBRANCH  12  13
ENDBRANCH  11  12
ENDBRANCH  10  11
ENDBRANCH   9  10
ENDBRANCH   8   9
ENDBRANCH   7   8
ENDBRANCH   6   7
ENDBRANCH   5   6
ENDBRANCH   4   5
ENDBRANCH   3   4
ENDBRANCH   2   3
ENDBRANCH   1   2
BRANCH   1  18
ATOM     18  C   UNL     1      23.787  -5.580  47.500  1.00  0.00     0.000 C 
BRANCH  18  19
ATOM     19  C   UNL     1      24.493  -6.600  46.590  1.00  0.00     0.000 C 
BRANCH  19  20
ATOM     20  C   UNL     1      23.673  -7.882  46.368  1.00  0.00     0.000 C 
BRANCH  20  21
ATOM     21  C   UNL     1      22.782  -7.891  45.113  1.00  0.00     0.000 C 
BRANCH  21  22
ATOM     22  C   UNL     1      21.328  -7.483  45.404  1.00  0.00     0.000 C 
BRANCH  22  23
ATOM     23  C   UNL     1      21.079  -5.973  45.236  1.00  0.00     0.000 C 
BRANCH  23  24
ATOM     24  C   UNL     1      20.114  -5.343  46.258  1.00  0.00    -0.000 C 
BRANCH  24  25
ATOM     25  C   UNL     1      20.493  -3.901  46.638  1.00  0.00    -0.000 C 
BRANCH  25  26
ATOM     26  C   UNL     1      21.436  -3.236  45.618  1.00  0.00    -0.000 C 
BRANCH  26  27
ATOM     27  C   UNL     1      21.816  -1.772  45.918  1.00  0.00    -0.000 C 
BRANCH  27  28
ATOM     28  C   UNL     1      23.243  -1.559  46.456  1.00  0.00    -0.000 C 
BRANCH  28  29
ATOM     29  C   UNL     1      23.380  -1.916  47.945  1.00  0.00    -0.000 C 
BRANCH  29  30
ATOM     30  C   UNL     1      24.842  -2.123  48.377  1.00  0.00    -0.000 C 
BRANCH  30  31
ATOM     31  C   UNL     1      25.749  -2.674  47.258  1.00  0.00    -0.003 C 
ATOM     32  C   UNL     1      27.155  -2.075  47.301  1.00  0.00     0.004 C 
ENDBRANCH  30  31
ENDBRANCH  29  30
ENDBRANCH  28  29
ENDBRANCH  27  28
ENDBRANCH  26  27
ENDBRANCH  25  26
ENDBRANCH  24  25
ENDBRANCH  23  24
ENDBRANCH  22  23
ENDBRANCH  21  22
ENDBRANCH  20  21
ENDBRANCH  19  20
ENDBRANCH  18  19
ENDBRANCH   1  18
TORSDOF 28
ENDMDL
MODEL 6
REMARK VINA RESULT:    -4.377      2.604      5.449
REMARK INTER + INTRA:         -14.974
REMARK INTER:                 -10.050
REMARK INTRA:                  -4.925
REMARK UNBOUND:                -3.432
REMARK SMILES CCCCCCCCCCCCCCCCCCCCCCCCCCCCCC(=O)[O-]
REMARK SMILES IDX 16 1 17 2 18 3 19 4 20 5 21 6 22 7 23 8 24 9 25 10 26 11
REMARK SMILES IDX 27 12 28 13 29 14 30 15 31 16 32 17 15 18 14 19 13 20 12 21
REMARK SMILES IDX 11 22 10 23 9 24 8 25 7 26 6 27 5 28 4 29 3 30 2 31 1 32
REMARK H PARENT
REMARK Flexibility Score: inf
ROOT
ATOM      1  C   UNL     1      32.847   6.407  42.603  1.00  0.00     0.000 C 
ENDROOT
BRANCH   1   2
ATOM      2  C   UNL     1      32.396   6.671  44.047  1.00  0.00     0.000 C 
BRANCH   2   3
ATOM      3  C   UNL     1      33.600   6.944  44.961  1.00  0.00     0.000 C 
BRANCH   3   4
ATOM      4  C   UNL     1      33.333   8.078  45.967  1.00  0.00     0.000 C 
BRANCH   4   5
ATOM      5  C   UNL     1      33.435   9.472  45.323  1.00  0.00     0.000 C 
BRANCH   5   6
ATOM      6  C   UNL     1      32.812  10.581  46.191  1.00  0.00     0.000 C 
BRANCH   6   7
ATOM      7  C   UNL     1      31.444  11.093  45.708  1.00  0.00     0.000 C 
BRANCH   7   8
ATOM      8  C   UNL     1      30.715  10.086  44.801  1.00  0.00     0.000 C 
BRANCH   8   9
ATOM      9  C   UNL     1      29.461   9.485  45.460  1.00  0.00     0.000 C 
BRANCH   9  10
ATOM     10  C   UNL     1      29.582   8.003  45.866  1.00  0.00     0.000 C 
BRANCH  10  11
ATOM     11  C   UNL     1      29.127   7.711  47.313  1.00  0.00     0.000 C 
BRANCH  11  12
ATOM     12  C   UNL     1      29.589   6.338  47.833  1.00  0.00     0.000 C 
BRANCH  12  13
ATOM     13  C   UNL     1      31.118   6.235  47.932  1.00  0.00     0.006 C 
BRANCH  13  14
ATOM     14  C   UNL     1      31.583   4.787  47.743  1.00  0.00     0.053 C 
BRANCH  14  15
ATOM     15  C   UNL     1      31.974   4.179  49.053  1.00  0.00     0.041 C 
ATOM     16  O   UNL     1      32.458   3.017  49.092  1.00  0.00    -0.550 OA
ATOM     17  O   UNL     1      31.792   4.889  50.233  1.00  0.00    -0.550 OA
ENDBRANCH  14  15
ENDBRANCH  13  14
ENDBRANCH  12  13
ENDBRANCH  11  12
ENDBRANCH  10  11
ENDBRANCH   9  10
ENDBRANCH   8   9
ENDBRANCH   7   8
ENDBRANCH   6   7
ENDBRANCH   5   6
ENDBRANCH   4   5
ENDBRANCH   3   4
ENDBRANCH   2   3
ENDBRANCH   1   2
BRANCH   1  18
ATOM     18  C   UNL     1      32.023   5.312  41.907  1.00  0.00     0.000 C 
BRANCH  18  19
ATOM     19  C   UNL     1      32.269   5.258  40.389  1.00  0.00     0.000 C 
BRANCH  19  20
ATOM     20  C   UNL     1      30.993   4.970  39.580  1.00  0.00     0.000 C 
BRANCH  20  21
ATOM     21  C   UNL     1      30.548   6.090  38.623  1.00  0.00     0.000 C 
BRANCH  21  22
ATOM     22  C   UNL     1      31.409   7.358  38.738  1.00  0.00     0.000 C 
BRANCH  22  23
ATOM     23  C   UNL     1      30.577   8.654  38.765  1.00  0.00     0.000 C 
BRANCH  23  24
ATOM     24  C   UNL     1      29.431   8.684  39.795  1.00  0.00    -0.000 C 
BRANCH  24  25
ATOM     25  C   UNL     1      29.899   8.371  41.227  1.00  0.00    -0.000 C 
BRANCH  25  26
ATOM     26  C   UNL     1      28.788   7.769  42.106  1.00  0.00    -0.000 C 
BRANCH  26  27
ATOM     27  C   UNL     1      28.640   6.235  42.037  1.00  0.00    -0.000 C 
BRANCH  27  28
ATOM     28  C   UNL     1      28.588   5.516  43.397  1.00  0.00    -0.000 C 
BRANCH  28  29
ATOM     29  C   UNL     1      27.754   4.226  43.360  1.00  0.00    -0.000 C 
BRANCH  29  30
ATOM     30  C   UNL     1      27.250   3.882  41.948  1.00  0.00    -0.000 C 
BRANCH  30  31
ATOM     31  C   UNL     1      25.717   3.755  41.848  1.00  0.00    -0.003 C 
ATOM     32  C   UNL     1      25.113   4.752  40.860  1.00  0.00     0.004 C 
ENDBRANCH  30  31
ENDBRANCH  29  30
ENDBRANCH  28  29
ENDBRANCH  27  28
ENDBRANCH  26  27
ENDBRANCH  25  26
ENDBRANCH  24  25
ENDBRANCH  23  24
ENDBRANCH  22  23
ENDBRANCH  21  22
ENDBRANCH  20  21
ENDBRANCH  19  20
ENDBRANCH  18  19
ENDBRANCH   1  18
TORSDOF 28
ENDMDL
MODEL 7
REMARK VINA RESULT:    -4.348      3.917      8.887
REMARK INTER + INTRA:         -14.897
REMARK INTER:                  -9.208
REMARK INTRA:                  -5.689
REMARK UNBOUND:                -3.432
REMARK SMILES CCCCCCCCCCCCCCCCCCCCCCCCCCCCCC(=O)[O-]
REMARK SMILES IDX 16 1 17 2 18 3 19 4 20 5 21 6 22 7 23 8 24 9 25 10 26 11
REMARK SMILES IDX 27 12 28 13 29 14 30 15 31 16 32 17 15 18 14 19 13 20 12 21
REMARK SMILES IDX 11 22 10 23 9 24 8 25 7 26 6 27 5 28 4 29 3 30 2 31 1 32
REMARK H PARENT
REMARK Flexibility Score: inf
ROOT
ATOM      1  C   UNL     1      32.706   5.014  41.410  1.00  0.00     0.000 C 
ENDROOT
BRANCH   1   2
ATOM      2  C   UNL     1      32.221   5.228  39.969  1.00  0.00     0.000 C 
BRANCH   2   3
ATOM      3  C   UNL     1      30.734   5.613  39.939  1.00  0.00     0.000 C 
BRANCH   3   4
ATOM      4  C   UNL     1      30.424   6.695  38.889  1.00  0.00     0.000 C 
BRANCH   4   5
ATOM      5  C   UNL     1      30.198   8.080  39.522  1.00  0.00     0.000 C 
BRANCH   5   6
ATOM      6  C   UNL     1      31.210   8.402  40.637  1.00  0.00     0.000 C 
BRANCH   6   7
ATOM      7  C   UNL     1      30.733   9.440  41.668  1.00  0.00     0.000 C 
BRANCH   7   8
ATOM      8  C   UNL     1      29.539  10.274  41.167  1.00  0.00     0.000 C 
BRANCH   8   9
ATOM      9  C   UNL     1      28.314  10.182  42.092  1.00  0.00     0.000 C 
BRANCH   9  10
ATOM     10  C   UNL     1      27.083   9.485  41.478  1.00  0.00     0.000 C 
BRANCH  10  11
ATOM     11  C   UNL     1      27.128   7.943  41.566  1.00  0.00     0.000 C 
BRANCH  11  12
ATOM     12  C   UNL     1      27.765   7.424  42.867  1.00  0.00     0.000 C 
BRANCH  12  13
ATOM     13  C   UNL     1      27.985   5.904  42.845  1.00  0.00     0.006 C 
BRANCH  13  14
ATOM     14  C   UNL     1      27.505   5.301  41.520  1.00  0.00     0.053 C 
BRANCH  14  15
ATOM     15  C   UNL     1      26.190   4.611  41.696  1.00  0.00     0.041 C 
ATOM     16  O   UNL     1      25.206   4.932  40.978  1.00  0.00    -0.550 OA
ATOM     17  O   UNL     1      26.045   3.621  42.660  1.00  0.00    -0.550 OA
ENDBRANCH  14  15
ENDBRANCH  13  14
ENDBRANCH  12  13
ENDBRANCH  11  12
ENDBRANCH  10  11
ENDBRANCH   9  10
ENDBRANCH   8   9
ENDBRANCH   7   8
ENDBRANCH   6   7
ENDBRANCH   5   6
ENDBRANCH   4   5
ENDBRANCH   3   4
ENDBRANCH   2   3
ENDBRANCH   1   2
BRANCH   1  18
ATOM     18  C   UNL     1      31.560   5.014  42.436  1.00  0.00     0.000 C 
BRANCH  18  19
ATOM     19  C   UNL     1      31.613   6.224  43.385  1.00  0.00     0.000 C 
BRANCH  19  20
ATOM     20  C   UNL     1      33.001   6.441  44.010  1.00  0.00     0.000 C 
BRANCH  20  21
ATOM     21  C   UNL     1      33.738   7.717  43.563  1.00  0.00     0.000 C 
BRANCH  21  22
ATOM     22  C   UNL     1      33.207   8.989  44.244  1.00  0.00     0.000 C 
BRANCH  22  23
ATOM     23  C   UNL     1      32.777   8.756  45.705  1.00  0.00     0.000 C 
BRANCH  23  24
ATOM     24  C   UNL     1      31.465   9.445  46.127  1.00  0.00    -0.000 C 
BRANCH  24  25
ATOM     25  C   UNL     1      30.228   8.884  45.403  1.00  0.00    -0.000 C 
BRANCH  25  26
ATOM     26  C   UNL     1      29.201   8.257  46.362  1.00  0.00    -0.000 C 
BRANCH  26  27
ATOM     27  C   UNL     1      29.758   7.199  47.336  1.00  0.00    -0.000 C 
BRANCH  27  28
ATOM     28  C   UNL     1      30.146   5.853  46.696  1.00  0.00    -0.000 C 
BRANCH  28  29
ATOM     29  C   UNL     1      31.462   5.285  47.250  1.00  0.00    -0.000 C 
BRANCH  29  30
ATOM     30  C   UNL     1      31.740   5.727  48.697  1.00  0.00    -0.000 C 
BRANCH  30  31
ATOM     31  C   UNL     1      31.675   4.576  49.722  1.00  0.00    -0.003 C 
ATOM     32  C   UNL     1      32.296   3.285  49.189  1.00  0.00     0.004 C 
ENDBRANCH  30  31
ENDBRANCH  29  30
ENDBRANCH  28  29
ENDBRANCH  27  28
ENDBRANCH  26  27
ENDBRANCH  25  26
ENDBRANCH  24  25
ENDBRANCH  23  24
ENDBRANCH  22  23
ENDBRANCH  21  22
ENDBRANCH  20  21
ENDBRANCH  19  20
ENDBRANCH  18  19
ENDBRANCH   1  18
TORSDOF 28
ENDMDL
MODEL 8
REMARK VINA RESULT:    -4.332      3.100      8.578
REMARK INTER + INTRA:         -14.854
REMARK INTER:                  -9.937
REMARK INTRA:                  -4.916
REMARK UNBOUND:                -3.432
REMARK SMILES CCCCCCCCCCCCCCCCCCCCCCCCCCCCCC(=O)[O-]
REMARK SMILES IDX 16 1 17 2 18 3 19 4 20 5 21 6 22 7 23 8 24 9 25 10 26 11
REMARK SMILES IDX 27 12 28 13 29 14 30 15 31 16 32 17 15 18 14 19 13 20 12 21
REMARK SMILES IDX 11 22 10 23 9 24 8 25 7 26 6 27 5 28 4 29 3 30 2 31 1 32
REMARK H PARENT
REMARK Flexibility Score: inf
ROOT
ATOM      1  C   UNL     1      22.334   2.350  42.546  1.00  0.00     0.000 C 
ENDROOT
BRANCH   1   2
ATOM      2  C   UNL     1      21.602   3.404  41.703  1.00  0.00     0.000 C 
BRANCH   2   3
ATOM      3  C   UNL     1      21.972   4.826  42.154  1.00  0.00     0.000 C 
BRANCH   3   4
ATOM      4  C   UNL     1      22.979   4.834  43.317  1.00  0.00     0.000 C 
BRANCH   4   5
ATOM      5  C   UNL     1      23.866   6.092  43.319  1.00  0.00     0.000 C 
BRANCH   5   6
ATOM      6  C   UNL     1      24.116   6.650  41.906  1.00  0.00     0.000 C 
BRANCH   6   7
ATOM      7  C   UNL     1      25.513   7.258  41.685  1.00  0.00     0.000 C 
BRANCH   7   8
ATOM      8  C   UNL     1      26.120   7.845  42.972  1.00  0.00     0.000 C 
BRANCH   8   9
ATOM      9  C   UNL     1      27.658   7.818  42.975  1.00  0.00     0.000 C 
BRANCH   9  10
ATOM     10  C   UNL     1      28.308   7.450  41.627  1.00  0.00     0.000 C 
BRANCH  10  11
ATOM     11  C   UNL     1      29.850   7.542  41.629  1.00  0.00     0.000 C 
BRANCH  11  12
ATOM     12  C   UNL     1      30.419   8.296  40.414  1.00  0.00     0.000 C 
BRANCH  12  13
ATOM     13  C   UNL     1      30.079   7.603  39.085  1.00  0.00     0.006 C 
BRANCH  13  14
ATOM     14  C   UNL     1      31.191   6.634  38.673  1.00  0.00     0.053 C 
BRANCH  14  15
ATOM     15  C   UNL     1      31.022   5.311  39.352  1.00  0.00     0.041 C 
ATOM     16  O   UNL     1      31.835   4.949  40.243  1.00  0.00    -0.550 OA
ATOM     17  O   UNL     1      29.975   4.471  38.992  1.00  0.00    -0.550 OA
ENDBRANCH  14  15
ENDBRANCH  13  14
ENDBRANCH  12  13
ENDBRANCH  11  12
ENDBRANCH  10  11
ENDBRANCH   9  10
ENDBRANCH   8   9
ENDBRANCH   7   8
ENDBRANCH   6   7
ENDBRANCH   5   6
ENDBRANCH   4   5
ENDBRANCH   3   4
ENDBRANCH   2   3
ENDBRANCH   1   2
BRANCH   1  18
ATOM     18  C   UNL     1      23.325   1.508  41.726  1.00  0.00     0.000 C 
BRANCH  18  19
ATOM     19  C   UNL     1      23.249   1.803  40.218  1.00  0.00     0.000 C 
BRANCH  19  20
ATOM     20  C   UNL     1      24.553   2.390  39.651  1.00  0.00     0.000 C 
BRANCH  20  21
ATOM     21  C   UNL     1      25.134   3.587  40.427  1.00  0.00     0.000 C 
BRANCH  21  22
ATOM     22  C   UNL     1      26.595   3.892  40.056  1.00  0.00     0.000 C 
BRANCH  22  23
ATOM     23  C   UNL     1      27.532   3.931  41.278  1.00  0.00     0.000 C 
BRANCH  23  24
ATOM     24  C   UNL     1      26.830   3.950  42.650  1.00  0.00    -0.000 C 
BRANCH  24  25
ATOM     25  C   UNL     1      27.800   4.185  43.821  1.00  0.00    -0.000 C 
BRANCH  25  26
ATOM     26  C   UNL     1      29.273   4.253  43.380  1.00  0.00    -0.000 C 
BRANCH  26  27
ATOM     27  C   UNL     1      30.222   5.001  44.339  1.00  0.00    -0.000 C 
BRANCH  27  28
ATOM     28  C   UNL     1      29.548   5.644  45.565  1.00  0.00    -0.000 C 
BRANCH  28  29
ATOM     29  C   UNL     1      30.269   6.913  46.047  1.00  0.00    -0.000 C 
BRANCH  29  30
ATOM     30  C   UNL     1      31.378   6.616  47.070  1.00  0.00    -0.000 C 
BRANCH  30  31
ATOM     31  C   UNL     1      31.304   5.199  47.675  1.00  0.00    -0.003 C 
ATOM     32  C   UNL     1      31.236   5.221  49.202  1.00  0.00     0.004 C 
ENDBRANCH  30  31
ENDBRANCH  29  30
ENDBRANCH  28  29
ENDBRANCH  27  28
ENDBRANCH  26  27
ENDBRANCH  25  26
ENDBRANCH  24  25
ENDBRANCH  23  24
ENDBRANCH  22  23
ENDBRANCH  21  22
ENDBRANCH  20  21
ENDBRANCH  19  20
ENDBRANCH  18  19
ENDBRANCH   1  18
TORSDOF 28
ENDMDL
MODEL 9
REMARK VINA RESULT:    -4.282      9.866     13.822
REMARK INTER + INTRA:         -14.723
REMARK INTER:                  -9.867
REMARK INTRA:                  -4.856
REMARK UNBOUND:                -3.432
REMARK SMILES CCCCCCCCCCCCCCCCCCCCCCCCCCCCCC(=O)[O-]
REMARK SMILES IDX 16 1 17 2 18 3 19 4 20 5 21 6 22 7 23 8 24 9 25 10 26 11
REMARK SMILES IDX 27 12 28 13 29 14 30 15 31 16 32 17 15 18 14 19 13 20 12 21
REMARK SMILES IDX 11 22 10 23 9 24 8 25 7 26 6 27 5 28 4 29 3 30 2 31 1 32
REMARK H PARENT
REMARK Flexibility Score: inf
ROOT
ATOM      1  C   UNL     1      21.445  -7.275  45.353  1.00  0.00     0.000 C 
ENDROOT
BRANCH   1   2
ATOM      2  C   UNL     1      20.671  -7.959  46.491  1.00  0.00     0.000 C 
BRANCH   2   3
ATOM      3  C   UNL     1      19.452  -7.122  46.910  1.00  0.00     0.000 C 
BRANCH   3   4
ATOM      4  C   UNL     1      19.046  -7.362  48.375  1.00  0.00     0.000 C 
BRANCH   4   5
ATOM      5  C   UNL     1      19.919  -6.569  49.364  1.00  0.00     0.000 C 
BRANCH   5   6
ATOM      6  C   UNL     1      20.877  -7.467  50.170  1.00  0.00     0.000 C 
BRANCH   6   7
ATOM      7  C   UNL     1      21.726  -6.732  51.222  1.00  0.00     0.000 C 
BRANCH   7   8
ATOM      8  C   UNL     1      21.502  -5.209  51.212  1.00  0.00     0.000 C 
BRANCH   8   9
ATOM      9  C   UNL     1      22.787  -4.412  51.496  1.00  0.00     0.000 C 
BRANCH   9  10
ATOM     10  C   UNL     1      23.996  -5.259  51.942  1.00  0.00     0.000 C 
BRANCH  10  11
ATOM     11  C   UNL     1      24.331  -5.130  53.445  1.00  0.00     0.000 C 
BRANCH  11  12
ATOM     12  C   UNL     1      23.599  -3.964  54.135  1.00  0.00     0.000 C 
BRANCH  12  13
ATOM     13  C   UNL     1      24.190  -3.639  55.515  1.00  0.00     0.006 C 
BRANCH  13  14
ATOM     14  C   UNL     1      23.946  -2.171  55.882  1.00  0.00     0.053 C 
BRANCH  14  15
ATOM     15  C   UNL     1      22.485  -1.849  55.844  1.00  0.00     0.041 C 
ATOM     16  O   UNL     1      21.653  -2.618  56.394  1.00  0.00    -0.550 OA
ATOM     17  O   UNL     1      22.040  -0.707  55.191  1.00  0.00    -0.550 OA
ENDBRANCH  14  15
ENDBRANCH  13  14
ENDBRANCH  12  13
ENDBRANCH  11  12
ENDBRANCH  10  11
ENDBRANCH   9  10
ENDBRANCH   8   9
ENDBRANCH   7   8
ENDBRANCH   6   7
ENDBRANCH   5   6
ENDBRANCH   4   5
ENDBRANCH   3   4
ENDBRANCH   2   3
ENDBRANCH   1   2
BRANCH   1  18
ATOM     18  C   UNL     1      22.873  -6.873  45.756  1.00  0.00     0.000 C 
BRANCH  18  19
ATOM     19  C   UNL     1      23.161  -7.120  47.247  1.00  0.00     0.000 C 
BRANCH  19  20
ATOM     20  C   UNL     1      23.600  -5.849  47.996  1.00  0.00     0.000 C 
BRANCH  20  21
ATOM     21  C   UNL     1      23.253  -4.518  47.304  1.00  0.00     0.000 C 
BRANCH  21  22
ATOM     22  C   UNL     1      22.044  -3.809  47.935  1.00  0.00     0.000 C 
BRANCH  22  23
ATOM     23  C   UNL     1      20.785  -3.859  47.049  1.00  0.00     0.000 C 
BRANCH  23  24
ATOM     24  C   UNL     1      20.980  -3.393  45.594  1.00  0.00    -0.000 C 
BRANCH  24  25
ATOM     25  C   UNL     1      19.819  -2.529  45.074  1.00  0.00    -0.000 C 
BRANCH  25  26
ATOM     26  C   UNL     1      20.059  -1.020  45.261  1.00  0.00    -0.000 C 
BRANCH  26  27
ATOM     27  C   UNL     1      21.519  -0.552  45.094  1.00  0.00    -0.000 C 
BRANCH  27  28
ATOM     28  C   UNL     1      22.247  -0.183  46.400  1.00  0.00    -0.000 C 
BRANCH  28  29
ATOM     29  C   UNL     1      23.773  -0.334  46.298  1.00  0.00    -0.000 C 
BRANCH  29  30
ATOM     30  C   UNL     1      24.402  -0.916  47.575  1.00  0.00    -0.000 C 
BRANCH  30  31
ATOM     31  C   UNL     1      25.938  -1.041  47.511  1.00  0.00    -0.003 C 
ATOM     32  C   UNL     1      26.394  -2.469  47.211  1.00  0.00     0.004 C 
ENDBRANCH  30  31
ENDBRANCH  29  30
ENDBRANCH  28  29
ENDBRANCH  27  28
ENDBRANCH  26  27
ENDBRANCH  25  26
ENDBRANCH  24  25
ENDBRANCH  23  24
ENDBRANCH  22  23
ENDBRANCH  21  22
ENDBRANCH  20  21
ENDBRANCH  19  20
ENDBRANCH  18  19
ENDBRANCH   1  18
TORSDOF 28
ENDMDL
