MODEL 1
REMARK VINA RESULT:    -4.888      0.000      0.000
REMARK INTER + INTRA:         -10.618
REMARK INTER:                  -9.175
REMARK INTRA:                  -1.443
REMARK UNBOUND:                -1.443
REMARK SMILES CCCCCC=CCC=CCCCCCCCC(=O)OC
REMARK SMILES IDX 11 1 10 2 9 3 8 4 7 5 6 6 5 7 4 8 3 9 2 10 1 11 12 12 13 13
REMARK SMILES IDX 14 14 15 15 16 16 17 17 18 18 19 19 20 20 21 21
REMARK H PARENT
REMARK Flexibility Score: inf
ROOT
ATOM      1  C   UNL     1      -6.919  -5.887   5.461  1.00  0.00     0.027 C 
ENDROOT
BRANCH   1   2
ATOM      2  C   UNL     1      -7.629  -7.211   5.524  1.00  0.00    -0.031 C 
ATOM      3  C   UNL     1      -7.838  -7.948   4.422  1.00  0.00    -0.027 C 
BRANCH   3   4
ATOM      4  C   UNL     1      -8.547  -9.271   4.481  1.00  0.00     0.054 C 
BRANCH   4   5
ATOM      5  C   UNL     1      -9.277  -9.536   3.195  1.00  0.00    -0.027 C 
ATOM      6  C   UNL     1      -8.823  -9.072   2.020  1.00  0.00    -0.031 C 
BRANCH   6   7
ATOM      7  C   UNL     1      -9.543  -9.355   0.728  1.00  0.00     0.027 C 
BRANCH   7   8
ATOM      8  C   UNL     1      -9.958  -8.071  -0.004  1.00  0.00     0.004 C 
BRANCH   8   9
ATOM      9  C   UNL     1     -11.033  -7.287   0.764  1.00  0.00     0.000 C 
BRANCH   9  10
ATOM     10  C   UNL     1     -10.626  -5.820   0.935  1.00  0.00    -0.003 C 
ATOM     11  C   UNL     1      -9.652  -5.648   2.096  1.00  0.00     0.004 C 
ENDBRANCH   9  10
ENDBRANCH   8   9
ENDBRANCH   7   8
ENDBRANCH   6   7
ENDBRANCH   4   5
ENDBRANCH   3   4
ENDBRANCH   1   2
BRANCH   1  12
ATOM     12  C   UNL     1      -7.560  -4.873   6.422  1.00  0.00     0.004 C 
BRANCH  12  13
ATOM     13  C   UNL     1      -9.024  -4.568   6.070  1.00  0.00     0.000 C 
BRANCH  13  14
ATOM     14  C   UNL     1      -9.328  -3.060   6.075  1.00  0.00     0.000 C 
BRANCH  14  15
ATOM     15  C   UNL     1     -10.343  -2.650   4.992  1.00  0.00     0.001 C 
BRANCH  15  16
ATOM     16  C   UNL     1     -10.933  -1.233   5.149  1.00  0.00     0.012 C 
BRANCH  16  17
ATOM     17  C   UNL     1     -10.995  -0.725   6.598  1.00  0.00     0.123 C 
BRANCH  17  18
ATOM     18  C   UNL     1     -10.310   0.598   6.756  1.00  0.00     0.305 C 
ATOM     19  O   UNL     1      -9.052   0.654   6.787  1.00  0.00    -0.252 OA
BRANCH  18  20
ATOM     20  O   UNL     1     -11.079   1.758   6.899  1.00  0.00    -0.469 OA
ATOM     21  C   UNL     1     -11.568   2.200   8.159  1.00  0.00     0.282 C 
ENDBRANCH  18  20
ENDBRANCH  17  18
ENDBRANCH  16  17
ENDBRANCH  15  16
ENDBRANCH  14  15
ENDBRANCH  13  14
ENDBRANCH  12  13
ENDBRANCH   1  12
TORSDOF 15
ENDMDL
MODEL 2
REMARK VINA RESULT:    -4.761      3.801      5.534
REMARK INTER + INTRA:         -10.379
REMARK INTER:                  -9.034
REMARK INTRA:                  -1.345
REMARK UNBOUND:                -1.443
REMARK SMILES CCCCCC=CCC=CCCCCCCCC(=O)OC
REMARK SMILES IDX 11 1 10 2 9 3 8 4 7 5 6 6 5 7 4 8 3 9 2 10 1 11 12 12 13 13
REMARK SMILES IDX 14 14 15 15 16 16 17 17 18 18 19 19 20 20 21 21
REMARK H PARENT
REMARK Flexibility Score: inf
ROOT
ATOM      1  C   UNL     1      -8.485  -6.427   1.718  1.00  0.00     0.027 C 
ENDROOT
BRANCH   1   2
ATOM      2  C   UNL     1      -8.925  -7.733   1.119  1.00  0.00    -0.031 C 
ATOM      3  C   UNL     1     -10.018  -7.817   0.344  1.00  0.00    -0.027 C 
BRANCH   3   4
ATOM      4  C   UNL     1     -10.460  -9.121  -0.256  1.00  0.00     0.054 C 
BRANCH   4   5
ATOM      5  C   UNL     1     -10.550  -9.010  -1.752  1.00  0.00    -0.027 C 
ATOM      6  C   UNL     1     -10.774  -7.834  -2.357  1.00  0.00    -0.031 C 
BRANCH   6   7
ATOM      7  C   UNL     1     -10.843  -7.718  -3.856  1.00  0.00     0.027 C 
BRANCH   7   8
ATOM      8  C   UNL     1     -10.414  -6.331  -4.357  1.00  0.00     0.004 C 
BRANCH   8   9
ATOM      9  C   UNL     1      -9.930  -5.426  -3.214  1.00  0.00     0.000 C 
BRANCH   9  10
ATOM     10  C   UNL     1     -10.938  -4.306  -2.935  1.00  0.00    -0.003 C 
ATOM     11  C   UNL     1     -11.302  -4.248  -1.455  1.00  0.00     0.004 C 
ENDBRANCH   9  10
ENDBRANCH   8   9
ENDBRANCH   7   8
ENDBRANCH   6   7
ENDBRANCH   4   5
ENDBRANCH   3   4
ENDBRANCH   1   2
BRANCH   1  12
ATOM     12  C   UNL     1      -9.663  -5.705   2.391  1.00  0.00     0.004 C 
BRANCH  12  13
ATOM     13  C   UNL     1      -9.960  -6.242   3.800  1.00  0.00     0.000 C 
BRANCH  13  14
ATOM     14  C   UNL     1      -8.962  -5.723   4.849  1.00  0.00     0.000 C 
BRANCH  14  15
ATOM     15  C   UNL     1      -7.908  -6.774   5.245  1.00  0.00     0.001 C 
BRANCH  15  16
ATOM     16  C   UNL     1      -6.684  -6.220   6.004  1.00  0.00     0.012 C 
BRANCH  16  17
ATOM     17  C   UNL     1      -6.953  -4.932   6.797  1.00  0.00     0.123 C 
BRANCH  17  18
ATOM     18  C   UNL     1      -7.346  -5.220   8.213  1.00  0.00     0.305 C 
ATOM     19  O   UNL     1      -7.871  -4.315   8.915  1.00  0.00    -0.252 OA
BRANCH  18  20
ATOM     20  O   UNL     1      -7.095  -6.486   8.752  1.00  0.00    -0.469 OA
ATOM     21  C   UNL     1      -7.798  -6.989   9.880  1.00  0.00     0.282 C 
ENDBRANCH  18  20
ENDBRANCH  17  18
ENDBRANCH  16  17
ENDBRANCH  15  16
ENDBRANCH  14  15
ENDBRANCH  13  14
ENDBRANCH  12  13
ENDBRANCH   1  12
TORSDOF 15
ENDMDL
MODEL 3
REMARK VINA RESULT:    -4.660      5.266      8.926
REMARK INTER + INTRA:         -10.189
REMARK INTER:                  -9.130
REMARK INTRA:                  -1.060
REMARK UNBOUND:                -1.443
REMARK SMILES CCCCCC=CCC=CCCCCCCCC(=O)OC
REMARK SMILES IDX 11 1 10 2 9 3 8 4 7 5 6 6 5 7 4 8 3 9 2 10 1 11 12 12 13 13
REMARK SMILES IDX 14 14 15 15 16 16 17 17 18 18 19 19 20 20 21 21
REMARK H PARENT
REMARK Flexibility Score: inf
ROOT
ATOM      1  C   UNL     1      -9.663  -8.436   0.845  1.00  0.00     0.027 C 
ENDROOT
BRANCH   1   2
ATOM      2  C   UNL     1      -8.648  -8.436   1.955  1.00  0.00    -0.031 C 
ATOM      3  C   UNL     1      -9.006  -8.232   3.232  1.00  0.00    -0.027 C 
BRANCH   3   4
ATOM      4  C   UNL     1      -7.995  -8.230   4.343  1.00  0.00     0.054 C 
BRANCH   4   5
ATOM      5  C   UNL     1      -8.039  -6.929   5.094  1.00  0.00    -0.027 C 
ATOM      6  C   UNL     1      -6.944  -6.415   5.675  1.00  0.00    -0.031 C 
BRANCH   6   7
ATOM      7  C   UNL     1      -6.982  -5.102   6.409  1.00  0.00     0.027 C 
BRANCH   7   8
ATOM      8  C   UNL     1      -6.694  -5.261   7.908  1.00  0.00     0.004 C 
BRANCH   8   9
ATOM      9  C   UNL     1      -7.921  -4.936   8.773  1.00  0.00     0.000 C 
BRANCH   9  10
ATOM     10  C   UNL     1      -8.106  -5.980   9.879  1.00  0.00    -0.003 C 
ATOM     11  C   UNL     1      -7.386  -7.281   9.536  1.00  0.00     0.004 C 
ENDBRANCH   9  10
ENDBRANCH   8   9
ENDBRANCH   7   8
ENDBRANCH   6   7
ENDBRANCH   4   5
ENDBRANCH   3   4
ENDBRANCH   1   2
BRANCH   1  12
ATOM     12  C   UNL     1      -9.706  -7.073   0.138  1.00  0.00     0.004 C 
BRANCH  12  13
ATOM     13  C   UNL     1     -10.919  -6.227   0.557  1.00  0.00     0.000 C 
BRANCH  13  14
ATOM     14  C   UNL     1     -11.779  -5.797  -0.643  1.00  0.00     0.000 C 
BRANCH  14  15
ATOM     15  C   UNL     1     -11.343  -4.447  -1.240  1.00  0.00     0.001 C 
BRANCH  15  16
ATOM     16  C   UNL     1     -10.792  -4.514  -2.680  1.00  0.00     0.012 C 
BRANCH  16  17
ATOM     17  C   UNL     1     -11.473  -5.560  -3.576  1.00  0.00     0.123 C 
BRANCH  17  18
ATOM     18  C   UNL     1     -10.500  -6.579  -4.084  1.00  0.00     0.305 C 
ATOM     19  O   UNL     1      -9.980  -6.437  -5.223  1.00  0.00    -0.252 OA
BRANCH  18  20
ATOM     20  O   UNL     1     -10.202  -7.697  -3.298  1.00  0.00    -0.469 OA
ATOM     21  C   UNL     1     -10.296  -9.027  -3.793  1.00  0.00     0.282 C 
ENDBRANCH  18  20
ENDBRANCH  17  18
ENDBRANCH  16  17
ENDBRANCH  15  16
ENDBRANCH  14  15
ENDBRANCH  13  14
ENDBRANCH  12  13
ENDBRANCH   1  12
TORSDOF 15
ENDMDL
MODEL 4
REMARK VINA RESULT:    -4.638      3.679      5.644
REMARK INTER + INTRA:         -10.149
REMARK INTER:                  -8.713
REMARK INTRA:                  -1.436
REMARK UNBOUND:                -1.443
REMARK SMILES CCCCCC=CCC=CCCCCCCCC(=O)OC
REMARK SMILES IDX 11 1 10 2 9 3 8 4 7 5 6 6 5 7 4 8 3 9 2 10 1 11 12 12 13 13
REMARK SMILES IDX 14 14 15 15 16 16 17 17 18 18 19 19 20 20 21 21
REMARK H PARENT
REMARK Flexibility Score: inf
ROOT
ATOM      1  C   UNL     1      -8.707  -6.324   2.111  1.00  0.00     0.027 C 
ENDROOT
BRANCH   1   2
ATOM      2  C   UNL     1      -8.991  -7.669   1.503  1.00  0.00    -0.031 C 
ATOM      3  C   UNL     1      -9.872  -7.814   0.501  1.00  0.00    -0.027 C 
BRANCH   3   4
ATOM      4  C   UNL     1     -10.158  -9.157  -0.108  1.00  0.00     0.054 C 
BRANCH   4   5
ATOM      5  C   UNL     1     -10.470  -9.018  -1.572  1.00  0.00    -0.027 C 
ATOM      6  C   UNL     1     -10.820  -7.838  -2.106  1.00  0.00    -0.031 C 
BRANCH   6   7
ATOM      7  C   UNL     1     -11.111  -7.692  -3.576  1.00  0.00     0.027 C 
BRANCH   7   8
ATOM      8  C   UNL     1     -10.971  -6.242  -4.060  1.00  0.00     0.004 C 
BRANCH   8   9
ATOM      9  C   UNL     1     -10.110  -5.395  -3.112  1.00  0.00     0.000 C 
BRANCH   9  10
ATOM     10  C   UNL     1     -10.819  -4.087  -2.746  1.00  0.00    -0.003 C 
ATOM     11  C   UNL     1     -11.459  -4.174  -1.364  1.00  0.00     0.004 C 
ENDBRANCH   9  10
ENDBRANCH   8   9
ENDBRANCH   7   8
ENDBRANCH   6   7
ENDBRANCH   4   5
ENDBRANCH   3   4
ENDBRANCH   1   2
BRANCH   1  12
ATOM     12  C   UNL     1      -9.905  -5.376   1.938  1.00  0.00     0.004 C 
BRANCH  12  13
ATOM     13  C   UNL     1     -10.096  -4.439   3.140  1.00  0.00     0.000 C 
BRANCH  13  14
ATOM     14  C   UNL     1      -9.518  -5.025   4.440  1.00  0.00     0.000 C 
BRANCH  14  15
ATOM     15  C   UNL     1      -9.199  -3.948   5.493  1.00  0.00     0.001 C 
BRANCH  15  16
ATOM     16  C   UNL     1      -8.648  -4.483   6.831  1.00  0.00     0.012 C 
BRANCH  16  17
ATOM     17  C   UNL     1      -7.186  -4.951   6.778  1.00  0.00     0.123 C 
BRANCH  17  18
ATOM     18  C   UNL     1      -7.077  -6.444   6.779  1.00  0.00     0.305 C 
ATOM     19  O   UNL     1      -7.060  -7.072   7.871  1.00  0.00    -0.252 OA
BRANCH  18  20
ATOM     20  O   UNL     1      -6.962  -7.125   5.562  1.00  0.00    -0.469 OA
ATOM     21  C   UNL     1      -7.898  -8.112   5.147  1.00  0.00     0.282 C 
ENDBRANCH  18  20
ENDBRANCH  17  18
ENDBRANCH  16  17
ENDBRANCH  15  16
ENDBRANCH  14  15
ENDBRANCH  13  14
ENDBRANCH  12  13
ENDBRANCH   1  12
TORSDOF 15
ENDMDL
MODEL 5
REMARK VINA RESULT:    -4.530      4.460      8.472
REMARK INTER + INTRA:          -9.945
REMARK INTER:                  -8.540
REMARK INTRA:                  -1.404
REMARK UNBOUND:                -1.443
REMARK SMILES CCCCCC=CCC=CCCCCCCCC(=O)OC
REMARK SMILES IDX 11 1 10 2 9 3 8 4 7 5 6 6 5 7 4 8 3 9 2 10 1 11 12 12 13 13
REMARK SMILES IDX 14 14 15 15 16 16 17 17 18 18 19 19 20 20 21 21
REMARK H PARENT
REMARK Flexibility Score: inf
ROOT
ATOM      1  C   UNL     1      -8.433  -8.910   1.858  1.00  0.00     0.027 C 
ENDROOT
BRANCH   1   2
ATOM      2  C   UNL     1      -9.157  -7.920   2.728  1.00  0.00    -0.031 C 
ATOM      3  C   UNL     1      -9.121  -6.603   2.471  1.00  0.00    -0.027 C 
BRANCH   3   4
ATOM      4  C   UNL     1      -9.843  -5.612   3.339  1.00  0.00     0.054 C 
BRANCH   4   5
ATOM      5  C   UNL     1      -9.294  -5.637   4.738  1.00  0.00    -0.027 C 
ATOM      6  C   UNL     1      -9.125  -4.511   5.447  1.00  0.00    -0.031 C 
BRANCH   6   7
ATOM      7  C   UNL     1      -8.595  -4.537   6.856  1.00  0.00     0.027 C 
BRANCH   7   8
ATOM      8  C   UNL     1      -7.134  -5.004   6.923  1.00  0.00     0.004 C 
BRANCH   8   9
ATOM      9  C   UNL     1      -6.993  -6.371   7.609  1.00  0.00     0.000 C 
BRANCH   9  10
ATOM     10  C   UNL     1      -7.302  -6.270   9.106  1.00  0.00    -0.003 C 
ATOM     11  C   UNL     1      -7.794  -7.604   9.660  1.00  0.00     0.004 C 
ENDBRANCH   9  10
ENDBRANCH   8   9
ENDBRANCH   7   8
ENDBRANCH   6   7
ENDBRANCH   4   5
ENDBRANCH   3   4
ENDBRANCH   1   2
BRANCH   1  12
ATOM     12  C   UNL     1      -9.420  -9.879   1.188  1.00  0.00     0.004 C 
BRANCH  12  13
ATOM     13  C   UNL     1      -9.992  -9.326  -0.127  1.00  0.00     0.000 C 
BRANCH  13  14
ATOM     14  C   UNL     1     -11.478  -8.947  -0.008  1.00  0.00     0.000 C 
BRANCH  14  15
ATOM     15  C   UNL     1     -11.833  -7.663  -0.779  1.00  0.00     0.001 C 
BRANCH  15  16
ATOM     16  C   UNL     1     -10.708  -6.609  -0.850  1.00  0.00     0.012 C 
BRANCH  16  17
ATOM     17  C   UNL     1     -11.112  -5.287  -1.519  1.00  0.00     0.123 C 
BRANCH  17  18
ATOM     18  C   UNL     1     -10.333  -5.033  -2.772  1.00  0.00     0.305 C 
ATOM     19  O   UNL     1     -10.306  -3.876  -3.273  1.00  0.00    -0.252 OA
BRANCH  18  20
ATOM     20  O   UNL     1      -9.666  -6.094  -3.394  1.00  0.00    -0.469 OA
ATOM     21  C   UNL     1     -10.234  -6.829  -4.470  1.00  0.00     0.282 C 
ENDBRANCH  18  20
ENDBRANCH  17  18
ENDBRANCH  16  17
ENDBRANCH  15  16
ENDBRANCH  14  15
ENDBRANCH  13  14
ENDBRANCH  12  13
ENDBRANCH   1  12
TORSDOF 15
ENDMDL
MODEL 6
REMARK VINA RESULT:    -4.504      2.314      4.553
REMARK INTER + INTRA:          -9.897
REMARK INTER:                  -8.536
REMARK INTRA:                  -1.361
REMARK UNBOUND:                -1.443
REMARK SMILES CCCCCC=CCC=CCCCCCCCC(=O)OC
REMARK SMILES IDX 11 1 10 2 9 3 8 4 7 5 6 6 5 7 4 8 3 9 2 10 1 11 12 12 13 13
REMARK SMILES IDX 14 14 15 15 16 16 17 17 18 18 19 19 20 20 21 21
REMARK H PARENT
REMARK Flexibility Score: inf
ROOT
ATOM      1  C   UNL     1      -7.571  -9.617   3.143  1.00  0.00     0.027 C 
ENDROOT
BRANCH   1   2
ATOM      2  C   UNL     1      -8.119  -9.772   1.752  1.00  0.00    -0.031 C 
ATOM      3  C   UNL     1      -9.379  -9.423   1.451  1.00  0.00    -0.027 C 
BRANCH   3   4
ATOM      4  C   UNL     1      -9.930  -9.577   0.062  1.00  0.00     0.054 C 
BRANCH   4   5
ATOM      5  C   UNL     1     -10.689  -8.345  -0.344  1.00  0.00    -0.027 C 
ATOM      6  C   UNL     1     -10.163  -7.118  -0.208  1.00  0.00    -0.031 C 
BRANCH   6   7
ATOM      7  C   UNL     1     -10.914  -5.886  -0.634  1.00  0.00     0.027 C 
BRANCH   7   8
ATOM      8  C   UNL     1     -11.293  -5.916  -2.122  1.00  0.00     0.004 C 
BRANCH   8   9
ATOM      9  C   UNL     1     -10.105  -5.563  -3.030  1.00  0.00     0.000 C 
BRANCH   9  10
ATOM     10  C   UNL     1     -10.106  -6.426  -4.296  1.00  0.00    -0.003 C 
ATOM     11  C   UNL     1     -10.425  -7.882  -3.971  1.00  0.00     0.004 C 
ENDBRANCH   9  10
ENDBRANCH   8   9
ENDBRANCH   7   8
ENDBRANCH   6   7
ENDBRANCH   4   5
ENDBRANCH   3   4
ENDBRANCH   1   2
BRANCH   1  12
ATOM     12  C   UNL     1      -8.570  -8.881   4.050  1.00  0.00     0.004 C 
BRANCH  12  13
ATOM     13  C   UNL     1      -8.196  -7.406   4.266  1.00  0.00     0.000 C 
BRANCH  13  14
ATOM     14  C   UNL     1      -7.736  -7.122   5.706  1.00  0.00     0.000 C 
BRANCH  14  15
ATOM     15  C   UNL     1      -6.675  -6.008   5.787  1.00  0.00     0.001 C 
BRANCH  15  16
ATOM     16  C   UNL     1      -7.087  -4.769   6.609  1.00  0.00     0.012 C 
BRANCH  16  17
ATOM     17  C   UNL     1      -8.597  -4.645   6.864  1.00  0.00     0.123 C 
BRANCH  17  18
ATOM     18  C   UNL     1      -9.252  -3.710   5.895  1.00  0.00     0.305 C 
ATOM     19  O   UNL     1      -9.823  -4.168   4.869  1.00  0.00    -0.252 OA
BRANCH  18  20
ATOM     20  O   UNL     1      -9.196  -2.331   6.125  1.00  0.00    -0.469 OA
ATOM     21  C   UNL     1     -10.360  -1.520   6.197  1.00  0.00     0.282 C 
ENDBRANCH  18  20
ENDBRANCH  17  18
ENDBRANCH  16  17
ENDBRANCH  15  16
ENDBRANCH  14  15
ENDBRANCH  13  14
ENDBRANCH  12  13
ENDBRANCH   1  12
TORSDOF 15
ENDMDL
MODEL 7
REMARK VINA RESULT:    -4.494      3.341      4.905
REMARK INTER + INTRA:          -9.878
REMARK INTER:                  -8.515
REMARK INTRA:                  -1.363
REMARK UNBOUND:                -1.443
REMARK SMILES CCCCCC=CCC=CCCCCCCCC(=O)OC
REMARK SMILES IDX 11 1 10 2 9 3 8 4 7 5 6 6 5 7 4 8 3 9 2 10 1 11 12 12 13 13
REMARK SMILES IDX 14 14 15 15 16 16 17 17 18 18 19 19 20 20 21 21
REMARK H PARENT
REMARK Flexibility Score: inf
ROOT
ATOM      1  C   UNL     1      -7.832  -9.638   3.343  1.00  0.00     0.027 C 
ENDROOT
BRANCH   1   2
ATOM      2  C   UNL     1      -8.881  -9.817   2.281  1.00  0.00    -0.031 C 
ATOM      3  C   UNL     1      -8.819  -9.154   1.116  1.00  0.00    -0.027 C 
BRANCH   3   4
ATOM      4  C   UNL     1      -9.866  -9.330   0.053  1.00  0.00     0.054 C 
BRANCH   4   5
ATOM      5  C   UNL     1     -10.627  -8.051  -0.155  1.00  0.00    -0.027 C 
ATOM      6  C   UNL     1     -10.138  -6.868   0.249  1.00  0.00    -0.031 C 
BRANCH   6   7
ATOM      7  C   UNL     1     -10.890  -5.584   0.022  1.00  0.00     0.027 C 
BRANCH   7   8
ATOM      8  C   UNL     1     -11.979  -5.725  -1.051  1.00  0.00     0.004 C 
BRANCH   8   9
ATOM      9  C   UNL     1     -11.879  -4.633  -2.127  1.00  0.00     0.000 C 
BRANCH   9  10
ATOM     10  C   UNL     1     -10.496  -4.638  -2.788  1.00  0.00    -0.003 C 
ATOM     11  C   UNL     1     -10.273  -5.915  -3.592  1.00  0.00     0.004 C 
ENDBRANCH   9  10
ENDBRANCH   8   9
ENDBRANCH   7   8
ENDBRANCH   6   7
ENDBRANCH   4   5
ENDBRANCH   3   4
ENDBRANCH   1   2
BRANCH   1  12
ATOM     12  C   UNL     1      -8.328  -8.700   4.455  1.00  0.00     0.004 C 
BRANCH  12  13
ATOM     13  C   UNL     1      -8.285  -7.220   4.045  1.00  0.00     0.000 C 
BRANCH  13  14
ATOM     14  C   UNL     1      -9.565  -6.463   4.437  1.00  0.00     0.000 C 
BRANCH  14  15
ATOM     15  C   UNL     1      -9.347  -4.945   4.570  1.00  0.00     0.001 C 
BRANCH  15  16
ATOM     16  C   UNL     1      -8.898  -4.468   5.967  1.00  0.00     0.012 C 
BRANCH  16  17
ATOM     17  C   UNL     1      -7.440  -4.800   6.318  1.00  0.00     0.123 C 
BRANCH  17  18
ATOM     18  C   UNL     1      -7.319  -5.420   7.676  1.00  0.00     0.305 C 
ATOM     19  O   UNL     1      -6.970  -6.626   7.787  1.00  0.00    -0.252 OA
BRANCH  18  20
ATOM     20  O   UNL     1      -7.628  -4.660   8.809  1.00  0.00    -0.469 OA
ATOM     21  C   UNL     1      -8.838  -4.828   9.536  1.00  0.00     0.282 C 
ENDBRANCH  18  20
ENDBRANCH  17  18
ENDBRANCH  16  17
ENDBRANCH  15  16
ENDBRANCH  14  15
ENDBRANCH  13  14
ENDBRANCH  12  13
ENDBRANCH   1  12
TORSDOF 15
ENDMDL
MODEL 8
REMARK VINA RESULT:    -4.473      5.106      9.379
REMARK INTER + INTRA:          -9.838
REMARK INTER:                  -8.656
REMARK INTRA:                  -1.182
REMARK UNBOUND:                -1.443
REMARK SMILES CCCCCC=CCC=CCCCCCCCC(=O)OC
REMARK SMILES IDX 11 1 10 2 9 3 8 4 7 5 6 6 5 7 4 8 3 9 2 10 1 11 12 12 13 13
REMARK SMILES IDX 14 14 15 15 16 16 17 17 18 18 19 19 20 20 21 21
REMARK H PARENT
REMARK Flexibility Score: inf
ROOT
ATOM      1  C   UNL     1      -9.426  -7.184   0.506  1.00  0.00     0.027 C 
ENDROOT
BRANCH   1   2
ATOM      2  C   UNL     1      -9.012  -7.256   1.949  1.00  0.00    -0.031 C 
ATOM      3  C   UNL     1      -8.384  -8.333   2.446  1.00  0.00    -0.027 C 
BRANCH   3   4
ATOM      4  C   UNL     1      -7.970  -8.407   3.888  1.00  0.00     0.054 C 
BRANCH   4   5
ATOM      5  C   UNL     1      -8.220  -7.096   4.578  1.00  0.00    -0.027 C 
ATOM      6  C   UNL     1      -7.402  -6.639   5.538  1.00  0.00    -0.031 C 
BRANCH   6   7
ATOM      7  C   UNL     1      -7.640  -5.315   6.214  1.00  0.00     0.027 C 
BRANCH   7   8
ATOM      8  C   UNL     1      -6.916  -5.208   7.563  1.00  0.00     0.004 C 
BRANCH   8   9
ATOM      9  C   UNL     1      -7.867  -4.810   8.702  1.00  0.00     0.000 C 
BRANCH   9  10
ATOM     10  C   UNL     1      -7.958  -5.919   9.755  1.00  0.00    -0.003 C 
ATOM     11  C   UNL     1      -7.156  -7.147   9.335  1.00  0.00     0.004 C 
ENDBRANCH   9  10
ENDBRANCH   8   9
ENDBRANCH   7   8
ENDBRANCH   6   7
ENDBRANCH   4   5
ENDBRANCH   3   4
ENDBRANCH   1   2
BRANCH   1  12
ATOM     12  C   UNL     1     -10.239  -8.425   0.104  1.00  0.00     0.004 C 
BRANCH  12  13
ATOM     13  C   UNL     1     -11.640  -8.071  -0.418  1.00  0.00     0.000 C 
BRANCH  13  14
ATOM     14  C   UNL     1     -11.904  -8.635  -1.825  1.00  0.00     0.000 C 
BRANCH  14  15
ATOM     15  C   UNL     1     -10.645  -9.243  -2.472  1.00  0.00     0.001 C 
BRANCH  15  16
ATOM     16  C   UNL     1     -10.517  -9.016  -3.993  1.00  0.00     0.012 C 
BRANCH  16  17
ATOM     17  C   UNL     1     -11.182  -7.730  -4.506  1.00  0.00     0.123 C 
BRANCH  17  18
ATOM     18  C   UNL     1     -10.174  -6.733  -4.988  1.00  0.00     0.305 C 
ATOM     19  O   UNL     1      -9.867  -6.691  -6.209  1.00  0.00    -0.252 OA
BRANCH  18  20
ATOM     20  O   UNL     1      -9.558  -5.878  -4.067  1.00  0.00    -0.469 OA
ATOM     21  C   UNL     1     -10.205  -5.440  -2.879  1.00  0.00     0.282 C 
ENDBRANCH  18  20
ENDBRANCH  17  18
ENDBRANCH  16  17
ENDBRANCH  15  16
ENDBRANCH  14  15
ENDBRANCH  13  14
ENDBRANCH  12  13
ENDBRANCH   1  12
TORSDOF 15
ENDMDL
