MODEL 1
REMARK VINA RESULT:    -4.700      0.000      0.000
REMARK INTER + INTRA:          -5.307
REMARK INTER:                  -5.249
REMARK INTRA:                  -0.058
REMARK UNBOUND:                -0.058
REMARK SMILES COc1ccc(C(=O)[O-])cc1
REMARK SMILES IDX 6 1 5 2 10 3 4 4 11 5 3 6 7 7 8 8 9 9 2 10 1 11
REMARK H PARENT
REMARK Flexibility Score: inf
ROOT
ATOM      1  C   UNL     1      16.521  40.171 -13.110  1.00  0.00    -0.003 A 
ATOM      2  C   UNL     1      15.150  40.444 -12.969  1.00  0.00     0.014 A 
ATOM      3  C   UNL     1      16.928  38.851 -13.372  1.00  0.00     0.014 A 
ATOM      4  C   UNL     1      14.207  39.419 -13.087  1.00  0.00     0.047 A 
ATOM      5  C   UNL     1      15.983  37.826 -13.490  1.00  0.00     0.047 A 
ATOM      6  C   UNL     1      14.612  38.106 -13.348  1.00  0.00     0.118 A 
ENDROOT
BRANCH   1   7
ATOM      7  C   UNL     1      17.524  41.252 -12.987  1.00  0.00     0.071 C 
ATOM      8  O   UNL     1      17.909  41.642 -11.854  1.00  0.00    -0.545 OA
ATOM      9  O   UNL     1      18.056  41.852 -14.124  1.00  0.00    -0.545 OA
ENDBRANCH   1   7
BRANCH   6  10
ATOM     10  O   UNL     1      13.626  37.114 -13.456  1.00  0.00    -0.497 OA
ATOM     11  C   UNL     1      12.379  37.290 -14.120  1.00  0.00     0.278 C 
ENDBRANCH   6  10
TORSDOF 2
ENDMDL
MODEL 2
REMARK VINA RESULT:    -4.541      0.366      1.486
REMARK INTER + INTRA:          -5.130
REMARK INTER:                  -5.071
REMARK INTRA:                  -0.058
REMARK UNBOUND:                -0.058
REMARK SMILES COc1ccc(C(=O)[O-])cc1
REMARK SMILES IDX 6 1 5 2 10 3 4 4 11 5 3 6 7 7 8 8 9 9 2 10 1 11
REMARK H PARENT
REMARK Flexibility Score: inf
ROOT
ATOM      1  C   UNL     1      16.561  40.220 -13.299  1.00  0.00    -0.003 A 
ATOM      2  C   UNL     1      16.891  38.984 -13.882  1.00  0.00     0.014 A 
ATOM      3  C   UNL     1      15.223  40.471 -12.951  1.00  0.00     0.014 A 
ATOM      4  C   UNL     1      15.904  38.022 -14.110  1.00  0.00     0.047 A 
ATOM      5  C   UNL     1      14.236  39.507 -13.180  1.00  0.00     0.047 A 
ATOM      6  C   UNL     1      14.572  38.272 -13.763  1.00  0.00     0.118 A 
ENDROOT
BRANCH   1   7
ATOM      7  C   UNL     1      17.602  41.242 -13.054  1.00  0.00     0.071 C 
ATOM      8  O   UNL     1      17.853  41.634 -11.884  1.00  0.00    -0.545 OA
ATOM      9  O   UNL     1      18.320  41.784 -14.115  1.00  0.00    -0.545 OA
ENDBRANCH   1   7
BRANCH   6  10
ATOM     10  O   UNL     1      13.620  37.273 -14.014  1.00  0.00    -0.497 OA
ATOM     11  C   UNL     1      12.219  37.507 -14.122  1.00  0.00     0.278 C 
ENDBRANCH   6  10
TORSDOF 2
ENDMDL
MODEL 3
REMARK VINA RESULT:    -4.494      1.268      1.652
REMARK INTER + INTRA:          -5.077
REMARK INTER:                  -5.010
REMARK INTRA:                  -0.067
REMARK UNBOUND:                -0.058
REMARK SMILES COc1ccc(C(=O)[O-])cc1
REMARK SMILES IDX 6 1 5 2 10 3 4 4 11 5 3 6 7 7 8 8 9 9 2 10 1 11
REMARK H PARENT
REMARK Flexibility Score: inf
ROOT
ATOM      1  C   UNL     1      15.917  39.191 -13.603  1.00  0.00    -0.003 A 
ATOM      2  C   UNL     1      14.701  39.895 -13.597  1.00  0.00     0.014 A 
ATOM      3  C   UNL     1      15.893  37.794 -13.761  1.00  0.00     0.014 A 
ATOM      4  C   UNL     1      13.488  39.217 -13.748  1.00  0.00     0.047 A 
ATOM      5  C   UNL     1      14.679  37.117 -13.912  1.00  0.00     0.047 A 
ATOM      6  C   UNL     1      13.465  37.826 -13.907  1.00  0.00     0.118 A 
ENDROOT
BRANCH   1   7
ATOM      7  C   UNL     1      17.204  39.904 -13.444  1.00  0.00     0.071 C 
ATOM      8  O   UNL     1      18.212  39.563 -14.118  1.00  0.00    -0.545 OA
ATOM      9  O   UNL     1      17.317  40.962 -12.549  1.00  0.00    -0.545 OA
ENDBRANCH   1   7
BRANCH   6  10
ATOM     10  O   UNL     1      12.222  37.194 -14.054  1.00  0.00    -0.497 OA
ATOM     11  C   UNL     1      10.975  37.878 -14.124  1.00  0.00     0.278 C 
ENDBRANCH   6  10
TORSDOF 2
ENDMDL
MODEL 4
REMARK VINA RESULT:    -4.180      0.986      4.939
REMARK INTER + INTRA:          -4.726
REMARK INTER:                  -4.667
REMARK INTRA:                  -0.059
REMARK UNBOUND:                -0.058
REMARK SMILES COc1ccc(C(=O)[O-])cc1
REMARK SMILES IDX 6 1 5 2 10 3 4 4 11 5 3 6 7 7 8 8 9 9 2 10 1 11
REMARK H PARENT
REMARK Flexibility Score: inf
ROOT
ATOM      1  C   UNL     1      14.443  38.551 -13.358  1.00  0.00    -0.003 A 
ATOM      2  C   UNL     1      15.719  38.204 -13.835  1.00  0.00     0.014 A 
ATOM      3  C   UNL     1      14.260  39.807 -12.755  1.00  0.00     0.014 A 
ATOM      4  C   UNL     1      16.788  39.096 -13.711  1.00  0.00     0.047 A 
ATOM      5  C   UNL     1      15.331  40.698 -12.631  1.00  0.00     0.047 A 
ATOM      6  C   UNL     1      16.606  40.347 -13.111  1.00  0.00     0.118 A 
ENDROOT
BRANCH   1   7
ATOM      7  C   UNL     1      13.308  37.611 -13.488  1.00  0.00     0.071 C 
ATOM      8  O   UNL     1      13.477  36.375 -13.318  1.00  0.00    -0.545 OA
ATOM      9  O   UNL     1      12.036  38.082 -13.797  1.00  0.00    -0.545 OA
ENDBRANCH   1   7
BRANCH   6  10
ATOM     10  O   UNL     1      17.711  41.205 -13.010  1.00  0.00    -0.497 OA
ATOM     11  C   UNL     1      18.388  41.777 -14.125  1.00  0.00     0.278 C 
ENDBRANCH   6  10
TORSDOF 2
ENDMDL
MODEL 5
REMARK VINA RESULT:    -3.648      2.591      5.191
REMARK INTER + INTRA:          -4.132
REMARK INTER:                  -4.081
REMARK INTRA:                  -0.051
REMARK UNBOUND:                -0.058
REMARK SMILES COc1ccc(C(=O)[O-])cc1
REMARK SMILES IDX 6 1 5 2 10 3 4 4 11 5 3 6 7 7 8 8 9 9 2 10 1 11
REMARK H PARENT
REMARK Flexibility Score: inf
ROOT
ATOM      1  C   UNL     1      13.536  38.694 -12.449  1.00  0.00    -0.003 A 
ATOM      2  C   UNL     1      14.326  39.728 -12.979  1.00  0.00     0.014 A 
ATOM      3  C   UNL     1      13.136  38.766 -11.103  1.00  0.00     0.014 A 
ATOM      4  C   UNL     1      14.709  40.809 -12.181  1.00  0.00     0.047 A 
ATOM      5  C   UNL     1      13.519  39.849 -10.305  1.00  0.00     0.047 A 
ATOM      6  C   UNL     1      14.311  40.881 -10.841  1.00  0.00     0.118 A 
ENDROOT
BRANCH   1   7
ATOM      7  C   UNL     1      13.127  37.548 -13.290  1.00  0.00     0.071 C 
ATOM      8  O   UNL     1      12.052  37.584 -13.944  1.00  0.00    -0.545 OA
ATOM      9  O   UNL     1      13.928  36.413 -13.370  1.00  0.00    -0.545 OA
ENDBRANCH   1   7
BRANCH   6  10
ATOM     10  O   UNL     1      14.721  41.987 -10.082  1.00  0.00    -0.497 OA
ATOM     11  C   UNL     1      13.882  43.088  -9.747  1.00  0.00     0.278 C 
ENDBRANCH   6  10
TORSDOF 2
ENDMDL
MODEL 6
REMARK VINA RESULT:    -3.372      3.127      4.744
REMARK INTER + INTRA:          -3.824
REMARK INTER:                  -3.767
REMARK INTRA:                  -0.057
REMARK UNBOUND:                -0.058
REMARK SMILES COc1ccc(C(=O)[O-])cc1
REMARK SMILES IDX 6 1 5 2 10 3 4 4 11 5 3 6 7 7 8 8 9 9 2 10 1 11
REMARK H PARENT
REMARK Flexibility Score: inf
ROOT
ATOM      1  C   UNL     1      13.127  39.351 -10.646  1.00  0.00    -0.003 A 
ATOM      2  C   UNL     1      13.126  38.078 -11.241  1.00  0.00     0.014 A 
ATOM      3  C   UNL     1      13.908  40.369 -11.219  1.00  0.00     0.014 A 
ATOM      4  C   UNL     1      13.890  37.829 -12.385  1.00  0.00     0.047 A 
ATOM      5  C   UNL     1      14.672  40.119 -12.364  1.00  0.00     0.047 A 
ATOM      6  C   UNL     1      14.667  38.843 -12.956  1.00  0.00     0.118 A 
ENDROOT
BRANCH   1   7
ATOM      7  C   UNL     1      12.320  39.620  -9.435  1.00  0.00     0.071 C 
ATOM      8  O   UNL     1      12.738  40.411  -8.549  1.00  0.00    -0.545 OA
ATOM      9  O   UNL     1      11.086  39.003  -9.261  1.00  0.00    -0.545 OA
ENDBRANCH   1   7
BRANCH   6  10
ATOM     10  O   UNL     1      15.416  38.542 -14.104  1.00  0.00    -0.497 OA
ATOM     11  C   UNL     1      16.829  38.367 -14.118  1.00  0.00     0.278 C 
ENDBRANCH   6  10
TORSDOF 2
ENDMDL
MODEL 7
REMARK VINA RESULT:    -3.149      1.968      2.366
REMARK INTER + INTRA:          -3.575
REMARK INTER:                  -3.510
REMARK INTRA:                  -0.064
REMARK UNBOUND:                -0.058
REMARK SMILES COc1ccc(C(=O)[O-])cc1
REMARK SMILES IDX 6 1 5 2 10 3 4 4 11 5 3 6 7 7 8 8 9 9 2 10 1 11
REMARK H PARENT
REMARK Flexibility Score: inf
ROOT
ATOM      1  C   UNL     1      16.030  39.688 -13.052  1.00  0.00    -0.003 A 
ATOM      2  C   UNL     1      15.225  40.652 -12.422  1.00  0.00     0.014 A 
ATOM      3  C   UNL     1      15.659  38.334 -12.971  1.00  0.00     0.014 A 
ATOM      4  C   UNL     1      14.075  40.270 -11.726  1.00  0.00     0.047 A 
ATOM      5  C   UNL     1      14.507  37.954 -12.275  1.00  0.00     0.047 A 
ATOM      6  C   UNL     1      13.705  38.923 -11.646  1.00  0.00     0.118 A 
ENDROOT
BRANCH   1   7
ATOM      7  C   UNL     1      17.248  40.086 -13.791  1.00  0.00     0.071 C 
ATOM      8  O   UNL     1      17.431  41.286 -14.125  1.00  0.00    -0.545 OA
ATOM      9  O   UNL     1      18.210  39.139 -14.125  1.00  0.00    -0.545 OA
ENDBRANCH   1   7
BRANCH   6  10
ATOM     10  O   UNL     1      12.542  38.592 -10.935  1.00  0.00    -0.497 OA
ATOM     11  C   UNL     1      12.248  39.049  -9.619  1.00  0.00     0.278 C 
ENDBRANCH   6  10
TORSDOF 2
ENDMDL
