MODEL 1
REMARK VINA RESULT:    -6.885      0.000      0.000
REMARK INTER + INTRA:          -7.631
REMARK INTER:                  -7.489
REMARK INTRA:                  -0.142
REMARK UNBOUND:                -0.142
REMARK SMILES C[C@H]1[C@H]2C3=CC[C@@H]4[C@]5(C)CC[C@H](O)C(C)(C)[C@@H]5CC[C@]4(C)[C@@]3(C)CC[C@@]2(C(=O)[O-])CC[C@@H]1C
REMARK SMILES IDX 26 1 30 2 25 3 3 4 31 5 24 6 4 7 2 8 32 9 22 10 5 11 1 12
REMARK SMILES IDX 33 13 23 14 20 15 6 16 7 17 19 18 21 19 8 20 18 21 17 22
REMARK SMILES IDX 10 23 9 24 14 25 11 26 12 27 15 28 16 29 27 30 28 31 29 32
REMARK SMILES IDX 13 33
REMARK H PARENT 13 34
REMARK Flexibility Score: inf
ROOT
ATOM      1  C   UNL     1      -5.168  92.104 -11.630  1.00  0.00     0.017 C 
ATOM      2  C   UNL     1      -4.178  91.488 -12.653  1.00  0.00     0.014 C 
ATOM      3  C   UNL     1      -4.742  91.644 -10.196  1.00  0.00     0.014 C 
ATOM      4  C   UNL     1      -6.628  91.613 -11.963  1.00  0.00     0.030 C 
ATOM      5  C   UNL     1      -4.528  91.862 -14.095  1.00  0.00     0.004 C 
ATOM      6  C   UNL     1      -5.959  91.511  -9.272  1.00  0.00     0.013 C 
ATOM      7  C   UNL     1      -6.886  90.270 -11.248  1.00  0.00    -0.063 C 
ATOM      8  C   UNL     1      -7.007  91.787 -13.479  1.00  0.00    -0.003 C 
ATOM      9  C   UNL     1      -5.911  91.325 -14.494  1.00  0.00    -0.011 C 
ATOM     10  C   UNL     1      -6.922  90.304  -9.693  1.00  0.00    -0.006 C 
ATOM     11  C   UNL     1      -6.774  89.119 -11.922  1.00  0.00    -0.027 C 
ATOM     12  C   UNL     1      -8.404  91.221 -13.800  1.00  0.00     0.008 C 
ATOM     13  C   UNL     1      -6.235  91.786 -15.925  1.00  0.00     0.008 C 
ATOM     14  C   UNL     1      -8.358  90.773  -9.313  1.00  0.00     0.017 C 
ATOM     15  C   UNL     1      -6.562  88.850  -8.973  1.00  0.00    -0.020 C 
ATOM     16  C   UNL     1      -6.638  87.798 -11.270  1.00  0.00     0.032 C 
ATOM     17  C   UNL     1      -5.802  87.881  -9.961  1.00  0.00     0.006 C 
ATOM     18  C   UNL     1      -7.845  88.067  -8.485  1.00  0.00     0.008 C 
ATOM     19  C   UNL     1      -5.691  89.140  -7.711  1.00  0.00     0.012 C 
ATOM     20  C   UNL     1      -5.386  86.428  -9.354  1.00  0.00    -0.025 C 
ATOM     21  C   UNL     1      -7.768  86.520  -8.413  1.00  0.00     0.005 C 
ATOM     22  C   UNL     1      -6.350  85.950  -8.175  1.00  0.00     0.003 C 
ATOM     23  C   UNL     1      -5.377  85.344 -10.489  1.00  0.00     0.010 C 
ATOM     24  C   UNL     1      -3.919  86.563  -8.834  1.00  0.00     0.012 C 
ATOM     25  C   UNL     1      -6.318  84.392  -7.802  1.00  0.00    -0.006 C 
ATOM     26  C   UNL     1      -5.168  83.902 -10.033  1.00  0.00     0.033 C 
ATOM     27  C   UNL     1      -6.271  83.478  -9.060  1.00  0.00     0.120 C 
ATOM     28  C   UNL     1      -5.088  84.070  -6.895  1.00  0.00     0.014 C 
ATOM     29  C   UNL     1      -7.547  83.972  -6.945  1.00  0.00     0.014 C 
ENDROOT
BRANCH   1  30
ATOM     30  C   UNL     1      -5.086  93.630 -11.672  1.00  0.00     0.048 C 
ATOM     31  O   UNL     1      -3.965  94.206 -11.706  1.00  0.00    -0.550 OA
ATOM     32  O   UNL     1      -6.231  94.414 -11.586  1.00  0.00    -0.550 OA
ENDBRANCH   1  30
BRANCH  27  33
ATOM     33  O   UNL     1      -7.515  83.495  -9.724  1.00  0.00    -0.393 OA
ATOM     34  H   UNL     1      -8.208  83.274  -9.048  1.00  0.00     0.210 HD
ENDBRANCH  27  33
TORSDOF 2
ENDMDL
MODEL 2
REMARK VINA RESULT:    -6.627      2.137      7.845
REMARK INTER + INTRA:          -7.350
REMARK INTER:                  -7.208
REMARK INTRA:                  -0.143
REMARK UNBOUND:                -0.142
REMARK SMILES C[C@H]1[C@H]2C3=CC[C@@H]4[C@]5(C)CC[C@H](O)C(C)(C)[C@@H]5CC[C@]4(C)[C@@]3(C)CC[C@@]2(C(=O)[O-])CC[C@@H]1C
REMARK SMILES IDX 26 1 30 2 25 3 3 4 31 5 24 6 4 7 2 8 32 9 22 10 5 11 1 12
REMARK SMILES IDX 33 13 23 14 20 15 6 16 7 17 19 18 21 19 8 20 18 21 17 22
REMARK SMILES IDX 10 23 9 24 14 25 11 26 12 27 15 28 16 29 27 30 28 31 29 32
REMARK SMILES IDX 13 33
REMARK H PARENT 13 34
REMARK Flexibility Score: inf
ROOT
ATOM      1  C   UNL     1      -6.574  88.015  -9.464  1.00  0.00     0.017 C 
ATOM      2  C   UNL     1      -5.240  87.276  -9.745  1.00  0.00     0.014 C 
ATOM      3  C   UNL     1      -7.440  87.977 -10.768  1.00  0.00     0.014 C 
ATOM      4  C   UNL     1      -6.264  89.502  -9.043  1.00  0.00     0.030 C 
ATOM      5  C   UNL     1      -4.309  87.281  -8.531  1.00  0.00     0.004 C 
ATOM      6  C   UNL     1      -8.322  89.227 -10.883  1.00  0.00     0.013 C 
ATOM      7  C   UNL     1      -6.165  90.377 -10.311  1.00  0.00    -0.063 C 
ATOM      8  C   UNL     1      -5.168  89.609  -7.921  1.00  0.00    -0.003 C 
ATOM      9  C   UNL     1      -3.907  88.710  -8.137  1.00  0.00    -0.011 C 
ATOM     10  C   UNL     1      -7.472  90.559 -11.135  1.00  0.00    -0.006 C 
ATOM     11  C   UNL     1      -4.966  90.691 -10.817  1.00  0.00    -0.027 C 
ATOM     12  C   UNL     1      -4.815  91.072  -7.587  1.00  0.00     0.008 C 
ATOM     13  C   UNL     1      -3.027  88.656  -6.877  1.00  0.00     0.008 C 
ATOM     14  C   UNL     1      -8.266  91.694 -10.423  1.00  0.00     0.017 C 
ATOM     15  C   UNL     1      -7.219  90.925 -12.737  1.00  0.00    -0.020 C 
ATOM     16  C   UNL     1      -4.766  91.195 -12.194  1.00  0.00     0.032 C 
ATOM     17  C   UNL     1      -5.758  90.546 -13.199  1.00  0.00     0.006 C 
ATOM     18  C   UNL     1      -7.399  92.462 -13.056  1.00  0.00     0.008 C 
ATOM     19  C   UNL     1      -8.281  90.153 -13.581  1.00  0.00     0.012 C 
ATOM     20  C   UNL     1      -5.405  90.849 -14.760  1.00  0.00    -0.025 C 
ATOM     21  C   UNL     1      -6.607  93.054 -14.250  1.00  0.00     0.005 C 
ATOM     22  C   UNL     1      -6.270  92.043 -15.371  1.00  0.00     0.003 C 
ATOM     23  C   UNL     1      -3.879  91.179 -14.921  1.00  0.00     0.010 C 
ATOM     24  C   UNL     1      -5.675  89.526 -15.546  1.00  0.00     0.012 C 
ATOM     25  C   UNL     1      -5.727  92.712 -16.722  1.00  0.00    -0.006 C 
ATOM     26  C   UNL     1      -3.439  91.647 -16.305  1.00  0.00     0.033 C 
ATOM     27  C   UNL     1      -4.186  92.923 -16.706  1.00  0.00     0.120 C 
ATOM     28  C   UNL     1      -6.106  91.837 -17.959  1.00  0.00     0.014 C 
ATOM     29  C   UNL     1      -6.399  94.086 -17.005  1.00  0.00     0.014 C 
ENDROOT
BRANCH   1  30
ATOM     30  C   UNL     1      -7.355  87.293  -8.366  1.00  0.00     0.048 C 
ATOM     31  O   UNL     1      -7.448  86.035  -8.374  1.00  0.00    -0.550 OA
ATOM     32  O   UNL     1      -8.048  88.002  -7.392  1.00  0.00    -0.550 OA
ENDBRANCH   1  30
BRANCH  27  33
ATOM     33  O   UNL     1      -3.843  93.965 -15.820  1.00  0.00    -0.393 OA
ATOM     34  H   UNL     1      -4.079  93.659 -14.906  1.00  0.00     0.210 HD
ENDBRANCH  27  33
TORSDOF 2
ENDMDL
MODEL 3
REMARK VINA RESULT:    -6.516      3.996      6.466
REMARK INTER + INTRA:          -7.229
REMARK INTER:                  -7.160
REMARK INTRA:                  -0.069
REMARK UNBOUND:                -0.142
REMARK SMILES C[C@H]1[C@H]2C3=CC[C@@H]4[C@]5(C)CC[C@H](O)C(C)(C)[C@@H]5CC[C@]4(C)[C@@]3(C)CC[C@@]2(C(=O)[O-])CC[C@@H]1C
REMARK SMILES IDX 26 1 30 2 25 3 3 4 31 5 24 6 4 7 2 8 32 9 22 10 5 11 1 12
REMARK SMILES IDX 33 13 23 14 20 15 6 16 7 17 19 18 21 19 8 20 18 21 17 22
REMARK SMILES IDX 10 23 9 24 14 25 11 26 12 27 15 28 16 29 27 30 28 31 29 32
REMARK SMILES IDX 13 33
REMARK H PARENT 13 34
REMARK Flexibility Score: inf
ROOT
ATOM      1  C   UNL     1      -6.152  93.048 -16.701  1.00  0.00     0.017 C 
ATOM      2  C   UNL     1      -5.408  94.406 -16.607  1.00  0.00     0.014 C 
ATOM      3  C   UNL     1      -7.323  93.056 -15.661  1.00  0.00     0.014 C 
ATOM      4  C   UNL     1      -5.139  91.881 -16.391  1.00  0.00     0.030 C 
ATOM      5  C   UNL     1      -4.225  94.485 -17.573  1.00  0.00     0.004 C 
ATOM      6  C   UNL     1      -7.596  91.646 -15.123  1.00  0.00     0.013 C 
ATOM      7  C   UNL     1      -5.098  91.637 -14.868  1.00  0.00    -0.063 C 
ATOM      8  C   UNL     1      -3.802  91.992 -17.210  1.00  0.00    -0.003 C 
ATOM      9  C   UNL     1      -3.166  93.419 -17.252  1.00  0.00    -0.011 C 
ATOM     10  C   UNL     1      -6.401  91.092 -14.214  1.00  0.00    -0.006 C 
ATOM     11  C   UNL     1      -4.108  92.155 -14.131  1.00  0.00    -0.027 C 
ATOM     12  C   UNL     1      -2.790  90.892 -16.828  1.00  0.00     0.008 C 
ATOM     13  C   UNL     1      -2.036  93.505 -18.292  1.00  0.00     0.008 C 
ATOM     14  C   UNL     1      -6.383  89.553 -14.454  1.00  0.00     0.017 C 
ATOM     15  C   UNL     1      -6.546  91.439 -12.596  1.00  0.00    -0.020 C 
ATOM     16  C   UNL     1      -4.169  92.294 -12.660  1.00  0.00     0.032 C 
ATOM     17  C   UNL     1      -5.604  92.632 -12.168  1.00  0.00     0.006 C 
ATOM     18  C   UNL     1      -6.167  90.220 -11.665  1.00  0.00     0.008 C 
ATOM     19  C   UNL     1      -8.040  91.790 -12.310  1.00  0.00     0.012 C 
ATOM     20  C   UNL     1      -5.676  93.068 -10.600  1.00  0.00    -0.025 C 
ATOM     21  C   UNL     1      -5.628  90.530 -10.244  1.00  0.00     0.005 C 
ATOM     22  C   UNL     1      -6.116  91.869  -9.643  1.00  0.00     0.003 C 
ATOM     23  C   UNL     1      -4.289  93.629 -10.125  1.00  0.00     0.010 C 
ATOM     24  C   UNL     1      -6.704  94.241 -10.508  1.00  0.00     0.012 C 
ATOM     25  C   UNL     1      -5.808  92.042  -8.079  1.00  0.00    -0.006 C 
ATOM     26  C   UNL     1      -4.162  93.921  -8.632  1.00  0.00     0.033 C 
ATOM     27  C   UNL     1      -4.401  92.649  -7.812  1.00  0.00     0.120 C 
ATOM     28  C   UNL     1      -6.888  92.946  -7.404  1.00  0.00     0.014 C 
ATOM     29  C   UNL     1      -5.905  90.691  -7.313  1.00  0.00     0.014 C 
ENDROOT
BRANCH   1  30
ATOM     30  C   UNL     1      -6.766  92.879 -18.091  1.00  0.00     0.048 C 
ATOM     31  O   UNL     1      -7.649  93.682 -18.498  1.00  0.00    -0.550 OA
ATOM     32  O   UNL     1      -6.432  91.797 -18.897  1.00  0.00    -0.550 OA
ENDBRANCH   1  30
BRANCH  27  33
ATOM     33  O   UNL     1      -3.397  91.706  -8.106  1.00  0.00    -0.393 OA
ATOM     34  H   UNL     1      -2.991  91.972  -8.972  1.00  0.00     0.210 HD
ENDBRANCH  27  33
TORSDOF 2
ENDMDL
MODEL 4
REMARK VINA RESULT:    -6.171      3.387      8.282
REMARK INTER + INTRA:          -6.854
REMARK INTER:                  -6.712
REMARK INTRA:                  -0.142
REMARK UNBOUND:                -0.142
REMARK SMILES C[C@H]1[C@H]2C3=CC[C@@H]4[C@]5(C)CC[C@H](O)C(C)(C)[C@@H]5CC[C@]4(C)[C@@]3(C)CC[C@@]2(C(=O)[O-])CC[C@@H]1C
REMARK SMILES IDX 26 1 30 2 25 3 3 4 31 5 24 6 4 7 2 8 32 9 22 10 5 11 1 12
REMARK SMILES IDX 33 13 23 14 20 15 6 16 7 17 19 18 21 19 8 20 18 21 17 22
REMARK SMILES IDX 10 23 9 24 14 25 11 26 12 27 15 28 16 29 27 30 28 31 29 32
REMARK SMILES IDX 13 33
REMARK H PARENT 13 34
REMARK Flexibility Score: inf
ROOT
ATOM      1  C   UNL     1      -6.926  90.747 -10.087  1.00  0.00     0.017 C 
ATOM      2  C   UNL     1      -5.929  89.558 -10.068  1.00  0.00     0.014 C 
ATOM      3  C   UNL     1      -7.736  90.687 -11.425  1.00  0.00     0.014 C 
ATOM      4  C   UNL     1      -6.121  92.099  -9.983  1.00  0.00     0.030 C 
ATOM      5  C   UNL     1      -5.069  89.545  -8.802  1.00  0.00     0.004 C 
ATOM      6  C   UNL     1      -8.126  92.093 -11.900  1.00  0.00     0.013 C 
ATOM      7  C   UNL     1      -5.709  92.553 -11.399  1.00  0.00    -0.063 C 
ATOM      8  C   UNL     1      -5.069  92.101  -8.814  1.00  0.00    -0.003 C 
ATOM      9  C   UNL     1      -4.198  90.807  -8.703  1.00  0.00    -0.011 C 
ATOM     10  C   UNL     1      -6.861  92.958 -12.363  1.00  0.00    -0.006 C 
ATOM     11  C   UNL     1      -4.471  92.314 -11.847  1.00  0.00    -0.027 C 
ATOM     12  C   UNL     1      -4.232  93.396  -8.785  1.00  0.00     0.008 C 
ATOM     13  C   UNL     1      -3.406  90.768  -7.385  1.00  0.00     0.008 C 
ATOM     14  C   UNL     1      -7.218  94.431 -12.001  1.00  0.00     0.017 C 
ATOM     15  C   UNL     1      -6.480  92.817 -13.974  1.00  0.00    -0.020 C 
ATOM     16  C   UNL     1      -4.092  92.371 -13.276  1.00  0.00     0.032 C 
ATOM     17  C   UNL     1      -5.238  91.869 -14.200  1.00  0.00     0.006 C 
ATOM     18  C   UNL     1      -6.109  94.199 -14.645  1.00  0.00     0.008 C 
ATOM     19  C   UNL     1      -7.735  92.265 -14.720  1.00  0.00     0.012 C 
ATOM     20  C   UNL     1      -4.784  91.647 -15.748  1.00  0.00    -0.025 C 
ATOM     21  C   UNL     1      -5.147  94.182 -15.861  1.00  0.00     0.005 C 
ATOM     22  C   UNL     1      -5.171  92.876 -16.690  1.00  0.00     0.003 C 
ATOM     23  C   UNL     1      -3.237  91.396 -15.833  1.00  0.00     0.010 C 
ATOM     24  C   UNL     1      -5.490  90.343 -16.240  1.00  0.00     0.012 C 
ATOM     25  C   UNL     1      -4.414  92.974 -18.099  1.00  0.00    -0.006 C 
ATOM     26  C   UNL     1      -2.646  91.338 -17.239  1.00  0.00     0.033 C 
ATOM     27  C   UNL     1      -2.897  92.652 -17.984  1.00  0.00     0.120 C 
ATOM     28  C   UNL     1      -5.062  92.004 -19.138  1.00  0.00     0.014 C 
ATOM     29  C   UNL     1      -4.563  94.382 -18.745  1.00  0.00     0.014 C 
ENDROOT
BRANCH   1  30
ATOM     30  C   UNL     1      -7.922  90.619  -8.934  1.00  0.00     0.048 C 
ATOM     31  O   UNL     1      -8.459  89.507  -8.679  1.00  0.00    -0.550 OA
ATOM     32  O   UNL     1      -8.322  91.731  -8.203  1.00  0.00    -0.550 OA
ENDBRANCH   1  30
BRANCH  27  33
ATOM     33  O   UNL     1      -2.223  93.701 -17.327  1.00  0.00    -0.393 OA
ATOM     34  H   UNL     1      -2.604  94.552 -17.668  1.00  0.00     0.210 HD
ENDBRANCH  27  33
TORSDOF 2
ENDMDL
MODEL 5
REMARK VINA RESULT:    -6.125      2.648      7.977
REMARK INTER + INTRA:          -6.804
REMARK INTER:                  -6.662
REMARK INTRA:                  -0.142
REMARK UNBOUND:                -0.142
REMARK SMILES C[C@H]1[C@H]2C3=CC[C@@H]4[C@]5(C)CC[C@H](O)C(C)(C)[C@@H]5CC[C@]4(C)[C@@]3(C)CC[C@@]2(C(=O)[O-])CC[C@@H]1C
REMARK SMILES IDX 26 1 30 2 25 3 3 4 31 5 24 6 4 7 2 8 32 9 22 10 5 11 1 12
REMARK SMILES IDX 33 13 23 14 20 15 6 16 7 17 19 18 21 19 8 20 18 21 17 22
REMARK SMILES IDX 10 23 9 24 14 25 11 26 12 27 15 28 16 29 27 30 28 31 29 32
REMARK SMILES IDX 13 33
REMARK H PARENT 13 34
REMARK Flexibility Score: inf
ROOT
ATOM      1  C   UNL     1      -6.533  89.067  -9.494  1.00  0.00     0.017 C 
ATOM      2  C   UNL     1      -5.076  88.554  -9.635  1.00  0.00     0.014 C 
ATOM      3  C   UNL     1      -7.303  88.727 -10.814  1.00  0.00     0.014 C 
ATOM      4  C   UNL     1      -6.512  90.623  -9.245  1.00  0.00     0.030 C 
ATOM      5  C   UNL     1      -4.232  88.863  -8.397  1.00  0.00     0.004 C 
ATOM      6  C   UNL     1      -8.382  89.776 -11.112  1.00  0.00     0.013 C 
ATOM      7  C   UNL     1      -6.495  91.353 -10.605  1.00  0.00    -0.063 C 
ATOM      8  C   UNL     1      -5.518  91.052  -8.105  1.00  0.00    -0.003 C 
ATOM      9  C   UNL     1      -4.109  90.377  -8.165  1.00  0.00    -0.011 C 
ATOM     10  C   UNL     1      -7.764  91.203 -11.492  1.00  0.00    -0.006 C 
ATOM     11  C   UNL     1      -5.343  91.819 -11.102  1.00  0.00    -0.027 C 
ATOM     12  C   UNL     1      -5.447  92.583  -7.938  1.00  0.00     0.008 C 
ATOM     13  C   UNL     1      -3.307  90.624  -6.876  1.00  0.00     0.008 C 
ATOM     14  C   UNL     1      -8.784  92.249 -10.952  1.00  0.00     0.017 C 
ATOM     15  C   UNL     1      -7.488  91.426 -13.116  1.00  0.00    -0.020 C 
ATOM     16  C   UNL     1      -5.155  92.193 -12.521  1.00  0.00     0.032 C 
ATOM     17  C   UNL     1      -5.959  91.266 -13.476  1.00  0.00     0.006 C 
ATOM     18  C   UNL     1      -7.916  92.859 -13.625  1.00  0.00     0.008 C 
ATOM     19  C   UNL     1      -8.348  90.384 -13.898  1.00  0.00     0.012 C 
ATOM     20  C   UNL     1      -5.575  91.451 -15.048  1.00  0.00    -0.025 C 
ATOM     21  C   UNL     1      -7.172  93.446 -14.852  1.00  0.00     0.005 C 
ATOM     22  C   UNL     1      -6.600  92.393 -15.829  1.00  0.00     0.003 C 
ATOM     23  C   UNL     1      -4.124  92.031 -15.192  1.00  0.00     0.010 C 
ATOM     24  C   UNL     1      -5.565  90.021 -15.677  1.00  0.00     0.012 C 
ATOM     25  C   UNL     1      -6.105  92.993 -17.231  1.00  0.00    -0.006 C 
ATOM     26  C   UNL     1      -3.694  92.412 -16.605  1.00  0.00     0.033 C 
ATOM     27  C   UNL     1      -4.628  93.478 -17.184  1.00  0.00     0.120 C 
ATOM     28  C   UNL     1      -6.254  91.930 -18.366  1.00  0.00     0.014 C 
ATOM     29  C   UNL     1      -6.990  94.182 -17.702  1.00  0.00     0.014 C 
ENDROOT
BRANCH   1  30
ATOM     30  C   UNL     1      -7.238  88.344  -8.346  1.00  0.00     0.048 C 
ATOM     31  O   UNL     1      -7.124  87.094  -8.216  1.00  0.00    -0.550 OA
ATOM     32  O   UNL     1      -8.082  89.026  -7.477  1.00  0.00    -0.550 OA
ENDBRANCH   1  30
BRANCH  27  33
ATOM     33  O   UNL     1      -4.525  94.658 -16.420  1.00  0.00    -0.393 OA
ATOM     34  H   UNL     1      -4.355  94.382 -15.481  1.00  0.00     0.210 HD
ENDBRANCH  27  33
TORSDOF 2
ENDMDL
MODEL 6
REMARK VINA RESULT:    -6.103      1.857      3.499
REMARK INTER + INTRA:          -6.780
REMARK INTER:                  -6.644
REMARK INTRA:                  -0.136
REMARK UNBOUND:                -0.142
REMARK SMILES C[C@H]1[C@H]2C3=CC[C@@H]4[C@]5(C)CC[C@H](O)C(C)(C)[C@@H]5CC[C@]4(C)[C@@]3(C)CC[C@@]2(C(=O)[O-])CC[C@@H]1C
REMARK SMILES IDX 26 1 30 2 25 3 3 4 31 5 24 6 4 7 2 8 32 9 22 10 5 11 1 12
REMARK SMILES IDX 33 13 23 14 20 15 6 16 7 17 19 18 21 19 8 20 18 21 17 22
REMARK SMILES IDX 10 23 9 24 14 25 11 26 12 27 15 28 16 29 27 30 28 31 29 32
REMARK SMILES IDX 13 33
REMARK H PARENT 13 34
REMARK Flexibility Score: inf
ROOT
ATOM      1  C   UNL     1      -6.894  93.153  -9.540  1.00  0.00     0.017 C 
ATOM      2  C   UNL     1      -5.947  93.481  -8.356  1.00  0.00     0.014 C 
ATOM      3  C   UNL     1      -7.886  92.033  -9.080  1.00  0.00     0.014 C 
ATOM      4  C   UNL     1      -6.036  92.666 -10.770  1.00  0.00     0.030 C 
ATOM      5  C   UNL     1      -4.918  94.553  -8.719  1.00  0.00     0.004 C 
ATOM      6  C   UNL     1      -8.289  91.132 -10.255  1.00  0.00     0.013 C 
ATOM      7  C   UNL     1      -5.812  91.143 -10.660  1.00  0.00    -0.063 C 
ATOM      8  C   UNL     1      -4.830  93.621 -11.096  1.00  0.00    -0.003 C 
ATOM      9  C   UNL     1      -3.998  94.087  -9.857  1.00  0.00    -0.011 C 
ATOM     10  C   UNL     1      -7.073  90.242 -10.793  1.00  0.00    -0.006 C 
ATOM     11  C   UNL     1      -4.658  90.668 -10.176  1.00  0.00    -0.027 C 
ATOM     12  C   UNL     1      -3.952  93.082 -12.244  1.00  0.00     0.008 C 
ATOM     13  C   UNL     1      -3.030  95.226 -10.220  1.00  0.00     0.008 C 
ATOM     14  C   UNL     1      -7.324  90.088 -12.323  1.00  0.00     0.017 C 
ATOM     15  C   UNL     1      -6.928  88.757 -10.062  1.00  0.00    -0.020 C 
ATOM     16  C   UNL     1      -4.483  89.280  -9.694  1.00  0.00     0.032 C 
ATOM     17  C   UNL     1      -5.764  88.742  -8.995  1.00  0.00     0.006 C 
ATOM     18  C   UNL     1      -6.607  87.594 -11.083  1.00  0.00     0.008 C 
ATOM     19  C   UNL     1      -8.294  88.415  -9.389  1.00  0.00     0.012 C 
ATOM     20  C   UNL     1      -5.540  87.336  -8.205  1.00  0.00    -0.025 C 
ATOM     21  C   UNL     1      -5.827  86.361 -10.558  1.00  0.00     0.005 C 
ATOM     22  C   UNL     1      -6.014  86.068  -9.051  1.00  0.00     0.003 C 
ATOM     23  C   UNL     1      -4.031  87.164  -7.812  1.00  0.00     0.010 C 
ATOM     24  C   UNL     1      -6.354  87.435  -6.875  1.00  0.00     0.012 C 
ATOM     25  C   UNL     1      -5.460  84.639  -8.582  1.00  0.00    -0.006 C 
ATOM     26  C   UNL     1      -3.646  85.814  -7.213  1.00  0.00     0.033 C 
ATOM     27  C   UNL     1      -3.954  84.680  -8.197  1.00  0.00     0.120 C 
ATOM     28  C   UNL     1      -6.281  84.104  -7.366  1.00  0.00     0.014 C 
ATOM     29  C   UNL     1      -5.648  83.551  -9.679  1.00  0.00     0.014 C 
ENDROOT
BRANCH   1  30
ATOM     30  C   UNL     1      -7.721  94.384  -9.910  1.00  0.00     0.048 C 
ATOM     31  O   UNL     1      -8.183  95.134  -9.008  1.00  0.00    -0.550 OA
ATOM     32  O   UNL     1      -8.055  94.655 -11.232  1.00  0.00    -0.550 OA
ENDBRANCH   1  30
BRANCH  27  33
ATOM     33  O   UNL     1      -3.157  84.830  -9.350  1.00  0.00    -0.393 OA
ATOM     34  H   UNL     1      -3.031  83.924  -9.736  1.00  0.00     0.210 HD
ENDBRANCH  27  33
TORSDOF 2
ENDMDL
MODEL 7
REMARK VINA RESULT:    -5.781      1.672      7.839
REMARK INTER + INTRA:          -6.430
REMARK INTER:                  -6.306
REMARK INTRA:                  -0.124
REMARK UNBOUND:                -0.142
REMARK SMILES C[C@H]1[C@H]2C3=CC[C@@H]4[C@]5(C)CC[C@H](O)C(C)(C)[C@@H]5CC[C@]4(C)[C@@]3(C)CC[C@@]2(C(=O)[O-])CC[C@@H]1C
REMARK SMILES IDX 26 1 30 2 25 3 3 4 31 5 24 6 4 7 2 8 32 9 22 10 5 11 1 12
REMARK SMILES IDX 33 13 23 14 20 15 6 16 7 17 19 18 21 19 8 20 18 21 17 22
REMARK SMILES IDX 10 23 9 24 14 25 11 26 12 27 15 28 16 29 27 30 28 31 29 32
REMARK SMILES IDX 13 33
REMARK H PARENT 13 34
REMARK Flexibility Score: inf
ROOT
ATOM      1  C   UNL     1      -7.191  86.480  -9.354  1.00  0.00     0.017 C 
ATOM      2  C   UNL     1      -6.344  85.989 -10.558  1.00  0.00     0.014 C 
ATOM      3  C   UNL     1      -8.169  87.591  -9.863  1.00  0.00     0.014 C 
ATOM      4  C   UNL     1      -6.229  87.050  -8.243  1.00  0.00     0.030 C 
ATOM      5  C   UNL     1      -5.334  84.914 -10.154  1.00  0.00     0.004 C 
ATOM      6  C   UNL     1      -8.453  88.625  -8.766  1.00  0.00     0.013 C 
ATOM      7  C   UNL     1      -5.955  88.542  -8.528  1.00  0.00    -0.063 C 
ATOM      8  C   UNL     1      -5.040  86.080  -7.899  1.00  0.00    -0.003 C 
ATOM      9  C   UNL     1      -4.317  85.452  -9.135  1.00  0.00    -0.011 C 
ATOM     10  C   UNL     1      -7.168  89.509  -8.406  1.00  0.00    -0.006 C 
ATOM     11  C   UNL     1      -4.822  88.912  -9.135  1.00  0.00    -0.027 C 
ATOM     12  C   UNL     1      -4.064  86.693  -6.876  1.00  0.00     0.008 C 
ATOM     13  C   UNL     1      -3.371  84.313  -8.719  1.00  0.00     0.008 C 
ATOM     14  C   UNL     1      -7.303  89.831  -6.889  1.00  0.00     0.017 C 
ATOM     15  C   UNL     1      -7.018  90.903  -9.298  1.00  0.00    -0.020 C 
ATOM     16  C   UNL     1      -4.627  90.233  -9.772  1.00  0.00     0.032 C 
ATOM     17  C   UNL     1      -5.933  90.755 -10.436  1.00  0.00     0.006 C 
ATOM     18  C   UNL     1      -6.581  92.148  -8.430  1.00  0.00     0.008 C 
ATOM     19  C   UNL     1      -8.414  91.236  -9.911  1.00  0.00     0.012 C 
ATOM     20  C   UNL     1      -5.712  92.061 -11.384  1.00  0.00    -0.025 C 
ATOM     21  C   UNL     1      -5.793  93.284  -9.133  1.00  0.00     0.005 C 
ATOM     22  C   UNL     1      -6.075  93.429 -10.647  1.00  0.00     0.003 C 
ATOM     23  C   UNL     1      -4.229  92.123 -11.892  1.00  0.00     0.010 C 
ATOM     24  C   UNL     1      -6.622  91.863 -12.639  1.00  0.00     0.012 C 
ATOM     25  C   UNL     1      -5.501  94.776 -11.300  1.00  0.00    -0.006 C 
ATOM     26  C   UNL     1      -3.837  93.385 -12.655  1.00  0.00     0.033 C 
ATOM     27  C   UNL     1      -4.029  94.626 -11.779  1.00  0.00     0.120 C 
ATOM     28  C   UNL     1      -6.386  95.220 -12.508  1.00  0.00     0.014 C 
ATOM     29  C   UNL     1      -5.569  95.978 -10.314  1.00  0.00     0.014 C 
ENDROOT
BRANCH   1  30
ATOM     30  C   UNL     1      -8.036  85.332  -8.802  1.00  0.00     0.048 C 
ATOM     31  O   UNL     1      -8.784  84.667  -9.570  1.00  0.00    -0.550 OA
ATOM     32  O   UNL     1      -8.068  85.053  -7.441  1.00  0.00    -0.550 OA
ENDBRANCH   1  30
BRANCH  27  33
ATOM     33  O   UNL     1      -3.159  94.559 -10.672  1.00  0.00    -0.393 OA
ATOM     34  H   UNL     1      -2.944  93.600 -10.528  1.00  0.00     0.210 HD
ENDBRANCH  27  33
TORSDOF 2
ENDMDL
MODEL 8
REMARK VINA RESULT:    -5.694      4.305      9.689
REMARK INTER + INTRA:          -6.335
REMARK INTER:                  -6.239
REMARK INTRA:                  -0.097
REMARK UNBOUND:                -0.142
REMARK SMILES C[C@H]1[C@H]2C3=CC[C@@H]4[C@]5(C)CC[C@H](O)C(C)(C)[C@@H]5CC[C@]4(C)[C@@]3(C)CC[C@@]2(C(=O)[O-])CC[C@@H]1C
REMARK SMILES IDX 26 1 30 2 25 3 3 4 31 5 24 6 4 7 2 8 32 9 22 10 5 11 1 12
REMARK SMILES IDX 33 13 23 14 20 15 6 16 7 17 19 18 21 19 8 20 18 21 17 22
REMARK SMILES IDX 10 23 9 24 14 25 11 26 12 27 15 28 16 29 27 30 28 31 29 32
REMARK SMILES IDX 13 33
REMARK H PARENT 13 34
REMARK Flexibility Score: inf
ROOT
ATOM      1  C   UNL     1      -5.912  91.944 -11.817  1.00  0.00     0.017 C 
ATOM      2  C   UNL     1      -6.668  93.169 -11.238  1.00  0.00     0.014 C 
ATOM      3  C   UNL     1      -4.738  92.469 -12.708  1.00  0.00     0.014 C 
ATOM      4  C   UNL     1      -6.913  91.074 -12.669  1.00  0.00     0.030 C 
ATOM      5  C   UNL     1      -7.857  92.755 -10.367  1.00  0.00     0.004 C 
ATOM      6  C   UNL     1      -4.449  91.507 -13.867  1.00  0.00     0.013 C 
ATOM      7  C   UNL     1      -6.945  91.609 -14.116  1.00  0.00    -0.063 C 
ATOM      8  C   UNL     1      -8.255  90.760 -11.912  1.00  0.00    -0.003 C 
ATOM      9  C   UNL     1      -8.904  91.978 -11.179  1.00  0.00    -0.011 C 
ATOM     10  C   UNL     1      -5.634  91.464 -14.942  1.00  0.00    -0.006 C 
ATOM     11  C   UNL     1      -7.936  92.417 -14.510  1.00  0.00    -0.027 C 
ATOM     12  C   UNL     1      -9.254  89.984 -12.794  1.00  0.00     0.008 C 
ATOM     13  C   UNL     1     -10.040  91.535 -10.241  1.00  0.00     0.008 C 
ATOM     14  C   UNL     1      -5.639  90.006 -15.489  1.00  0.00     0.017 C 
ATOM     15  C   UNL     1      -5.485  92.563 -16.179  1.00  0.00    -0.020 C 
ATOM     16  C   UNL     1      -7.871  93.261 -15.723  1.00  0.00     0.032 C 
ATOM     17  C   UNL     1      -6.437  93.806 -15.974  1.00  0.00     0.006 C 
ATOM     18  C   UNL     1      -5.849  91.956 -17.592  1.00  0.00     0.008 C 
ATOM     19  C   UNL     1      -3.994  93.017 -16.243  1.00  0.00     0.012 C 
ATOM     20  C   UNL     1      -6.362  94.957 -17.124  1.00  0.00    -0.025 C 
ATOM     21  C   UNL     1      -6.385  92.921 -18.681  1.00  0.00     0.005 C 
ATOM     22  C   UNL     1      -5.907  94.386 -18.543  1.00  0.00     0.003 C 
ATOM     23  C   UNL     1      -7.752  95.670 -17.274  1.00  0.00     0.010 C 
ATOM     24  C   UNL     1      -5.345  96.030 -16.620  1.00  0.00     0.012 C 
ATOM     25  C   UNL     1      -6.210  95.303 -19.823  1.00  0.00    -0.006 C 
ATOM     26  C   UNL     1      -7.875  96.657 -18.432  1.00  0.00     0.033 C 
ATOM     27  C   UNL     1      -7.620  95.954 -19.769  1.00  0.00     0.120 C 
ATOM     28  C   UNL     1      -5.135  96.428 -19.957  1.00  0.00     0.014 C 
ATOM     29  C   UNL     1      -6.097  94.504 -21.153  1.00  0.00     0.014 C 
ENDROOT
BRANCH   1  30
ATOM     30  C   UNL     1      -5.303  91.117 -10.684  1.00  0.00     0.048 C 
ATOM     31  O   UNL     1      -4.483  91.643  -9.884  1.00  0.00    -0.550 OA
ATOM     32  O   UNL     1      -5.568  89.758 -10.564  1.00  0.00    -0.550 OA
ENDBRANCH   1  30
BRANCH  27  33
ATOM     33  O   UNL     1      -8.618  94.982 -19.985  1.00  0.00    -0.393 OA
ATOM     34  H   UNL     1      -8.198  94.244 -20.500  1.00  0.00     0.210 HD
ENDBRANCH  27  33
TORSDOF 2
ENDMDL
MODEL 9
REMARK VINA RESULT:    -5.602      4.491      6.727
REMARK INTER + INTRA:          -6.235
REMARK INTER:                  -6.097
REMARK INTRA:                  -0.138
REMARK UNBOUND:                -0.142
REMARK SMILES C[C@H]1[C@H]2C3=CC[C@@H]4[C@]5(C)CC[C@H](O)C(C)(C)[C@@H]5CC[C@]4(C)[C@@]3(C)CC[C@@]2(C(=O)[O-])CC[C@@H]1C
REMARK SMILES IDX 26 1 30 2 25 3 3 4 31 5 24 6 4 7 2 8 32 9 22 10 5 11 1 12
REMARK SMILES IDX 33 13 23 14 20 15 6 16 7 17 19 18 21 19 8 20 18 21 17 22
REMARK SMILES IDX 10 23 9 24 14 25 11 26 12 27 15 28 16 29 27 30 28 31 29 32
REMARK SMILES IDX 13 33
REMARK H PARENT 13 34
REMARK Flexibility Score: inf
ROOT
ATOM      1  C   UNL     1      -4.384  92.135 -17.317  1.00  0.00     0.017 C 
ATOM      2  C   UNL     1      -5.506  91.836 -18.346  1.00  0.00     0.014 C 
ATOM      3  C   UNL     1      -4.360  90.974 -16.267  1.00  0.00     0.014 C 
ATOM      4  C   UNL     1      -4.681  93.515 -16.615  1.00  0.00     0.030 C 
ATOM      5  C   UNL     1      -5.626  92.933 -19.406  1.00  0.00     0.004 C 
ATOM      6  C   UNL     1      -3.916  91.482 -14.890  1.00  0.00     0.013 C 
ATOM      7  C   UNL     1      -5.596  93.277 -15.396  1.00  0.00    -0.063 C 
ATOM      8  C   UNL     1      -5.005  94.667 -17.634  1.00  0.00    -0.003 C 
ATOM      9  C   UNL     1      -6.002  94.283 -18.776  1.00  0.00    -0.011 C 
ATOM     10  C   UNL     1      -4.990  92.460 -14.218  1.00  0.00    -0.006 C 
ATOM     11  C   UNL     1      -6.913  93.497 -15.492  1.00  0.00    -0.027 C 
ATOM     12  C   UNL     1      -5.378  95.985 -16.926  1.00  0.00     0.008 C 
ATOM     13  C   UNL     1      -6.045  95.357 -19.876  1.00  0.00     0.008 C 
ATOM     14  C   UNL     1      -4.155  93.476 -13.384  1.00  0.00     0.017 C 
ATOM     15  C   UNL     1      -6.120  91.697 -13.268  1.00  0.00    -0.020 C 
ATOM     16  C   UNL     1      -7.904  92.965 -14.532  1.00  0.00     0.032 C 
ATOM     17  C   UNL     1      -7.507  91.555 -14.009  1.00  0.00     0.006 C 
ATOM     18  C   UNL     1      -6.415  92.467 -11.920  1.00  0.00     0.008 C 
ATOM     19  C   UNL     1      -5.557  90.294 -12.883  1.00  0.00     0.012 C 
ATOM     20  C   UNL     1      -8.687  90.807 -13.173  1.00  0.00    -0.025 C 
ATOM     21  C   UNL     1      -7.814  92.291 -11.274  1.00  0.00     0.005 C 
ATOM     22  C   UNL     1      -8.512  90.948 -11.593  1.00  0.00     0.003 C 
ATOM     23  C   UNL     1     -10.092  91.368 -13.591  1.00  0.00     0.010 C 
ATOM     24  C   UNL     1      -8.649  89.303 -13.592  1.00  0.00     0.012 C 
ATOM     25  C   UNL     1      -9.802  90.644 -10.692  1.00  0.00    -0.006 C 
ATOM     26  C   UNL     1     -11.279  90.876 -12.767  1.00  0.00     0.033 C 
ATOM     27  C   UNL     1     -11.103  91.248 -11.292  1.00  0.00     0.120 C 
ATOM     28  C   UNL     1      -9.994  89.104 -10.510  1.00  0.00     0.014 C 
ATOM     29  C   UNL     1      -9.642  91.184  -9.242  1.00  0.00     0.014 C 
ENDROOT
BRANCH   1  30
ATOM     30  C   UNL     1      -3.024  92.162 -18.013  1.00  0.00     0.048 C 
ATOM     31  O   UNL     1      -2.684  91.221 -18.782  1.00  0.00    -0.550 OA
ATOM     32  O   UNL     1      -2.102  93.168 -17.751  1.00  0.00    -0.550 OA
ENDBRANCH   1  30
BRANCH  27  33
ATOM     33  O   UNL     1     -11.098  92.651 -11.159  1.00  0.00    -0.393 OA
ATOM     34  H   UNL     1     -11.988  92.913 -10.804  1.00  0.00     0.210 HD
ENDBRANCH  27  33
TORSDOF 2
ENDMDL
