MODEL 1
REMARK VINA RESULT:    -3.533      0.000      0.000
REMARK INTER + INTRA:          -3.616
REMARK INTER:                  -4.359
REMARK INTRA:                   0.743
REMARK UNBOUND:                 0.743
REMARK SMILES CC1=CC=CC(C)(C)CC1=O
REMARK SMILES IDX 1 1 2 2 3 3 10 4 11 5 9 6 4 8 5 9 6 10 7 11 8 12
REMARK H PARENT
REMARK Flexibility Score: 80.00
ROOT
ATOM      1  C   UNL     1      10.969   9.036  17.793  1.00  0.00     0.048 C 
ATOM      2  C   UNL     1      10.079   8.690  16.623  1.00  0.00    -0.008 C 
ATOM      3  C   UNL     1      10.444   7.649  15.844  1.00  0.00     0.007 C 
ENDROOT
BRANCH   2   4
ATOM      4  C   UNL     1       8.828   9.477  16.468  1.00  0.00     0.159 C 
ATOM      5  O   UNL     1       8.477  10.251  17.400  1.00  0.00    -0.295 OA
BRANCH   4   6
ATOM      6  C   UNL     1       7.959   9.416  15.250  1.00  0.00     0.091 CG0
ATOM      7  G   UNL     1       7.427   7.996  14.952  1.00  0.00     0.000 G0
ENDBRANCH   4   6
ENDBRANCH   2   4
BRANCH   3   8
ATOM      8  C   UNL     1       9.771   7.063  14.660  1.00  0.00    -0.003 C 
ATOM      9  C   UNL     1       8.497   7.183  14.268  1.00  0.00    -0.020 C 
BRANCH   9  10
ATOM     10  C   UNL     1       7.420   7.992  14.951  1.00  0.00    -0.010 CG0
ATOM     11  C   UNL     1       6.916   7.247  16.209  1.00  0.00     0.016 C 
ATOM     12  C   UNL     1       6.231   8.139  13.975  1.00  0.00     0.016 C 
ATOM     13  G   UNL     1       7.956   9.406  15.273  1.00  0.00     0.000 G0
ENDBRANCH   9  10
ENDBRANCH   3   8
TORSDOF 0
ENDMDL
MODEL 2
REMARK VINA RESULT:    -3.529     13.509     14.504
REMARK INTER + INTRA:          -3.611
REMARK INTER:                  -4.358
REMARK INTRA:                   0.746
REMARK UNBOUND:                 0.743
REMARK SMILES CC1=CC=CC(C)(C)CC1=O
REMARK SMILES IDX 1 1 2 2 3 3 10 4 11 5 9 6 4 8 5 9 6 10 7 11 8 12
REMARK H PARENT
REMARK Flexibility Score: 80.00
ROOT
ATOM      1  C   UNL     1      15.963  18.381  22.353  1.00  0.00     0.048 C 
ATOM      2  C   UNL     1      16.160  17.308  23.398  1.00  0.00    -0.008 C 
ATOM      3  C   UNL     1      15.057  16.708  23.894  1.00  0.00     0.007 C 
ENDROOT
BRANCH   2   4
ATOM      4  C   UNL     1      17.559  16.946  23.739  1.00  0.00     0.159 C 
ATOM      5  O   UNL     1      18.497  17.405  23.031  1.00  0.00    -0.295 OA
BRANCH   4   6
ATOM      6  C   UNL     1      17.926  16.069  24.897  1.00  0.00     0.091 CG0
ATOM      7  G   UNL     1      17.293  14.662  24.821  1.00  0.00     0.000 G0
ENDBRANCH   4   6
ENDBRANCH   2   4
BRANCH   3   8
ATOM      8  C   UNL     1      14.933  15.620  24.894  1.00  0.00    -0.003 C 
ATOM      9  C   UNL     1      15.855  14.738  25.300  1.00  0.00    -0.020 C 
BRANCH   9  10
ATOM     10  C   UNL     1      17.291  14.663  24.836  1.00  0.00    -0.010 CG0
ATOM     11  C   UNL     1      17.359  14.025  23.429  1.00  0.00     0.016 C 
ATOM     12  C   UNL     1      18.069  13.750  25.812  1.00  0.00     0.016 C 
ATOM     13  G   UNL     1      17.928  16.070  24.882  1.00  0.00     0.000 G0
ENDBRANCH   9  10
ENDBRANCH   3   8
TORSDOF 0
ENDMDL
MODEL 3
REMARK VINA RESULT:    -3.525     10.646     12.145
REMARK INTER + INTRA:          -3.607
REMARK INTER:                  -4.360
REMARK INTRA:                   0.753
REMARK UNBOUND:                 0.743
REMARK SMILES CC1=CC=CC(C)(C)CC1=O
REMARK SMILES IDX 1 1 2 2 3 3 10 4 11 5 9 6 4 8 5 9 6 10 7 11 8 12
REMARK H PARENT
REMARK Flexibility Score: 80.00
ROOT
ATOM      1  C   UNL     1      13.625  16.892  12.482  1.00  0.00     0.048 C 
ATOM      2  C   UNL     1      15.092  16.723  12.804  1.00  0.00    -0.008 C 
ATOM      3  C   UNL     1      15.983  17.377  12.029  1.00  0.00     0.007 C 
ENDROOT
BRANCH   2   4
ATOM      4  C   UNL     1      15.432  15.910  14.000  1.00  0.00     0.159 C 
ATOM      5  O   UNL     1      14.506  15.564  14.783  1.00  0.00    -0.295 OA
BRANCH   4   6
ATOM      6  C   UNL     1      16.823  15.460  14.324  1.00  0.00     0.091 CG0
ATOM      7  G   UNL     1      17.818  16.631  14.495  1.00  0.00     0.000 G0
ENDBRANCH   4   6
ENDBRANCH   2   4
BRANCH   3   8
ATOM      8  C   UNL     1      17.462  17.428  12.113  1.00  0.00    -0.003 C 
ATOM      9  C   UNL     1      18.259  17.126  13.145  1.00  0.00    -0.020 C 
BRANCH   9  10
ATOM     10  C   UNL     1      17.822  16.622  14.500  1.00  0.00    -0.010 CG0
ATOM     11  C   UNL     1      17.249  17.788  15.338  1.00  0.00     0.016 C 
ATOM     12  C   UNL     1      19.064  16.070  15.236  1.00  0.00     0.016 C 
ATOM     13  G   UNL     1      16.812  15.465  14.324  1.00  0.00     0.000 G0
ENDBRANCH   9  10
ENDBRANCH   3   8
TORSDOF 0
ENDMDL
MODEL 4
REMARK VINA RESULT:    -3.516     10.912     12.361
REMARK INTER + INTRA:          -3.595
REMARK INTER:                  -4.349
REMARK INTRA:                   0.754
REMARK UNBOUND:                 0.743
REMARK SMILES CC1=CC=CC(C)(C)CC1=O
REMARK SMILES IDX 1 1 2 2 3 3 10 4 11 5 9 6 4 8 5 9 6 10 7 11 8 12
REMARK H PARENT
REMARK Flexibility Score: 80.00
ROOT
ATOM      1  C   UNL     1      14.558  17.527  11.238  1.00  0.00     0.048 C 
ATOM      2  C   UNL     1      15.238  17.175  12.541  1.00  0.00    -0.008 C 
ATOM      3  C   UNL     1      14.696  16.186  13.283  1.00  0.00     0.007 C 
ENDROOT
BRANCH   2   4
ATOM      4  C   UNL     1      16.496  17.896  12.863  1.00  0.00     0.159 C 
ATOM      5  O   UNL     1      17.048  18.588  11.964  1.00  0.00    -0.295 OA
BRANCH   4   6
ATOM      6  C   UNL     1      17.146  17.860  14.212  1.00  0.00     0.091 CG0
ATOM      7  G   UNL     1      17.548  16.436  14.657  1.00  0.00     0.000 G0
ENDBRANCH   4   6
ENDBRANCH   2   4
BRANCH   3   8
ATOM      8  C   UNL     1      15.144  15.607  14.572  1.00  0.00    -0.003 C 
ATOM      9  C   UNL     1      16.342  15.692  15.164  1.00  0.00    -0.020 C 
BRANCH   9  10
ATOM     10  C   UNL     1      17.547  16.443  14.649  1.00  0.00    -0.010 CG0
ATOM     11  C   UNL     1      18.226  15.641  13.515  1.00  0.00     0.016 C 
ATOM     12  C   UNL     1      18.562  16.585  15.806  1.00  0.00     0.016 C 
ATOM     13  G   UNL     1      17.125  17.862  14.203  1.00  0.00     0.000 G0
ENDBRANCH   9  10
ENDBRANCH   3   8
TORSDOF 0
ENDMDL
MODEL 5
REMARK VINA RESULT:    -3.497     12.056     13.357
REMARK INTER + INTRA:          -3.573
REMARK INTER:                  -4.335
REMARK INTRA:                   0.763
REMARK UNBOUND:                 0.743
REMARK SMILES CC1=CC=CC(C)(C)CC1=O
REMARK SMILES IDX 1 1 2 2 3 3 10 4 11 5 9 6 4 8 5 9 6 10 7 11 8 12
REMARK H PARENT
REMARK Flexibility Score: 80.00
ROOT
ATOM      1  C   UNL     1      15.393  14.780  25.237  1.00  0.00     0.048 C 
ATOM      2  C   UNL     1      15.174  16.073  24.488  1.00  0.00    -0.008 C 
ATOM      3  C   UNL     1      16.225  16.597  23.822  1.00  0.00     0.007 C 
ENDROOT
BRANCH   2   4
ATOM      4  C   UNL     1      13.795  16.626  24.482  1.00  0.00     0.159 C 
ATOM      5  O   UNL     1      12.853  15.915  24.927  1.00  0.00    -0.295 OA
BRANCH   4   6
ATOM      6  C   UNL     1      13.457  17.998  23.985  1.00  0.00     0.091 CG0
ATOM      7  G   UNL     1      13.858  18.228  22.510  1.00  0.00     0.000 G0
ENDBRANCH   4   6
ENDBRANCH   2   4
BRANCH   3   8
ATOM      8  C   UNL     1      16.311  17.820  22.988  1.00  0.00    -0.003 C 
ATOM      9  C   UNL     1      15.325  18.521  22.415  1.00  0.00    -0.020 C 
BRANCH   9  10
ATOM     10  C   UNL     1      13.845  18.233  22.511  1.00  0.00    -0.010 CG0
ATOM     11  C   UNL     1      13.479  17.039  21.600  1.00  0.00     0.016 C 
ATOM     12  C   UNL     1      13.076  19.474  22.003  1.00  0.00     0.016 C 
ATOM     13  G   UNL     1      13.456  17.996  23.988  1.00  0.00     0.000 G0
ENDBRANCH   9  10
ENDBRANCH   3   8
TORSDOF 0
ENDMDL
MODEL 6
REMARK VINA RESULT:    -3.449     13.343     14.547
REMARK INTER + INTRA:          -3.512
REMARK INTER:                  -4.270
REMARK INTRA:                   0.758
REMARK UNBOUND:                 0.743
REMARK SMILES CC1=CC=CC(C)(C)CC1=O
REMARK SMILES IDX 1 1 2 2 3 3 10 4 11 5 9 6 4 8 5 9 6 10 7 11 8 12
REMARK H PARENT
REMARK Flexibility Score: 80.00
ROOT
ATOM      1  C   UNL     1      19.211  12.743  25.922  1.00  0.00     0.048 C 
ATOM      2  C   UNL     1      18.138  13.761  25.617  1.00  0.00    -0.008 C 
ATOM      3  C   UNL     1      17.560  14.394  26.660  1.00  0.00     0.007 C 
ENDROOT
BRANCH   2   4
ATOM      4  C   UNL     1      17.858  14.040  24.184  1.00  0.00     0.159 C 
ATOM      5  O   UNL     1      18.636  13.570  23.310  1.00  0.00    -0.295 OA
BRANCH   4   6
ATOM      6  C   UNL     1      16.685  14.843  23.713  1.00  0.00     0.091 CG0
ATOM      7  G   UNL     1      16.649  16.272  24.300  1.00  0.00     0.000 G0
ENDBRANCH   4   6
ENDBRANCH   2   4
BRANCH   3   8
ATOM      8  C   UNL     1      16.514  15.445  26.676  1.00  0.00    -0.003 C 
ATOM      9  C   UNL     1      16.120  16.258  25.688  1.00  0.00    -0.020 C 
BRANCH   9  10
ATOM     10  C   UNL     1      16.649  16.275  24.273  1.00  0.00    -0.010 CG0
ATOM     11  C   UNL     1      18.034  16.962  24.236  1.00  0.00     0.016 C 
ATOM     12  C   UNL     1      15.680  17.106  23.402  1.00  0.00     0.016 C 
ATOM     13  G   UNL     1      16.684  14.835  23.713  1.00  0.00     0.000 G0
ENDBRANCH   9  10
ENDBRANCH   3   8
TORSDOF 0
ENDMDL
MODEL 7
REMARK VINA RESULT:    -3.357     14.049     15.812
REMARK INTER + INTRA:          -3.399
REMARK INTER:                  -4.149
REMARK INTRA:                   0.750
REMARK UNBOUND:                 0.743
REMARK SMILES CC1=CC=CC(C)(C)CC1=O
REMARK SMILES IDX 1 1 2 2 3 3 10 4 11 5 9 6 4 8 5 9 6 10 7 11 8 12
REMARK H PARENT
REMARK Flexibility Score: 80.00
ROOT
ATOM      1  C   UNL     1      15.880  14.407  24.774  1.00  0.00     0.048 C 
ATOM      2  C   UNL     1      17.360  14.109  24.824  1.00  0.00    -0.008 C 
ATOM      3  C   UNL     1      17.937  13.610  23.710  1.00  0.00     0.007 C 
ENDROOT
BRANCH   2   4
ATOM      4  C   UNL     1      18.079  14.464  26.075  1.00  0.00     0.159 C 
ATOM      5  O   UNL     1      17.483  15.158  26.943  1.00  0.00    -0.295 OA
BRANCH   4   6
ATOM      6  C   UNL     1      19.480  14.027  26.375  1.00  0.00     0.091 CG0
ATOM      7  G   UNL     1      20.506  14.506  25.323  1.00  0.00     0.000 G0
ENDBRANCH   4   6
ENDBRANCH   2   4
BRANCH   3   8
ATOM      8  C   UNL     1      19.351  13.249  23.450  1.00  0.00    -0.003 C 
ATOM      9  C   UNL     1      20.453  13.622  24.113  1.00  0.00    -0.020 C 
BRANCH   9  10
ATOM     10  C   UNL     1      20.509  14.505  25.336  1.00  0.00    -0.010 CG0
ATOM     11  C   UNL     1      20.314  15.984  24.930  1.00  0.00     0.016 C 
ATOM     12  C   UNL     1      21.911  14.366  25.972  1.00  0.00     0.016 C 
ATOM     13  G   UNL     1      19.463  14.030  26.370  1.00  0.00     0.000 G0
ENDBRANCH   9  10
ENDBRANCH   3   8
TORSDOF 0
ENDMDL
MODEL 8
REMARK VINA RESULT:    -3.319     13.734     14.972
REMARK INTER + INTRA:          -3.352
REMARK INTER:                  -4.102
REMARK INTRA:                   0.749
REMARK UNBOUND:                 0.743
REMARK SMILES CC1=CC=CC(C)(C)CC1=O
REMARK SMILES IDX 1 1 2 2 3 3 10 4 11 5 9 6 4 8 5 9 6 10 7 11 8 12
REMARK H PARENT
REMARK Flexibility Score: 80.00
ROOT
ATOM      1  C   UNL     1      14.620  16.299  25.820  1.00  0.00     0.048 C 
ATOM      2  C   UNL     1      16.064  15.884  25.668  1.00  0.00    -0.008 C 
ATOM      3  C   UNL     1      16.613  15.151  26.660  1.00  0.00     0.007 C 
ENDROOT
BRANCH   2   4
ATOM      4  C   UNL     1      16.744  16.253  24.399  1.00  0.00     0.159 C 
ATOM      5  O   UNL     1      16.049  16.695  23.444  1.00  0.00    -0.295 OA
BRANCH   4   6
ATOM      6  C   UNL     1      18.223  16.142  24.192  1.00  0.00     0.091 CG0
ATOM      7  G   UNL     1      18.754  14.699  24.351  1.00  0.00     0.000 G0
ENDBRANCH   4   6
ENDBRANCH   2   4
BRANCH   3   8
ATOM      8  C   UNL     1      17.977  14.582  26.781  1.00  0.00    -0.003 C 
ATOM      9  C   UNL     1      18.892  14.374  25.827  1.00  0.00    -0.020 C 
BRANCH   9  10
ATOM     10  C   UNL     1      18.752  14.707  24.360  1.00  0.00    -0.010 CG0
ATOM     11  C   UNL     1      17.859  13.655  23.663  1.00  0.00     0.016 C 
ATOM     12  C   UNL     1      20.155  14.646  23.713  1.00  0.00     0.016 C 
ATOM     13  G   UNL     1      18.211  16.145  24.202  1.00  0.00     0.000 G0
ENDBRANCH   9  10
ENDBRANCH   3   8
TORSDOF 0
ENDMDL
MODEL 9
REMARK VINA RESULT:    -3.182     12.899     13.562
REMARK INTER + INTRA:          -3.183
REMARK INTER:                  -3.942
REMARK INTRA:                   0.760
REMARK UNBOUND:                 0.743
REMARK SMILES CC1=CC=CC(C)(C)CC1=O
REMARK SMILES IDX 1 1 2 2 3 3 10 4 11 5 9 6 4 8 5 9 6 10 7 11 8 12
REMARK H PARENT
REMARK Flexibility Score: 80.00
ROOT
ATOM      1  C   UNL     1      16.722  16.179  25.112  1.00  0.00     0.048 C 
ATOM      2  C   UNL     1      15.527  16.610  24.295  1.00  0.00    -0.008 C 
ATOM      3  C   UNL     1      14.306  16.213  24.713  1.00  0.00     0.007 C 
ENDROOT
BRANCH   2   4
ATOM      4  C   UNL     1      15.787  17.503  23.136  1.00  0.00     0.159 C 
ATOM      5  O   UNL     1      16.937  18.003  22.999  1.00  0.00    -0.295 OA
BRANCH   4   6
ATOM      6  C   UNL     1      14.756  17.835  22.102  1.00  0.00     0.091 CG0
ATOM      7  G   UNL     1      13.501  18.519  22.691  1.00  0.00     0.000 G0
ENDBRANCH   4   6
ENDBRANCH   2   4
BRANCH   3   8
ATOM      8  C   UNL     1      12.966  16.495  24.144  1.00  0.00    -0.003 C 
ATOM      9  C   UNL     1      12.596  17.465  23.299  1.00  0.00    -0.020 C 
BRANCH   9  10
ATOM     10  C   UNL     1      13.493  18.515  22.688  1.00  0.00    -0.010 CG0
ATOM     11  C   UNL     1      13.828  19.600  23.738  1.00  0.00     0.016 C 
ATOM     12  C   UNL     1      12.727  19.194  21.529  1.00  0.00     0.016 C 
ATOM     13  G   UNL     1      14.756  17.845  22.103  1.00  0.00     0.000 G0
ENDBRANCH   9  10
ENDBRANCH   3   8
TORSDOF 0
ENDMDL
