MODEL 1
REMARK VINA RESULT:    -2.539      0.000      0.000
REMARK INTER + INTRA:          -2.539
REMARK INTER:                  -2.539
REMARK INTRA:                   0.000
REMARK UNBOUND:                 0.000
REMARK SMILES CC(=O)[O-]
REMARK SMILES IDX 1 1 2 2 3 3 4 4
REMARK H PARENT
REMARK Flexibility Score: inf
ROOT
ATOM      1  C   UNL     1      -6.181   6.016  -3.435  1.00  0.00     0.063 C 
ATOM      2  C   UNL     1      -4.775   6.502  -3.324  1.00  0.00     0.038 C 
ATOM      3  O   UNL     1      -4.524   7.580  -2.724  1.00  0.00    -0.550 OA
ATOM      4  O   UNL     1      -3.733   5.741  -3.839  1.00  0.00    -0.550 OA
ENDROOT
TORSDOF 0
ENDMDL
MODEL 2
REMARK VINA RESULT:    -2.468      3.074      3.292
REMARK INTER + INTRA:          -2.468
REMARK INTER:                  -2.468
REMARK INTRA:                   0.000
REMARK UNBOUND:                 0.000
REMARK SMILES CC(=O)[O-]
REMARK SMILES IDX 1 1 2 2 3 3 4 4
REMARK H PARENT
REMARK Flexibility Score: inf
ROOT
ATOM      1  C   UNL     1      -5.981   6.072  -3.509  1.00  0.00     0.063 C 
ATOM      2  C   UNL     1      -7.440   6.342  -3.654  1.00  0.00     0.038 C 
ATOM      3  O   UNL     1      -8.234   6.049  -2.722  1.00  0.00    -0.550 OA
ATOM      4  O   UNL     1      -7.922   6.966  -4.798  1.00  0.00    -0.550 OA
ENDROOT
TORSDOF 0
ENDMDL
MODEL 3
REMARK VINA RESULT:    -2.378      1.468      2.046
REMARK INTER + INTRA:          -2.378
REMARK INTER:                  -2.378
REMARK INTRA:                   0.000
REMARK UNBOUND:                 0.000
REMARK SMILES CC(=O)[O-]
REMARK SMILES IDX 1 1 2 2 3 3 4 4
REMARK H PARENT
REMARK Flexibility Score: inf
ROOT
ATOM      1  C   UNL     1      -3.891   5.630  -3.542  1.00  0.00     0.063 C 
ATOM      2  C   UNL     1      -4.949   6.609  -3.161  1.00  0.00     0.038 C 
ATOM      3  O   UNL     1      -6.165   6.313  -3.300  1.00  0.00    -0.550 OA
ATOM      4  O   UNL     1      -4.598   7.832  -2.602  1.00  0.00    -0.550 OA
ENDROOT
TORSDOF 0
ENDMDL
MODEL 4
REMARK VINA RESULT:    -2.333      1.343      1.971
REMARK INTER + INTRA:          -2.333
REMARK INTER:                  -2.333
REMARK INTRA:                   0.000
REMARK UNBOUND:                 0.000
REMARK SMILES CC(=O)[O-]
REMARK SMILES IDX 1 1 2 2 3 3 4 4
REMARK H PARENT
REMARK Flexibility Score: inf
ROOT
ATOM      1  C   UNL     1      -4.858   7.544  -2.705  1.00  0.00     0.063 C 
ATOM      2  C   UNL     1      -4.888   6.240  -3.426  1.00  0.00     0.038 C 
ATOM      3  O   UNL     1      -3.825   5.747  -3.886  1.00  0.00    -0.550 OA
ATOM      4  O   UNL     1      -6.081   5.537  -3.546  1.00  0.00    -0.550 OA
ENDROOT
TORSDOF 0
ENDMDL
MODEL 5
REMARK VINA RESULT:    -2.319     10.266     10.643
REMARK INTER + INTRA:          -2.319
REMARK INTER:                  -2.319
REMARK INTRA:                   0.000
REMARK UNBOUND:                 0.000
REMARK SMILES CC(=O)[O-]
REMARK SMILES IDX 1 1 2 2 3 3 4 4
REMARK H PARENT
REMARK Flexibility Score: inf
ROOT
ATOM      1  C   UNL     1      -3.241   8.436   7.904  1.00  0.00     0.063 C 
ATOM      2  C   UNL     1      -2.463   7.720   6.853  1.00  0.00     0.038 C 
ATOM      3  O   UNL     1      -1.243   7.468   7.031  1.00  0.00    -0.550 OA
ATOM      4  O   UNL     1      -3.095   7.283   5.695  1.00  0.00    -0.550 OA
ENDROOT
TORSDOF 0
ENDMDL
MODEL 6
REMARK VINA RESULT:    -2.264     10.551     11.115
REMARK INTER + INTRA:          -2.264
REMARK INTER:                  -2.264
REMARK INTRA:                   0.000
REMARK UNBOUND:                 0.000
REMARK SMILES CC(=O)[O-]
REMARK SMILES IDX 1 1 2 2 3 3 4 4
REMARK H PARENT
REMARK Flexibility Score: inf
ROOT
ATOM      1  C   UNL     1      -0.240   7.817   7.436  1.00  0.00     0.063 C 
ATOM      2  C   UNL     1      -1.531   8.262   6.837  1.00  0.00     0.038 C 
ATOM      3  O   UNL     1      -2.250   7.445   6.205  1.00  0.00    -0.550 OA
ATOM      4  O   UNL     1      -1.971   9.567   7.021  1.00  0.00    -0.550 OA
ENDROOT
TORSDOF 0
ENDMDL
MODEL 7
REMARK VINA RESULT:    -2.260     12.007     12.313
REMARK INTER + INTRA:          -2.260
REMARK INTER:                  -2.260
REMARK INTRA:                   0.000
REMARK UNBOUND:                 0.000
REMARK SMILES CC(=O)[O-]
REMARK SMILES IDX 1 1 2 2 3 3 4 4
REMARK H PARENT
REMARK Flexibility Score: inf
ROOT
ATOM      1  C   UNL     1       3.419   5.342   5.889  1.00  0.00     0.063 C 
ATOM      2  C   UNL     1       4.009   4.419   4.877  1.00  0.00     0.038 C 
ATOM      3  O   UNL     1       5.192   4.587   4.482  1.00  0.00    -0.550 OA
ATOM      4  O   UNL     1       3.272   3.340   4.406  1.00  0.00    -0.550 OA
ENDROOT
TORSDOF 0
ENDMDL
MODEL 8
REMARK VINA RESULT:    -2.241     12.149     12.443
REMARK INTER + INTRA:          -2.241
REMARK INTER:                  -2.241
REMARK INTRA:                   0.000
REMARK UNBOUND:                 0.000
REMARK SMILES CC(=O)[O-]
REMARK SMILES IDX 1 1 2 2 3 3 4 4
REMARK H PARENT
REMARK Flexibility Score: inf
ROOT
ATOM      1  C   UNL     1       3.433   5.294   5.847  1.00  0.00     0.063 C 
ATOM      2  C   UNL     1       4.130   4.370   4.907  1.00  0.00     0.038 C 
ATOM      3  O   UNL     1       3.522   3.376   4.430  1.00  0.00    -0.550 OA
ATOM      4  O   UNL     1       5.435   4.633   4.512  1.00  0.00    -0.550 OA
ENDROOT
TORSDOF 0
ENDMDL
MODEL 9
REMARK VINA RESULT:    -2.219      8.266      8.518
REMARK INTER + INTRA:          -2.219
REMARK INTER:                  -2.219
REMARK INTRA:                   0.000
REMARK UNBOUND:                 0.000
REMARK SMILES CC(=O)[O-]
REMARK SMILES IDX 1 1 2 2 3 3 4 4
REMARK H PARENT
REMARK Flexibility Score: inf
ROOT
ATOM      1  C   UNL     1      -6.787   3.884 -11.327  1.00  0.00     0.063 C 
ATOM      2  C   UNL     1      -8.053   3.910 -10.541  1.00  0.00     0.038 C 
ATOM      3  O   UNL     1      -8.598   5.008 -10.255  1.00  0.00    -0.550 OA
ATOM      4  O   UNL     1      -8.665   2.720 -10.167  1.00  0.00    -0.550 OA
ENDROOT
TORSDOF 0
ENDMDL
