MODEL 1
REMARK VINA RESULT:     5.882      0.000      0.000
REMARK INTER + INTRA:          10.657
REMARK INTER:                   7.946
REMARK INTRA:                   2.712
REMARK UNBOUND:                 2.712
REMARK SMILES O=c1c(-c2ccc(O)cc2)coc2c([C@@H]3O[C@H](CO)[C@@H](O)[C@@H](O)[C@@H]3O)c(O)ccc12
REMARK SMILES IDX 3 1 11 2 12 3 13 4 30 5 2 6 1 7 29 8 28 9 26 10 14 11 4 12
REMARK SMILES IDX 5 13 6 14 7 15 10 16 9 17 8 18 15 20 24 21 16 22 22 23 17 24
REMARK SMILES IDX 20 25 25 26 23 28 18 30 19 31 21 33 27 35
REMARK H PARENT 8 19 25 27 23 29 19 32 21 34 27 36
REMARK Flexibility Score: inf
ROOT
ATOM      1  C   UNL     1      11.242 -28.697  14.960  1.00  0.00     0.065 A 
ATOM      2  C   UNL     1      10.639 -29.586  14.059  1.00  0.00     0.208 A 
ATOM      3  O   UNL     1       9.505 -30.204  14.366  1.00  0.00    -0.463 OA
ATOM      4  C   UNL     1       8.872 -30.032  15.524  1.00  0.00     0.147 A 
ATOM      5  C   UNL     1       9.418 -29.161  16.497  1.00  0.00     0.066 A 
ATOM      6  C   UNL     1      10.620 -28.492  16.204  1.00  0.00     0.200 A 
ATOM      7  O   UNL     1      11.149 -27.729  17.060  1.00  0.00    -0.288 OA
ATOM      8  C   UNL     1       8.761 -28.997  17.726  1.00  0.00     0.020 A 
ATOM      9  C   UNL     1       7.585 -29.696  17.992  1.00  0.00     0.047 A 
ATOM     10  C   UNL     1       7.038 -30.563  17.039  1.00  0.00     0.125 A 
ATOM     11  C   UNL     1       7.664 -30.722  15.779  1.00  0.00     0.069 A 
ENDROOT
BRANCH   1  12
ATOM     12  C   UNL     1      12.505 -28.011  14.590  1.00  0.00    -0.011 A 
ATOM     13  C   UNL     1      13.601 -28.002  15.471  1.00  0.00     0.013 A 
ATOM     14  C   UNL     1      14.785 -27.347  15.122  1.00  0.00     0.047 A 
ATOM     15  C   UNL     1      14.889 -26.689  13.893  1.00  0.00     0.115 A 
ATOM     16  C   UNL     1      12.615 -27.341  13.358  1.00  0.00     0.013 A 
ATOM     17  C   UNL     1      13.800 -26.687  13.011  1.00  0.00     0.047 A 
BRANCH  15  18
ATOM     18  O   UNL     1      16.076 -26.040  13.558  1.00  0.00    -0.508 OA
ATOM     19  H   UNL     1      16.828 -25.932  14.227  1.00  0.00     0.293 HD
ENDBRANCH  15  18
ENDBRANCH   1  12
BRANCH  11  20
ATOM     20  C   UNL     1       7.104 -31.676  14.731  1.00  0.00     0.188 C 
ATOM     21  C   UNL     1       8.054 -31.760  13.514  1.00  0.00     0.179 C 
ATOM     22  O   UNL     1       6.890 -32.960  15.296  1.00  0.00    -0.362 OA
ATOM     23  C   UNL     1       7.471 -32.725  12.465  1.00  0.00     0.177 C 
ATOM     24  C   UNL     1       6.222 -33.814  14.381  1.00  0.00     0.176 C 
ATOM     25  C   UNL     1       7.100 -34.066  13.128  1.00  0.00     0.177 C 
BRANCH  21  26
ATOM     26  O   UNL     1       9.322 -32.209  13.924  1.00  0.00    -0.387 OA
ATOM     27  H   UNL     1       9.667 -32.794  13.201  1.00  0.00     0.211 HD
ENDBRANCH  21  26
BRANCH  23  28
ATOM     28  O   UNL     1       6.338 -32.135  11.876  1.00  0.00    -0.387 OA
ATOM     29  H   UNL     1       6.642 -31.691  11.041  1.00  0.00     0.211 HD
ENDBRANCH  23  28
BRANCH  24  30
ATOM     30  C   UNL     1       5.875 -35.125  15.104  1.00  0.00     0.191 C 
BRANCH  30  31
ATOM     31  O   UNL     1       5.954 -34.975  16.497  1.00  0.00    -0.394 OA
ATOM     32  H   UNL     1       6.158 -35.871  16.870  1.00  0.00     0.210 HD
ENDBRANCH  30  31
ENDBRANCH  24  30
BRANCH  25  33
ATOM     33  O   UNL     1       6.416 -34.869  12.198  1.00  0.00    -0.388 OA
ATOM     34  H   UNL     1       6.020 -34.262  11.520  1.00  0.00     0.211 HD
ENDBRANCH  25  33
ENDBRANCH  11  20
BRANCH  10  35
ATOM     35  O   UNL     1       5.875 -31.268  17.350  1.00  0.00    -0.507 OA
ATOM     36  H   UNL     1       5.773 -32.252  17.131  1.00  0.00     0.293 HD
ENDBRANCH  10  35
TORSDOF 9
ENDMDL
MODEL 2
REMARK VINA RESULT:     6.596      1.741      3.979
REMARK INTER + INTRA:          11.622
REMARK INTER:                  11.503
REMARK INTRA:                   0.119
REMARK UNBOUND:                 2.712
REMARK SMILES O=c1c(-c2ccc(O)cc2)coc2c([C@@H]3O[C@H](CO)[C@@H](O)[C@@H](O)[C@@H]3O)c(O)ccc12
REMARK SMILES IDX 3 1 11 2 12 3 13 4 30 5 2 6 1 7 29 8 28 9 26 10 14 11 4 12
REMARK SMILES IDX 5 13 6 14 7 15 10 16 9 17 8 18 15 20 24 21 16 22 22 23 17 24
REMARK SMILES IDX 20 25 25 26 23 28 18 30 19 31 21 33 27 35
REMARK H PARENT 8 19 25 27 23 29 19 32 21 34 27 36
REMARK Flexibility Score: inf
ROOT
ATOM      1  C   UNL     1      11.054 -29.113  14.175  1.00  0.00     0.065 A 
ATOM      2  C   UNL     1      10.543 -29.602  15.385  1.00  0.00     0.208 A 
ATOM      3  O   UNL     1       9.482 -30.400  15.405  1.00  0.00    -0.463 OA
ATOM      4  C   UNL     1       8.839 -30.784  14.305  1.00  0.00     0.147 A 
ATOM      5  C   UNL     1       9.280 -30.327  13.041  1.00  0.00     0.066 A 
ATOM      6  C   UNL     1      10.401 -29.478  12.984  1.00  0.00     0.200 A 
ATOM      7  O   UNL     1      10.804 -29.029  11.875  1.00  0.00    -0.288 OA
ATOM      8  C   UNL     1       8.589 -30.715  11.883  1.00  0.00     0.020 A 
ATOM      9  C   UNL     1       7.467 -31.536  11.979  1.00  0.00     0.047 A 
ATOM     10  C   UNL     1       7.018 -31.992  13.224  1.00  0.00     0.125 A 
ATOM     11  C   UNL     1       7.718 -31.641  14.404  1.00  0.00     0.069 A 
ENDROOT
BRANCH   1  12
ATOM     12  C   UNL     1      12.247 -28.229  14.178  1.00  0.00    -0.011 A 
ATOM     13  C   UNL     1      12.450 -27.294  13.147  1.00  0.00     0.013 A 
ATOM     14  C   UNL     1      13.579 -26.471  13.150  1.00  0.00     0.047 A 
ATOM     15  C   UNL     1      14.522 -26.574  14.177  1.00  0.00     0.115 A 
ATOM     16  C   UNL     1      13.203 -28.332  15.204  1.00  0.00     0.013 A 
ATOM     17  C   UNL     1      14.331 -27.507  15.205  1.00  0.00     0.047 A 
BRANCH  15  18
ATOM     18  O   UNL     1      15.643 -25.747  14.167  1.00  0.00    -0.508 OA
ATOM     19  H   UNL     1      16.352 -25.825  13.448  1.00  0.00     0.293 HD
ENDBRANCH  15  18
ENDBRANCH   1  12
BRANCH  11  20
ATOM     20  C   UNL     1       7.239 -32.103  15.776  1.00  0.00     0.188 C 
ATOM     21  C   UNL     1       7.981 -33.390  16.201  1.00  0.00     0.179 C 
ATOM     22  O   UNL     1       7.421 -31.073  16.735  1.00  0.00    -0.362 OA
ATOM     23  C   UNL     1       7.483 -33.844  17.585  1.00  0.00     0.177 C 
ATOM     24  C   UNL     1       6.836 -31.427  17.978  1.00  0.00     0.176 C 
ATOM     25  C   UNL     1       7.542 -32.668  18.580  1.00  0.00     0.177 C 
BRANCH  21  26
ATOM     26  O   UNL     1       9.367 -33.155  16.245  1.00  0.00    -0.387 OA
ATOM     27  H   UNL     1       9.579 -32.864  17.170  1.00  0.00     0.211 HD
ENDBRANCH  21  26
BRANCH  23  28
ATOM     28  O   UNL     1       6.166 -34.324  17.467  1.00  0.00    -0.387 OA
ATOM     29  H   UNL     1       5.973 -34.408  16.497  1.00  0.00     0.211 HD
ENDBRANCH  23  28
BRANCH  24  30
ATOM     30  C   UNL     1       6.921 -30.213  18.918  1.00  0.00     0.191 C 
BRANCH  30  31
ATOM     31  O   UNL     1       8.092 -30.248  19.690  1.00  0.00    -0.394 OA
ATOM     32  H   UNL     1       7.827 -30.551  20.597  1.00  0.00     0.210 HD
ENDBRANCH  30  31
ENDBRANCH  24  30
BRANCH  25  33
ATOM     33  O   UNL     1       6.928 -33.049  19.787  1.00  0.00    -0.388 OA
ATOM     34  H   UNL     1       7.449 -33.810  20.154  1.00  0.00     0.211 HD
ENDBRANCH  25  33
ENDBRANCH  11  20
BRANCH  10  35
ATOM     35  O   UNL     1       5.876 -32.789  13.285  1.00  0.00    -0.507 OA
ATOM     36  H   UNL     1       5.930 -33.801  13.292  1.00  0.00     0.293 HD
ENDBRANCH  10  35
TORSDOF 9
ENDMDL
