MODEL 1
REMARK VINA RESULT:    -4.261      0.000      0.000
REMARK INTER + INTRA:          -6.354
REMARK INTER:                  -5.881
REMARK INTRA:                  -0.473
REMARK UNBOUND:                -0.473
REMARK SMILES OC[C@@H](O)C(O)[C@H](O)CO
REMARK SMILES IDX 5 1 7 2 9 3 10 4 8 6 3 8 2 9 1 10 4 12 6 14
REMARK H PARENT 10 5 8 7 1 11 4 13 6 15
REMARK Flexibility Score: inf
ROOT
ATOM      1  C   UNL     1      -6.236 -18.938 -13.436  1.00  0.00     0.176 C 
ENDROOT
BRANCH   1   2
ATOM      2  C   UNL     1      -5.618 -20.224 -12.815  1.00  0.00     0.171 C 
BRANCH   2   3
ATOM      3  C   UNL     1      -5.324 -20.046 -11.313  1.00  0.00     0.190 C 
BRANCH   3   4
ATOM      4  O   UNL     1      -4.209 -20.809 -10.938  1.00  0.00    -0.394 OA
ATOM      5  H   UNL     1      -4.350 -21.721 -11.303  1.00  0.00     0.210 HD
ENDBRANCH   3   4
ENDBRANCH   2   3
BRANCH   2   6
ATOM      6  O   UNL     1      -6.423 -21.355 -13.043  1.00  0.00    -0.388 OA
ATOM      7  H   UNL     1      -5.833 -22.152 -13.082  1.00  0.00     0.211 HD
ENDBRANCH   2   6
ENDBRANCH   1   2
BRANCH   1   8
ATOM      8  C   UNL     1      -6.813 -19.124 -14.869  1.00  0.00     0.171 C 
BRANCH   8   9
ATOM      9  C   UNL     1      -7.084 -17.793 -15.592  1.00  0.00     0.190 C 
BRANCH   9  10
ATOM     10  O   UNL     1      -6.742 -16.696 -14.787  1.00  0.00    -0.394 OA
ATOM     11  H   UNL     1      -6.520 -15.950 -15.403  1.00  0.00     0.210 HD
ENDBRANCH   9  10
ENDBRANCH   8   9
BRANCH   8  12
ATOM     12  O   UNL     1      -5.949 -19.898 -15.662  1.00  0.00    -0.388 OA
ATOM     13  H   UNL     1      -5.556 -19.296 -16.346  1.00  0.00     0.211 HD
ENDBRANCH   8  12
ENDBRANCH   1   8
BRANCH   1  14
ATOM     14  O   UNL     1      -7.201 -18.368 -12.586  1.00  0.00    -0.388 OA
ATOM     15  H   UNL     1      -6.786 -18.223 -11.698  1.00  0.00     0.211 HD
ENDBRANCH   1  14
TORSDOF 9
ENDMDL
MODEL 2
REMARK VINA RESULT:    -4.156      1.319      4.339
REMARK INTER + INTRA:          -6.209
REMARK INTER:                  -5.707
REMARK INTRA:                  -0.502
REMARK UNBOUND:                -0.473
REMARK SMILES OC[C@@H](O)C(O)[C@H](O)CO
REMARK SMILES IDX 5 1 7 2 9 3 10 4 8 6 3 8 2 9 1 10 4 12 6 14
REMARK H PARENT 10 5 8 7 1 11 4 13 6 15
REMARK Flexibility Score: inf
ROOT
ATOM      1  C   UNL     1      -5.963 -19.397 -13.494  1.00  0.00     0.176 C 
ENDROOT
BRANCH   1   2
ATOM      2  C   UNL     1      -6.727 -18.045 -13.599  1.00  0.00     0.171 C 
BRANCH   2   3
ATOM      3  C   UNL     1      -7.148 -17.742 -15.051  1.00  0.00     0.190 C 
BRANCH   3   4
ATOM      4  O   UNL     1      -8.332 -18.421 -15.369  1.00  0.00    -0.394 OA
ATOM      5  H   UNL     1      -8.755 -18.678 -14.508  1.00  0.00     0.210 HD
ENDBRANCH   3   4
ENDBRANCH   2   3
BRANCH   2   6
ATOM      6  O   UNL     1      -7.834 -17.999 -12.732  1.00  0.00    -0.388 OA
ATOM      7  H   UNL     1      -8.331 -17.159 -12.911  1.00  0.00     0.211 HD
ENDBRANCH   2   6
ENDBRANCH   1   2
BRANCH   1   8
ATOM      8  C   UNL     1      -5.963 -20.030 -12.072  1.00  0.00     0.171 C 
BRANCH   8   9
ATOM      9  C   UNL     1      -5.838 -21.564 -12.090  1.00  0.00     0.190 C 
BRANCH   9  10
ATOM     10  O   UNL     1      -7.099 -22.178 -12.093  1.00  0.00    -0.394 OA
ATOM     11  H   UNL     1      -6.966 -23.098 -12.439  1.00  0.00     0.210 HD
ENDBRANCH   9  10
ENDBRANCH   8   9
BRANCH   8  12
ATOM     12  O   UNL     1      -4.922 -19.504 -11.288  1.00  0.00    -0.388 OA
ATOM     13  H   UNL     1      -4.720 -20.169 -10.579  1.00  0.00     0.211 HD
ENDBRANCH   8  12
ENDBRANCH   1   8
BRANCH   1  14
ATOM     14  O   UNL     1      -6.423 -20.324 -14.446  1.00  0.00    -0.388 OA
ATOM     15  H   UNL     1      -5.649 -20.621 -14.989  1.00  0.00     0.211 HD
ENDBRANCH   1  14
TORSDOF 9
ENDMDL
MODEL 3
REMARK VINA RESULT:    -4.138      1.531      4.754
REMARK INTER + INTRA:          -6.184
REMARK INTER:                  -5.552
REMARK INTRA:                  -0.631
REMARK UNBOUND:                -0.473
REMARK SMILES OC[C@@H](O)C(O)[C@H](O)CO
REMARK SMILES IDX 5 1 7 2 9 3 10 4 8 6 3 8 2 9 1 10 4 12 6 14
REMARK H PARENT 10 5 8 7 1 11 4 13 6 15
REMARK Flexibility Score: inf
ROOT
ATOM      1  C   UNL     1      -5.539 -20.953 -12.317  1.00  0.00     0.176 C 
ENDROOT
BRANCH   1   2
ATOM      2  C   UNL     1      -5.724 -19.524 -12.905  1.00  0.00     0.171 C 
BRANCH   2   3
ATOM      3  C   UNL     1      -5.911 -19.559 -14.435  1.00  0.00     0.190 C 
BRANCH   3   4
ATOM      4  O   UNL     1      -7.274 -19.523 -14.762  1.00  0.00    -0.394 OA
ATOM      5  H   UNL     1      -7.337 -19.672 -15.742  1.00  0.00     0.210 HD
ENDBRANCH   3   4
ENDBRANCH   2   3
BRANCH   2   6
ATOM      6  O   UNL     1      -6.780 -18.833 -12.283  1.00  0.00    -0.388 OA
ATOM      7  H   UNL     1      -6.858 -17.940 -12.708  1.00  0.00     0.211 HD
ENDBRANCH   2   6
ENDBRANCH   1   2
BRANCH   1   8
ATOM      8  C   UNL     1      -5.229 -20.988 -10.792  1.00  0.00     0.171 C 
BRANCH   8   9
ATOM      9  C   UNL     1      -4.131 -22.002 -10.419  1.00  0.00     0.190 C 
BRANCH   9  10
ATOM     10  O   UNL     1      -4.049 -23.034 -11.365  1.00  0.00    -0.394 OA
ATOM     11  H   UNL     1      -4.921 -23.507 -11.346  1.00  0.00     0.210 HD
ENDBRANCH   9  10
ENDBRANCH   8   9
BRANCH   8  12
ATOM     12  O   UNL     1      -4.845 -19.719 -10.328  1.00  0.00    -0.388 OA
ATOM     13  H   UNL     1      -5.452 -19.054 -10.746  1.00  0.00     0.211 HD
ENDBRANCH   8  12
ENDBRANCH   1   8
BRANCH   1  14
ATOM     14  O   UNL     1      -6.637 -21.780 -12.616  1.00  0.00    -0.388 OA
ATOM     15  H   UNL     1      -6.476 -22.201 -13.499  1.00  0.00     0.211 HD
ENDBRANCH   1  14
TORSDOF 9
ENDMDL
MODEL 4
REMARK VINA RESULT:    -4.135      2.098      3.499
REMARK INTER + INTRA:          -6.179
REMARK INTER:                  -5.544
REMARK INTRA:                  -0.636
REMARK UNBOUND:                -0.473
REMARK SMILES OC[C@@H](O)C(O)[C@H](O)CO
REMARK SMILES IDX 5 1 7 2 9 3 10 4 8 6 3 8 2 9 1 10 4 12 6 14
REMARK H PARENT 10 5 8 7 1 11 4 13 6 15
REMARK Flexibility Score: inf
ROOT
ATOM      1  C   UNL     1      -6.175 -21.106 -11.410  1.00  0.00     0.176 C 
ENDROOT
BRANCH   1   2
ATOM      2  C   UNL     1      -5.534 -21.462 -10.037  1.00  0.00     0.171 C 
BRANCH   2   3
ATOM      3  C   UNL     1      -6.603 -21.659  -8.944  1.00  0.00     0.190 C 
BRANCH   3   4
ATOM      4  O   UNL     1      -7.376 -22.797  -9.216  1.00  0.00    -0.394 OA
ATOM      5  H   UNL     1      -7.571 -23.225  -8.341  1.00  0.00     0.210 HD
ENDBRANCH   3   4
ENDBRANCH   2   3
BRANCH   2   6
ATOM      6  O   UNL     1      -4.690 -22.584 -10.126  1.00  0.00    -0.388 OA
ATOM      7  H   UNL     1      -4.443 -22.858  -9.206  1.00  0.00     0.211 HD
ENDBRANCH   2   6
ENDBRANCH   1   2
BRANCH   1   8
ATOM      8  C   UNL     1      -5.163 -20.621 -12.489  1.00  0.00     0.171 C 
BRANCH   8   9
ATOM      9  C   UNL     1      -5.728 -19.510 -13.393  1.00  0.00     0.190 C 
BRANCH   9  10
ATOM     10  O   UNL     1      -6.796 -19.980 -14.171  1.00  0.00    -0.394 OA
ATOM     11  H   UNL     1      -7.494 -20.289 -13.537  1.00  0.00     0.210 HD
ENDBRANCH   9  10
ENDBRANCH   8   9
BRANCH   8  12
ATOM     12  O   UNL     1      -3.978 -20.157 -11.894  1.00  0.00    -0.388 OA
ATOM     13  H   UNL     1      -4.228 -19.434 -11.261  1.00  0.00     0.211 HD
ENDBRANCH   8  12
ENDBRANCH   1   8
BRANCH   1  14
ATOM     14  O   UNL     1      -6.953 -22.168 -11.905  1.00  0.00    -0.388 OA
ATOM     15  H   UNL     1      -6.945 -22.898 -11.236  1.00  0.00     0.211 HD
ENDBRANCH   1  14
TORSDOF 9
ENDMDL
MODEL 5
REMARK VINA RESULT:    -4.066      1.246      4.316
REMARK INTER + INTRA:          -6.085
REMARK INTER:                  -5.919
REMARK INTRA:                  -0.166
REMARK UNBOUND:                -0.473
REMARK SMILES OC[C@@H](O)C(O)[C@H](O)CO
REMARK SMILES IDX 5 1 7 2 9 3 10 4 8 6 3 8 2 9 1 10 4 12 6 14
REMARK H PARENT 10 5 8 7 1 11 4 13 6 15
REMARK Flexibility Score: inf
ROOT
ATOM      1  C   UNL     1      -7.133 -18.508 -14.100  1.00  0.00     0.176 C 
ENDROOT
BRANCH   1   2
ATOM      2  C   UNL     1      -7.067 -17.323 -15.107  1.00  0.00     0.171 C 
BRANCH   2   3
ATOM      3  C   UNL     1      -7.996 -17.552 -16.315  1.00  0.00     0.190 C 
BRANCH   3   4
ATOM      4  O   UNL     1      -9.167 -18.210 -15.914  1.00  0.00    -0.394 OA
ATOM      5  H   UNL     1      -9.364 -17.905 -14.990  1.00  0.00     0.210 HD
ENDBRANCH   3   4
ENDBRANCH   2   3
BRANCH   2   6
ATOM      6  O   UNL     1      -7.340 -16.090 -14.486  1.00  0.00    -0.388 OA
ATOM      7  H   UNL     1      -7.082 -15.366 -15.112  1.00  0.00     0.211 HD
ENDBRANCH   2   6
ENDBRANCH   1   2
BRANCH   1   8
ATOM      8  C   UNL     1      -5.914 -19.473 -14.156  1.00  0.00     0.171 C 
BRANCH   8   9
ATOM      9  C   UNL     1      -5.700 -20.258 -12.849  1.00  0.00     0.190 C 
BRANCH   9  10
ATOM     10  O   UNL     1      -6.465 -21.433 -12.828  1.00  0.00    -0.394 OA
ATOM     11  H   UNL     1      -5.900 -22.146 -13.226  1.00  0.00     0.210 HD
ENDBRANCH   9  10
ENDBRANCH   8   9
BRANCH   8  12
ATOM     12  O   UNL     1      -6.047 -20.390 -15.213  1.00  0.00    -0.388 OA
ATOM     13  H   UNL     1      -5.758 -19.928 -16.043  1.00  0.00     0.211 HD
ENDBRANCH   8  12
ENDBRANCH   1   8
BRANCH   1  14
ATOM     14  O   UNL     1      -7.343 -18.055 -12.784  1.00  0.00    -0.388 OA
ATOM     15  H   UNL     1      -6.621 -17.416 -12.557  1.00  0.00     0.211 HD
ENDBRANCH   1  14
TORSDOF 9
ENDMDL
MODEL 6
REMARK VINA RESULT:    -3.982      1.224      4.456
REMARK INTER + INTRA:          -5.968
REMARK INTER:                  -5.493
REMARK INTRA:                  -0.476
REMARK UNBOUND:                -0.473
REMARK SMILES OC[C@@H](O)C(O)[C@H](O)CO
REMARK SMILES IDX 5 1 7 2 9 3 10 4 8 6 3 8 2 9 1 10 4 12 6 14
REMARK H PARENT 10 5 8 7 1 11 4 13 6 15
REMARK Flexibility Score: inf
ROOT
ATOM      1  C   UNL     1      -5.531 -20.497 -12.555  1.00  0.00     0.176 C 
ENDROOT
BRANCH   1   2
ATOM      2  C   UNL     1      -6.009 -19.082 -12.995  1.00  0.00     0.171 C 
BRANCH   2   3
ATOM      3  C   UNL     1      -6.214 -19.002 -14.521  1.00  0.00     0.190 C 
BRANCH   3   4
ATOM      4  O   UNL     1      -6.339 -17.666 -14.928  1.00  0.00    -0.394 OA
ATOM      5  H   UNL     1      -6.854 -17.673 -15.777  1.00  0.00     0.210 HD
ENDBRANCH   3   4
ENDBRANCH   2   3
BRANCH   2   6
ATOM      6  O   UNL     1      -7.169 -18.683 -12.307  1.00  0.00    -0.388 OA
ATOM      7  H   UNL     1      -7.541 -17.887 -12.767  1.00  0.00     0.211 HD
ENDBRANCH   2   6
ENDBRANCH   1   2
BRANCH   1   8
ATOM      8  C   UNL     1      -5.281 -20.647 -11.026  1.00  0.00     0.171 C 
BRANCH   8   9
ATOM      9  C   UNL     1      -6.222 -21.664 -10.354  1.00  0.00     0.190 C 
BRANCH   9  10
ATOM     10  O   UNL     1      -7.565 -21.283 -10.490  1.00  0.00    -0.394 OA
ATOM     11  H   UNL     1      -7.570 -20.297 -10.605  1.00  0.00     0.210 HD
ENDBRANCH   9  10
ENDBRANCH   8   9
BRANCH   8  12
ATOM     12  O   UNL     1      -3.953 -21.027 -10.769  1.00  0.00    -0.388 OA
ATOM     13  H   UNL     1      -3.408 -20.742 -11.549  1.00  0.00     0.211 HD
ENDBRANCH   8  12
ENDBRANCH   1   8
BRANCH   1  14
ATOM     14  O   UNL     1      -6.403 -21.502 -13.013  1.00  0.00    -0.388 OA
ATOM     15  H   UNL     1      -6.083 -22.372 -12.665  1.00  0.00     0.211 HD
ENDBRANCH   1  14
TORSDOF 9
ENDMDL
MODEL 7
REMARK VINA RESULT:    -3.909      6.014      7.410
REMARK INTER + INTRA:          -5.868
REMARK INTER:                  -5.179
REMARK INTRA:                  -0.689
REMARK UNBOUND:                -0.473
REMARK SMILES OC[C@@H](O)C(O)[C@H](O)CO
REMARK SMILES IDX 5 1 7 2 9 3 10 4 8 6 3 8 2 9 1 10 4 12 6 14
REMARK H PARENT 10 5 8 7 1 11 4 13 6 15
REMARK Flexibility Score: inf
ROOT
ATOM      1  C   UNL     1      -0.958 -23.308 -11.217  1.00  0.00     0.176 C 
ENDROOT
BRANCH   1   2
ATOM      2  C   UNL     1      -0.856 -22.435  -9.932  1.00  0.00     0.171 C 
BRANCH   2   3
ATOM      3  C   UNL     1       0.527 -22.569  -9.263  1.00  0.00     0.190 C 
BRANCH   3   4
ATOM      4  O   UNL     1       1.458 -21.729  -9.892  1.00  0.00    -0.394 OA
ATOM      5  H   UNL     1       1.255 -21.755 -10.864  1.00  0.00     0.210 HD
ENDBRANCH   3   4
ENDBRANCH   2   3
BRANCH   2   6
ATOM      6  O   UNL     1      -1.165 -21.087 -10.188  1.00  0.00    -0.388 OA
ATOM      7  H   UNL     1      -0.624 -20.788 -10.963  1.00  0.00     0.211 HD
ENDBRANCH   2   6
ENDBRANCH   1   2
BRANCH   1   8
ATOM      8  C   UNL     1      -2.382 -23.376 -11.840  1.00  0.00     0.171 C 
BRANCH   8   9
ATOM      9  C   UNL     1      -2.712 -24.749 -12.453  1.00  0.00     0.190 C 
BRANCH   9  10
ATOM     10  O   UNL     1      -1.570 -25.558 -12.535  1.00  0.00    -0.394 OA
ATOM     11  H   UNL     1      -1.856 -26.412 -12.953  1.00  0.00     0.210 HD
ENDBRANCH   9  10
ENDBRANCH   8   9
BRANCH   8  12
ATOM     12  O   UNL     1      -3.364 -23.062 -10.885  1.00  0.00    -0.388 OA
ATOM     13  H   UNL     1      -4.187 -23.561 -11.132  1.00  0.00     0.211 HD
ENDBRANCH   8  12
ENDBRANCH   1   8
BRANCH   1  14
ATOM     14  O   UNL     1      -0.014 -22.916 -12.184  1.00  0.00    -0.388 OA
ATOM     15  H   UNL     1       0.857 -22.785 -11.731  1.00  0.00     0.211 HD
ENDBRANCH   1  14
TORSDOF 9
ENDMDL
MODEL 8
REMARK VINA RESULT:    -3.873     10.963     12.658
REMARK INTER + INTRA:          -5.818
REMARK INTER:                  -5.324
REMARK INTRA:                  -0.493
REMARK UNBOUND:                -0.473
REMARK SMILES OC[C@@H](O)C(O)[C@H](O)CO
REMARK SMILES IDX 5 1 7 2 9 3 10 4 8 6 3 8 2 9 1 10 4 12 6 14
REMARK H PARENT 10 5 8 7 1 11 4 13 6 15
REMARK Flexibility Score: inf
ROOT
ATOM      1  C   UNL     1       2.529 -27.854 -11.664  1.00  0.00     0.176 C 
ENDROOT
BRANCH   1   2
ATOM      2  C   UNL     1       2.659 -29.386 -11.907  1.00  0.00     0.171 C 
BRANCH   2   3
ATOM      3  C   UNL     1       2.846 -29.711 -13.402  1.00  0.00     0.190 C 
BRANCH   3   4
ATOM      4  O   UNL     1       2.951 -28.530 -14.150  1.00  0.00    -0.394 OA
ATOM      5  H   UNL     1       3.863 -28.170 -13.990  1.00  0.00     0.210 HD
ENDBRANCH   3   4
ENDBRANCH   2   3
BRANCH   2   6
ATOM      6  O   UNL     1       3.687 -29.955 -11.133  1.00  0.00    -0.388 OA
ATOM      7  H   UNL     1       4.043 -29.253 -10.530  1.00  0.00     0.211 HD
ENDBRANCH   2   6
ENDBRANCH   1   2
BRANCH   1   8
ATOM      8  C   UNL     1       1.622 -27.465 -10.461  1.00  0.00     0.171 C 
BRANCH   8   9
ATOM      9  C   UNL     1       1.951 -26.079  -9.877  1.00  0.00     0.190 C 
BRANCH   9  10
ATOM     10  O   UNL     1       1.912 -25.086 -10.866  1.00  0.00    -0.394 OA
ATOM     11  H   UNL     1       1.400 -25.464 -11.628  1.00  0.00     0.210 HD
ENDBRANCH   9  10
ENDBRANCH   8   9
BRANCH   8  12
ATOM     12  O   UNL     1       0.265 -27.487 -10.828  1.00  0.00    -0.388 OA
ATOM     13  H   UNL     1      -0.243 -27.852 -10.057  1.00  0.00     0.211 HD
ENDBRANCH   8  12
ENDBRANCH   1   8
BRANCH   1  14
ATOM     14  O   UNL     1       3.791 -27.242 -11.549  1.00  0.00    -0.388 OA
ATOM     15  H   UNL     1       4.018 -26.832 -12.422  1.00  0.00     0.211 HD
ENDBRANCH   1  14
TORSDOF 9
ENDMDL
MODEL 9
REMARK VINA RESULT:    -3.864      2.478      5.065
REMARK INTER + INTRA:          -5.805
REMARK INTER:                  -5.286
REMARK INTRA:                  -0.519
REMARK UNBOUND:                -0.473
REMARK SMILES OC[C@@H](O)C(O)[C@H](O)CO
REMARK SMILES IDX 5 1 7 2 9 3 10 4 8 6 3 8 2 9 1 10 4 12 6 14
REMARK H PARENT 10 5 8 7 1 11 4 13 6 15
REMARK Flexibility Score: inf
ROOT
ATOM      1  C   UNL     1      -4.812 -21.749 -10.571  1.00  0.00     0.176 C 
ENDROOT
BRANCH   1   2
ATOM      2  C   UNL     1      -6.054 -21.324 -11.408  1.00  0.00     0.171 C 
BRANCH   2   3
ATOM      3  C   UNL     1      -5.669 -20.354 -12.543  1.00  0.00     0.190 C 
BRANCH   3   4
ATOM      4  O   UNL     1      -6.438 -20.611 -13.687  1.00  0.00    -0.394 OA
ATOM      5  H   UNL     1      -6.386 -21.589 -13.853  1.00  0.00     0.210 HD
ENDBRANCH   3   4
ENDBRANCH   2   3
BRANCH   2   6
ATOM      6  O   UNL     1      -6.755 -22.436 -11.909  1.00  0.00    -0.388 OA
ATOM      7  H   UNL     1      -7.533 -22.102 -12.426  1.00  0.00     0.211 HD
ENDBRANCH   2   6
ENDBRANCH   1   2
BRANCH   1   8
ATOM      8  C   UNL     1      -3.672 -22.411 -11.398  1.00  0.00     0.171 C 
BRANCH   8   9
ATOM      9  C   UNL     1      -2.315 -22.409 -10.670  1.00  0.00     0.190 C 
BRANCH   9  10
ATOM     10  O   UNL     1      -1.608 -21.222 -10.911  1.00  0.00    -0.394 OA
ATOM     11  H   UNL     1      -0.670 -21.483 -11.101  1.00  0.00     0.210 HD
ENDBRANCH   9  10
ENDBRANCH   8   9
BRANCH   8  12
ATOM     12  O   UNL     1      -3.999 -23.735 -11.736  1.00  0.00    -0.388 OA
ATOM     13  H   UNL     1      -3.489 -24.330 -11.126  1.00  0.00     0.211 HD
ENDBRANCH   8  12
ENDBRANCH   1   8
BRANCH   1  14
ATOM     14  O   UNL     1      -4.311 -20.677  -9.809  1.00  0.00    -0.388 OA
ATOM     15  H   UNL     1      -4.341 -20.936  -8.853  1.00  0.00     0.211 HD
ENDBRANCH   1  14
TORSDOF 9
ENDMDL
