MODEL 1
REMARK VINA RESULT:    -3.617      0.000      0.000
REMARK INTER + INTRA:          -3.935
REMARK INTER:                  -3.935
REMARK INTRA:                   0.000
REMARK UNBOUND:                 0.000
REMARK SMILES [NH3+]CC(=O)[O-]
REMARK SMILES IDX 2 1 1 2 3 6 4 7 5 8
REMARK H PARENT 1 3 1 4 1 5
REMARK Flexibility Score: inf
ROOT
ATOM      1  C   UNL     1      14.326  11.125  51.223  1.00  0.00     0.312 C 
ENDROOT
BRANCH   1   2
ATOM      2  N   UNL     1      13.105  11.093  50.421  1.00  0.00    -0.353 N 
ATOM      3  H   UNL     1      12.527  11.936  50.645  1.00  0.00     0.344 HD
ATOM      4  H   UNL     1      13.343  11.106  49.403  1.00  0.00     0.344 HD
ATOM      5  H   UNL     1      12.551  10.234  50.644  1.00  0.00     0.344 HD
ENDBRANCH   1   2
BRANCH   1   6
ATOM      6  C   UNL     1      14.704   9.744  51.663  1.00  0.00     0.096 C 
ATOM      7  O   UNL     1      15.023   8.873  50.811  1.00  0.00    -0.544 OA
ATOM      8  O   UNL     1      14.752   9.434  53.016  1.00  0.00    -0.544 OA
ENDBRANCH   1   6
TORSDOF 2
ENDMDL
MODEL 2
REMARK VINA RESULT:    -2.845     12.193     12.397
REMARK INTER + INTRA:          -3.095
REMARK INTER:                  -3.095
REMARK INTRA:                   0.000
REMARK UNBOUND:                 0.000
REMARK SMILES [NH3+]CC(=O)[O-]
REMARK SMILES IDX 2 1 1 2 3 6 4 7 5 8
REMARK H PARENT 1 3 1 4 1 5
REMARK Flexibility Score: inf
ROOT
ATOM      1  C   UNL     1       3.436   8.490  48.155  1.00  0.00     0.312 C 
ENDROOT
BRANCH   1   2
ATOM      2  N   UNL     1       3.766   7.105  48.487  1.00  0.00    -0.353 N 
ATOM      3  H   UNL     1       3.786   6.539  47.608  1.00  0.00     0.344 HD
ATOM      4  H   UNL     1       4.707   7.059  48.942  1.00  0.00     0.344 HD
ATOM      5  H   UNL     1       3.042   6.707  49.129  1.00  0.00     0.344 HD
ENDBRANCH   1   2
BRANCH   1   6
ATOM      6  C   UNL     1       3.011   8.602  46.723  1.00  0.00     0.096 C 
ATOM      7  O   UNL     1       3.267   7.673  45.912  1.00  0.00    -0.544 OA
ATOM      8  O   UNL     1       2.288   9.709  46.296  1.00  0.00    -0.544 OA
ENDBRANCH   1   6
TORSDOF 2
ENDMDL
MODEL 3
REMARK VINA RESULT:    -2.733      6.492      6.718
REMARK INTER + INTRA:          -2.973
REMARK INTER:                  -2.973
REMARK INTRA:                   0.000
REMARK UNBOUND:                 0.000
REMARK SMILES [NH3+]CC(=O)[O-]
REMARK SMILES IDX 2 1 1 2 3 6 4 7 5 8
REMARK H PARENT 1 3 1 4 1 5
REMARK Flexibility Score: inf
ROOT
ATOM      1  C   UNL     1      16.105   7.020  46.330  1.00  0.00     0.312 C 
ENDROOT
BRANCH   1   2
ATOM      2  N   UNL     1      15.870   7.486  47.695  1.00  0.00    -0.353 N 
ATOM      3  H   UNL     1      14.898   7.228  47.982  1.00  0.00     0.344 HD
ATOM      4  H   UNL     1      16.548   7.036  48.351  1.00  0.00     0.344 HD
ATOM      5  H   UNL     1      15.970   8.527  47.741  1.00  0.00     0.344 HD
ENDBRANCH   1   2
BRANCH   1   6
ATOM      6  C   UNL     1      16.607   8.138  45.469  1.00  0.00     0.096 C 
ATOM      7  O   UNL     1      17.800   8.528  45.570  1.00  0.00    -0.544 OA
ATOM      8  O   UNL     1      15.771   8.716  44.522  1.00  0.00    -0.544 OA
ENDBRANCH   1   6
TORSDOF 2
ENDMDL
MODEL 4
REMARK VINA RESULT:    -2.659     11.678     11.842
REMARK INTER + INTRA:          -2.892
REMARK INTER:                  -2.892
REMARK INTRA:                   0.000
REMARK UNBOUND:                 0.000
REMARK SMILES [NH3+]CC(=O)[O-]
REMARK SMILES IDX 2 1 1 2 3 6 4 7 5 8
REMARK H PARENT 1 3 1 4 1 5
REMARK Flexibility Score: inf
ROOT
ATOM      1  C   UNL     1       2.760   8.998  46.545  1.00  0.00     0.312 C 
ENDROOT
BRANCH   1   2
ATOM      2  N   UNL     1       2.697   7.727  45.825  1.00  0.00    -0.353 N 
ATOM      3  H   UNL     1       3.661   7.460  45.520  1.00  0.00     0.344 HD
ATOM      4  H   UNL     1       2.319   6.979  46.450  1.00  0.00     0.344 HD
ATOM      5  H   UNL     1       2.089   7.824  44.979  1.00  0.00     0.344 HD
ENDBRANCH   1   2
BRANCH   1   6
ATOM      6  C   UNL     1       3.726   8.911  47.687  1.00  0.00     0.096 C 
ATOM      7  O   UNL     1       3.606   8.000  48.548  1.00  0.00    -0.544 OA
ATOM      8  O   UNL     1       4.786   9.804  47.771  1.00  0.00    -0.544 OA
ENDBRANCH   1   6
TORSDOF 2
ENDMDL
MODEL 5
REMARK VINA RESULT:    -2.566      2.416      2.670
REMARK INTER + INTRA:          -2.791
REMARK INTER:                  -2.791
REMARK INTRA:                   0.000
REMARK UNBOUND:                 0.000
REMARK SMILES [NH3+]CC(=O)[O-]
REMARK SMILES IDX 2 1 1 2 3 6 4 7 5 8
REMARK H PARENT 1 3 1 4 1 5
REMARK Flexibility Score: inf
ROOT
ATOM      1  C   UNL     1      14.379   9.139  52.004  1.00  0.00     0.312 C 
ENDROOT
BRANCH   1   2
ATOM      2  N   UNL     1      14.745   9.248  53.415  1.00  0.00    -0.353 N 
ATOM      3  H   UNL     1      14.841  10.258  53.666  1.00  0.00     0.344 HD
ATOM      4  H   UNL     1      14.003   8.819  54.014  1.00  0.00     0.344 HD
ATOM      5  H   UNL     1      15.659   8.769  53.587  1.00  0.00     0.344 HD
ENDBRANCH   1   2
BRANCH   1   6
ATOM      6  C   UNL     1      14.422  10.483  51.343  1.00  0.00     0.096 C 
ATOM      7  O   UNL     1      15.505  11.125  51.286  1.00  0.00    -0.544 OA
ATOM      8  O   UNL     1      13.281  11.002  50.747  1.00  0.00    -0.544 OA
ENDBRANCH   1   6
TORSDOF 2
ENDMDL
MODEL 6
REMARK VINA RESULT:    -2.535     11.874     12.029
REMARK INTER + INTRA:          -2.757
REMARK INTER:                  -2.757
REMARK INTRA:                   0.000
REMARK UNBOUND:                 0.000
REMARK SMILES [NH3+]CC(=O)[O-]
REMARK SMILES IDX 2 1 1 2 3 6 4 7 5 8
REMARK H PARENT 1 3 1 4 1 5
REMARK Flexibility Score: inf
ROOT
ATOM      1  C   UNL     1       2.827   9.941  46.862  1.00  0.00     0.312 C 
ENDROOT
BRANCH   1   2
ATOM      2  N   UNL     1       3.426  10.722  47.943  1.00  0.00    -0.353 N 
ATOM      3  H   UNL     1       3.360  10.179  48.833  1.00  0.00     0.344 HD
ATOM      4  H   UNL     1       4.433  10.912  47.734  1.00  0.00     0.344 HD
ATOM      5  H   UNL     1       2.911  11.626  48.059  1.00  0.00     0.344 HD
ENDBRANCH   1   2
BRANCH   1   6
ATOM      6  C   UNL     1       3.185   8.492  46.997  1.00  0.00     0.096 C 
ATOM      7  O   UNL     1       3.246   7.757  45.976  1.00  0.00    -0.544 OA
ATOM      8  O   UNL     1       3.500   7.968  48.244  1.00  0.00    -0.544 OA
ENDBRANCH   1   6
TORSDOF 2
ENDMDL
MODEL 7
REMARK VINA RESULT:    -2.525     12.616     12.843
REMARK INTER + INTRA:          -2.747
REMARK INTER:                  -2.747
REMARK INTRA:                   0.000
REMARK UNBOUND:                 0.000
REMARK SMILES [NH3+]CC(=O)[O-]
REMARK SMILES IDX 2 1 1 2 3 6 4 7 5 8
REMARK H PARENT 1 3 1 4 1 5
REMARK Flexibility Score: inf
ROOT
ATOM      1  C   UNL     1       3.154   8.707  47.042  1.00  0.00     0.312 C 
ENDROOT
BRANCH   1   2
ATOM      2  N   UNL     1       2.830   7.753  45.982  1.00  0.00    -0.353 N 
ATOM      3  H   UNL     1       1.889   7.340  46.171  1.00  0.00     0.344 HD
ATOM      4  H   UNL     1       2.809   8.239  45.056  1.00  0.00     0.344 HD
ATOM      5  H   UNL     1       3.539   6.984  45.962  1.00  0.00     0.344 HD
ENDBRANCH   1   2
BRANCH   1   6
ATOM      6  C   UNL     1       2.810  10.102  46.620  1.00  0.00     0.096 C 
ATOM      7  O   UNL     1       3.689  11.004  46.636  1.00  0.00    -0.544 OA
ATOM      8  O   UNL     1       1.532  10.395  46.161  1.00  0.00    -0.544 OA
ENDBRANCH   1   6
TORSDOF 2
ENDMDL
MODEL 8
REMARK VINA RESULT:    -2.413      5.740      6.243
REMARK INTER + INTRA:          -2.625
REMARK INTER:                  -2.625
REMARK INTRA:                   0.000
REMARK UNBOUND:                 0.000
REMARK SMILES [NH3+]CC(=O)[O-]
REMARK SMILES IDX 2 1 1 2 3 6 4 7 5 8
REMARK H PARENT 1 3 1 4 1 5
REMARK Flexibility Score: inf
ROOT
ATOM      1  C   UNL     1      16.384   8.017  45.970  1.00  0.00     0.312 C 
ENDROOT
BRANCH   1   2
ATOM      2  N   UNL     1      17.003   7.314  44.847  1.00  0.00    -0.353 N 
ATOM      3  H   UNL     1      16.848   7.865  43.972  1.00  0.00     0.344 HD
ATOM      4  H   UNL     1      18.032   7.217  45.009  1.00  0.00     0.344 HD
ATOM      5  H   UNL     1      16.571   6.368  44.734  1.00  0.00     0.344 HD
ENDBRANCH   1   2
BRANCH   1   6
ATOM      6  C   UNL     1      16.077   7.064  47.084  1.00  0.00     0.096 C 
ATOM      7  O   UNL     1      16.012   7.479  48.272  1.00  0.00    -0.544 OA
ATOM      8  O   UNL     1      15.813   5.729  46.805  1.00  0.00    -0.544 OA
ENDBRANCH   1   6
TORSDOF 2
ENDMDL
MODEL 9
REMARK VINA RESULT:    -2.077     18.224     18.488
REMARK INTER + INTRA:          -2.259
REMARK INTER:                  -2.259
REMARK INTRA:                   0.000
REMARK UNBOUND:                 0.000
REMARK SMILES [NH3+]CC(=O)[O-]
REMARK SMILES IDX 2 1 1 2 3 6 4 7 5 8
REMARK H PARENT 1 3 1 4 1 5
REMARK Flexibility Score: inf
ROOT
ATOM      1  C   UNL     1       0.019  -1.320  45.654  1.00  0.00     0.312 C 
ENDROOT
BRANCH   1   2
ATOM      2  N   UNL     1      -1.134  -0.490  45.998  1.00  0.00    -0.353 N 
ATOM      3  H   UNL     1      -1.097   0.393  45.440  1.00  0.00     0.344 HD
ATOM      4  H   UNL     1      -2.021  -0.997  45.775  1.00  0.00     0.344 HD
ATOM      5  H   UNL     1      -1.110  -0.248  47.016  1.00  0.00     0.344 HD
ENDBRANCH   1   2
BRANCH   1   6
ATOM      6  C   UNL     1       1.100  -0.489  45.032  1.00  0.00     0.096 C 
ATOM      7  O   UNL     1       0.844   0.242  44.039  1.00  0.00    -0.544 OA
ATOM      8  O   UNL     1       2.376  -0.484  45.581  1.00  0.00    -0.544 OA
ENDBRANCH   1   6
TORSDOF 2
ENDMDL
