MODEL 1
REMARK VINA RESULT:    -3.380      0.000      0.000
REMARK INTER + INTRA:          -4.013
REMARK INTER:                  -3.973
REMARK INTRA:                  -0.041
REMARK UNBOUND:                -0.041
REMARK SMILES CCCCC(=O)[O-]
REMARK SMILES IDX 4 1 5 2 6 3 7 4 3 5 2 6 1 7
REMARK H PARENT
REMARK Flexibility Score: inf
ROOT
ATOM      1  C   UNL     1     -99.547  31.191 -38.169  1.00  0.00     0.053 C 
ENDROOT
BRANCH   1   2
ATOM      2  C   UNL     1    -101.033  31.001 -38.158  1.00  0.00     0.041 C 
ATOM      3  O   UNL     1    -101.716  31.377 -37.168  1.00  0.00    -0.550 OA
ATOM      4  O   UNL     1    -101.669  30.436 -39.257  1.00  0.00    -0.550 OA
ENDBRANCH   1   2
BRANCH   1   5
ATOM      5  C   UNL     1     -99.100  32.431 -37.374  1.00  0.00     0.006 C 
BRANCH   5   6
ATOM      6  C   UNL     1     -98.374  33.488 -38.226  1.00  0.00    -0.003 C 
ATOM      7  C   UNL     1     -97.398  32.882 -39.233  1.00  0.00     0.004 C 
ENDBRANCH   5   6
ENDBRANCH   1   5
TORSDOF 3
ENDMDL
MODEL 2
REMARK VINA RESULT:    -3.360      1.983      2.556
REMARK INTER + INTRA:          -3.989
REMARK INTER:                  -3.957
REMARK INTRA:                  -0.032
REMARK UNBOUND:                -0.041
REMARK SMILES CCCCC(=O)[O-]
REMARK SMILES IDX 4 1 5 2 6 3 7 4 3 5 2 6 1 7
REMARK H PARENT
REMARK Flexibility Score: inf
ROOT
ATOM      1  C   UNL     1    -100.081  32.140 -36.646  1.00  0.00     0.053 C 
ENDROOT
BRANCH   1   2
ATOM      2  C   UNL     1     -99.854  31.044 -35.650  1.00  0.00     0.041 C 
ATOM      3  O   UNL     1    -100.675  30.094 -35.551  1.00  0.00    -0.550 OA
ATOM      4  O   UNL     1     -98.718  31.057 -34.850  1.00  0.00    -0.550 OA
ENDBRANCH   1   2
BRANCH   1   5
ATOM      5  C   UNL     1     -99.244  31.964 -37.925  1.00  0.00     0.006 C 
BRANCH   5   6
ATOM      6  C   UNL     1     -98.310  33.152 -38.225  1.00  0.00    -0.003 C 
ATOM      7  C   UNL     1     -97.254  32.834 -39.282  1.00  0.00     0.004 C 
ENDBRANCH   5   6
ENDBRANCH   1   5
TORSDOF 3
ENDMDL
MODEL 3
REMARK VINA RESULT:    -3.337      1.044      1.689
REMARK INTER + INTRA:          -3.962
REMARK INTER:                  -3.935
REMARK INTRA:                  -0.028
REMARK UNBOUND:                -0.041
REMARK SMILES CCCCC(=O)[O-]
REMARK SMILES IDX 4 1 5 2 6 3 7 4 3 5 2 6 1 7
REMARK H PARENT
REMARK Flexibility Score: inf
ROOT
ATOM      1  C   UNL     1    -100.076  32.106 -36.691  1.00  0.00     0.053 C 
ENDROOT
BRANCH   1   2
ATOM      2  C   UNL     1    -101.393  31.402 -36.800  1.00  0.00     0.041 C 
ATOM      3  O   UNL     1    -101.958  31.278 -37.919  1.00  0.00    -0.550 OA
ATOM      4  O   UNL     1    -101.984  30.854 -35.668  1.00  0.00    -0.550 OA
ENDBRANCH   1   2
BRANCH   1   5
ATOM      5  C   UNL     1     -99.196  31.918 -37.939  1.00  0.00     0.006 C 
BRANCH   5   6
ATOM      6  C   UNL     1     -98.332  33.146 -38.281  1.00  0.00    -0.003 C 
ATOM      7  C   UNL     1     -97.229  32.842 -39.294  1.00  0.00     0.004 C 
ENDBRANCH   5   6
ENDBRANCH   1   5
TORSDOF 3
ENDMDL
MODEL 4
REMARK VINA RESULT:    -3.142      2.962      3.838
REMARK INTER + INTRA:          -3.733
REMARK INTER:                  -3.691
REMARK INTRA:                  -0.043
REMARK UNBOUND:                -0.041
REMARK SMILES CCCCC(=O)[O-]
REMARK SMILES IDX 4 1 5 2 6 3 7 4 3 5 2 6 1 7
REMARK H PARENT
REMARK Flexibility Score: inf
ROOT
ATOM      1  C   UNL     1     -99.135  31.690 -38.164  1.00  0.00     0.053 C 
ENDROOT
BRANCH   1   2
ATOM      2  C   UNL     1     -98.266  32.840 -38.571  1.00  0.00     0.041 C 
ATOM      3  O   UNL     1     -98.530  34.008 -38.178  1.00  0.00    -0.550 OA
ATOM      4  O   UNL     1     -97.146  32.619 -39.363  1.00  0.00    -0.550 OA
ENDBRANCH   1   2
BRANCH   1   5
ATOM      5  C   UNL     1     -99.959  31.986 -36.899  1.00  0.00     0.006 C 
BRANCH   5   6
ATOM      6  C   UNL     1     -99.414  31.307 -35.629  1.00  0.00    -0.003 C 
ATOM      7  C   UNL     1    -100.450  31.201 -34.511  1.00  0.00     0.004 C 
ENDBRANCH   5   6
ENDBRANCH   1   5
TORSDOF 3
ENDMDL
MODEL 5
REMARK VINA RESULT:    -3.061      0.883      1.467
REMARK INTER + INTRA:          -3.638
REMARK INTER:                  -3.608
REMARK INTRA:                  -0.030
REMARK UNBOUND:                -0.041
REMARK SMILES CCCCC(=O)[O-]
REMARK SMILES IDX 4 1 5 2 6 3 7 4 3 5 2 6 1 7
REMARK H PARENT
REMARK Flexibility Score: inf
ROOT
ATOM      1  C   UNL     1    -100.757  31.441 -37.424  1.00  0.00     0.053 C 
ENDROOT
BRANCH   1   2
ATOM      2  C   UNL     1    -101.806  31.002 -38.399  1.00  0.00     0.041 C 
ATOM      3  O   UNL     1    -101.512  30.214 -39.337  1.00  0.00    -0.550 OA
ATOM      4  O   UNL     1    -103.116  31.440 -38.254  1.00  0.00    -0.550 OA
ENDBRANCH   1   2
BRANCH   1   5
ATOM      5  C   UNL     1     -99.341  31.425 -38.025  1.00  0.00     0.006 C 
BRANCH   5   6
ATOM      6  C   UNL     1     -98.672  32.811 -38.080  1.00  0.00    -0.003 C 
ATOM      7  C   UNL     1     -97.660  32.946 -39.216  1.00  0.00     0.004 C 
ENDBRANCH   5   6
ENDBRANCH   1   5
TORSDOF 3
ENDMDL
MODEL 6
REMARK VINA RESULT:    -2.943      2.731      4.049
REMARK INTER + INTRA:          -3.500
REMARK INTER:                  -3.474
REMARK INTRA:                  -0.026
REMARK UNBOUND:                -0.041
REMARK SMILES CCCCC(=O)[O-]
REMARK SMILES IDX 4 1 5 2 6 3 7 4 3 5 2 6 1 7
REMARK H PARENT
REMARK Flexibility Score: inf
ROOT
ATOM      1  C   UNL     1     -99.163  31.613 -38.434  1.00  0.00     0.053 C 
ENDROOT
BRANCH   1   2
ATOM      2  C   UNL     1     -98.228  32.773 -38.589  1.00  0.00     0.041 C 
ATOM      3  O   UNL     1     -97.143  32.636 -39.213  1.00  0.00    -0.550 OA
ATOM      4  O   UNL     1     -98.571  34.015 -38.069  1.00  0.00    -0.550 OA
ENDBRANCH   1   2
BRANCH   1   5
ATOM      5  C   UNL     1    -100.058  31.732 -37.187  1.00  0.00     0.006 C 
BRANCH   5   6
ATOM      6  C   UNL     1    -101.491  31.210 -37.398  1.00  0.00    -0.003 C 
ATOM      7  C   UNL     1    -102.466  31.678 -36.319  1.00  0.00     0.004 C 
ENDBRANCH   5   6
ENDBRANCH   1   5
TORSDOF 3
ENDMDL
MODEL 7
REMARK VINA RESULT:    -2.691     14.717     15.455
REMARK INTER + INTRA:          -3.203
REMARK INTER:                  -3.097
REMARK INTRA:                  -0.106
REMARK UNBOUND:                -0.041
REMARK SMILES CCCCC(=O)[O-]
REMARK SMILES IDX 4 1 5 2 6 3 7 4 3 5 2 6 1 7
REMARK H PARENT
REMARK Flexibility Score: inf
ROOT
ATOM      1  C   UNL     1     -96.953  45.645 -37.648  1.00  0.00     0.053 C 
ENDROOT
BRANCH   1   2
ATOM      2  C   UNL     1     -96.953  46.776 -36.666  1.00  0.00     0.041 C 
ATOM      3  O   UNL     1     -97.621  47.819 -36.897  1.00  0.00    -0.550 OA
ATOM      4  O   UNL     1     -96.238  46.667 -35.479  1.00  0.00    -0.550 OA
ENDBRANCH   1   2
BRANCH   1   5
ATOM      5  C   UNL     1     -95.804  45.742 -38.667  1.00  0.00     0.006 C 
BRANCH   5   6
ATOM      6  C   UNL     1     -96.188  46.466 -39.971  1.00  0.00    -0.003 C 
ATOM      7  C   UNL     1     -95.527  47.836 -40.115  1.00  0.00     0.004 C 
ENDBRANCH   5   6
ENDBRANCH   1   5
TORSDOF 3
ENDMDL
MODEL 8
REMARK VINA RESULT:    -2.648     14.870     15.374
REMARK INTER + INTRA:          -3.152
REMARK INTER:                  -3.044
REMARK INTRA:                  -0.108
REMARK UNBOUND:                -0.041
REMARK SMILES CCCCC(=O)[O-]
REMARK SMILES IDX 4 1 5 2 6 3 7 4 3 5 2 6 1 7
REMARK H PARENT
REMARK Flexibility Score: inf
ROOT
ATOM      1  C   UNL     1     -95.760  46.790 -35.859  1.00  0.00     0.053 C 
ENDROOT
BRANCH   1   2
ATOM      2  C   UNL     1     -97.197  47.104 -35.576  1.00  0.00     0.041 C 
ATOM      3  O   UNL     1     -98.012  47.269 -36.523  1.00  0.00    -0.550 OA
ATOM      4  O   UNL     1     -97.646  47.185 -34.263  1.00  0.00    -0.550 OA
ENDBRANCH   1   2
BRANCH   1   5
ATOM      5  C   UNL     1     -95.587  45.545 -36.746  1.00  0.00     0.006 C 
BRANCH   5   6
ATOM      6  C   UNL     1     -94.992  45.848 -38.134  1.00  0.00    -0.003 C 
ATOM      7  C   UNL     1     -96.053  45.987 -39.225  1.00  0.00     0.004 C 
ENDBRANCH   5   6
ENDBRANCH   1   5
TORSDOF 3
ENDMDL
MODEL 9
REMARK VINA RESULT:    -2.561     15.358     16.003
REMARK INTER + INTRA:          -3.051
REMARK INTER:                  -2.923
REMARK INTRA:                  -0.128
REMARK UNBOUND:                -0.041
REMARK SMILES CCCCC(=O)[O-]
REMARK SMILES IDX 4 1 5 2 6 3 7 4 3 5 2 6 1 7
REMARK H PARENT
REMARK Flexibility Score: inf
ROOT
ATOM      1  C   UNL     1     -96.013  46.400 -39.657  1.00  0.00     0.053 C 
ENDROOT
BRANCH   1   2
ATOM      2  C   UNL     1     -95.540  47.800 -39.414  1.00  0.00     0.041 C 
ATOM      3  O   UNL     1     -96.352  48.693 -39.052  1.00  0.00    -0.550 OA
ATOM      4  O   UNL     1     -94.195  48.114 -39.560  1.00  0.00    -0.550 OA
ENDBRANCH   1   2
BRANCH   1   5
ATOM      5  C   UNL     1     -96.401  45.670 -38.359  1.00  0.00     0.006 C 
BRANCH   5   6
ATOM      6  C   UNL     1     -95.249  45.553 -37.343  1.00  0.00    -0.003 C 
ATOM      7  C   UNL     1     -95.547  46.243 -36.014  1.00  0.00     0.004 C 
ENDBRANCH   5   6
ENDBRANCH   1   5
TORSDOF 3
ENDMDL
