MODEL 1
REMARK VINA RESULT:    -6.096      0.000      0.000
REMARK INTER + INTRA:          -9.155
REMARK INTER:                  -8.235
REMARK INTRA:                  -0.920
REMARK UNBOUND:                -0.920
REMARK SMILES CC(=O)CCC=C(C)CCC=C(C)C
REMARK SMILES IDX 7 1 6 2 8 3 9 4 10 5 11 6 13 7 12 8 14 9 5 10 4 11 2 12 3 13
REMARK SMILES IDX 1 14
REMARK H PARENT
REMARK Flexibility Score: inf
ROOT
ATOM      1  C   UNL     1      29.570  20.118   5.560  1.00  0.00    -0.077 C 
ATOM      2  C   UNL     1      30.914  20.263   5.485  1.00  0.00    -0.028 C 
ATOM      3  C   UNL     1      28.837  20.164   6.879  1.00  0.00     0.039 C 
ENDROOT
BRANCH   1   4
ATOM      4  C   UNL     1      28.780  19.927   4.285  1.00  0.00     0.034 C 
BRANCH   4   5
ATOM      5  C   UNL     1      27.289  20.194   4.523  1.00  0.00     0.032 C 
BRANCH   5   6
ATOM      6  C   UNL     1      26.837  21.416   3.764  1.00  0.00    -0.028 C 
ATOM      7  C   UNL     1      25.914  23.673   3.454  1.00  0.00     0.039 C 
ATOM      8  C   UNL     1      26.367  22.544   4.342  1.00  0.00    -0.080 C 
ATOM      9  C   UNL     1      26.302  22.706   5.843  1.00  0.00     0.039 C 
ENDBRANCH   5   6
ENDBRANCH   4   5
ENDBRANCH   1   4
BRANCH   2  10
ATOM     10  C   UNL     1      31.824  20.426   6.676  1.00  0.00     0.035 C 
BRANCH  10  11
ATOM     11  C   UNL     1      32.471  21.814   6.680  1.00  0.00     0.079 C 
BRANCH  11  12
ATOM     12  C   UNL     1      31.776  22.724   7.657  1.00  0.00     0.130 C 
ATOM     13  O   UNL     1      31.616  23.901   7.372  1.00  0.00    -0.300 OA
ATOM     14  C   UNL     1      31.262  22.215   8.972  1.00  0.00     0.087 C 
ENDBRANCH  11  12
ENDBRANCH  10  11
ENDBRANCH   2  10
TORSDOF 6
ENDMDL
MODEL 2
REMARK VINA RESULT:    -6.081      2.140      6.045
REMARK INTER + INTRA:          -9.135
REMARK INTER:                  -8.523
REMARK INTRA:                  -0.612
REMARK UNBOUND:                -0.920
REMARK SMILES CC(=O)CCC=C(C)CCC=C(C)C
REMARK SMILES IDX 7 1 6 2 8 3 9 4 10 5 11 6 13 7 12 8 14 9 5 10 4 11 2 12 3 13
REMARK SMILES IDX 1 14
REMARK H PARENT
REMARK Flexibility Score: inf
ROOT
ATOM      1  C   UNL     1      28.067  21.251   5.275  1.00  0.00    -0.077 C 
ATOM      2  C   UNL     1      27.208  21.177   4.232  1.00  0.00    -0.028 C 
ATOM      3  C   UNL     1      27.803  22.145   6.463  1.00  0.00     0.039 C 
ENDROOT
BRANCH   1   4
ATOM      4  C   UNL     1      29.317  20.400   5.258  1.00  0.00     0.034 C 
BRANCH   4   5
ATOM      5  C   UNL     1      29.934  20.309   6.658  1.00  0.00     0.032 C 
BRANCH   5   6
ATOM      6  C   UNL     1      31.407  20.629   6.615  1.00  0.00    -0.028 C 
ATOM      7  C   UNL     1      33.505  21.718   7.286  1.00  0.00     0.039 C 
ATOM      8  C   UNL     1      32.033  21.462   7.476  1.00  0.00    -0.080 C 
ATOM      9  C   UNL     1      31.305  22.124   8.622  1.00  0.00     0.039 C 
ENDBRANCH   5   6
ENDBRANCH   4   5
ENDBRANCH   1   4
BRANCH   2  10
ATOM     10  C   UNL     1      25.946  21.993   4.106  1.00  0.00     0.035 C 
BRANCH  10  11
ATOM     11  C   UNL     1      26.207  23.280   3.317  1.00  0.00     0.079 C 
BRANCH  11  12
ATOM     12  C   UNL     1      25.356  24.407   3.839  1.00  0.00     0.130 C 
ATOM     13  O   UNL     1      25.140  24.491   5.039  1.00  0.00    -0.300 OA
ATOM     14  C   UNL     1      24.776  25.441   2.919  1.00  0.00     0.087 C 
ENDBRANCH  11  12
ENDBRANCH  10  11
ENDBRANCH   2  10
TORSDOF 6
ENDMDL
MODEL 3
REMARK VINA RESULT:    -6.046      1.216      1.855
REMARK INTER + INTRA:          -9.088
REMARK INTER:                  -8.297
REMARK INTRA:                  -0.791
REMARK UNBOUND:                -0.920
REMARK SMILES CC(=O)CCC=C(C)CCC=C(C)C
REMARK SMILES IDX 7 1 6 2 8 3 9 4 10 5 11 6 13 7 12 8 14 9 5 10 4 11 2 12 3 13
REMARK SMILES IDX 1 14
REMARK H PARENT
REMARK Flexibility Score: inf
ROOT
ATOM      1  C   UNL     1      28.101  21.331   5.252  1.00  0.00    -0.077 C 
ATOM      2  C   UNL     1      29.230  20.585   5.284  1.00  0.00    -0.028 C 
ATOM      3  C   UNL     1      27.647  22.140   6.443  1.00  0.00     0.039 C 
ENDROOT
BRANCH   1   4
ATOM      4  C   UNL     1      27.284  21.371   3.980  1.00  0.00     0.034 C 
BRANCH   4   5
ATOM      5  C   UNL     1      25.912  22.008   4.233  1.00  0.00     0.032 C 
BRANCH   5   6
ATOM      6  C   UNL     1      25.716  23.220   3.357  1.00  0.00    -0.028 C 
ATOM      7  C   UNL     1      24.977  25.488   2.767  1.00  0.00     0.039 C 
ATOM      8  C   UNL     1      25.143  24.373   3.767  1.00  0.00    -0.080 C 
ATOM      9  C   UNL     1      24.685  24.578   5.192  1.00  0.00     0.039 C 
ENDBRANCH   5   6
ENDBRANCH   4   5
ENDBRANCH   1   4
BRANCH   2  10
ATOM     10  C   UNL     1      30.117  20.429   6.494  1.00  0.00     0.035 C 
BRANCH  10  11
ATOM     11  C   UNL     1      31.348  21.333   6.384  1.00  0.00     0.079 C 
BRANCH  11  12
ATOM     12  C   UNL     1      31.279  22.452   7.390  1.00  0.00     0.130 C 
ATOM     13  O   UNL     1      31.444  23.604   7.018  1.00  0.00    -0.300 OA
ATOM     14  C   UNL     1      30.999  22.186   8.840  1.00  0.00     0.087 C 
ENDBRANCH  11  12
ENDBRANCH  10  11
ENDBRANCH   2  10
TORSDOF 6
ENDMDL
MODEL 4
REMARK VINA RESULT:    -5.882      3.002      6.319
REMARK INTER + INTRA:          -8.865
REMARK INTER:                  -8.226
REMARK INTRA:                  -0.639
REMARK UNBOUND:                -0.920
REMARK SMILES CC(=O)CCC=C(C)CCC=C(C)C
REMARK SMILES IDX 7 1 6 2 8 3 9 4 10 5 11 6 13 7 12 8 14 9 5 10 4 11 2 12 3 13
REMARK SMILES IDX 1 14
REMARK H PARENT
REMARK Flexibility Score: inf
ROOT
ATOM      1  C   UNL     1      27.034  22.017   4.677  1.00  0.00    -0.077 C 
ATOM      2  C   UNL     1      26.531  22.696   3.620  1.00  0.00    -0.028 C 
ATOM      3  C   UNL     1      26.966  22.566   6.082  1.00  0.00     0.039 C 
ENDROOT
BRANCH   1   4
ATOM      4  C   UNL     1      27.664  20.661   4.447  1.00  0.00     0.034 C 
BRANCH   4   5
ATOM      5  C   UNL     1      28.348  20.154   5.721  1.00  0.00     0.032 C 
BRANCH   5   6
ATOM      6  C   UNL     1      29.844  20.096   5.538  1.00  0.00    -0.028 C 
ATOM      7  C   UNL     1      32.198  20.656   5.964  1.00  0.00     0.039 C 
ATOM      8  C   UNL     1      30.733  20.782   6.289  1.00  0.00    -0.080 C 
ATOM      9  C   UNL     1      30.300  21.651   7.447  1.00  0.00     0.039 C 
ENDBRANCH   5   6
ENDBRANCH   4   5
ENDBRANCH   1   4
BRANCH   2  10
ATOM     10  C   UNL     1      25.909  24.067   3.703  1.00  0.00     0.035 C 
BRANCH  10  11
ATOM     11  C   UNL     1      24.413  23.968   4.012  1.00  0.00     0.079 C 
BRANCH  11  12
ATOM     12  C   UNL     1      23.814  25.338   4.196  1.00  0.00     0.130 C 
ATOM     13  O   UNL     1      22.664  25.543   3.837  1.00  0.00    -0.300 OA
ATOM     14  C   UNL     1      24.594  26.455   4.823  1.00  0.00     0.087 C 
ENDBRANCH  11  12
ENDBRANCH  10  11
ENDBRANCH   2  10
TORSDOF 6
ENDMDL
MODEL 5
REMARK VINA RESULT:    -5.823      2.742      6.695
REMARK INTER + INTRA:          -8.785
REMARK INTER:                  -8.351
REMARK INTRA:                  -0.434
REMARK UNBOUND:                -0.920
REMARK SMILES CC(=O)CCC=C(C)CCC=C(C)C
REMARK SMILES IDX 7 1 6 2 8 3 9 4 10 5 11 6 13 7 12 8 14 9 5 10 4 11 2 12 3 13
REMARK SMILES IDX 1 14
REMARK H PARENT
REMARK Flexibility Score: inf
ROOT
ATOM      1  C   UNL     1      26.672  22.347   4.750  1.00  0.00    -0.077 C 
ATOM      2  C   UNL     1      25.892  23.440   4.587  1.00  0.00    -0.028 C 
ATOM      3  C   UNL     1      26.953  21.391   3.614  1.00  0.00     0.039 C 
ENDROOT
BRANCH   1   4
ATOM      4  C   UNL     1      27.297  22.086   6.103  1.00  0.00     0.034 C 
BRANCH   4   5
ATOM      5  C   UNL     1      28.790  21.765   5.961  1.00  0.00     0.032 C 
BRANCH   5   6
ATOM      6  C   UNL     1      29.546  22.183   7.197  1.00  0.00    -0.028 C 
ATOM      7  C   UNL     1      31.391  22.207   8.819  1.00  0.00     0.039 C 
ATOM      8  C   UNL     1      30.775  21.730   7.530  1.00  0.00    -0.080 C 
ATOM      9  C   UNL     1      31.545  20.781   6.643  1.00  0.00     0.039 C 
ENDBRANCH   5   6
ENDBRANCH   4   5
ENDBRANCH   1   4
BRANCH   2  10
ATOM     10  C   UNL     1      25.183  23.800   3.305  1.00  0.00     0.035 C 
BRANCH  10  11
ATOM     11  C   UNL     1      25.180  25.317   3.093  1.00  0.00     0.079 C 
BRANCH  11  12
ATOM     12  C   UNL     1      24.175  25.980   3.997  1.00  0.00     0.130 C 
ATOM     13  O   UNL     1      24.551  26.830   4.791  1.00  0.00    -0.300 OA
ATOM     14  C   UNL     1      22.717  25.631   3.937  1.00  0.00     0.087 C 
ENDBRANCH  11  12
ENDBRANCH  10  11
ENDBRANCH   2  10
TORSDOF 6
ENDMDL
MODEL 6
REMARK VINA RESULT:    -5.796      1.759      3.047
REMARK INTER + INTRA:          -8.750
REMARK INTER:                  -8.188
REMARK INTRA:                  -0.562
REMARK UNBOUND:                -0.920
REMARK SMILES CC(=O)CCC=C(C)CCC=C(C)C
REMARK SMILES IDX 7 1 6 2 8 3 9 4 10 5 11 6 13 7 12 8 14 9 5 10 4 11 2 12 3 13
REMARK SMILES IDX 1 14
REMARK H PARENT
REMARK Flexibility Score: inf
ROOT
ATOM      1  C   UNL     1      27.329  21.789   4.885  1.00  0.00    -0.077 C 
ATOM      2  C   UNL     1      28.331  22.108   5.736  1.00  0.00    -0.028 C 
ATOM      3  C   UNL     1      26.605  20.466   4.965  1.00  0.00     0.039 C 
ENDROOT
BRANCH   1   4
ATOM      4  C   UNL     1      26.909  22.795   3.836  1.00  0.00     0.034 C 
BRANCH   4   5
ATOM      5  C   UNL     1      25.398  23.048   3.898  1.00  0.00     0.032 C 
BRANCH   5   6
ATOM      6  C   UNL     1      25.100  24.322   4.648  1.00  0.00    -0.028 C 
ATOM      7  C   UNL     1      24.555  26.701   4.938  1.00  0.00     0.039 C 
ATOM      8  C   UNL     1      24.790  25.499   4.061  1.00  0.00    -0.080 C 
ATOM      9  C   UNL     1      24.655  25.635   2.562  1.00  0.00     0.039 C 
ENDBRANCH   5   6
ENDBRANCH   4   5
ENDBRANCH   1   4
BRANCH   2  10
ATOM     10  C   UNL     1      28.871  21.188   6.803  1.00  0.00     0.035 C 
BRANCH  10  11
ATOM     11  C   UNL     1      30.342  20.853   6.539  1.00  0.00     0.079 C 
BRANCH  11  12
ATOM     12  C   UNL     1      31.246  21.758   7.335  1.00  0.00     0.130 C 
ATOM     13  O   UNL     1      32.272  22.180   6.824  1.00  0.00    -0.300 OA
ATOM     14  C   UNL     1      30.908  22.164   8.739  1.00  0.00     0.087 C 
ENDBRANCH  11  12
ENDBRANCH  10  11
ENDBRANCH   2  10
TORSDOF 6
ENDMDL
MODEL 7
REMARK VINA RESULT:    -5.710      1.598      2.654
REMARK INTER + INTRA:          -8.633
REMARK INTER:                  -8.193
REMARK INTRA:                  -0.440
REMARK UNBOUND:                -0.920
REMARK SMILES CC(=O)CCC=C(C)CCC=C(C)C
REMARK SMILES IDX 7 1 6 2 8 3 9 4 10 5 11 6 13 7 12 8 14 9 5 10 4 11 2 12 3 13
REMARK SMILES IDX 1 14
REMARK H PARENT
REMARK Flexibility Score: inf
ROOT
ATOM      1  C   UNL     1      27.870  21.225   4.757  1.00  0.00    -0.077 C 
ATOM      2  C   UNL     1      28.194  21.973   5.837  1.00  0.00    -0.028 C 
ATOM      3  C   UNL     1      28.499  19.876   4.505  1.00  0.00     0.039 C 
ENDROOT
BRANCH   1   4
ATOM      4  C   UNL     1      26.833  21.747   3.787  1.00  0.00     0.034 C 
BRANCH   4   5
ATOM      5  C   UNL     1      26.019  22.882   4.418  1.00  0.00     0.032 C 
BRANCH   5   6
ATOM      6  C   UNL     1      25.556  23.858   3.365  1.00  0.00    -0.028 C 
ATOM      7  C   UNL     1      24.447  25.858   2.466  1.00  0.00     0.039 C 
ATOM      8  C   UNL     1      24.880  24.999   3.625  1.00  0.00    -0.080 C 
ATOM      9  C   UNL     1      24.565  25.439   5.036  1.00  0.00     0.039 C 
ENDBRANCH   5   6
ENDBRANCH   4   5
ENDBRANCH   1   4
BRANCH   2  10
ATOM     10  C   UNL     1      29.232  21.590   6.862  1.00  0.00     0.035 C 
BRANCH  10  11
ATOM     11  C   UNL     1      30.282  22.694   7.011  1.00  0.00     0.079 C 
BRANCH  11  12
ATOM     12  C   UNL     1      31.467  22.200   7.799  1.00  0.00     0.130 C 
ATOM     13  O   UNL     1      31.396  22.141   9.017  1.00  0.00    -0.300 OA
ATOM     14  C   UNL     1      32.732  21.764   7.119  1.00  0.00     0.087 C 
ENDBRANCH  11  12
ENDBRANCH  10  11
ENDBRANCH   2  10
TORSDOF 6
ENDMDL
MODEL 8
REMARK VINA RESULT:    -5.546      1.493      2.374
REMARK INTER + INTRA:          -8.412
REMARK INTER:                  -7.853
REMARK INTRA:                  -0.559
REMARK UNBOUND:                -0.920
REMARK SMILES CC(=O)CCC=C(C)CCC=C(C)C
REMARK SMILES IDX 7 1 6 2 8 3 9 4 10 5 11 6 13 7 12 8 14 9 5 10 4 11 2 12 3 13
REMARK SMILES IDX 1 14
REMARK H PARENT
REMARK Flexibility Score: inf
ROOT
ATOM      1  C   UNL     1      28.953  22.047   7.443  1.00  0.00    -0.077 C 
ATOM      2  C   UNL     1      29.511  21.299   6.464  1.00  0.00    -0.028 C 
ATOM      3  C   UNL     1      29.487  22.040   8.856  1.00  0.00     0.039 C 
ENDROOT
BRANCH   1   4
ATOM      4  C   UNL     1      27.773  22.932   7.107  1.00  0.00     0.034 C 
BRANCH   4   5
ATOM      5  C   UNL     1      26.805  22.214   6.160  1.00  0.00     0.032 C 
BRANCH   5   6
ATOM      6  C   UNL     1      25.909  23.204   5.459  1.00  0.00    -0.028 C 
ATOM      7  C   UNL     1      24.856  24.349   3.557  1.00  0.00     0.039 C 
ATOM      8  C   UNL     1      25.757  23.280   4.118  1.00  0.00    -0.080 C 
ATOM      9  C   UNL     1      26.446  22.319   3.179  1.00  0.00     0.039 C 
ENDBRANCH   5   6
ENDBRANCH   4   5
ENDBRANCH   1   4
BRANCH   2  10
ATOM     10  C   UNL     1      30.666  20.350   6.668  1.00  0.00     0.035 C 
BRANCH  10  11
ATOM     11  C   UNL     1      31.915  20.849   5.935  1.00  0.00     0.079 C 
BRANCH  11  12
ATOM     12  C   UNL     1      32.704  21.791   6.806  1.00  0.00     0.130 C 
ATOM     13  O   UNL     1      32.280  22.919   7.008  1.00  0.00    -0.300 OA
ATOM     14  C   UNL     1      33.995  21.371   7.445  1.00  0.00     0.087 C 
ENDBRANCH  11  12
ENDBRANCH  10  11
ENDBRANCH   2  10
TORSDOF 6
ENDMDL
MODEL 9
REMARK VINA RESULT:    -5.380      3.152      6.625
REMARK INTER + INTRA:          -8.188
REMARK INTER:                  -7.349
REMARK INTRA:                  -0.839
REMARK UNBOUND:                -0.920
REMARK SMILES CC(=O)CCC=C(C)CCC=C(C)C
REMARK SMILES IDX 7 1 6 2 8 3 9 4 10 5 11 6 13 7 12 8 14 9 5 10 4 11 2 12 3 13
REMARK SMILES IDX 1 14
REMARK H PARENT
REMARK Flexibility Score: inf
ROOT
ATOM      1  C   UNL     1      25.632  22.540   4.331  1.00  0.00    -0.077 C 
ATOM      2  C   UNL     1      25.771  23.882   4.228  1.00  0.00    -0.028 C 
ATOM      3  C   UNL     1      24.623  21.912   5.263  1.00  0.00     0.039 C 
ENDROOT
BRANCH   1   4
ATOM      4  C   UNL     1      26.497  21.645   3.472  1.00  0.00     0.034 C 
BRANCH   4   5
ATOM      5  C   UNL     1      26.837  20.345   4.210  1.00  0.00     0.032 C 
BRANCH   5   6
ATOM      6  C   UNL     1      28.322  20.240   4.451  1.00  0.00    -0.028 C 
ATOM      7  C   UNL     1      30.450  20.573   5.633  1.00  0.00     0.039 C 
ATOM      8  C   UNL     1      28.953  20.715   5.548  1.00  0.00    -0.080 C 
ATOM      9  C   UNL     1      28.201  21.363   6.686  1.00  0.00     0.039 C 
ENDBRANCH   5   6
ENDBRANCH   4   5
ENDBRANCH   1   4
BRANCH   2  10
ATOM     10  C   UNL     1      24.999  24.886   5.048  1.00  0.00     0.035 C 
BRANCH  10  11
ATOM     11  C   UNL     1      24.750  26.166   4.245  1.00  0.00     0.079 C 
BRANCH  11  12
ATOM     12  C   UNL     1      23.722  25.929   3.169  1.00  0.00     0.130 C 
ATOM     13  O   UNL     1      24.065  25.953   1.996  1.00  0.00    -0.300 OA
ATOM     14  C   UNL     1      22.287  25.650   3.505  1.00  0.00     0.087 C 
ENDBRANCH  11  12
ENDBRANCH  10  11
ENDBRANCH   2  10
TORSDOF 6
ENDMDL
