MODEL 1
REMARK VINA RESULT:    -4.946      0.000      0.000
REMARK INTER + INTRA:         -10.272
REMARK INTER:                  -8.415
REMARK INTRA:                  -1.857
REMARK UNBOUND:                -1.857
REMARK SMILES CCCCCCCCCCCCCC(=O)[O-]
REMARK SMILES IDX 8 1 9 2 10 3 11 4 12 5 13 6 14 7 15 8 16 9 7 10 6 11 5 12
REMARK SMILES IDX 4 13 3 14 2 15 1 16
REMARK H PARENT
REMARK Flexibility Score: inf
ROOT
ATOM      1  C   UNL     1     -11.509  -7.367  13.671  1.00  0.00     0.000 C 
ENDROOT
BRANCH   1   2
ATOM      2  C   UNL     1     -10.613  -6.946  14.849  1.00  0.00     0.000 C 
BRANCH   2   3
ATOM      3  C   UNL     1     -11.287  -5.912  15.766  1.00  0.00     0.000 C 
BRANCH   3   4
ATOM      4  C   UNL     1     -10.509  -4.586  15.829  1.00  0.00     0.000 C 
BRANCH   4   5
ATOM      5  C   UNL     1     -11.407  -3.393  16.196  1.00  0.00     0.006 C 
BRANCH   5   6
ATOM      6  C   UNL     1     -12.901  -3.724  16.098  1.00  0.00     0.053 C 
BRANCH   6   7
ATOM      7  C   UNL     1     -13.492  -3.109  14.868  1.00  0.00     0.041 C 
ATOM      8  O   UNL     1     -14.741  -3.017  14.743  1.00  0.00    -0.550 OA
ATOM      9  O   UNL     1     -12.662  -2.591  13.882  1.00  0.00    -0.550 OA
ENDBRANCH   6   7
ENDBRANCH   5   6
ENDBRANCH   4   5
ENDBRANCH   3   4
ENDBRANCH   2   3
ENDBRANCH   1   2
BRANCH   1  10
ATOM     10  C   UNL     1     -12.427  -6.231  13.183  1.00  0.00     0.000 C 
BRANCH  10  11
ATOM     11  C   UNL     1     -12.154  -5.744  11.748  1.00  0.00    -0.000 C 
BRANCH  11  12
ATOM     12  C   UNL     1     -10.846  -4.944  11.626  1.00  0.00    -0.000 C 
BRANCH  12  13
ATOM     13  C   UNL     1      -9.710  -5.763  10.993  1.00  0.00    -0.000 C 
BRANCH  13  14
ATOM     14  C   UNL     1      -8.447  -5.799  11.866  1.00  0.00    -0.000 C 
BRANCH  14  15
ATOM     15  C   UNL     1      -8.360  -4.555  12.756  1.00  0.00    -0.003 C 
ATOM     16  C   UNL     1      -7.172  -4.641  13.711  1.00  0.00     0.004 C 
ENDBRANCH  14  15
ENDBRANCH  13  14
ENDBRANCH  12  13
ENDBRANCH  11  12
ENDBRANCH  10  11
ENDBRANCH   1  10
TORSDOF 12
ENDMDL
MODEL 2
REMARK VINA RESULT:    -4.902      1.241      3.299
REMARK INTER + INTRA:         -10.198
REMARK INTER:                  -8.333
REMARK INTRA:                  -1.865
REMARK UNBOUND:                -1.857
REMARK SMILES CCCCCCCCCCCCCC(=O)[O-]
REMARK SMILES IDX 8 1 9 2 10 3 11 4 12 5 13 6 14 7 15 8 16 9 7 10 6 11 5 12
REMARK SMILES IDX 4 13 3 14 2 15 1 16
REMARK H PARENT
REMARK Flexibility Score: inf
ROOT
ATOM      1  C   UNL     1      -7.575  -3.787  14.759  1.00  0.00     0.000 C 
ENDROOT
BRANCH   1   2
ATOM      2  C   UNL     1      -8.502  -3.761  15.986  1.00  0.00     0.000 C 
BRANCH   2   3
ATOM      3  C   UNL     1      -9.815  -3.006  15.721  1.00  0.00     0.000 C 
BRANCH   3   4
ATOM      4  C   UNL     1     -10.915  -3.362  16.736  1.00  0.00     0.000 C 
BRANCH   4   5
ATOM      5  C   UNL     1     -12.296  -3.516  16.078  1.00  0.00     0.006 C 
BRANCH   5   6
ATOM      6  C   UNL     1     -12.292  -3.131  14.594  1.00  0.00     0.053 C 
BRANCH   6   7
ATOM      7  C   UNL     1     -13.621  -2.570  14.196  1.00  0.00     0.041 C 
ATOM      8  O   UNL     1     -13.686  -1.593  13.406  1.00  0.00    -0.550 OA
ATOM      9  O   UNL     1     -14.790  -3.158  14.661  1.00  0.00    -0.550 OA
ENDBRANCH   6   7
ENDBRANCH   5   6
ENDBRANCH   4   5
ENDBRANCH   3   4
ENDBRANCH   2   3
ENDBRANCH   1   2
BRANCH   1  10
ATOM     10  C   UNL     1      -8.346  -3.829  13.427  1.00  0.00     0.000 C 
BRANCH  10  11
ATOM     11  C   UNL     1      -7.986  -5.007  12.502  1.00  0.00    -0.000 C 
BRANCH  11  12
ATOM     12  C   UNL     1      -9.218  -5.651  11.844  1.00  0.00    -0.000 C 
BRANCH  12  13
ATOM     13  C   UNL     1     -10.403  -5.782  12.814  1.00  0.00    -0.000 C 
BRANCH  13  14
ATOM     14  C   UNL     1     -10.339  -7.062  13.660  1.00  0.00    -0.000 C 
BRANCH  14  15
ATOM     15  C   UNL     1     -10.283  -6.729  15.155  1.00  0.00    -0.003 C 
ATOM     16  C   UNL     1     -11.588  -7.103  15.853  1.00  0.00     0.004 C 
ENDBRANCH  14  15
ENDBRANCH  13  14
ENDBRANCH  12  13
ENDBRANCH  11  12
ENDBRANCH  10  11
ENDBRANCH   1  10
TORSDOF 12
ENDMDL
MODEL 3
REMARK VINA RESULT:    -4.898      2.643      3.808
REMARK INTER + INTRA:         -10.191
REMARK INTER:                  -8.499
REMARK INTRA:                  -1.691
REMARK UNBOUND:                -1.857
REMARK SMILES CCCCCCCCCCCCCC(=O)[O-]
REMARK SMILES IDX 8 1 9 2 10 3 11 4 12 5 13 6 14 7 15 8 16 9 7 10 6 11 5 12
REMARK SMILES IDX 4 13 3 14 2 15 1 16
REMARK H PARENT
REMARK Flexibility Score: inf
ROOT
ATOM      1  C   UNL     1     -12.580  -3.740  12.545  1.00  0.00     0.000 C 
ENDROOT
BRANCH   1   2
ATOM      2  C   UNL     1     -12.198  -2.950  13.809  1.00  0.00     0.000 C 
BRANCH   2   3
ATOM      3  C   UNL     1     -12.975  -3.411  15.053  1.00  0.00     0.000 C 
BRANCH   3   4
ATOM      4  C   UNL     1     -12.098  -3.441  16.317  1.00  0.00     0.000 C 
BRANCH   4   5
ATOM      5  C   UNL     1     -10.627  -3.763  16.007  1.00  0.00     0.006 C 
BRANCH   5   6
ATOM      6  C   UNL     1      -9.685  -2.596  16.327  1.00  0.00     0.053 C 
BRANCH   6   7
ATOM      7  C   UNL     1      -8.464  -3.091  17.035  1.00  0.00     0.041 C 
ATOM      8  O   UNL     1      -7.370  -3.188  16.421  1.00  0.00    -0.550 OA
ATOM      9  O   UNL     1      -8.522  -3.398  18.389  1.00  0.00    -0.550 OA
ENDBRANCH   6   7
ENDBRANCH   5   6
ENDBRANCH   4   5
ENDBRANCH   3   4
ENDBRANCH   2   3
ENDBRANCH   1   2
BRANCH   1  10
ATOM     10  C   UNL     1     -13.432  -4.985  12.853  1.00  0.00     0.000 C 
BRANCH  10  11
ATOM     11  C   UNL     1     -12.702  -6.331  12.684  1.00  0.00    -0.000 C 
BRANCH  11  12
ATOM     12  C   UNL     1     -11.764  -6.655  13.859  1.00  0.00    -0.000 C 
BRANCH  12  13
ATOM     13  C   UNL     1     -10.337  -6.991  13.399  1.00  0.00    -0.000 C 
BRANCH  13  14
ATOM     14  C   UNL     1      -9.532  -5.745  13.002  1.00  0.00    -0.000 C 
BRANCH  14  15
ATOM     15  C   UNL     1      -8.886  -5.926  11.624  1.00  0.00    -0.003 C 
ATOM     16  C   UNL     1      -9.906  -5.729  10.506  1.00  0.00     0.004 C 
ENDBRANCH  14  15
ENDBRANCH  13  14
ENDBRANCH  12  13
ENDBRANCH  11  12
ENDBRANCH  10  11
ENDBRANCH   1  10
TORSDOF 12
ENDMDL
MODEL 4
REMARK VINA RESULT:    -4.881      1.372      2.796
REMARK INTER + INTRA:         -10.162
REMARK INTER:                  -8.477
REMARK INTRA:                  -1.685
REMARK UNBOUND:                -1.857
REMARK SMILES CCCCCCCCCCCCCC(=O)[O-]
REMARK SMILES IDX 8 1 9 2 10 3 11 4 12 5 13 6 14 7 15 8 16 9 7 10 6 11 5 12
REMARK SMILES IDX 4 13 3 14 2 15 1 16
REMARK H PARENT
REMARK Flexibility Score: inf
ROOT
ATOM      1  C   UNL     1     -11.417  -5.898  15.808  1.00  0.00     0.000 C 
ENDROOT
BRANCH   1   2
ATOM      2  C   UNL     1     -10.837  -4.473  15.827  1.00  0.00     0.000 C 
BRANCH   2   3
ATOM      3  C   UNL     1     -11.816  -3.442  16.412  1.00  0.00     0.000 C 
BRANCH   3   4
ATOM      4  C   UNL     1     -13.216  -3.536  15.781  1.00  0.00     0.000 C 
BRANCH   4   5
ATOM      5  C   UNL     1     -13.317  -2.771  14.452  1.00  0.00     0.006 C 
BRANCH   5   6
ATOM      6  C   UNL     1     -14.177  -3.501  13.412  1.00  0.00     0.053 C 
BRANCH   6   7
ATOM      7  C   UNL     1     -13.926  -2.946  12.045  1.00  0.00     0.041 C 
ATOM      8  O   UNL     1     -13.208  -1.922  11.898  1.00  0.00    -0.550 OA
ATOM      9  O   UNL     1     -14.444  -3.590  10.928  1.00  0.00    -0.550 OA
ENDBRANCH   6   7
ENDBRANCH   5   6
ENDBRANCH   4   5
ENDBRANCH   3   4
ENDBRANCH   2   3
ENDBRANCH   1   2
BRANCH   1  10
ATOM     10  C   UNL     1     -10.510  -6.903  15.074  1.00  0.00     0.000 C 
BRANCH  10  11
ATOM     11  C   UNL     1     -11.096  -7.478  13.771  1.00  0.00    -0.000 C 
BRANCH  11  12
ATOM     12  C   UNL     1     -12.282  -6.659  13.234  1.00  0.00    -0.000 C 
BRANCH  12  13
ATOM     13  C   UNL     1     -12.007  -6.062  11.845  1.00  0.00    -0.000 C 
BRANCH  13  14
ATOM     14  C   UNL     1     -10.798  -5.114  11.835  1.00  0.00    -0.000 C 
BRANCH  14  15
ATOM     15  C   UNL     1      -9.626  -5.729  11.063  1.00  0.00    -0.003 C 
ATOM     16  C   UNL     1      -8.353  -5.736  11.905  1.00  0.00     0.004 C 
ENDBRANCH  14  15
ENDBRANCH  13  14
ENDBRANCH  12  13
ENDBRANCH  11  12
ENDBRANCH  10  11
ENDBRANCH   1  10
TORSDOF 12
ENDMDL
MODEL 5
REMARK VINA RESULT:    -4.881      1.615      4.120
REMARK INTER + INTRA:         -10.161
REMARK INTER:                  -8.169
REMARK INTRA:                  -1.992
REMARK UNBOUND:                -1.857
REMARK SMILES CCCCCCCCCCCCCC(=O)[O-]
REMARK SMILES IDX 8 1 9 2 10 3 11 4 12 5 13 6 14 7 15 8 16 9 7 10 6 11 5 12
REMARK SMILES IDX 4 13 3 14 2 15 1 16
REMARK H PARENT
REMARK Flexibility Score: inf
ROOT
ATOM      1  C   UNL     1      -9.265  -6.044  11.944  1.00  0.00     0.000 C 
ENDROOT
BRANCH   1   2
ATOM      2  C   UNL     1      -9.870  -5.627  10.592  1.00  0.00     0.000 C 
BRANCH   2   3
ATOM      3  C   UNL     1     -11.315  -5.117  10.721  1.00  0.00     0.000 C 
BRANCH   3   4
ATOM      4  C   UNL     1     -12.138  -5.928  11.736  1.00  0.00     0.000 C 
BRANCH   4   5
ATOM      5  C   UNL     1     -12.938  -5.033  12.697  1.00  0.00     0.006 C 
BRANCH   5   6
ATOM      6  C   UNL     1     -12.373  -3.610  12.789  1.00  0.00     0.053 C 
BRANCH   6   7
ATOM      7  C   UNL     1     -13.405  -2.612  12.365  1.00  0.00     0.041 C 
ATOM      8  O   UNL     1     -14.233  -2.900  11.462  1.00  0.00    -0.550 OA
ATOM      9  O   UNL     1     -13.483  -1.380  13.003  1.00  0.00    -0.550 OA
ENDBRANCH   6   7
ENDBRANCH   5   6
ENDBRANCH   4   5
ENDBRANCH   3   4
ENDBRANCH   2   3
ENDBRANCH   1   2
BRANCH   1  10
ATOM     10  C   UNL     1      -8.372  -4.952  12.562  1.00  0.00     0.000 C 
BRANCH  10  11
ATOM     11  C   UNL     1      -8.942  -4.284  13.827  1.00  0.00    -0.000 C 
BRANCH  11  12
ATOM     12  C   UNL     1      -8.260  -4.768  15.118  1.00  0.00    -0.000 C 
BRANCH  12  13
ATOM     13  C   UNL     1      -9.162  -5.692  15.952  1.00  0.00    -0.000 C 
BRANCH  13  14
ATOM     14  C   UNL     1     -10.647  -5.563  15.581  1.00  0.00    -0.000 C 
BRANCH  14  15
ATOM     15  C   UNL     1     -11.349  -6.924  15.652  1.00  0.00    -0.003 C 
ATOM     16  C   UNL     1     -10.782  -7.892  14.617  1.00  0.00     0.004 C 
ENDBRANCH  14  15
ENDBRANCH  13  14
ENDBRANCH  12  13
ENDBRANCH  11  12
ENDBRANCH  10  11
ENDBRANCH   1  10
TORSDOF 12
ENDMDL
MODEL 6
REMARK VINA RESULT:    -4.859      2.577      4.384
REMARK INTER + INTRA:         -10.124
REMARK INTER:                  -8.332
REMARK INTRA:                  -1.792
REMARK UNBOUND:                -1.857
REMARK SMILES CCCCCCCCCCCCCC(=O)[O-]
REMARK SMILES IDX 8 1 9 2 10 3 11 4 12 5 13 6 14 7 15 8 16 9 7 10 6 11 5 12
REMARK SMILES IDX 4 13 3 14 2 15 1 16
REMARK H PARENT
REMARK Flexibility Score: inf
ROOT
ATOM      1  C   UNL     1      -7.323  -5.161  12.489  1.00  0.00     0.000 C 
ENDROOT
BRANCH   1   2
ATOM      2  C   UNL     1      -7.273  -3.634  12.667  1.00  0.00     0.000 C 
BRANCH   2   3
ATOM      3  C   UNL     1      -7.595  -3.194  14.104  1.00  0.00     0.000 C 
BRANCH   3   4
ATOM      4  C   UNL     1      -7.350  -4.312  15.131  1.00  0.00     0.000 C 
BRANCH   4   5
ATOM      5  C   UNL     1      -8.622  -4.688  15.908  1.00  0.00     0.006 C 
BRANCH   5   6
ATOM      6  C   UNL     1      -9.613  -3.523  16.022  1.00  0.00     0.053 C 
BRANCH   6   7
ATOM      7  C   UNL     1      -9.618  -2.976  17.415  1.00  0.00     0.041 C 
ATOM      8  O   UNL     1      -8.594  -3.077  18.140  1.00  0.00    -0.550 OA
ATOM      9  O   UNL     1     -10.739  -2.311  17.896  1.00  0.00    -0.550 OA
ENDBRANCH   6   7
ENDBRANCH   5   6
ENDBRANCH   4   5
ENDBRANCH   3   4
ENDBRANCH   2   3
ENDBRANCH   1   2
BRANCH   1  10
ATOM     10  C   UNL     1      -8.600  -5.638  11.771  1.00  0.00     0.000 C 
BRANCH  10  11
ATOM     11  C   UNL     1      -9.620  -6.361  12.670  1.00  0.00    -0.000 C 
BRANCH  11  12
ATOM     12  C   UNL     1     -10.848  -5.494  12.999  1.00  0.00    -0.000 C 
BRANCH  12  13
ATOM     13  C   UNL     1     -11.003  -4.303  12.040  1.00  0.00    -0.000 C 
BRANCH  13  14
ATOM     14  C   UNL     1     -12.380  -4.263  11.360  1.00  0.00    -0.000 C 
BRANCH  14  15
ATOM     15  C   UNL     1     -12.553  -5.448  10.403  1.00  0.00    -0.003 C 
ATOM     16  C   UNL     1     -11.429  -5.492   9.371  1.00  0.00     0.004 C 
ENDBRANCH  14  15
ENDBRANCH  13  14
ENDBRANCH  12  13
ENDBRANCH  11  12
ENDBRANCH  10  11
ENDBRANCH   1  10
TORSDOF 12
ENDMDL
MODEL 7
REMARK VINA RESULT:    -4.842      1.614      3.607
REMARK INTER + INTRA:         -10.095
REMARK INTER:                  -8.185
REMARK INTRA:                  -1.911
REMARK UNBOUND:                -1.857
REMARK SMILES CCCCCCCCCCCCCC(=O)[O-]
REMARK SMILES IDX 8 1 9 2 10 3 11 4 12 5 13 6 14 7 15 8 16 9 7 10 6 11 5 12
REMARK SMILES IDX 4 13 3 14 2 15 1 16
REMARK H PARENT
REMARK Flexibility Score: inf
ROOT
ATOM      1  C   UNL     1     -10.949  -6.947  13.280  1.00  0.00     0.000 C 
ENDROOT
BRANCH   1   2
ATOM      2  C   UNL     1      -9.772  -6.356  12.484  1.00  0.00     0.000 C 
BRANCH   2   3
ATOM      3  C   UNL     1      -9.964  -4.866  12.159  1.00  0.00     0.000 C 
BRANCH   3   4
ATOM      4  C   UNL     1     -11.398  -4.383  12.439  1.00  0.00     0.000 C 
BRANCH   4   5
ATOM      5  C   UNL     1     -11.432  -3.085  13.263  1.00  0.00     0.006 C 
BRANCH   5   6
ATOM      6  C   UNL     1     -12.350  -3.186  14.487  1.00  0.00     0.053 C 
BRANCH   6   7
ATOM      7  C   UNL     1     -13.669  -2.539  14.204  1.00  0.00     0.041 C 
ATOM      8  O   UNL     1     -13.734  -1.532  13.453  1.00  0.00    -0.550 OA
ATOM      9  O   UNL     1     -14.836  -3.081  14.731  1.00  0.00    -0.550 OA
ENDBRANCH   6   7
ENDBRANCH   5   6
ENDBRANCH   4   5
ENDBRANCH   3   4
ENDBRANCH   2   3
ENDBRANCH   1   2
BRANCH   1  10
ATOM     10  C   UNL     1     -10.587  -7.249  14.746  1.00  0.00     0.000 C 
BRANCH  10  11
ATOM     11  C   UNL     1     -10.523  -6.018  15.669  1.00  0.00    -0.000 C 
BRANCH  11  12
ATOM     12  C   UNL     1      -9.114  -5.764  16.231  1.00  0.00    -0.000 C 
BRANCH  12  13
ATOM     13  C   UNL     1      -8.355  -4.678  15.451  1.00  0.00    -0.000 C 
BRANCH  13  14
ATOM     14  C   UNL     1      -8.764  -3.256  15.862  1.00  0.00    -0.000 C 
BRANCH  14  15
ATOM     15  C   UNL     1      -8.908  -3.146  17.385  1.00  0.00    -0.003 C 
ATOM     16  C   UNL     1     -10.253  -2.537  17.769  1.00  0.00     0.004 C 
ENDBRANCH  14  15
ENDBRANCH  13  14
ENDBRANCH  12  13
ENDBRANCH  11  12
ENDBRANCH  10  11
ENDBRANCH   1  10
TORSDOF 12
ENDMDL
MODEL 8
REMARK VINA RESULT:    -4.835      2.349      2.857
REMARK INTER + INTRA:         -10.083
REMARK INTER:                  -8.487
REMARK INTRA:                  -1.597
REMARK UNBOUND:                -1.857
REMARK SMILES CCCCCCCCCCCCCC(=O)[O-]
REMARK SMILES IDX 8 1 9 2 10 3 11 4 12 5 13 6 14 7 15 8 16 9 7 10 6 11 5 12
REMARK SMILES IDX 4 13 3 14 2 15 1 16
REMARK H PARENT
REMARK Flexibility Score: inf
ROOT
ATOM      1  C   UNL     1     -11.344  -7.110  13.816  1.00  0.00     0.000 C 
ENDROOT
BRANCH   1   2
ATOM      2  C   UNL     1     -11.710  -6.975  15.305  1.00  0.00     0.000 C 
BRANCH   2   3
ATOM      3  C   UNL     1     -10.844  -5.936  16.037  1.00  0.00     0.000 C 
BRANCH   3   4
ATOM      4  C   UNL     1     -11.327  -4.495  15.799  1.00  0.00     0.000 C 
BRANCH   4   5
ATOM      5  C   UNL     1     -10.164  -3.503  15.637  1.00  0.00     0.006 C 
BRANCH   5   6
ATOM      6  C   UNL     1      -8.970  -3.837  16.540  1.00  0.00     0.053 C 
BRANCH   6   7
ATOM      7  C   UNL     1      -9.006  -3.003  17.782  1.00  0.00     0.041 C 
ATOM      8  O   UNL     1     -10.010  -2.289  18.037  1.00  0.00    -0.550 OA
ATOM      9  O   UNL     1      -7.950  -3.053  18.683  1.00  0.00    -0.550 OA
ENDBRANCH   6   7
ENDBRANCH   5   6
ENDBRANCH   4   5
ENDBRANCH   3   4
ENDBRANCH   2   3
ENDBRANCH   1   2
BRANCH   1  10
ATOM     10  C   UNL     1     -12.515  -6.763  12.878  1.00  0.00     0.000 C 
BRANCH  10  11
ATOM     11  C   UNL     1     -12.318  -5.489  12.035  1.00  0.00    -0.000 C 
BRANCH  11  12
ATOM     12  C   UNL     1     -10.884  -4.936  12.111  1.00  0.00    -0.000 C 
BRANCH  12  13
ATOM     13  C   UNL     1      -9.943  -5.595  11.092  1.00  0.00    -0.000 C 
BRANCH  13  14
ATOM     14  C   UNL     1      -8.583  -5.975  11.698  1.00  0.00    -0.000 C 
BRANCH  14  15
ATOM     15  C   UNL     1      -8.294  -5.149  12.956  1.00  0.00    -0.003 C 
ATOM     16  C   UNL     1      -7.251  -4.069  12.680  1.00  0.00     0.004 C 
ENDBRANCH  14  15
ENDBRANCH  13  14
ENDBRANCH  12  13
ENDBRANCH  11  12
ENDBRANCH  10  11
ENDBRANCH   1  10
TORSDOF 12
ENDMDL
MODEL 9
REMARK VINA RESULT:    -4.818      2.708      4.268
REMARK INTER + INTRA:         -10.054
REMARK INTER:                  -7.959
REMARK INTRA:                  -2.095
REMARK UNBOUND:                -1.857
REMARK SMILES CCCCCCCCCCCCCC(=O)[O-]
REMARK SMILES IDX 8 1 9 2 10 3 11 4 12 5 13 6 14 7 15 8 16 9 7 10 6 11 5 12
REMARK SMILES IDX 4 13 3 14 2 15 1 16
REMARK H PARENT
REMARK Flexibility Score: inf
ROOT
ATOM      1  C   UNL     1     -12.921  -3.006  14.511  1.00  0.00     0.000 C 
ENDROOT
BRANCH   1   2
ATOM      2  C   UNL     1     -12.937  -3.674  15.897  1.00  0.00     0.000 C 
BRANCH   2   3
ATOM      3  C   UNL     1     -11.635  -3.443  16.681  1.00  0.00     0.000 C 
BRANCH   3   4
ATOM      4  C   UNL     1     -10.399  -3.383  15.766  1.00  0.00     0.000 C 
BRANCH   4   5
ATOM      5  C   UNL     1      -9.269  -4.311  16.239  1.00  0.00     0.006 C 
BRANCH   5   6
ATOM      6  C   UNL     1      -8.242  -4.602  15.138  1.00  0.00     0.053 C 
BRANCH   6   7
ATOM      7  C   UNL     1      -7.384  -3.400  14.894  1.00  0.00     0.041 C 
ATOM      8  O   UNL     1      -7.212  -2.972  13.723  1.00  0.00    -0.550 OA
ATOM      9  O   UNL     1      -6.816  -2.723  15.965  1.00  0.00    -0.550 OA
ENDBRANCH   6   7
ENDBRANCH   5   6
ENDBRANCH   4   5
ENDBRANCH   3   4
ENDBRANCH   2   3
ENDBRANCH   1   2
BRANCH   1  10
ATOM     10  C   UNL     1     -13.980  -3.588  13.555  1.00  0.00     0.000 C 
BRANCH  10  11
ATOM     11  C   UNL     1     -13.468  -4.689  12.608  1.00  0.00    -0.000 C 
BRANCH  11  12
ATOM     12  C   UNL     1     -12.010  -4.471  12.170  1.00  0.00    -0.000 C 
BRANCH  12  13
ATOM     13  C   UNL     1     -11.073  -5.585  12.663  1.00  0.00    -0.000 C 
BRANCH  13  14
ATOM     14  C   UNL     1     -11.808  -6.665  13.471  1.00  0.00    -0.000 C 
BRANCH  14  15
ATOM     15  C   UNL     1     -10.895  -7.259  14.549  1.00  0.00    -0.003 C 
ATOM     16  C   UNL     1     -11.539  -7.165  15.930  1.00  0.00     0.004 C 
ENDBRANCH  14  15
ENDBRANCH  13  14
ENDBRANCH  12  13
ENDBRANCH  11  12
ENDBRANCH  10  11
ENDBRANCH   1  10
TORSDOF 12
ENDMDL
