MODEL 1
REMARK VINA RESULT:    -6.040      0.000      0.000
REMARK INTER + INTRA:         -19.202
REMARK INTER:                 -15.220
REMARK INTRA:                  -3.982
REMARK UNBOUND:                -3.982
REMARK SMILES CCCCCCCCCCCCCCCCCCCCCCCCCCCC(=O)[O-]
REMARK SMILES IDX 15 1 16 2 17 3 18 4 19 5 20 6 21 7 22 8 23 9 24 10 25 11
REMARK SMILES IDX 26 12 27 13 28 14 29 15 30 16 14 17 13 18 12 19 11 20 10 21
REMARK SMILES IDX 9 22 8 23 7 24 6 25 5 26 4 27 3 28 2 29 1 30
REMARK H PARENT
REMARK Flexibility Score: inf
ROOT
ATOM      1  C   UNL     1     111.590 -81.436  21.777  1.00  0.00     0.000 C 
ENDROOT
BRANCH   1   2
ATOM      2  C   UNL     1     110.896 -82.331  22.818  1.00  0.00     0.000 C 
BRANCH   2   3
ATOM      3  C   UNL     1     110.138 -81.571  23.920  1.00  0.00     0.000 C 
BRANCH   3   4
ATOM      4  C   UNL     1     108.872 -82.308  24.393  1.00  0.00     0.000 C 
BRANCH   4   5
ATOM      5  C   UNL     1     108.487 -83.460  23.446  1.00  0.00     0.000 C 
BRANCH   5   6
ATOM      6  C   UNL     1     106.981 -83.778  23.452  1.00  0.00     0.000 C 
BRANCH   6   7
ATOM      7  C   UNL     1     106.205 -82.919  24.465  1.00  0.00     0.000 C 
BRANCH   7   8
ATOM      8  C   UNL     1     105.203 -81.966  23.786  1.00  0.00     0.000 C 
BRANCH   8   9
ATOM      9  C   UNL     1     105.002 -82.222  22.277  1.00  0.00     0.000 C 
BRANCH   9  10
ATOM     10  C   UNL     1     105.332 -81.023  21.367  1.00  0.00     0.000 C 
BRANCH  10  11
ATOM     11  C   UNL     1     106.584 -81.250  20.508  1.00  0.00     0.000 C 
BRANCH  11  12
ATOM     12  C   UNL     1     107.831 -80.660  21.185  1.00  0.00     0.006 C 
BRANCH  12  13
ATOM     13  C   UNL     1     107.479 -79.559  22.194  1.00  0.00     0.053 C 
BRANCH  13  14
ATOM     14  C   UNL     1     107.780 -78.191  21.658  1.00  0.00     0.041 C 
ATOM     15  O   UNL     1     108.696 -77.496  22.171  1.00  0.00    -0.550 OA
ATOM     16  O   UNL     1     107.030 -77.673  20.609  1.00  0.00    -0.550 OA
ENDBRANCH  13  14
ENDBRANCH  12  13
ENDBRANCH  11  12
ENDBRANCH  10  11
ENDBRANCH   9  10
ENDBRANCH   8   9
ENDBRANCH   7   8
ENDBRANCH   6   7
ENDBRANCH   5   6
ENDBRANCH   4   5
ENDBRANCH   3   4
ENDBRANCH   2   3
ENDBRANCH   1   2
BRANCH   1  17
ATOM     17  C   UNL     1     112.390 -82.236  20.737  1.00  0.00     0.000 C 
BRANCH  17  18
ATOM     18  C   UNL     1     113.078 -83.449  21.383  1.00  0.00     0.000 C 
BRANCH  18  19
ATOM     19  C   UNL     1     114.414 -83.794  20.709  1.00  0.00     0.000 C 
BRANCH  19  20
ATOM     20  C   UNL     1     115.516 -82.766  21.014  1.00  0.00     0.000 C 
BRANCH  20  21
ATOM     21  C   UNL     1     116.887 -83.423  21.241  1.00  0.00     0.000 C 
BRANCH  21  22
ATOM     22  C   UNL     1     117.809 -82.571  22.130  1.00  0.00    -0.000 C 
BRANCH  22  23
ATOM     23  C   UNL     1     118.845 -81.775  21.320  1.00  0.00    -0.000 C 
BRANCH  23  24
ATOM     24  C   UNL     1     118.609 -80.250  21.351  1.00  0.00    -0.000 C 
BRANCH  24  25
ATOM     25  C   UNL     1     117.422 -79.870  22.248  1.00  0.00    -0.000 C 
BRANCH  25  26
ATOM     26  C   UNL     1     116.336 -79.141  21.448  1.00  0.00    -0.000 C 
BRANCH  26  27
ATOM     27  C   UNL     1     114.999 -79.151  22.203  1.00  0.00    -0.000 C 
BRANCH  27  28
ATOM     28  C   UNL     1     113.868 -78.452  21.426  1.00  0.00    -0.000 C 
BRANCH  28  29
ATOM     29  C   UNL     1     113.694 -78.934  19.975  1.00  0.00    -0.003 C 
ATOM     30  C   UNL     1     112.337 -78.556  19.381  1.00  0.00     0.004 C 
ENDBRANCH  28  29
ENDBRANCH  27  28
ENDBRANCH  26  27
ENDBRANCH  25  26
ENDBRANCH  24  25
ENDBRANCH  23  24
ENDBRANCH  22  23
ENDBRANCH  21  22
ENDBRANCH  20  21
ENDBRANCH  19  20
ENDBRANCH  18  19
ENDBRANCH  17  18
ENDBRANCH   1  17
TORSDOF 26
ENDMDL
MODEL 2
REMARK VINA RESULT:    -6.029      1.216      2.216
REMARK INTER + INTRA:         -19.176
REMARK INTER:                 -15.181
REMARK INTRA:                  -3.995
REMARK UNBOUND:                -3.982
REMARK SMILES CCCCCCCCCCCCCCCCCCCCCCCCCCCC(=O)[O-]
REMARK SMILES IDX 15 1 16 2 17 3 18 4 19 5 20 6 21 7 22 8 23 9 24 10 25 11
REMARK SMILES IDX 26 12 27 13 28 14 29 15 30 16 14 17 13 18 12 19 11 20 10 21
REMARK SMILES IDX 9 22 8 23 7 24 6 25 5 26 4 27 3 28 2 29 1 30
REMARK H PARENT
REMARK Flexibility Score: inf
ROOT
ATOM      1  C   UNL     1     110.857 -82.592  22.819  1.00  0.00     0.000 C 
ENDROOT
BRANCH   1   2
ATOM      2  C   UNL     1     109.571 -82.252  23.590  1.00  0.00     0.000 C 
BRANCH   2   3
ATOM      3  C   UNL     1     108.454 -83.306  23.482  1.00  0.00     0.000 C 
BRANCH   3   4
ATOM      4  C   UNL     1     107.302 -83.061  24.474  1.00  0.00     0.000 C 
BRANCH   4   5
ATOM      5  C   UNL     1     106.065 -83.918  24.144  1.00  0.00     0.000 C 
BRANCH   5   6
ATOM      6  C   UNL     1     105.400 -83.541  22.808  1.00  0.00     0.000 C 
BRANCH   6   7
ATOM      7  C   UNL     1     104.758 -82.144  22.847  1.00  0.00     0.000 C 
BRANCH   7   8
ATOM      8  C   UNL     1     105.052 -81.323  21.577  1.00  0.00     0.000 C 
BRANCH   8   9
ATOM      9  C   UNL     1     106.381 -81.684  20.878  1.00  0.00     0.000 C 
BRANCH   9  10
ATOM     10  C   UNL     1     107.516 -80.661  21.077  1.00  0.00     0.000 C 
BRANCH  10  11
ATOM     11  C   UNL     1     107.257 -79.700  22.247  1.00  0.00     0.000 C 
BRANCH  11  12
ATOM     12  C   UNL     1     108.207 -78.493  22.187  1.00  0.00     0.006 C 
BRANCH  12  13
ATOM     13  C   UNL     1     108.146 -77.769  20.835  1.00  0.00     0.053 C 
BRANCH  13  14
ATOM     14  C   UNL     1     106.864 -77.010  20.664  1.00  0.00     0.041 C 
ATOM     15  O   UNL     1     106.379 -76.361  21.627  1.00  0.00    -0.550 OA
ATOM     16  O   UNL     1     106.191 -77.044  19.448  1.00  0.00    -0.550 OA
ENDBRANCH  13  14
ENDBRANCH  12  13
ENDBRANCH  11  12
ENDBRANCH  10  11
ENDBRANCH   9  10
ENDBRANCH   8   9
ENDBRANCH   7   8
ENDBRANCH   6   7
ENDBRANCH   5   6
ENDBRANCH   4   5
ENDBRANCH   3   4
ENDBRANCH   2   3
ENDBRANCH   1   2
BRANCH   1  17
ATOM     17  C   UNL     1     111.117 -81.644  21.640  1.00  0.00     0.000 C 
BRANCH  17  18
ATOM     18  C   UNL     1     112.133 -82.248  20.658  1.00  0.00     0.000 C 
BRANCH  18  19
ATOM     19  C   UNL     1     113.266 -82.999  21.374  1.00  0.00     0.000 C 
BRANCH  19  20
ATOM     20  C   UNL     1     114.350 -83.501  20.406  1.00  0.00     0.000 C 
BRANCH  20  21
ATOM     21  C   UNL     1     115.763 -83.399  21.002  1.00  0.00     0.000 C 
BRANCH  21  22
ATOM     22  C   UNL     1     115.932 -82.172  21.914  1.00  0.00    -0.000 C 
BRANCH  22  23
ATOM     23  C   UNL     1     116.955 -81.162  21.368  1.00  0.00    -0.000 C 
BRANCH  23  24
ATOM     24  C   UNL     1     116.357 -79.764  21.103  1.00  0.00    -0.000 C 
BRANCH  24  25
ATOM     25  C   UNL     1     115.105 -79.833  20.215  1.00  0.00    -0.000 C 
BRANCH  25  26
ATOM     26  C   UNL     1     114.008 -78.895  20.733  1.00  0.00    -0.000 C 
BRANCH  26  27
ATOM     27  C   UNL     1     113.756 -79.121  22.231  1.00  0.00    -0.000 C 
BRANCH  27  28
ATOM     28  C   UNL     1     113.901 -77.833  23.062  1.00  0.00    -0.000 C 
BRANCH  28  29
ATOM     29  C   UNL     1     114.370 -76.604  22.264  1.00  0.00    -0.003 C 
ATOM     30  C   UNL     1     113.302 -75.514  22.168  1.00  0.00     0.004 C 
ENDBRANCH  28  29
ENDBRANCH  27  28
ENDBRANCH  26  27
ENDBRANCH  25  26
ENDBRANCH  24  25
ENDBRANCH  23  24
ENDBRANCH  22  23
ENDBRANCH  21  22
ENDBRANCH  20  21
ENDBRANCH  19  20
ENDBRANCH  18  19
ENDBRANCH  17  18
ENDBRANCH   1  17
TORSDOF 26
ENDMDL
MODEL 3
REMARK VINA RESULT:    -5.928      1.674      2.444
REMARK INTER + INTRA:         -18.921
REMARK INTER:                 -14.430
REMARK INTRA:                  -4.491
REMARK UNBOUND:                -3.982
REMARK SMILES CCCCCCCCCCCCCCCCCCCCCCCCCCCC(=O)[O-]
REMARK SMILES IDX 15 1 16 2 17 3 18 4 19 5 20 6 21 7 22 8 23 9 24 10 25 11
REMARK SMILES IDX 26 12 27 13 28 14 29 15 30 16 14 17 13 18 12 19 11 20 10 21
REMARK SMILES IDX 9 22 8 23 7 24 6 25 5 26 4 27 3 28 2 29 1 30
REMARK H PARENT
REMARK Flexibility Score: inf
ROOT
ATOM      1  C   UNL     1     110.299 -82.629  23.166  1.00  0.00     0.000 C 
ENDROOT
BRANCH   1   2
ATOM      2  C   UNL     1     109.930 -81.426  24.051  1.00  0.00     0.000 C 
BRANCH   2   3
ATOM      3  C   UNL     1     109.537 -81.782  25.496  1.00  0.00     0.000 C 
BRANCH   3   4
ATOM      4  C   UNL     1     108.071 -81.442  25.819  1.00  0.00     0.000 C 
BRANCH   4   5
ATOM      5  C   UNL     1     107.301 -82.664  26.355  1.00  0.00     0.000 C 
BRANCH   5   6
ATOM      6  C   UNL     1     106.521 -83.422  25.265  1.00  0.00     0.000 C 
BRANCH   6   7
ATOM      7  C   UNL     1     106.177 -82.528  24.062  1.00  0.00     0.000 C 
BRANCH   7   8
ATOM      8  C   UNL     1     106.823 -83.021  22.754  1.00  0.00     0.000 C 
BRANCH   8   9
ATOM      9  C   UNL     1     106.442 -82.198  21.505  1.00  0.00     0.000 C 
BRANCH   9  10
ATOM     10  C   UNL     1     106.375 -80.675  21.729  1.00  0.00     0.000 C 
BRANCH  10  11
ATOM     11  C   UNL     1     107.624 -79.940  21.221  1.00  0.00     0.000 C 
BRANCH  11  12
ATOM     12  C   UNL     1     108.135 -78.935  22.265  1.00  0.00     0.006 C 
BRANCH  12  13
ATOM     13  C   UNL     1     107.659 -77.504  21.979  1.00  0.00     0.053 C 
BRANCH  13  14
ATOM     14  C   UNL     1     107.820 -77.140  20.534  1.00  0.00     0.041 C 
ATOM     15  O   UNL     1     108.970 -77.025  20.034  1.00  0.00    -0.550 OA
ATOM     16  O   UNL     1     106.701 -76.897  19.747  1.00  0.00    -0.550 OA
ENDBRANCH  13  14
ENDBRANCH  12  13
ENDBRANCH  11  12
ENDBRANCH  10  11
ENDBRANCH   9  10
ENDBRANCH   8   9
ENDBRANCH   7   8
ENDBRANCH   6   7
ENDBRANCH   5   6
ENDBRANCH   4   5
ENDBRANCH   3   4
ENDBRANCH   2   3
ENDBRANCH   1   2
BRANCH   1  17
ATOM     17  C   UNL     1     111.514 -82.360  22.266  1.00  0.00     0.000 C 
BRANCH  17  18
ATOM     18  C   UNL     1     112.476 -83.558  22.264  1.00  0.00     0.000 C 
BRANCH  18  19
ATOM     19  C   UNL     1     113.613 -83.396  21.245  1.00  0.00     0.000 C 
BRANCH  19  20
ATOM     20  C   UNL     1     113.744 -81.955  20.724  1.00  0.00     0.000 C 
BRANCH  20  21
ATOM     21  C   UNL     1     115.161 -81.389  20.909  1.00  0.00     0.000 C 
BRANCH  21  22
ATOM     22  C   UNL     1     115.199 -80.199  21.883  1.00  0.00    -0.000 C 
BRANCH  22  23
ATOM     23  C   UNL     1     115.594 -78.881  21.195  1.00  0.00    -0.000 C 
BRANCH  23  24
ATOM     24  C   UNL     1     115.630 -77.674  22.156  1.00  0.00    -0.000 C 
BRANCH  24  25
ATOM     25  C   UNL     1     114.259 -77.407  22.795  1.00  0.00    -0.000 C 
BRANCH  25  26
ATOM     26  C   UNL     1     113.510 -76.293  22.052  1.00  0.00    -0.000 C 
BRANCH  26  27
ATOM     27  C   UNL     1     112.094 -76.745  21.670  1.00  0.00    -0.000 C 
BRANCH  27  28
ATOM     28  C   UNL     1     111.845 -78.238  21.954  1.00  0.00    -0.000 C 
BRANCH  28  29
ATOM     29  C   UNL     1     111.587 -79.095  20.703  1.00  0.00    -0.003 C 
ATOM     30  C   UNL     1     112.283 -78.551  19.455  1.00  0.00     0.004 C 
ENDBRANCH  28  29
ENDBRANCH  27  28
ENDBRANCH  26  27
ENDBRANCH  25  26
ENDBRANCH  24  25
ENDBRANCH  23  24
ENDBRANCH  22  23
ENDBRANCH  21  22
ENDBRANCH  20  21
ENDBRANCH  19  20
ENDBRANCH  18  19
ENDBRANCH  17  18
ENDBRANCH   1  17
TORSDOF 26
ENDMDL
MODEL 4
REMARK VINA RESULT:    -5.914      4.159      8.849
REMARK INTER + INTRA:         -18.883
REMARK INTER:                 -14.778
REMARK INTRA:                  -4.106
REMARK UNBOUND:                -3.982
REMARK SMILES CCCCCCCCCCCCCCCCCCCCCCCCCCCC(=O)[O-]
REMARK SMILES IDX 15 1 16 2 17 3 18 4 19 5 20 6 21 7 22 8 23 9 24 10 25 11
REMARK SMILES IDX 26 12 27 13 28 14 29 15 30 16 14 17 13 18 12 19 11 20 10 21
REMARK SMILES IDX 9 22 8 23 7 24 6 25 5 26 4 27 3 28 2 29 1 30
REMARK H PARENT
REMARK Flexibility Score: inf
ROOT
ATOM      1  C   UNL     1     105.777 -81.459  19.548  1.00  0.00     0.000 C 
ENDROOT
BRANCH   1   2
ATOM      2  C   UNL     1     105.525 -82.811  18.860  1.00  0.00     0.000 C 
BRANCH   2   3
ATOM      3  C   UNL     1     104.605 -83.770  19.636  1.00  0.00     0.000 C 
BRANCH   3   4
ATOM      4  C   UNL     1     103.134 -83.318  19.639  1.00  0.00     0.000 C 
BRANCH   4   5
ATOM      5  C   UNL     1     102.640 -82.968  21.055  1.00  0.00     0.000 C 
BRANCH   5   6
ATOM      6  C   UNL     1     103.693 -83.222  22.149  1.00  0.00     0.000 C 
BRANCH   6   7
ATOM      7  C   UNL     1     104.101 -81.931  22.880  1.00  0.00     0.000 C 
BRANCH   7   8
ATOM      8  C   UNL     1     105.388 -82.102  23.710  1.00  0.00     0.000 C 
BRANCH   8   9
ATOM      9  C   UNL     1     106.093 -83.463  23.518  1.00  0.00     0.000 C 
BRANCH   9  10
ATOM     10  C   UNL     1     107.610 -83.449  23.786  1.00  0.00     0.000 C 
BRANCH  10  11
ATOM     11  C   UNL     1     108.034 -82.348  24.769  1.00  0.00     0.000 C 
BRANCH  11  12
ATOM     12  C   UNL     1     109.345 -81.684  24.320  1.00  0.00     0.006 C 
BRANCH  12  13
ATOM     13  C   UNL     1     109.889 -82.291  23.019  1.00  0.00     0.053 C 
BRANCH  13  14
ATOM     14  C   UNL     1     110.636 -81.281  22.201  1.00  0.00     0.041 C 
ATOM     15  O   UNL     1     111.008 -81.562  21.031  1.00  0.00    -0.550 OA
ATOM     16  O   UNL     1     110.948 -80.038  22.741  1.00  0.00    -0.550 OA
ENDBRANCH  13  14
ENDBRANCH  12  13
ENDBRANCH  11  12
ENDBRANCH  10  11
ENDBRANCH   9  10
ENDBRANCH   8   9
ENDBRANCH   7   8
ENDBRANCH   6   7
ENDBRANCH   5   6
ENDBRANCH   4   5
ENDBRANCH   3   4
ENDBRANCH   2   3
ENDBRANCH   1   2
BRANCH   1  17
ATOM     17  C   UNL     1     106.960 -81.495  20.526  1.00  0.00     0.000 C 
BRANCH  17  18
ATOM     18  C   UNL     1     107.207 -80.111  21.146  1.00  0.00     0.000 C 
BRANCH  18  19
ATOM     19  C   UNL     1     106.124 -79.093  20.760  1.00  0.00     0.000 C 
BRANCH  19  20
ATOM     20  C   UNL     1     106.664 -77.656  20.671  1.00  0.00     0.000 C 
BRANCH  20  21
ATOM     21  C   UNL     1     105.787 -76.752  19.790  1.00  0.00     0.000 C 
BRANCH  21  22
ATOM     22  C   UNL     1     104.288 -77.066  19.932  1.00  0.00    -0.000 C 
BRANCH  22  23
ATOM     23  C   UNL     1     103.432 -75.802  20.123  1.00  0.00    -0.000 C 
BRANCH  23  24
ATOM     24  C   UNL     1     102.879 -75.646  21.555  1.00  0.00    -0.000 C 
BRANCH  24  25
ATOM     25  C   UNL     1     103.452 -74.408  22.261  1.00  0.00    -0.000 C 
BRANCH  25  26
ATOM     26  C   UNL     1     104.464 -73.682  21.368  1.00  0.00    -0.000 C 
BRANCH  26  27
ATOM     27  C   UNL     1     105.860 -73.685  22.007  1.00  0.00    -0.000 C 
BRANCH  27  28
ATOM     28  C   UNL     1     105.825 -73.968  23.519  1.00  0.00    -0.000 C 
BRANCH  28  29
ATOM     29  C   UNL     1     106.713 -75.139  23.974  1.00  0.00    -0.003 C 
ATOM     30  C   UNL     1     106.879 -75.205  25.492  1.00  0.00     0.004 C 
ENDBRANCH  28  29
ENDBRANCH  27  28
ENDBRANCH  26  27
ENDBRANCH  25  26
ENDBRANCH  24  25
ENDBRANCH  23  24
ENDBRANCH  22  23
ENDBRANCH  21  22
ENDBRANCH  20  21
ENDBRANCH  19  20
ENDBRANCH  18  19
ENDBRANCH  17  18
ENDBRANCH   1  17
TORSDOF 26
ENDMDL
MODEL 5
REMARK VINA RESULT:    -5.905      2.469      8.599
REMARK INTER + INTRA:         -18.861
REMARK INTER:                 -14.865
REMARK INTRA:                  -3.997
REMARK UNBOUND:                -3.982
REMARK SMILES CCCCCCCCCCCCCCCCCCCCCCCCCCCC(=O)[O-]
REMARK SMILES IDX 15 1 16 2 17 3 18 4 19 5 20 6 21 7 22 8 23 9 24 10 25 11
REMARK SMILES IDX 26 12 27 13 28 14 29 15 30 16 14 17 13 18 12 19 11 20 10 21
REMARK SMILES IDX 9 22 8 23 7 24 6 25 5 26 4 27 3 28 2 29 1 30
REMARK H PARENT
REMARK Flexibility Score: inf
ROOT
ATOM      1  C   UNL     1     110.251 -81.877  24.054  1.00  0.00     0.000 C 
ENDROOT
BRANCH   1   2
ATOM      2  C   UNL     1     110.535 -82.476  22.666  1.00  0.00     0.000 C 
BRANCH   2   3
ATOM      3  C   UNL     1     111.925 -83.119  22.511  1.00  0.00     0.000 C 
BRANCH   3   4
ATOM      4  C   UNL     1     112.612 -82.746  21.186  1.00  0.00     0.000 C 
BRANCH   4   5
ATOM      5  C   UNL     1     113.647 -83.803  20.755  1.00  0.00     0.000 C 
BRANCH   5   6
ATOM      6  C   UNL     1     115.014 -83.203  20.381  1.00  0.00     0.000 C 
BRANCH   6   7
ATOM      7  C   UNL     1     115.971 -83.134  21.583  1.00  0.00     0.000 C 
BRANCH   7   8
ATOM      8  C   UNL     1     117.447 -83.305  21.175  1.00  0.00     0.000 C 
BRANCH   8   9
ATOM      9  C   UNL     1     118.457 -83.059  22.317  1.00  0.00     0.000 C 
BRANCH   9  10
ATOM     10  C   UNL     1     118.935 -81.601  22.456  1.00  0.00     0.000 C 
BRANCH  10  11
ATOM     11  C   UNL     1     118.685 -80.767  21.191  1.00  0.00     0.000 C 
BRANCH  11  12
ATOM     12  C   UNL     1     118.168 -79.364  21.551  1.00  0.00     0.006 C 
BRANCH  12  13
ATOM     13  C   UNL     1     118.030 -79.165  23.066  1.00  0.00     0.053 C 
BRANCH  13  14
ATOM     14  C   UNL     1     117.046 -78.084  23.401  1.00  0.00     0.041 C 
ATOM     15  O   UNL     1     116.742 -77.853  24.600  1.00  0.00    -0.550 OA
ATOM     16  O   UNL     1     116.443 -77.352  22.385  1.00  0.00    -0.550 OA
ENDBRANCH  13  14
ENDBRANCH  12  13
ENDBRANCH  11  12
ENDBRANCH  10  11
ENDBRANCH   9  10
ENDBRANCH   8   9
ENDBRANCH   7   8
ENDBRANCH   6   7
ENDBRANCH   5   6
ENDBRANCH   4   5
ENDBRANCH   3   4
ENDBRANCH   2   3
ENDBRANCH   1   2
BRANCH   1  17
ATOM     17  C   UNL     1     108.789 -82.048  24.492  1.00  0.00     0.000 C 
BRANCH  17  18
ATOM     18  C   UNL     1     108.067 -83.083  23.615  1.00  0.00     0.000 C 
BRANCH  18  19
ATOM     19  C   UNL     1     106.555 -83.129  23.885  1.00  0.00     0.000 C 
BRANCH  19  20
ATOM     20  C   UNL     1     105.765 -82.147  23.003  1.00  0.00     0.000 C 
BRANCH  20  21
ATOM     21  C   UNL     1     106.485 -81.833  21.682  1.00  0.00     0.000 C 
BRANCH  21  22
ATOM     22  C   UNL     1     106.316 -80.366  21.252  1.00  0.00    -0.000 C 
BRANCH  22  23
ATOM     23  C   UNL     1     107.336 -79.429  21.921  1.00  0.00    -0.000 C 
BRANCH  23  24
ATOM     24  C   UNL     1     108.785 -79.658  21.444  1.00  0.00    -0.000 C 
BRANCH  24  25
ATOM     25  C   UNL     1     109.720 -78.519  21.876  1.00  0.00    -0.000 C 
BRANCH  25  26
ATOM     26  C   UNL     1     111.151 -78.759  21.379  1.00  0.00    -0.000 C 
BRANCH  26  27
ATOM     27  C   UNL     1     112.092 -79.072  22.551  1.00  0.00    -0.000 C 
BRANCH  27  28
ATOM     28  C   UNL     1     113.538 -79.346  22.100  1.00  0.00    -0.000 C 
BRANCH  28  29
ATOM     29  C   UNL     1     113.839 -78.960  20.641  1.00  0.00    -0.003 C 
ATOM     30  C   UNL     1     114.990 -79.766  20.037  1.00  0.00     0.004 C 
ENDBRANCH  28  29
ENDBRANCH  27  28
ENDBRANCH  26  27
ENDBRANCH  25  26
ENDBRANCH  24  25
ENDBRANCH  23  24
ENDBRANCH  22  23
ENDBRANCH  21  22
ENDBRANCH  20  21
ENDBRANCH  19  20
ENDBRANCH  18  19
ENDBRANCH  17  18
ENDBRANCH   1  17
TORSDOF 26
ENDMDL
MODEL 6
REMARK VINA RESULT:    -5.901      4.144      8.365
REMARK INTER + INTRA:         -18.853
REMARK INTER:                 -14.774
REMARK INTRA:                  -4.079
REMARK UNBOUND:                -3.982
REMARK SMILES CCCCCCCCCCCCCCCCCCCCCCCCCCCC(=O)[O-]
REMARK SMILES IDX 15 1 16 2 17 3 18 4 19 5 20 6 21 7 22 8 23 9 24 10 25 11
REMARK SMILES IDX 26 12 27 13 28 14 29 15 30 16 14 17 13 18 12 19 11 20 10 21
REMARK SMILES IDX 9 22 8 23 7 24 6 25 5 26 4 27 3 28 2 29 1 30
REMARK H PARENT
REMARK Flexibility Score: inf
ROOT
ATOM      1  C   UNL     1     118.063 -79.743  20.735  1.00  0.00     0.000 C 
ENDROOT
BRANCH   1   2
ATOM      2  C   UNL     1     117.535 -78.843  21.864  1.00  0.00     0.000 C 
BRANCH   2   3
ATOM      3  C   UNL     1     116.001 -78.785  21.982  1.00  0.00     0.000 C 
BRANCH   3   4
ATOM      4  C   UNL     1     115.501 -77.498  22.662  1.00  0.00     0.000 C 
BRANCH   4   5
ATOM      5  C   UNL     1     114.014 -77.594  23.055  1.00  0.00     0.000 C 
BRANCH   5   6
ATOM      6  C   UNL     1     113.179 -76.389  22.585  1.00  0.00     0.000 C 
BRANCH   6   7
ATOM      7  C   UNL     1     114.019 -75.107  22.460  1.00  0.00     0.000 C 
BRANCH   7   8
ATOM      8  C   UNL     1     113.700 -74.080  23.564  1.00  0.00     0.000 C 
BRANCH   8   9
ATOM      9  C   UNL     1     114.905 -73.705  24.453  1.00  0.00     0.000 C 
BRANCH   9  10
ATOM     10  C   UNL     1     115.865 -74.868  24.767  1.00  0.00     0.000 C 
BRANCH  10  11
ATOM     11  C   UNL     1     117.337 -74.433  24.814  1.00  0.00     0.000 C 
BRANCH  11  12
ATOM     12  C   UNL     1     118.268 -75.597  24.435  1.00  0.00     0.006 C 
BRANCH  12  13
ATOM     13  C   UNL     1     118.706 -76.414  25.658  1.00  0.00     0.053 C 
BRANCH  13  14
ATOM     14  C   UNL     1     118.067 -77.770  25.683  1.00  0.00     0.041 C 
ATOM     15  O   UNL     1     116.937 -77.929  26.214  1.00  0.00    -0.550 OA
ATOM     16  O   UNL     1     118.734 -78.864  25.144  1.00  0.00    -0.550 OA
ENDBRANCH  13  14
ENDBRANCH  12  13
ENDBRANCH  11  12
ENDBRANCH  10  11
ENDBRANCH   9  10
ENDBRANCH   8   9
ENDBRANCH   7   8
ENDBRANCH   6   7
ENDBRANCH   5   6
ENDBRANCH   4   5
ENDBRANCH   3   4
ENDBRANCH   2   3
ENDBRANCH   1   2
BRANCH   1  17
ATOM     17  C   UNL     1     119.314 -80.537  21.137  1.00  0.00     0.000 C 
BRANCH  17  18
ATOM     18  C   UNL     1     118.969 -81.634  22.157  1.00  0.00     0.000 C 
BRANCH  18  19
ATOM     19  C   UNL     1     118.798 -83.012  21.502  1.00  0.00     0.000 C 
BRANCH  19  20
ATOM     20  C   UNL     1     117.324 -83.371  21.249  1.00  0.00     0.000 C 
BRANCH  20  21
ATOM     21  C   UNL     1     116.374 -82.690  22.247  1.00  0.00     0.000 C 
BRANCH  21  22
ATOM     22  C   UNL     1     115.151 -82.058  21.560  1.00  0.00    -0.000 C 
BRANCH  22  23
ATOM     23  C   UNL     1     114.694 -82.845  20.320  1.00  0.00    -0.000 C 
BRANCH  23  24
ATOM     24  C   UNL     1     113.259 -83.399  20.439  1.00  0.00    -0.000 C 
BRANCH  24  25
ATOM     25  C   UNL     1     112.810 -83.523  21.902  1.00  0.00    -0.000 C 
BRANCH  25  26
ATOM     26  C   UNL     1     111.558 -82.679  22.169  1.00  0.00    -0.000 C 
BRANCH  26  27
ATOM     27  C   UNL     1     111.350 -81.640  21.057  1.00  0.00    -0.000 C 
BRANCH  27  28
ATOM     28  C   UNL     1     111.802 -80.227  21.467  1.00  0.00    -0.000 C 
BRANCH  28  29
ATOM     29  C   UNL     1     111.739 -79.182  20.339  1.00  0.00    -0.003 C 
ATOM     30  C   UNL     1     113.113 -78.855  19.754  1.00  0.00     0.004 C 
ENDBRANCH  28  29
ENDBRANCH  27  28
ENDBRANCH  26  27
ENDBRANCH  25  26
ENDBRANCH  24  25
ENDBRANCH  23  24
ENDBRANCH  22  23
ENDBRANCH  21  22
ENDBRANCH  20  21
ENDBRANCH  19  20
ENDBRANCH  18  19
ENDBRANCH  17  18
ENDBRANCH   1  17
TORSDOF 26
ENDMDL
MODEL 7
REMARK VINA RESULT:    -5.887      3.179      7.700
REMARK INTER + INTRA:         -18.816
REMARK INTER:                 -14.089
REMARK INTRA:                  -4.728
REMARK UNBOUND:                -3.982
REMARK SMILES CCCCCCCCCCCCCCCCCCCCCCCCCCCC(=O)[O-]
REMARK SMILES IDX 15 1 16 2 17 3 18 4 19 5 20 6 21 7 22 8 23 9 24 10 25 11
REMARK SMILES IDX 26 12 27 13 28 14 29 15 30 16 14 17 13 18 12 19 11 20 10 21
REMARK SMILES IDX 9 22 8 23 7 24 6 25 5 26 4 27 3 28 2 29 1 30
REMARK H PARENT
REMARK Flexibility Score: inf
ROOT
ATOM      1  C   UNL     1     103.604 -82.886  19.479  1.00  0.00     0.000 C 
ENDROOT
BRANCH   1   2
ATOM      2  C   UNL     1     105.036 -83.309  19.111  1.00  0.00     0.000 C 
BRANCH   2   3
ATOM      3  C   UNL     1     106.108 -82.227  19.335  1.00  0.00     0.000 C 
BRANCH   3   4
ATOM      4  C   UNL     1     105.514 -80.879  19.783  1.00  0.00     0.000 C 
BRANCH   4   5
ATOM      5  C   UNL     1     106.023 -80.459  21.175  1.00  0.00     0.000 C 
BRANCH   5   6
ATOM      6  C   UNL     1     107.485 -79.976  21.171  1.00  0.00     0.000 C 
BRANCH   6   7
ATOM      7  C   UNL     1     107.766 -78.953  22.284  1.00  0.00     0.000 C 
BRANCH   7   8
ATOM      8  C   UNL     1     109.079 -78.178  22.057  1.00  0.00     0.000 C 
BRANCH   8   9
ATOM      9  C   UNL     1     108.959 -76.999  21.067  1.00  0.00     0.000 C 
BRANCH   9  10
ATOM     10  C   UNL     1     107.578 -76.316  21.037  1.00  0.00     0.000 C 
BRANCH  10  11
ATOM     11  C   UNL     1     106.865 -76.468  19.685  1.00  0.00     0.000 C 
BRANCH  11  12
ATOM     12  C   UNL     1     105.480 -77.112  19.863  1.00  0.00     0.006 C 
BRANCH  12  13
ATOM     13  C   UNL     1     104.339 -76.134  19.553  1.00  0.00     0.053 C 
BRANCH  13  14
ATOM     14  C   UNL     1     103.572 -75.761  20.787  1.00  0.00     0.041 C 
ATOM     15  O   UNL     1     102.348 -76.040  20.881  1.00  0.00    -0.550 OA
ATOM     16  O   UNL     1     104.203 -75.078  21.820  1.00  0.00    -0.550 OA
ENDBRANCH  13  14
ENDBRANCH  12  13
ENDBRANCH  11  12
ENDBRANCH  10  11
ENDBRANCH   9  10
ENDBRANCH   8   9
ENDBRANCH   7   8
ENDBRANCH   6   7
ENDBRANCH   5   6
ENDBRANCH   4   5
ENDBRANCH   3   4
ENDBRANCH   2   3
ENDBRANCH   1   2
BRANCH   1  17
ATOM     17  C   UNL     1     102.739 -84.058  19.966  1.00  0.00     0.000 C 
BRANCH  17  18
ATOM     18  C   UNL     1     102.423 -83.926  21.464  1.00  0.00     0.000 C 
BRANCH  18  19
ATOM     19  C   UNL     1     102.797 -82.546  22.024  1.00  0.00     0.000 C 
BRANCH  19  20
ATOM     20  C   UNL     1     104.017 -82.596  22.959  1.00  0.00     0.000 C 
BRANCH  20  21
ATOM     21  C   UNL     1     104.745 -83.949  22.904  1.00  0.00     0.000 C 
BRANCH  21  22
ATOM     22  C   UNL     1     106.265 -83.793  22.724  1.00  0.00    -0.000 C 
BRANCH  22  23
ATOM     23  C   UNL     1     107.000 -83.557  24.055  1.00  0.00    -0.000 C 
BRANCH  23  24
ATOM     24  C   UNL     1     107.367 -82.079  24.300  1.00  0.00    -0.000 C 
BRANCH  24  25
ATOM     25  C   UNL     1     108.858 -81.903  24.624  1.00  0.00    -0.000 C 
BRANCH  25  26
ATOM     26  C   UNL     1     109.738 -82.536  23.539  1.00  0.00    -0.000 C 
BRANCH  26  27
ATOM     27  C   UNL     1     110.643 -81.483  22.884  1.00  0.00    -0.000 C 
BRANCH  27  28
ATOM     28  C   UNL     1     110.618 -81.546  21.346  1.00  0.00    -0.000 C 
BRANCH  28  29
ATOM     29  C   UNL     1     111.610 -80.600  20.648  1.00  0.00    -0.003 C 
ATOM     30  C   UNL     1     112.667 -80.038  21.600  1.00  0.00     0.004 C 
ENDBRANCH  28  29
ENDBRANCH  27  28
ENDBRANCH  26  27
ENDBRANCH  25  26
ENDBRANCH  24  25
ENDBRANCH  23  24
ENDBRANCH  22  23
ENDBRANCH  21  22
ENDBRANCH  20  21
ENDBRANCH  19  20
ENDBRANCH  18  19
ENDBRANCH  17  18
ENDBRANCH   1  17
TORSDOF 26
ENDMDL
MODEL 8
REMARK VINA RESULT:    -5.862      2.259      8.559
REMARK INTER + INTRA:         -18.753
REMARK INTER:                 -14.878
REMARK INTRA:                  -3.875
REMARK UNBOUND:                -3.982
REMARK SMILES CCCCCCCCCCCCCCCCCCCCCCCCCCCC(=O)[O-]
REMARK SMILES IDX 15 1 16 2 17 3 18 4 19 5 20 6 21 7 22 8 23 9 24 10 25 11
REMARK SMILES IDX 26 12 27 13 28 14 29 15 30 16 14 17 13 18 12 19 11 20 10 21
REMARK SMILES IDX 9 22 8 23 7 24 6 25 5 26 4 27 3 28 2 29 1 30
REMARK H PARENT
REMARK Flexibility Score: inf
ROOT
ATOM      1  C   UNL     1     112.481 -81.706  21.502  1.00  0.00     0.000 C 
ENDROOT
BRANCH   1   2
ATOM      2  C   UNL     1     112.549 -82.977  20.640  1.00  0.00     0.000 C 
BRANCH   2   3
ATOM      3  C   UNL     1     113.961 -83.565  20.465  1.00  0.00     0.000 C 
BRANCH   3   4
ATOM      4  C   UNL     1     114.958 -83.052  21.519  1.00  0.00     0.000 C 
BRANCH   4   5
ATOM      5  C   UNL     1     116.418 -83.342  21.122  1.00  0.00     0.000 C 
BRANCH   5   6
ATOM      6  C   UNL     1     117.435 -82.960  22.212  1.00  0.00     0.000 C 
BRANCH   6   7
ATOM      7  C   UNL     1     118.813 -82.603  21.628  1.00  0.00     0.000 C 
BRANCH   7   8
ATOM      8  C   UNL     1     119.200 -81.133  21.882  1.00  0.00     0.000 C 
BRANCH   8   9
ATOM      9  C   UNL     1     118.564 -80.127  20.898  1.00  0.00     0.000 C 
BRANCH   9  10
ATOM     10  C   UNL     1     117.494 -79.207  21.515  1.00  0.00     0.000 C 
BRANCH  10  11
ATOM     11  C   UNL     1     116.068 -79.560  21.064  1.00  0.00     0.000 C 
BRANCH  11  12
ATOM     12  C   UNL     1     115.030 -79.062  22.082  1.00  0.00     0.006 C 
BRANCH  12  13
ATOM     13  C   UNL     1     114.808 -77.546  21.995  1.00  0.00     0.053 C 
BRANCH  13  14
ATOM     14  C   UNL     1     115.021 -76.872  23.317  1.00  0.00     0.041 C 
ATOM     15  O   UNL     1     115.109 -75.618  23.383  1.00  0.00    -0.550 OA
ATOM     16  O   UNL     1     115.153 -77.632  24.473  1.00  0.00    -0.550 OA
ENDBRANCH  13  14
ENDBRANCH  12  13
ENDBRANCH  11  12
ENDBRANCH  10  11
ENDBRANCH   9  10
ENDBRANCH   8   9
ENDBRANCH   7   8
ENDBRANCH   6   7
ENDBRANCH   5   6
ENDBRANCH   4   5
ENDBRANCH   3   4
ENDBRANCH   2   3
ENDBRANCH   1   2
BRANCH   1  17
ATOM     17  C   UNL     1     111.054 -81.366  21.957  1.00  0.00     0.000 C 
BRANCH  17  18
ATOM     18  C   UNL     1     110.590 -82.312  23.075  1.00  0.00     0.000 C 
BRANCH  18  19
ATOM     19  C   UNL     1     110.082 -81.555  24.311  1.00  0.00     0.000 C 
BRANCH  19  20
ATOM     20  C   UNL     1     108.644 -81.944  24.696  1.00  0.00     0.000 C 
BRANCH  20  21
ATOM     21  C   UNL     1     107.965 -82.814  23.627  1.00  0.00     0.000 C 
BRANCH  21  22
ATOM     22  C   UNL     1     106.695 -82.161  23.054  1.00  0.00    -0.000 C 
BRANCH  22  23
ATOM     23  C   UNL     1     106.759 -81.975  21.529  1.00  0.00    -0.000 C 
BRANCH  23  24
ATOM     24  C   UNL     1     106.761 -80.495  21.090  1.00  0.00    -0.000 C 
BRANCH  24  25
ATOM     25  C   UNL     1     108.084 -79.795  21.436  1.00  0.00    -0.000 C 
BRANCH  25  26
ATOM     26  C   UNL     1     107.833 -78.487  22.197  1.00  0.00    -0.000 C 
BRANCH  26  27
ATOM     27  C   UNL     1     109.075 -77.585  22.160  1.00  0.00    -0.000 C 
BRANCH  27  28
ATOM     28  C   UNL     1     109.793 -77.611  20.798  1.00  0.00    -0.000 C 
BRANCH  28  29
ATOM     29  C   UNL     1     111.305 -77.884  20.876  1.00  0.00    -0.003 C 
ATOM     30  C   UNL     1     111.859 -78.530  19.606  1.00  0.00     0.004 C 
ENDBRANCH  28  29
ENDBRANCH  27  28
ENDBRANCH  26  27
ENDBRANCH  25  26
ENDBRANCH  24  25
ENDBRANCH  23  24
ENDBRANCH  22  23
ENDBRANCH  21  22
ENDBRANCH  20  21
ENDBRANCH  19  20
ENDBRANCH  18  19
ENDBRANCH  17  18
ENDBRANCH   1  17
TORSDOF 26
ENDMDL
MODEL 9
REMARK VINA RESULT:    -5.856      4.639      7.300
REMARK INTER + INTRA:         -18.739
REMARK INTER:                 -14.234
REMARK INTRA:                  -4.505
REMARK UNBOUND:                -3.982
REMARK SMILES CCCCCCCCCCCCCCCCCCCCCCCCCCCC(=O)[O-]
REMARK SMILES IDX 15 1 16 2 17 3 18 4 19 5 20 6 21 7 22 8 23 9 24 10 25 11
REMARK SMILES IDX 26 12 27 13 28 14 29 15 30 16 14 17 13 18 12 19 11 20 10 21
REMARK SMILES IDX 9 22 8 23 7 24 6 25 5 26 4 27 3 28 2 29 1 30
REMARK H PARENT
REMARK Flexibility Score: inf
ROOT
ATOM      1  C   UNL     1     103.086 -82.699  20.955  1.00  0.00     0.000 C 
ENDROOT
BRANCH   1   2
ATOM      2  C   UNL     1     103.478 -83.383  19.634  1.00  0.00     0.000 C 
BRANCH   2   3
ATOM      3  C   UNL     1     104.989 -83.408  19.342  1.00  0.00     0.000 C 
BRANCH   3   4
ATOM      4  C   UNL     1     105.566 -82.010  19.052  1.00  0.00     0.000 C 
BRANCH   4   5
ATOM      5  C   UNL     1     106.587 -81.574  20.119  1.00  0.00     0.000 C 
BRANCH   5   6
ATOM      6  C   UNL     1     106.291 -80.186  20.717  1.00  0.00     0.000 C 
BRANCH   6   7
ATOM      7  C   UNL     1     105.430 -79.319  19.783  1.00  0.00     0.000 C 
BRANCH   7   8
ATOM      8  C   UNL     1     105.318 -77.860  20.268  1.00  0.00     0.000 C 
BRANCH   8   9
ATOM      9  C   UNL     1     105.875 -76.815  19.276  1.00  0.00     0.000 C 
BRANCH   9  10
ATOM     10  C   UNL     1     105.965 -75.381  19.831  1.00  0.00     0.000 C 
BRANCH  10  11
ATOM     11  C   UNL     1     104.630 -74.873  20.396  1.00  0.00     0.000 C 
BRANCH  11  12
ATOM     12  C   UNL     1     104.819 -73.541  21.140  1.00  0.00     0.006 C 
BRANCH  12  13
ATOM     13  C   UNL     1     106.299 -73.170  21.304  1.00  0.00     0.053 C 
BRANCH  13  14
ATOM     14  C   UNL     1     106.661 -71.952  20.508  1.00  0.00     0.041 C 
ATOM     15  O   UNL     1     106.313 -71.856  19.302  1.00  0.00    -0.550 OA
ATOM     16  O   UNL     1     107.410 -70.936  21.090  1.00  0.00    -0.550 OA
ENDBRANCH  13  14
ENDBRANCH  12  13
ENDBRANCH  11  12
ENDBRANCH  10  11
ENDBRANCH   9  10
ENDBRANCH   8   9
ENDBRANCH   7   8
ENDBRANCH   6   7
ENDBRANCH   5   6
ENDBRANCH   4   5
ENDBRANCH   3   4
ENDBRANCH   2   3
ENDBRANCH   1   2
BRANCH   1  17
ATOM     17  C   UNL     1     103.886 -83.218  22.159  1.00  0.00     0.000 C 
BRANCH  17  18
ATOM     18  C   UNL     1     104.346 -82.058  23.058  1.00  0.00     0.000 C 
BRANCH  18  19
ATOM     19  C   UNL     1     105.711 -82.326  23.708  1.00  0.00     0.000 C 
BRANCH  19  20
ATOM     20  C   UNL     1     106.400 -83.582  23.149  1.00  0.00     0.000 C 
BRANCH  20  21
ATOM     21  C   UNL     1     107.914 -83.587  23.410  1.00  0.00     0.000 C 
BRANCH  21  22
ATOM     22  C   UNL     1     108.417 -82.255  23.992  1.00  0.00    -0.000 C 
BRANCH  22  23
ATOM     23  C   UNL     1     109.925 -82.043  23.774  1.00  0.00    -0.000 C 
BRANCH  23  24
ATOM     24  C   UNL     1     110.308 -80.567  23.531  1.00  0.00    -0.000 C 
BRANCH  24  25
ATOM     25  C   UNL     1     109.257 -79.831  22.687  1.00  0.00    -0.000 C 
BRANCH  25  26
ATOM     26  C   UNL     1     109.842 -79.382  21.343  1.00  0.00    -0.000 C 
BRANCH  26  27
ATOM     27  C   UNL     1     109.324 -77.989  20.958  1.00  0.00    -0.000 C 
BRANCH  27  28
ATOM     28  C   UNL     1     109.856 -76.877  21.880  1.00  0.00    -0.000 C 
BRANCH  28  29
ATOM     29  C   UNL     1     108.822 -75.796  22.245  1.00  0.00    -0.003 C 
ATOM     30  C   UNL     1     107.603 -76.361  22.973  1.00  0.00     0.004 C 
ENDBRANCH  28  29
ENDBRANCH  27  28
ENDBRANCH  26  27
ENDBRANCH  25  26
ENDBRANCH  24  25
ENDBRANCH  23  24
ENDBRANCH  22  23
ENDBRANCH  21  22
ENDBRANCH  20  21
ENDBRANCH  19  20
ENDBRANCH  18  19
ENDBRANCH  17  18
ENDBRANCH   1  17
TORSDOF 26
ENDMDL
