MODEL 1
REMARK VINA RESULT:    -4.525      0.000      0.000
REMARK INTER + INTRA:          -7.975
REMARK INTER:                  -6.906
REMARK INTRA:                  -1.069
REMARK UNBOUND:                -1.069
REMARK SMILES CCCCCCCCCCC(=O)[O-]
REMARK SMILES IDX 7 1 8 2 9 3 10 4 11 5 12 6 13 7 6 8 5 9 4 10 3 11 2 12 1 13
REMARK H PARENT
REMARK Flexibility Score: inf
ROOT
ATOM      1  C   UNL     1     -12.532 -28.364 -32.755  1.00  0.00     0.000 C 
ENDROOT
BRANCH   1   2
ATOM      2  C   UNL     1     -13.632 -27.649 -33.561  1.00  0.00     0.000 C 
BRANCH   2   3
ATOM      3  C   UNL     1     -13.492 -27.756 -35.093  1.00  0.00     0.006 C 
BRANCH   3   4
ATOM      4  C   UNL     1     -13.632 -26.423 -35.842  1.00  0.00     0.053 C 
BRANCH   4   5
ATOM      5  C   UNL     1     -12.447 -25.531 -35.623  1.00  0.00     0.041 C 
ATOM      6  O   UNL     1     -12.602 -24.286 -35.519  1.00  0.00    -0.550 OA
ATOM      7  O   UNL     1     -11.178 -26.081 -35.500  1.00  0.00    -0.550 OA
ENDBRANCH   4   5
ENDBRANCH   3   4
ENDBRANCH   2   3
ENDBRANCH   1   2
BRANCH   1   8
ATOM      8  C   UNL     1     -12.949 -28.663 -31.307  1.00  0.00     0.000 C 
BRANCH   8   9
ATOM      9  C   UNL     1     -12.056 -27.913 -30.313  1.00  0.00    -0.000 C 
BRANCH   9  10
ATOM     10  C   UNL     1     -10.714 -27.534 -30.957  1.00  0.00    -0.000 C 
BRANCH  10  11
ATOM     11  C   UNL     1     -10.407 -26.027 -30.863  1.00  0.00    -0.000 C 
BRANCH  11  12
ATOM     12  C   UNL     1     -10.763 -25.216 -32.121  1.00  0.00    -0.003 C 
ATOM     13  C   UNL     1     -12.150 -24.577 -32.048  1.00  0.00     0.004 C 
ENDBRANCH  11  12
ENDBRANCH  10  11
ENDBRANCH   9  10
ENDBRANCH   8   9
ENDBRANCH   1   8
TORSDOF 9
ENDMDL
MODEL 2
REMARK VINA RESULT:    -4.482      0.688      1.383
REMARK INTER + INTRA:          -7.910
REMARK INTER:                  -6.736
REMARK INTRA:                  -1.173
REMARK UNBOUND:                -1.069
REMARK SMILES CCCCCCCCCCC(=O)[O-]
REMARK SMILES IDX 7 1 8 2 9 3 10 4 11 5 12 6 13 7 6 8 5 9 4 10 3 11 2 12 1 13
REMARK H PARENT
REMARK Flexibility Score: inf
ROOT
ATOM      1  C   UNL     1     -12.983 -28.696 -31.360  1.00  0.00     0.000 C 
ENDROOT
BRANCH   1   2
ATOM      2  C   UNL     1     -12.650 -28.327 -32.818  1.00  0.00     0.000 C 
BRANCH   2   3
ATOM      3  C   UNL     1     -13.729 -27.498 -33.544  1.00  0.00     0.006 C 
BRANCH   3   4
ATOM      4  C   UNL     1     -13.608 -27.495 -35.075  1.00  0.00     0.053 C 
BRANCH   4   5
ATOM      5  C   UNL     1     -12.859 -26.297 -35.575  1.00  0.00     0.041 C 
ATOM      6  O   UNL     1     -13.449 -25.421 -36.259  1.00  0.00    -0.550 OA
ATOM      7  O   UNL     1     -11.517 -26.135 -35.256  1.00  0.00    -0.550 OA
ENDBRANCH   4   5
ENDBRANCH   3   4
ENDBRANCH   2   3
ENDBRANCH   1   2
BRANCH   1   8
ATOM      8  C   UNL     1     -11.898 -28.252 -30.368  1.00  0.00     0.000 C 
BRANCH   8   9
ATOM      9  C   UNL     1     -10.685 -27.671 -31.104  1.00  0.00    -0.000 C 
BRANCH   9  10
ATOM     10  C   UNL     1     -10.477 -26.193 -30.738  1.00  0.00    -0.000 C 
BRANCH  10  11
ATOM     11  C   UNL     1     -10.682 -25.245 -31.934  1.00  0.00    -0.000 C 
BRANCH  11  12
ATOM     12  C   UNL     1     -12.080 -24.607 -32.020  1.00  0.00    -0.003 C 
ATOM     13  C   UNL     1     -12.850 -24.672 -30.702  1.00  0.00     0.004 C 
ENDBRANCH  11  12
ENDBRANCH  10  11
ENDBRANCH   9  10
ENDBRANCH   8   9
ENDBRANCH   1   8
TORSDOF 9
ENDMDL
MODEL 3
REMARK VINA RESULT:    -4.342      1.451      3.938
REMARK INTER + INTRA:          -7.696
REMARK INTER:                  -6.693
REMARK INTRA:                  -1.002
REMARK UNBOUND:                -1.069
REMARK SMILES CCCCCCCCCCC(=O)[O-]
REMARK SMILES IDX 7 1 8 2 9 3 10 4 11 5 12 6 13 7 6 8 5 9 4 10 3 11 2 12 1 13
REMARK H PARENT
REMARK Flexibility Score: inf
ROOT
ATOM      1  C   UNL     1     -12.077 -27.898 -30.324  1.00  0.00     0.000 C 
ENDROOT
BRANCH   1   2
ATOM      2  C   UNL     1     -10.758 -27.465 -30.989  1.00  0.00     0.000 C 
BRANCH   2   3
ATOM      3  C   UNL     1     -10.485 -25.947 -30.971  1.00  0.00     0.006 C 
BRANCH   3   4
ATOM      4  C   UNL     1     -10.827 -25.222 -32.280  1.00  0.00     0.053 C 
BRANCH   4   5
ATOM      5  C   UNL     1     -12.088 -24.421 -32.164  1.00  0.00     0.041 C 
ATOM      6  O   UNL     1     -12.869 -24.605 -31.194  1.00  0.00    -0.550 OA
ATOM      7  O   UNL     1     -12.382 -23.447 -33.110  1.00  0.00    -0.550 OA
ENDBRANCH   4   5
ENDBRANCH   3   4
ENDBRANCH   2   3
ENDBRANCH   1   2
BRANCH   1   8
ATOM      8  C   UNL     1     -13.008 -28.659 -31.279  1.00  0.00     0.000 C 
BRANCH   8   9
ATOM      9  C   UNL     1     -12.591 -28.445 -32.739  1.00  0.00    -0.000 C 
BRANCH   9  10
ATOM     10  C   UNL     1     -13.603 -27.553 -33.474  1.00  0.00    -0.000 C 
BRANCH  10  11
ATOM     11  C   UNL     1     -13.310 -27.427 -34.980  1.00  0.00    -0.000 C 
BRANCH  11  12
ATOM     12  C   UNL     1     -12.474 -26.197 -35.375  1.00  0.00    -0.003 C 
ATOM     13  C   UNL     1     -13.217 -25.244 -36.311  1.00  0.00     0.004 C 
ENDBRANCH  11  12
ENDBRANCH  10  11
ENDBRANCH   9  10
ENDBRANCH   8   9
ENDBRANCH   1   8
TORSDOF 9
ENDMDL
MODEL 4
REMARK VINA RESULT:    -4.278      1.292      3.364
REMARK INTER + INTRA:          -7.598
REMARK INTER:                  -6.550
REMARK INTRA:                  -1.047
REMARK UNBOUND:                -1.069
REMARK SMILES CCCCCCCCCCC(=O)[O-]
REMARK SMILES IDX 7 1 8 2 9 3 10 4 11 5 12 6 13 7 6 8 5 9 4 10 3 11 2 12 1 13
REMARK H PARENT
REMARK Flexibility Score: inf
ROOT
ATOM      1  C   UNL     1     -10.670 -25.440 -32.004  1.00  0.00     0.000 C 
ENDROOT
BRANCH   1   2
ATOM      2  C   UNL     1     -11.750 -24.353 -31.848  1.00  0.00     0.000 C 
BRANCH   2   3
ATOM      3  C   UNL     1     -12.254 -23.740 -33.171  1.00  0.00     0.006 C 
BRANCH   3   4
ATOM      4  C   UNL     1     -12.207 -24.692 -34.375  1.00  0.00     0.053 C 
BRANCH   4   5
ATOM      5  C   UNL     1     -12.712 -24.039 -35.625  1.00  0.00     0.041 C 
ATOM      6  O   UNL     1     -12.621 -22.793 -35.771  1.00  0.00    -0.550 OA
ATOM      7  O   UNL     1     -13.254 -24.815 -36.643  1.00  0.00    -0.550 OA
ENDBRANCH   4   5
ENDBRANCH   3   4
ENDBRANCH   2   3
ENDBRANCH   1   2
BRANCH   1   8
ATOM      8  C   UNL     1     -11.005 -26.731 -31.244  1.00  0.00     0.000 C 
BRANCH   8   9
ATOM      9  C   UNL     1     -12.513 -27.009 -31.273  1.00  0.00    -0.000 C 
BRANCH   9  10
ATOM     10  C   UNL     1     -12.840 -28.175 -32.218  1.00  0.00    -0.000 C 
BRANCH  10  11
ATOM     11  C   UNL     1     -13.660 -27.739 -33.446  1.00  0.00    -0.000 C 
BRANCH  11  12
ATOM     12  C   UNL     1     -13.021 -28.082 -34.804  1.00  0.00    -0.003 C 
ATOM     13  C   UNL     1     -11.493 -28.101 -34.758  1.00  0.00     0.004 C 
ENDBRANCH  11  12
ENDBRANCH  10  11
ENDBRANCH   9  10
ENDBRANCH   8   9
ENDBRANCH   1   8
TORSDOF 9
ENDMDL
MODEL 5
REMARK VINA RESULT:    -4.161      2.343      4.380
REMARK INTER + INTRA:          -7.419
REMARK INTER:                  -6.512
REMARK INTRA:                  -0.907
REMARK UNBOUND:                -1.069
REMARK SMILES CCCCCCCCCCC(=O)[O-]
REMARK SMILES IDX 7 1 8 2 9 3 10 4 11 5 12 6 13 7 6 8 5 9 4 10 3 11 2 12 1 13
REMARK H PARENT
REMARK Flexibility Score: inf
ROOT
ATOM      1  C   UNL     1     -11.864 -28.109 -33.650  1.00  0.00     0.000 C 
ENDROOT
BRANCH   1   2
ATOM      2  C   UNL     1     -13.075 -27.772 -32.760  1.00  0.00     0.000 C 
BRANCH   2   3
ATOM      3  C   UNL     1     -12.828 -26.664 -31.716  1.00  0.00     0.006 C 
BRANCH   3   4
ATOM      4  C   UNL     1     -11.695 -25.692 -32.072  1.00  0.00     0.053 C 
BRANCH   4   5
ATOM      5  C   UNL     1     -10.493 -25.887 -31.198  1.00  0.00     0.041 C 
ATOM      6  O   UNL     1      -9.659 -24.957 -31.050  1.00  0.00    -0.550 OA
ATOM      7  O   UNL     1     -10.316 -27.087 -30.520  1.00  0.00    -0.550 OA
ENDBRANCH   4   5
ENDBRANCH   3   4
ENDBRANCH   2   3
ENDBRANCH   1   2
BRANCH   1   8
ATOM      8  C   UNL     1     -12.154 -27.932 -35.148  1.00  0.00     0.000 C 
BRANCH   8   9
ATOM      9  C   UNL     1     -13.600 -27.477 -35.377  1.00  0.00    -0.000 C 
BRANCH   9  10
ATOM     10  C   UNL     1     -13.642 -26.076 -36.006  1.00  0.00    -0.000 C 
BRANCH  10  11
ATOM     11  C   UNL     1     -12.466 -25.185 -35.566  1.00  0.00    -0.000 C 
BRANCH  11  12
ATOM     12  C   UNL     1     -12.669 -23.680 -35.810  1.00  0.00    -0.003 C 
ATOM     13  C   UNL     1     -12.731 -22.867 -34.517  1.00  0.00     0.004 C 
ENDBRANCH  11  12
ENDBRANCH  10  11
ENDBRANCH   9  10
ENDBRANCH   8   9
ENDBRANCH   1   8
TORSDOF 9
ENDMDL
MODEL 6
REMARK VINA RESULT:    -4.097      2.545      4.551
REMARK INTER + INTRA:          -7.321
REMARK INTER:                  -6.548
REMARK INTRA:                  -0.773
REMARK UNBOUND:                -1.069
REMARK SMILES CCCCCCCCCCC(=O)[O-]
REMARK SMILES IDX 7 1 8 2 9 3 10 4 11 5 12 6 13 7 6 8 5 9 4 10 3 11 2 12 1 13
REMARK H PARENT
REMARK Flexibility Score: inf
ROOT
ATOM      1  C   UNL     1     -11.599 -26.931 -35.077  1.00  0.00     0.000 C 
ENDROOT
BRANCH   1   2
ATOM      2  C   UNL     1     -13.044 -27.461 -35.106  1.00  0.00     0.000 C 
BRANCH   2   3
ATOM      3  C   UNL     1     -13.617 -27.870 -33.733  1.00  0.00     0.006 C 
BRANCH   3   4
ATOM      4  C   UNL     1     -12.994 -27.137 -32.537  1.00  0.00     0.053 C 
BRANCH   4   5
ATOM      5  C   UNL     1     -12.385 -28.088 -31.552  1.00  0.00     0.041 C 
ATOM      6  O   UNL     1     -13.087 -28.991 -31.027  1.00  0.00    -0.550 OA
ATOM      7  O   UNL     1     -11.034 -27.996 -31.241  1.00  0.00    -0.550 OA
ENDBRANCH   4   5
ENDBRANCH   3   4
ENDBRANCH   2   3
ENDBRANCH   1   2
BRANCH   1   8
ATOM      8  C   UNL     1     -11.434 -25.599 -35.824  1.00  0.00     0.000 C 
BRANCH   8   9
ATOM      9  C   UNL     1     -12.756 -24.823 -35.859  1.00  0.00    -0.000 C 
BRANCH   9  10
ATOM     10  C   UNL     1     -12.507 -23.310 -35.760  1.00  0.00    -0.000 C 
BRANCH  10  11
ATOM     11  C   UNL     1     -12.870 -22.731 -34.381  1.00  0.00    -0.000 C 
BRANCH  11  12
ATOM     12  C   UNL     1     -12.287 -23.502 -33.183  1.00  0.00    -0.003 C 
ATOM     13  C   UNL     1     -11.554 -22.599 -32.190  1.00  0.00     0.004 C 
ENDBRANCH  11  12
ENDBRANCH  10  11
ENDBRANCH   9  10
ENDBRANCH   8   9
ENDBRANCH   1   8
TORSDOF 9
ENDMDL
MODEL 7
REMARK VINA RESULT:    -4.010      2.293      3.623
REMARK INTER + INTRA:          -7.188
REMARK INTER:                  -6.145
REMARK INTRA:                  -1.043
REMARK UNBOUND:                -1.069
REMARK SMILES CCCCCCCCCCC(=O)[O-]
REMARK SMILES IDX 7 1 8 2 9 3 10 4 11 5 12 6 13 7 6 8 5 9 4 10 3 11 2 12 1 13
REMARK H PARENT
REMARK Flexibility Score: inf
ROOT
ATOM      1  C   UNL     1     -11.349 -26.004 -35.479  1.00  0.00     0.000 C 
ENDROOT
BRANCH   1   2
ATOM      2  C   UNL     1     -12.676 -25.223 -35.517  1.00  0.00     0.000 C 
BRANCH   2   3
ATOM      3  C   UNL     1     -12.548 -23.734 -35.896  1.00  0.00     0.006 C 
BRANCH   3   4
ATOM      4  C   UNL     1     -12.897 -22.755 -34.765  1.00  0.00     0.053 C 
BRANCH   4   5
ATOM      5  C   UNL     1     -12.213 -21.433 -34.938  1.00  0.00     0.041 C 
ATOM      6  O   UNL     1     -12.255 -20.838 -36.046  1.00  0.00    -0.550 OA
ATOM      7  O   UNL     1     -11.560 -20.844 -33.863  1.00  0.00    -0.550 OA
ENDBRANCH   4   5
ENDBRANCH   3   4
ENDBRANCH   2   3
ENDBRANCH   1   2
BRANCH   1   8
ATOM      8  C   UNL     1     -11.516 -27.446 -34.981  1.00  0.00     0.000 C 
BRANCH   8   9
ATOM      9  C   UNL     1     -12.888 -27.645 -34.325  1.00  0.00    -0.000 C 
BRANCH   9  10
ATOM     10  C   UNL     1     -12.746 -28.289 -32.938  1.00  0.00    -0.000 C 
BRANCH  10  11
ATOM     11  C   UNL     1     -12.107 -27.347 -31.901  1.00  0.00    -0.000 C 
BRANCH  11  12
ATOM     12  C   UNL     1     -12.704 -25.929 -31.862  1.00  0.00    -0.003 C 
ATOM     13  C   UNL     1     -11.643 -24.831 -31.931  1.00  0.00     0.004 C 
ENDBRANCH  11  12
ENDBRANCH  10  11
ENDBRANCH   9  10
ENDBRANCH   8   9
ENDBRANCH   1   8
TORSDOF 9
ENDMDL
MODEL 8
REMARK VINA RESULT:    -4.002      2.977      4.922
REMARK INTER + INTRA:          -7.177
REMARK INTER:                  -6.742
REMARK INTRA:                  -0.435
REMARK UNBOUND:                -1.069
REMARK SMILES CCCCCCCCCCC(=O)[O-]
REMARK SMILES IDX 7 1 8 2 9 3 10 4 11 5 12 6 13 7 6 8 5 9 4 10 3 11 2 12 1 13
REMARK H PARENT
REMARK Flexibility Score: inf
ROOT
ATOM      1  C   UNL     1     -12.531 -25.209 -35.359  1.00  0.00     0.000 C 
ENDROOT
BRANCH   1   2
ATOM      2  C   UNL     1     -12.574 -23.762 -35.883  1.00  0.00     0.000 C 
BRANCH   2   3
ATOM      3  C   UNL     1     -12.872 -22.690 -34.815  1.00  0.00     0.006 C 
BRANCH   3   4
ATOM      4  C   UNL     1     -12.987 -21.259 -35.362  1.00  0.00     0.053 C 
BRANCH   4   5
ATOM      5  C   UNL     1     -13.233 -20.261 -34.272  1.00  0.00     0.041 C 
ATOM      6  O   UNL     1     -14.270 -19.549 -34.287  1.00  0.00    -0.550 OA
ATOM      7  O   UNL     1     -12.330 -20.142 -33.223  1.00  0.00    -0.550 OA
ENDBRANCH   4   5
ENDBRANCH   3   4
ENDBRANCH   2   3
ENDBRANCH   1   2
BRANCH   1   8
ATOM      8  C   UNL     1     -13.637 -26.095 -35.952  1.00  0.00     0.000 C 
BRANCH   8   9
ATOM      9  C   UNL     1     -13.543 -27.526 -35.411  1.00  0.00    -0.000 C 
BRANCH   9  10
ATOM     10  C   UNL     1     -12.126 -27.828 -34.899  1.00  0.00    -0.000 C 
BRANCH  10  11
ATOM     11  C   UNL     1     -12.121 -28.595 -33.564  1.00  0.00    -0.000 C 
BRANCH  11  12
ATOM     12  C   UNL     1     -13.080 -28.040 -32.496  1.00  0.00    -0.003 C 
ATOM     13  C   UNL     1     -13.019 -28.811 -31.178  1.00  0.00     0.004 C 
ENDBRANCH  11  12
ENDBRANCH  10  11
ENDBRANCH   9  10
ENDBRANCH   8   9
ENDBRANCH   1   8
TORSDOF 9
ENDMDL
MODEL 9
REMARK VINA RESULT:    -3.961      2.363      4.175
REMARK INTER + INTRA:          -7.114
REMARK INTER:                  -6.320
REMARK INTRA:                  -0.794
REMARK UNBOUND:                -1.069
REMARK SMILES CCCCCCCCCCC(=O)[O-]
REMARK SMILES IDX 7 1 8 2 9 3 10 4 11 5 12 6 13 7 6 8 5 9 4 10 3 11 2 12 1 13
REMARK H PARENT
REMARK Flexibility Score: inf
ROOT
ATOM      1  C   UNL     1     -11.176 -25.707 -32.541  1.00  0.00     0.000 C 
ENDROOT
BRANCH   1   2
ATOM      2  C   UNL     1     -11.908 -26.851 -31.816  1.00  0.00     0.000 C 
BRANCH   2   3
ATOM      3  C   UNL     1     -12.482 -27.946 -32.737  1.00  0.00     0.006 C 
BRANCH   3   4
ATOM      4  C   UNL     1     -13.779 -27.556 -33.461  1.00  0.00     0.053 C 
BRANCH   4   5
ATOM      5  C   UNL     1     -13.645 -27.667 -34.950  1.00  0.00     0.041 C 
ATOM      6  O   UNL     1     -12.507 -27.776 -35.477  1.00  0.00    -0.550 OA
ATOM      7  O   UNL     1     -14.780 -27.683 -35.750  1.00  0.00    -0.550 OA
ENDBRANCH   4   5
ENDBRANCH   3   4
ENDBRANCH   2   3
ENDBRANCH   1   2
BRANCH   1   8
ATOM      8  C   UNL     1     -11.512 -24.322 -31.969  1.00  0.00     0.000 C 
BRANCH   8   9
ATOM      9  C   UNL     1     -12.269 -23.473 -32.997  1.00  0.00    -0.000 C 
BRANCH   9  10
ATOM     10  C   UNL     1     -12.361 -24.197 -34.348  1.00  0.00    -0.000 C 
BRANCH  10  11
ATOM     11  C   UNL     1     -12.637 -23.242 -35.524  1.00  0.00    -0.000 C 
BRANCH  11  12
ATOM     12  C   UNL     1     -13.020 -21.809 -35.115  1.00  0.00    -0.003 C 
ATOM     13  C   UNL     1     -12.235 -20.740 -35.875  1.00  0.00     0.004 C 
ENDBRANCH  11  12
ENDBRANCH  10  11
ENDBRANCH   9  10
ENDBRANCH   8   9
ENDBRANCH   1   8
TORSDOF 9
ENDMDL
