MODEL 1
REMARK VINA RESULT:    24.094      0.000      0.000
REMARK INTER + INTRA:          28.034
REMARK INTER:                  28.319
REMARK INTRA:                  -0.286
REMARK UNBOUND:                -0.286
REMARK SMILES O=c1c(O)c(-c2ccc(O)cc2)oc2cc(O)cc(O)c12
REMARK SMILES IDX 5 1 3 2 2 3 1 4 21 5 19 6 18 7 16 8 15 9 14 10 13 11 6 12
REMARK SMILES IDX 7 13 8 14 9 15 12 16 11 17 10 18 4 20 20 22 17 24
REMARK H PARENT 10 19 4 21 20 23 17 25
REMARK Flexibility Score: inf
ROOT
ATOM      1  C   UNL     1      11.749  -3.183   9.206  1.00  0.00     0.180 A 
ATOM      2  C   UNL     1      10.369  -3.453   9.166  1.00  0.00     0.208 A 
ATOM      3  C   UNL     1       9.769  -3.751   7.933  1.00  0.00     0.238 A 
ATOM      4  O   UNL     1       8.546  -4.046   7.913  1.00  0.00    -0.285 OA
ATOM      5  C   UNL     1      10.550  -3.759   6.753  1.00  0.00     0.111 A 
ATOM      6  C   UNL     1      10.037  -4.008   5.444  1.00  0.00     0.134 A 
ATOM      7  C   UNL     1      10.924  -4.120   4.365  1.00  0.00     0.093 A 
ATOM      8  C   UNL     1      12.295  -3.928   4.536  1.00  0.00     0.123 A 
ATOM      9  C   UNL     1      12.799  -3.626   5.801  1.00  0.00     0.094 A 
ATOM     10  C   UNL     1      11.945  -3.543   6.903  1.00  0.00     0.146 A 
ATOM     11  O   UNL     1      12.467  -3.263   8.092  1.00  0.00    -0.452 OA
ENDROOT
BRANCH   1  12
ATOM     12  C   UNL     1      12.448  -2.837  10.464  1.00  0.00     0.021 A 
ATOM     13  C   UNL     1      12.664  -1.498  10.839  1.00  0.00     0.016 A 
ATOM     14  C   UNL     1      13.349  -1.195  12.020  1.00  0.00     0.047 A 
ATOM     15  C   UNL     1      13.839  -2.224  12.833  1.00  0.00     0.115 A 
ATOM     16  C   UNL     1      12.962  -3.862  11.275  1.00  0.00     0.016 A 
ATOM     17  C   UNL     1      13.646  -3.556  12.455  1.00  0.00     0.047 A 
BRANCH  15  18
ATOM     18  O   UNL     1      14.521  -1.935  14.011  1.00  0.00    -0.508 OA
ATOM     19  H   UNL     1      14.484  -2.557  14.811  1.00  0.00     0.293 HD
ENDBRANCH  15  18
ENDBRANCH   1  12
BRANCH   2  20
ATOM     20  O   UNL     1       9.622  -3.462  10.347  1.00  0.00    -0.502 OA
ATOM     21  H   UNL     1       9.780  -2.797  11.095  1.00  0.00     0.293 HD
ENDBRANCH   2  20
BRANCH   6  22
ATOM     22  O   UNL     1       8.677  -4.125   5.148  1.00  0.00    -0.507 OA
ATOM     23  H   UNL     1       8.127  -3.419   4.682  1.00  0.00     0.293 HD
ENDBRANCH   6  22
BRANCH   8  24
ATOM     24  O   UNL     1      13.145  -4.033   3.438  1.00  0.00    -0.508 OA
ATOM     25  H   UNL     1      13.058  -3.413   2.641  1.00  0.00     0.293 HD
ENDBRANCH   8  24
TORSDOF 5
ENDMDL
MODEL 2
REMARK VINA RESULT:    24.785     10.070     13.192
REMARK INTER + INTRA:          28.846
REMARK INTER:                  28.613
REMARK INTRA:                   0.234
REMARK UNBOUND:                -0.286
REMARK SMILES O=c1c(O)c(-c2ccc(O)cc2)oc2cc(O)cc(O)c12
REMARK SMILES IDX 5 1 3 2 2 3 1 4 21 5 19 6 18 7 16 8 15 9 14 10 13 11 6 12
REMARK SMILES IDX 7 13 8 14 9 15 12 16 11 17 10 18 4 20 20 22 17 24
REMARK H PARENT 10 19 4 21 20 23 17 25
REMARK Flexibility Score: inf
ROOT
ATOM      1  C   UNL     1       2.421  -1.615   0.865  1.00  0.00     0.180 A 
ATOM      2  C   UNL     1       1.494  -1.140   1.810  1.00  0.00     0.208 A 
ATOM      3  C   UNL     1       0.122  -1.311   1.563  1.00  0.00     0.238 A 
ATOM      4  O   UNL     1      -0.700  -0.933   2.438  1.00  0.00    -0.285 OA
ATOM      5  C   UNL     1      -0.306  -1.938   0.369  1.00  0.00     0.111 A 
ATOM      6  C   UNL     1      -1.672  -2.127  -0.002  1.00  0.00     0.134 A 
ATOM      7  C   UNL     1      -1.979  -2.877  -1.144  1.00  0.00     0.093 A 
ATOM      8  C   UNL     1      -0.972  -3.388  -1.963  1.00  0.00     0.123 A 
ATOM      9  C   UNL     1       0.365  -3.159  -1.641  1.00  0.00     0.094 A 
ATOM     10  C   UNL     1       0.705  -2.445  -0.489  1.00  0.00     0.146 A 
ATOM     11  O   UNL     1       1.990  -2.258  -0.214  1.00  0.00    -0.452 OA
ENDROOT
BRANCH   1  12
ATOM     12  C   UNL     1       3.881  -1.450   1.043  1.00  0.00     0.021 A 
ATOM     13  C   UNL     1       4.728  -1.181  -0.049  1.00  0.00     0.016 A 
ATOM     14  C   UNL     1       6.107  -1.054   0.140  1.00  0.00     0.047 A 
ATOM     15  C   UNL     1       6.660  -1.208   1.417  1.00  0.00     0.115 A 
ATOM     16  C   UNL     1       4.447  -1.624   2.317  1.00  0.00     0.016 A 
ATOM     17  C   UNL     1       5.827  -1.495   2.503  1.00  0.00     0.047 A 
BRANCH  15  18
ATOM     18  O   UNL     1       8.032  -1.082   1.617  1.00  0.00    -0.508 OA
ATOM     19  H   UNL     1       8.649  -0.773   0.875  1.00  0.00     0.293 HD
ENDBRANCH  15  18
ENDBRANCH   1  12
BRANCH   2  20
ATOM     20  O   UNL     1       1.940  -0.544   2.992  1.00  0.00    -0.502 OA
ATOM     21  H   UNL     1       2.557   0.259   2.997  1.00  0.00     0.293 HD
ENDBRANCH   2  20
BRANCH   6  22
ATOM     22  O   UNL     1      -2.753  -1.580   0.695  1.00  0.00    -0.507 OA
ATOM     23  H   UNL     1      -2.700  -0.770   1.293  1.00  0.00     0.293 HD
ENDBRANCH   6  22
BRANCH   8  24
ATOM     24  O   UNL     1      -1.316  -4.117  -3.100  1.00  0.00    -0.508 OA
ATOM     25  H   UNL     1      -1.337  -3.687  -4.017  1.00  0.00     0.293 HD
ENDBRANCH   8  24
TORSDOF 5
ENDMDL
