MODEL 1
REMARK VINA RESULT:     3.999      0.000      0.000
REMARK INTER + INTRA:           9.461
REMARK INTER:                  10.076
REMARK INTRA:                  -0.615
REMARK UNBOUND:                -0.615
REMARK SMILES CCCCCCCCCCCCCCCCCCCCCCCCCCCC(=O)[O-]
REMARK SMILES IDX 15 1 16 2 17 3 18 4 19 5 20 6 21 7 22 8 23 9 24 10 25 11
REMARK SMILES IDX 26 12 27 13 28 14 29 15 30 16 14 17 13 18 12 19 11 20 10 21
REMARK SMILES IDX 9 22 8 23 7 24 6 25 5 26 4 27 3 28 2 29 1 30
REMARK H PARENT
REMARK Flexibility Score: inf
ROOT
ATOM      1  C   UNL     1       5.191 -38.113  19.208  1.00  0.00     0.000 C 
ENDROOT
BRANCH   1   2
ATOM      2  C   UNL     1       5.598 -38.245  20.683  1.00  0.00     0.000 C 
BRANCH   2   3
ATOM      3  C   UNL     1       6.115 -36.927  21.283  1.00  0.00     0.000 C 
BRANCH   3   4
ATOM      4  C   UNL     1       5.628 -35.649  20.566  1.00  0.00     0.000 C 
BRANCH   4   5
ATOM      5  C   UNL     1       4.173 -35.244  20.866  1.00  0.00     0.000 C 
BRANCH   5   6
ATOM      6  C   UNL     1       3.796 -35.222  22.360  1.00  0.00     0.000 C 
BRANCH   6   7
ATOM      7  C   UNL     1       4.410 -34.042  23.144  1.00  0.00     0.000 C 
BRANCH   7   8
ATOM      8  C   UNL     1       5.857 -34.317  23.591  1.00  0.00     0.000 C 
BRANCH   8   9
ATOM      9  C   UNL     1       5.952 -35.437  24.640  1.00  0.00     0.000 C 
BRANCH   9  10
ATOM     10  C   UNL     1       6.122 -36.827  24.009  1.00  0.00     0.000 C 
BRANCH  10  11
ATOM     11  C   UNL     1       5.207 -37.855  24.692  1.00  0.00     0.000 C 
BRANCH  11  12
ATOM     12  C   UNL     1       4.039 -37.201  25.454  1.00  0.00     0.006 C 
BRANCH  12  13
ATOM     13  C   UNL     1       3.558 -37.994  26.680  1.00  0.00     0.053 C 
BRANCH  13  14
ATOM     14  C   UNL     1       2.272 -37.456  27.231  1.00  0.00     0.041 C 
ATOM     15  O   UNL     1       2.247 -36.329  27.793  1.00  0.00    -0.550 OA
ATOM     16  O   UNL     1       1.096 -38.183  27.092  1.00  0.00    -0.550 OA
ENDBRANCH  13  14
ENDBRANCH  12  13
ENDBRANCH  11  12
ENDBRANCH  10  11
ENDBRANCH   9  10
ENDBRANCH   8   9
ENDBRANCH   7   8
ENDBRANCH   6   7
ENDBRANCH   5   6
ENDBRANCH   4   5
ENDBRANCH   3   4
ENDBRANCH   2   3
ENDBRANCH   1   2
BRANCH   1  17
ATOM     17  C   UNL     1       3.768 -37.547  19.083  1.00  0.00     0.000 C 
BRANCH  17  18
ATOM     18  C   UNL     1       2.805 -38.093  20.154  1.00  0.00     0.000 C 
BRANCH  18  19
ATOM     19  C   UNL     1       1.329 -38.180  19.725  1.00  0.00     0.000 C 
BRANCH  19  20
ATOM     20  C   UNL     1       1.147 -38.201  18.199  1.00  0.00     0.000 C 
BRANCH  20  21
ATOM     21  C   UNL     1       0.426 -36.950  17.669  1.00  0.00     0.000 C 
BRANCH  21  22
ATOM     22  C   UNL     1       1.000 -36.427  16.335  1.00  0.00    -0.000 C 
BRANCH  22  23
ATOM     23  C   UNL     1       2.170 -37.290  15.831  1.00  0.00    -0.000 C 
BRANCH  23  24
ATOM     24  C   UNL     1       3.417 -36.460  15.483  1.00  0.00    -0.000 C 
BRANCH  24  25
ATOM     25  C   UNL     1       4.650 -37.335  15.199  1.00  0.00    -0.000 C 
BRANCH  25  26
ATOM     26  C   UNL     1       4.537 -38.113  13.879  1.00  0.00    -0.000 C 
BRANCH  26  27
ATOM     27  C   UNL     1       4.404 -39.632  14.088  1.00  0.00    -0.000 C 
BRANCH  27  28
ATOM     28  C   UNL     1       5.762 -40.351  14.031  1.00  0.00    -0.000 C 
BRANCH  28  29
ATOM     29  C   UNL     1       5.631 -41.871  14.205  1.00  0.00    -0.003 C 
ATOM     30  C   UNL     1       6.101 -42.308  15.590  1.00  0.00     0.004 C 
ENDBRANCH  28  29
ENDBRANCH  27  28
ENDBRANCH  26  27
ENDBRANCH  25  26
ENDBRANCH  24  25
ENDBRANCH  23  24
ENDBRANCH  22  23
ENDBRANCH  21  22
ENDBRANCH  20  21
ENDBRANCH  19  20
ENDBRANCH  18  19
ENDBRANCH  17  18
ENDBRANCH   1  17
TORSDOF 26
ENDMDL
MODEL 2
REMARK VINA RESULT:     4.941      2.431      4.479
REMARK INTER + INTRA:          11.836
REMARK INTER:                  13.538
REMARK INTRA:                  -1.702
REMARK UNBOUND:                -0.615
REMARK SMILES CCCCCCCCCCCCCCCCCCCCCCCCCCCC(=O)[O-]
REMARK SMILES IDX 15 1 16 2 17 3 18 4 19 5 20 6 21 7 22 8 23 9 24 10 25 11
REMARK SMILES IDX 26 12 27 13 28 14 29 15 30 16 14 17 13 18 12 19 11 20 10 21
REMARK SMILES IDX 9 22 8 23 7 24 6 25 5 26 4 27 3 28 2 29 1 30
REMARK H PARENT
REMARK Flexibility Score: inf
ROOT
ATOM      1  C   UNL     1       5.414 -35.506  19.747  1.00  0.00     0.000 C 
ENDROOT
BRANCH   1   2
ATOM      2  C   UNL     1       4.068 -35.136  20.387  1.00  0.00     0.000 C 
BRANCH   2   3
ATOM      3  C   UNL     1       4.181 -34.842  21.893  1.00  0.00     0.000 C 
BRANCH   3   4
ATOM      4  C   UNL     1       5.540 -35.204  22.528  1.00  0.00     0.000 C 
BRANCH   4   5
ATOM      5  C   UNL     1       5.987 -34.291  23.685  1.00  0.00     0.000 C 
BRANCH   5   6
ATOM      6  C   UNL     1       6.123 -34.989  25.053  1.00  0.00     0.000 C 
BRANCH   6   7
ATOM      7  C   UNL     1       5.761 -36.489  25.029  1.00  0.00     0.000 C 
BRANCH   7   8
ATOM      8  C   UNL     1       5.132 -36.968  26.349  1.00  0.00     0.000 C 
BRANCH   8   9
ATOM      9  C   UNL     1       4.172 -38.152  26.155  1.00  0.00     0.000 C 
BRANCH   9  10
ATOM     10  C   UNL     1       2.695 -37.746  26.284  1.00  0.00     0.000 C 
BRANCH  10  11
ATOM     11  C   UNL     1       2.347 -37.398  27.739  1.00  0.00     0.000 C 
BRANCH  11  12
ATOM     12  C   UNL     1       1.737 -35.992  27.888  1.00  0.00     0.006 C 
BRANCH  12  13
ATOM     13  C   UNL     1       2.432 -35.105  28.933  1.00  0.00     0.053 C 
BRANCH  13  14
ATOM     14  C   UNL     1       1.453 -34.298  29.730  1.00  0.00     0.041 C 
ATOM     15  O   UNL     1       1.853 -33.575  30.680  1.00  0.00    -0.550 OA
ATOM     16  O   UNL     1       0.103 -34.318  29.400  1.00  0.00    -0.550 OA
ENDBRANCH  13  14
ENDBRANCH  12  13
ENDBRANCH  11  12
ENDBRANCH  10  11
ENDBRANCH   9  10
ENDBRANCH   8   9
ENDBRANCH   7   8
ENDBRANCH   6   7
ENDBRANCH   5   6
ENDBRANCH   4   5
ENDBRANCH   3   4
ENDBRANCH   2   3
ENDBRANCH   1   2
BRANCH   1  17
ATOM     17  C   UNL     1       5.505 -34.962  18.314  1.00  0.00     0.000 C 
BRANCH  17  18
ATOM     18  C   UNL     1       4.133 -34.844  17.624  1.00  0.00     0.000 C 
BRANCH  18  19
ATOM     19  C   UNL     1       3.873 -35.866  16.502  1.00  0.00     0.000 C 
BRANCH  19  20
ATOM     20  C   UNL     1       2.459 -35.762  15.910  1.00  0.00     0.000 C 
BRANCH  20  21
ATOM     21  C   UNL     1       1.885 -37.128  15.496  1.00  0.00     0.000 C 
BRANCH  21  22
ATOM     22  C   UNL     1       1.820 -38.145  16.656  1.00  0.00    -0.000 C 
BRANCH  22  23
ATOM     23  C   UNL     1       1.323 -37.502  17.963  1.00  0.00    -0.000 C 
BRANCH  23  24
ATOM     24  C   UNL     1       1.791 -38.259  19.217  1.00  0.00    -0.000 C 
BRANCH  24  25
ATOM     25  C   UNL     1       3.061 -37.653  19.835  1.00  0.00    -0.000 C 
BRANCH  25  26
ATOM     26  C   UNL     1       4.351 -38.259  19.261  1.00  0.00    -0.000 C 
BRANCH  26  27
ATOM     27  C   UNL     1       5.054 -39.211  20.245  1.00  0.00    -0.000 C 
BRANCH  27  28
ATOM     28  C   UNL     1       5.826 -38.454  21.340  1.00  0.00    -0.000 C 
BRANCH  28  29
ATOM     29  C   UNL     1       5.756 -39.158  22.703  1.00  0.00    -0.003 C 
ATOM     30  C   UNL     1       4.461 -39.954  22.843  1.00  0.00     0.004 C 
ENDBRANCH  28  29
ENDBRANCH  27  28
ENDBRANCH  26  27
ENDBRANCH  25  26
ENDBRANCH  24  25
ENDBRANCH  23  24
ENDBRANCH  22  23
ENDBRANCH  21  22
ENDBRANCH  20  21
ENDBRANCH  19  20
ENDBRANCH  18  19
ENDBRANCH  17  18
ENDBRANCH   1  17
TORSDOF 26
ENDMDL
MODEL 3
REMARK VINA RESULT:     5.102      3.639     10.087
REMARK INTER + INTRA:          12.241
REMARK INTER:                  10.651
REMARK INTRA:                   1.590
REMARK UNBOUND:                -0.615
REMARK SMILES CCCCCCCCCCCCCCCCCCCCCCCCCCCC(=O)[O-]
REMARK SMILES IDX 15 1 16 2 17 3 18 4 19 5 20 6 21 7 22 8 23 9 24 10 25 11
REMARK SMILES IDX 26 12 27 13 28 14 29 15 30 16 14 17 13 18 12 19 11 20 10 21
REMARK SMILES IDX 9 22 8 23 7 24 6 25 5 26 4 27 3 28 2 29 1 30
REMARK H PARENT
REMARK Flexibility Score: inf
ROOT
ATOM      1  C   UNL     1       5.662 -38.838  21.201  1.00  0.00     0.000 C 
ENDROOT
BRANCH   1   2
ATOM      2  C   UNL     1       5.727 -38.279  19.772  1.00  0.00     0.000 C 
BRANCH   2   3
ATOM      3  C   UNL     1       4.678 -37.184  19.508  1.00  0.00     0.000 C 
BRANCH   3   4
ATOM      4  C   UNL     1       3.236 -37.550  19.919  1.00  0.00     0.000 C 
BRANCH   4   5
ATOM      5  C   UNL     1       2.648 -38.787  19.215  1.00  0.00     0.000 C 
BRANCH   5   6
ATOM      6  C   UNL     1       1.182 -38.644  18.759  1.00  0.00     0.000 C 
BRANCH   6   7
ATOM      7  C   UNL     1       0.969 -37.577  17.665  1.00  0.00     0.000 C 
BRANCH   7   8
ATOM      8  C   UNL     1       2.158 -37.477  16.694  1.00  0.00     0.000 C 
BRANCH   8   9
ATOM      9  C   UNL     1       1.955 -36.405  15.613  1.00  0.00     0.000 C 
BRANCH   9  10
ATOM     10  C   UNL     1       3.258 -36.044  14.882  1.00  0.00     0.000 C 
BRANCH  10  11
ATOM     11  C   UNL     1       3.711 -37.194  13.970  1.00  0.00     0.000 C 
BRANCH  11  12
ATOM     12  C   UNL     1       4.281 -38.390  14.755  1.00  0.00     0.006 C 
BRANCH  12  13
ATOM     13  C   UNL     1       4.915 -39.481  13.878  1.00  0.00     0.053 C 
BRANCH  13  14
ATOM     14  C   UNL     1       5.012 -40.795  14.593  1.00  0.00     0.041 C 
ATOM     15  O   UNL     1       4.607 -40.900  15.781  1.00  0.00    -0.550 OA
ATOM     16  O   UNL     1       5.517 -41.910  13.935  1.00  0.00    -0.550 OA
ENDBRANCH  13  14
ENDBRANCH  12  13
ENDBRANCH  11  12
ENDBRANCH  10  11
ENDBRANCH   9  10
ENDBRANCH   8   9
ENDBRANCH   7   8
ENDBRANCH   6   7
ENDBRANCH   5   6
ENDBRANCH   4   5
ENDBRANCH   3   4
ENDBRANCH   2   3
ENDBRANCH   1   2
BRANCH   1  17
ATOM     17  C   UNL     1       5.606 -37.700  22.230  1.00  0.00     0.000 C 
BRANCH  17  18
ATOM     18  C   UNL     1       6.037 -36.339  21.651  1.00  0.00     0.000 C 
BRANCH  18  19
ATOM     19  C   UNL     1       4.951 -35.247  21.661  1.00  0.00     0.000 C 
BRANCH  19  20
ATOM     20  C   UNL     1       4.834 -34.529  23.015  1.00  0.00     0.000 C 
BRANCH  20  21
ATOM     21  C   UNL     1       6.124 -34.619  23.848  1.00  0.00     0.000 C 
BRANCH  21  22
ATOM     22  C   UNL     1       5.870 -34.862  25.351  1.00  0.00    -0.000 C 
BRANCH  22  23
ATOM     23  C   UNL     1       6.093 -36.333  25.746  1.00  0.00    -0.000 C 
BRANCH  23  24
ATOM     24  C   UNL     1       5.398 -37.319  24.793  1.00  0.00    -0.000 C 
BRANCH  24  25
ATOM     25  C   UNL     1       4.237 -38.072  25.465  1.00  0.00    -0.000 C 
BRANCH  25  26
ATOM     26  C   UNL     1       3.830 -37.458  26.814  1.00  0.00    -0.000 C 
BRANCH  26  27
ATOM     27  C   UNL     1       2.305 -37.337  26.980  1.00  0.00    -0.000 C 
BRANCH  27  28
ATOM     28  C   UNL     1       1.913 -36.689  28.318  1.00  0.00    -0.000 C 
BRANCH  28  29
ATOM     29  C   UNL     1       2.272 -35.197  28.377  1.00  0.00    -0.003 C 
ATOM     30  C   UNL     1       1.563 -34.507  29.540  1.00  0.00     0.004 C 
ENDBRANCH  28  29
ENDBRANCH  27  28
ENDBRANCH  26  27
ENDBRANCH  25  26
ENDBRANCH  24  25
ENDBRANCH  23  24
ENDBRANCH  22  23
ENDBRANCH  21  22
ENDBRANCH  20  21
ENDBRANCH  19  20
ENDBRANCH  18  19
ENDBRANCH  17  18
ENDBRANCH   1  17
TORSDOF 26
ENDMDL
MODEL 4
REMARK VINA RESULT:     5.303      1.543      2.964
REMARK INTER + INTRA:          12.748
REMARK INTER:                  11.693
REMARK INTRA:                   1.055
REMARK UNBOUND:                -0.615
REMARK SMILES CCCCCCCCCCCCCCCCCCCCCCCCCCCC(=O)[O-]
REMARK SMILES IDX 15 1 16 2 17 3 18 4 19 5 20 6 21 7 22 8 23 9 24 10 25 11
REMARK SMILES IDX 26 12 27 13 28 14 29 15 30 16 14 17 13 18 12 19 11 20 10 21
REMARK SMILES IDX 9 22 8 23 7 24 6 25 5 26 4 27 3 28 2 29 1 30
REMARK H PARENT
REMARK Flexibility Score: inf
ROOT
ATOM      1  C   UNL     1       2.378 -34.856  22.157  1.00  0.00     0.000 C 
ENDROOT
BRANCH   1   2
ATOM      2  C   UNL     1       3.853 -34.434  22.217  1.00  0.00     0.000 C 
BRANCH   2   3
ATOM      3  C   UNL     1       4.802 -35.609  22.505  1.00  0.00     0.000 C 
BRANCH   3   4
ATOM      4  C   UNL     1       6.123 -35.592  21.707  1.00  0.00     0.000 C 
BRANCH   4   5
ATOM      5  C   UNL     1       5.983 -35.239  20.215  1.00  0.00     0.000 C 
BRANCH   5   6
ATOM      6  C   UNL     1       5.837 -36.447  19.269  1.00  0.00     0.000 C 
BRANCH   6   7
ATOM      7  C   UNL     1       4.455 -37.131  19.334  1.00  0.00     0.000 C 
BRANCH   7   8
ATOM      8  C   UNL     1       4.426 -38.317  20.314  1.00  0.00     0.000 C 
BRANCH   8   9
ATOM      9  C   UNL     1       5.676 -39.204  20.210  1.00  0.00     0.000 C 
BRANCH   9  10
ATOM     10  C   UNL     1       6.074 -39.827  21.557  1.00  0.00     0.000 C 
BRANCH  10  11
ATOM     11  C   UNL     1       5.102 -39.400  22.667  1.00  0.00     0.000 C 
BRANCH  11  12
ATOM     12  C   UNL     1       5.585 -39.807  24.072  1.00  0.00     0.006 C 
BRANCH  12  13
ATOM     13  C   UNL     1       4.721 -39.265  25.222  1.00  0.00     0.053 C 
BRANCH  13  14
ATOM     14  C   UNL     1       4.872 -37.784  25.391  1.00  0.00     0.041 C 
ATOM     15  O   UNL     1       5.730 -37.154  24.717  1.00  0.00    -0.550 OA
ATOM     16  O   UNL     1       4.042 -37.094  26.267  1.00  0.00    -0.550 OA
ENDBRANCH  13  14
ENDBRANCH  12  13
ENDBRANCH  11  12
ENDBRANCH  10  11
ENDBRANCH   9  10
ENDBRANCH   8   9
ENDBRANCH   7   8
ENDBRANCH   6   7
ENDBRANCH   5   6
ENDBRANCH   4   5
ENDBRANCH   3   4
ENDBRANCH   2   3
ENDBRANCH   1   2
BRANCH   1  17
ATOM     17  C   UNL     1       2.032 -35.434  20.776  1.00  0.00     0.000 C 
BRANCH  17  18
ATOM     18  C   UNL     1       2.196 -36.964  20.704  1.00  0.00     0.000 C 
BRANCH  18  19
ATOM     19  C   UNL     1       1.093 -37.705  19.924  1.00  0.00     0.000 C 
BRANCH  19  20
ATOM     20  C   UNL     1       1.597 -38.317  18.607  1.00  0.00     0.000 C 
BRANCH  20  21
ATOM     21  C   UNL     1       1.349 -37.404  17.394  1.00  0.00     0.000 C 
BRANCH  21  22
ATOM     22  C   UNL     1       2.312 -37.670  16.217  1.00  0.00    -0.000 C 
BRANCH  22  23
ATOM     23  C   UNL     1       2.094 -36.684  15.057  1.00  0.00    -0.000 C 
BRANCH  23  24
ATOM     24  C   UNL     1       3.403 -36.047  14.561  1.00  0.00    -0.000 C 
BRANCH  24  25
ATOM     25  C   UNL     1       4.523 -37.080  14.357  1.00  0.00    -0.000 C 
BRANCH  25  26
ATOM     26  C   UNL     1       3.987 -38.487  14.050  1.00  0.00    -0.000 C 
BRANCH  26  27
ATOM     27  C   UNL     1       5.107 -39.529  13.879  1.00  0.00    -0.000 C 
BRANCH  27  28
ATOM     28  C   UNL     1       4.788 -40.853  14.594  1.00  0.00    -0.000 C 
BRANCH  28  29
ATOM     29  C   UNL     1       5.995 -41.801  14.642  1.00  0.00    -0.003 C 
ATOM     30  C   UNL     1       5.802 -42.880  15.704  1.00  0.00     0.004 C 
ENDBRANCH  28  29
ENDBRANCH  27  28
ENDBRANCH  26  27
ENDBRANCH  25  26
ENDBRANCH  24  25
ENDBRANCH  23  24
ENDBRANCH  22  23
ENDBRANCH  21  22
ENDBRANCH  20  21
ENDBRANCH  19  20
ENDBRANCH  18  19
ENDBRANCH  17  18
ENDBRANCH   1  17
TORSDOF 26
ENDMDL
MODEL 5
REMARK VINA RESULT:     5.399      2.882      9.342
REMARK INTER + INTRA:          12.991
REMARK INTER:                  12.197
REMARK INTRA:                   0.794
REMARK UNBOUND:                -0.615
REMARK SMILES CCCCCCCCCCCCCCCCCCCCCCCCCCCC(=O)[O-]
REMARK SMILES IDX 15 1 16 2 17 3 18 4 19 5 20 6 21 7 22 8 23 9 24 10 25 11
REMARK SMILES IDX 26 12 27 13 28 14 29 15 30 16 14 17 13 18 12 19 11 20 10 21
REMARK SMILES IDX 9 22 8 23 7 24 6 25 5 26 4 27 3 28 2 29 1 30
REMARK H PARENT
REMARK Flexibility Score: inf
ROOT
ATOM      1  C   UNL     1       4.702 -36.010  21.754  1.00  0.00     0.000 C 
ENDROOT
BRANCH   1   2
ATOM      2  C   UNL     1       4.839 -34.868  20.736  1.00  0.00     0.000 C 
BRANCH   2   3
ATOM      3  C   UNL     1       6.125 -34.964  19.897  1.00  0.00     0.000 C 
BRANCH   3   4
ATOM      4  C   UNL     1       5.962 -34.590  18.409  1.00  0.00     0.000 C 
BRANCH   4   5
ATOM      5  C   UNL     1       4.510 -34.379  17.942  1.00  0.00     0.000 C 
BRANCH   5   6
ATOM      6  C   UNL     1       4.008 -35.391  16.893  1.00  0.00     0.000 C 
BRANCH   6   7
ATOM      7  C   UNL     1       2.494 -35.298  16.607  1.00  0.00     0.000 C 
BRANCH   7   8
ATOM      8  C   UNL     1       2.090 -36.017  15.308  1.00  0.00     0.000 C 
BRANCH   8   9
ATOM      9  C   UNL     1       3.220 -36.888  14.736  1.00  0.00     0.000 C 
BRANCH   9  10
ATOM     10  C   UNL     1       3.495 -38.137  15.587  1.00  0.00     0.000 C 
BRANCH  10  11
ATOM     11  C   UNL     1       2.535 -38.207  16.785  1.00  0.00     0.000 C 
BRANCH  11  12
ATOM     12  C   UNL     1       3.239 -37.950  18.130  1.00  0.00     0.006 C 
BRANCH  12  13
ATOM     13  C   UNL     1       2.286 -37.783  19.324  1.00  0.00     0.053 C 
BRANCH  13  14
ATOM     14  C   UNL     1       0.874 -38.143  18.974  1.00  0.00     0.041 C 
ATOM     15  O   UNL     1       0.626 -39.223  18.376  1.00  0.00    -0.550 OA
ATOM     16  O   UNL     1      -0.171 -37.302  19.340  1.00  0.00    -0.550 OA
ENDBRANCH  13  14
ENDBRANCH  12  13
ENDBRANCH  11  12
ENDBRANCH  10  11
ENDBRANCH   9  10
ENDBRANCH   8   9
ENDBRANCH   7   8
ENDBRANCH   6   7
ENDBRANCH   5   6
ENDBRANCH   4   5
ENDBRANCH   3   4
ENDBRANCH   2   3
ENDBRANCH   1   2
BRANCH   1  17
ATOM     17  C   UNL     1       5.779 -37.080  21.523  1.00  0.00     0.000 C 
BRANCH  17  18
ATOM     18  C   UNL     1       5.400 -38.091  20.426  1.00  0.00     0.000 C 
BRANCH  18  19
ATOM     19  C   UNL     1       5.784 -39.554  20.720  1.00  0.00     0.000 C 
BRANCH  19  20
ATOM     20  C   UNL     1       5.145 -40.094  22.009  1.00  0.00     0.000 C 
BRANCH  20  21
ATOM     21  C   UNL     1       5.966 -39.758  23.266  1.00  0.00     0.000 C 
BRANCH  21  22
ATOM     22  C   UNL     1       5.109 -39.233  24.438  1.00  0.00    -0.000 C 
BRANCH  22  23
ATOM     23  C   UNL     1       5.567 -37.842  24.912  1.00  0.00    -0.000 C 
BRANCH  23  24
ATOM     24  C   UNL     1       4.561 -37.174  25.864  1.00  0.00    -0.000 C 
BRANCH  24  25
ATOM     25  C   UNL     1       3.584 -38.182  26.493  1.00  0.00    -0.000 C 
BRANCH  25  26
ATOM     26  C   UNL     1       2.374 -37.504  27.156  1.00  0.00    -0.000 C 
BRANCH  26  27
ATOM     27  C   UNL     1       2.668 -36.062  27.604  1.00  0.00    -0.000 C 
BRANCH  27  28
ATOM     28  C   UNL     1       1.572 -35.501  28.526  1.00  0.00    -0.000 C 
BRANCH  28  29
ATOM     29  C   UNL     1       1.979 -34.176  29.187  1.00  0.00    -0.003 C 
ATOM     30  C   UNL     1       1.501 -34.116  30.636  1.00  0.00     0.004 C 
ENDBRANCH  28  29
ENDBRANCH  27  28
ENDBRANCH  26  27
ENDBRANCH  25  26
ENDBRANCH  24  25
ENDBRANCH  23  24
ENDBRANCH  22  23
ENDBRANCH  21  22
ENDBRANCH  20  21
ENDBRANCH  19  20
ENDBRANCH  18  19
ENDBRANCH  17  18
ENDBRANCH   1  17
TORSDOF 26
ENDMDL
MODEL 6
REMARK VINA RESULT:     5.553      2.495      8.132
REMARK INTER + INTRA:          13.378
REMARK INTER:                  13.706
REMARK INTRA:                  -0.328
REMARK UNBOUND:                -0.615
REMARK SMILES CCCCCCCCCCCCCCCCCCCCCCCCCCCC(=O)[O-]
REMARK SMILES IDX 15 1 16 2 17 3 18 4 19 5 20 6 21 7 22 8 23 9 24 10 25 11
REMARK SMILES IDX 26 12 27 13 28 14 29 15 30 16 14 17 13 18 12 19 11 20 10 21
REMARK SMILES IDX 9 22 8 23 7 24 6 25 5 26 4 27 3 28 2 29 1 30
REMARK H PARENT
REMARK Flexibility Score: inf
ROOT
ATOM      1  C   UNL     1       4.154 -35.119  17.039  1.00  0.00     0.000 C 
ENDROOT
BRANCH   1   2
ATOM      2  C   UNL     1       4.103 -36.654  17.040  1.00  0.00     0.000 C 
BRANCH   2   3
ATOM      3  C   UNL     1       3.545 -37.237  15.731  1.00  0.00     0.000 C 
BRANCH   3   4
ATOM      4  C   UNL     1       2.811 -36.224  14.827  1.00  0.00     0.000 C 
BRANCH   4   5
ATOM      5  C   UNL     1       1.274 -36.280  14.893  1.00  0.00     0.000 C 
BRANCH   5   6
ATOM      6  C   UNL     1       0.700 -37.305  15.892  1.00  0.00     0.000 C 
BRANCH   6   7
ATOM      7  C   UNL     1       0.986 -36.966  17.370  1.00  0.00     0.000 C 
BRANCH   7   8
ATOM      8  C   UNL     1       1.136 -38.222  18.247  1.00  0.00     0.000 C 
BRANCH   8   9
ATOM      9  C   UNL     1       1.376 -37.887  19.727  1.00  0.00     0.000 C 
BRANCH   9  10
ATOM     10  C   UNL     1       2.614 -38.595  20.301  1.00  0.00     0.000 C 
BRANCH  10  11
ATOM     11  C   UNL     1       3.906 -37.947  19.781  1.00  0.00     0.000 C 
BRANCH  11  12
ATOM     12  C   UNL     1       5.148 -38.831  20.001  1.00  0.00     0.006 C 
BRANCH  12  13
ATOM     13  C   UNL     1       5.787 -38.693  21.392  1.00  0.00     0.053 C 
BRANCH  13  14
ATOM     14  C   UNL     1       5.677 -39.955  22.192  1.00  0.00     0.041 C 
ATOM     15  O   UNL     1       5.291 -39.913  23.391  1.00  0.00    -0.550 OA
ATOM     16  O   UNL     1       5.966 -41.180  21.604  1.00  0.00    -0.550 OA
ENDBRANCH  13  14
ENDBRANCH  12  13
ENDBRANCH  11  12
ENDBRANCH  10  11
ENDBRANCH   9  10
ENDBRANCH   8   9
ENDBRANCH   7   8
ENDBRANCH   6   7
ENDBRANCH   5   6
ENDBRANCH   4   5
ENDBRANCH   3   4
ENDBRANCH   2   3
ENDBRANCH   1   2
BRANCH   1  17
ATOM     17  C   UNL     1       4.861 -34.595  18.297  1.00  0.00     0.000 C 
BRANCH  17  18
ATOM     18  C   UNL     1       5.542 -35.708  19.115  1.00  0.00     0.000 C 
BRANCH  18  19
ATOM     19  C   UNL     1       6.125 -35.264  20.470  1.00  0.00     0.000 C 
BRANCH  19  20
ATOM     20  C   UNL     1       5.224 -35.629  21.660  1.00  0.00     0.000 C 
BRANCH  20  21
ATOM     21  C   UNL     1       4.264 -34.492  22.050  1.00  0.00     0.000 C 
BRANCH  21  22
ATOM     22  C   UNL     1       4.815 -33.579  23.167  1.00  0.00    -0.000 C 
BRANCH  22  23
ATOM     23  C   UNL     1       6.010 -34.214  23.898  1.00  0.00    -0.000 C 
BRANCH  23  24
ATOM     24  C   UNL     1       5.585 -35.255  24.947  1.00  0.00    -0.000 C 
BRANCH  24  25
ATOM     25  C   UNL     1       5.960 -36.690  24.542  1.00  0.00    -0.000 C 
BRANCH  25  26
ATOM     26  C   UNL     1       5.737 -37.705  25.675  1.00  0.00    -0.000 C 
BRANCH  26  27
ATOM     27  C   UNL     1       4.546 -37.342  26.578  1.00  0.00    -0.000 C 
BRANCH  27  28
ATOM     28  C   UNL     1       3.252 -38.057  26.154  1.00  0.00    -0.000 C 
BRANCH  28  29
ATOM     29  C   UNL     1       2.118 -37.877  27.174  1.00  0.00    -0.003 C 
ATOM     30  C   UNL     1       2.132 -36.470  27.766  1.00  0.00     0.004 C 
ENDBRANCH  28  29
ENDBRANCH  27  28
ENDBRANCH  26  27
ENDBRANCH  25  26
ENDBRANCH  24  25
ENDBRANCH  23  24
ENDBRANCH  22  23
ENDBRANCH  21  22
ENDBRANCH  20  21
ENDBRANCH  19  20
ENDBRANCH  18  19
ENDBRANCH  17  18
ENDBRANCH   1  17
TORSDOF 26
ENDMDL
MODEL 7
REMARK VINA RESULT:     5.607      2.065      4.321
REMARK INTER + INTRA:          13.513
REMARK INTER:                  15.636
REMARK INTRA:                  -2.123
REMARK UNBOUND:                -0.615
REMARK SMILES CCCCCCCCCCCCCCCCCCCCCCCCCCCC(=O)[O-]
REMARK SMILES IDX 15 1 16 2 17 3 18 4 19 5 20 6 21 7 22 8 23 9 24 10 25 11
REMARK SMILES IDX 26 12 27 13 28 14 29 15 30 16 14 17 13 18 12 19 11 20 10 21
REMARK SMILES IDX 9 22 8 23 7 24 6 25 5 26 4 27 3 28 2 29 1 30
REMARK H PARENT
REMARK Flexibility Score: inf
ROOT
ATOM      1  C   UNL     1       4.133 -34.775  22.273  1.00  0.00     0.000 C 
ENDROOT
BRANCH   1   2
ATOM      2  C   UNL     1       4.743 -33.818  23.308  1.00  0.00     0.000 C 
BRANCH   2   3
ATOM      3  C   UNL     1       6.125 -34.277  23.806  1.00  0.00     0.000 C 
BRANCH   3   4
ATOM      4  C   UNL     1       6.101 -35.175  25.060  1.00  0.00     0.000 C 
BRANCH   4   5
ATOM      5  C   UNL     1       6.047 -36.688  24.782  1.00  0.00     0.000 C 
BRANCH   5   6
ATOM      6  C   UNL     1       5.729 -37.567  26.008  1.00  0.00     0.000 C 
BRANCH   6   7
ATOM      7  C   UNL     1       4.267 -38.061  26.062  1.00  0.00     0.000 C 
BRANCH   7   8
ATOM      8  C   UNL     1       3.276 -36.940  26.422  1.00  0.00     0.000 C 
BRANCH   8   9
ATOM      9  C   UNL     1       2.073 -37.449  27.232  1.00  0.00     0.000 C 
BRANCH   9  10
ATOM     10  C   UNL     1       1.711 -36.521  28.401  1.00  0.00     0.000 C 
BRANCH  10  11
ATOM     11  C   UNL     1       2.316 -35.123  28.200  1.00  0.00     0.000 C 
BRANCH  11  12
ATOM     12  C   UNL     1       2.355 -34.297  29.500  1.00  0.00     0.006 C 
BRANCH  12  13
ATOM     13  C   UNL     1       1.067 -34.366  30.335  1.00  0.00     0.053 C 
BRANCH  13  14
ATOM     14  C   UNL     1      -0.087 -33.701  29.648  1.00  0.00     0.041 C 
ATOM     15  O   UNL     1      -1.027 -34.394  29.176  1.00  0.00    -0.550 OA
ATOM     16  O   UNL     1      -0.142 -32.315  29.559  1.00  0.00    -0.550 OA
ENDBRANCH  13  14
ENDBRANCH  12  13
ENDBRANCH  11  12
ENDBRANCH  10  11
ENDBRANCH   9  10
ENDBRANCH   8   9
ENDBRANCH   7   8
ENDBRANCH   6   7
ENDBRANCH   5   6
ENDBRANCH   4   5
ENDBRANCH   3   4
ENDBRANCH   2   3
ENDBRANCH   1   2
BRANCH   1  17
ATOM     17  C   UNL     1       4.842 -34.638  20.918  1.00  0.00     0.000 C 
BRANCH  17  18
ATOM     18  C   UNL     1       5.925 -35.710  20.692  1.00  0.00     0.000 C 
BRANCH  18  19
ATOM     19  C   UNL     1       5.587 -37.109  21.242  1.00  0.00     0.000 C 
BRANCH  19  20
ATOM     20  C   UNL     1       5.146 -38.094  20.148  1.00  0.00     0.000 C 
BRANCH  20  21
ATOM     21  C   UNL     1       4.458 -37.396  18.962  1.00  0.00     0.000 C 
BRANCH  21  22
ATOM     22  C   UNL     1       2.939 -37.661  18.890  1.00  0.00    -0.000 C 
BRANCH  22  23
ATOM     23  C   UNL     1       2.486 -38.058  17.474  1.00  0.00    -0.000 C 
BRANCH  23  24
ATOM     24  C   UNL     1       1.527 -37.034  16.845  1.00  0.00    -0.000 C 
BRANCH  24  25
ATOM     25  C   UNL     1       2.266 -35.917  16.090  1.00  0.00    -0.000 C 
BRANCH  25  26
ATOM     26  C   UNL     1       3.583 -36.395  15.459  1.00  0.00    -0.000 C 
BRANCH  26  27
ATOM     27  C   UNL     1       3.367 -37.250  14.198  1.00  0.00    -0.000 C 
BRANCH  27  28
ATOM     28  C   UNL     1       4.573 -38.154  13.891  1.00  0.00    -0.000 C 
BRANCH  28  29
ATOM     29  C   UNL     1       4.351 -39.606  14.342  1.00  0.00    -0.003 C 
ATOM     30  C   UNL     1       5.495 -40.505  13.881  1.00  0.00     0.004 C 
ENDBRANCH  28  29
ENDBRANCH  27  28
ENDBRANCH  26  27
ENDBRANCH  25  26
ENDBRANCH  24  25
ENDBRANCH  23  24
ENDBRANCH  22  23
ENDBRANCH  21  22
ENDBRANCH  20  21
ENDBRANCH  19  20
ENDBRANCH  18  19
ENDBRANCH  17  18
ENDBRANCH   1  17
TORSDOF 26
ENDMDL
MODEL 8
REMARK VINA RESULT:     5.920      1.804      4.321
REMARK INTER + INTRA:          14.302
REMARK INTER:                  13.532
REMARK INTRA:                   0.770
REMARK UNBOUND:                -0.615
REMARK SMILES CCCCCCCCCCCCCCCCCCCCCCCCCCCC(=O)[O-]
REMARK SMILES IDX 15 1 16 2 17 3 18 4 19 5 20 6 21 7 22 8 23 9 24 10 25 11
REMARK SMILES IDX 26 12 27 13 28 14 29 15 30 16 14 17 13 18 12 19 11 20 10 21
REMARK SMILES IDX 9 22 8 23 7 24 6 25 5 26 4 27 3 28 2 29 1 30
REMARK H PARENT
REMARK Flexibility Score: inf
ROOT
ATOM      1  C   UNL     1       3.666 -35.352  20.996  1.00  0.00     0.000 C 
ENDROOT
BRANCH   1   2
ATOM      2  C   UNL     1       3.967 -34.553  22.272  1.00  0.00     0.000 C 
BRANCH   2   3
ATOM      3  C   UNL     1       5.453 -34.595  22.668  1.00  0.00     0.000 C 
BRANCH   3   4
ATOM      4  C   UNL     1       5.825 -33.738  23.897  1.00  0.00     0.000 C 
BRANCH   4   5
ATOM      5  C   UNL     1       6.125 -34.530  25.182  1.00  0.00     0.000 C 
BRANCH   5   6
ATOM      6  C   UNL     1       6.124 -36.063  25.020  1.00  0.00     0.000 C 
BRANCH   6   7
ATOM      7  C   UNL     1       6.013 -36.834  26.352  1.00  0.00     0.000 C 
BRANCH   7   8
ATOM      8  C   UNL     1       5.036 -38.019  26.272  1.00  0.00     0.000 C 
BRANCH   8   9
ATOM      9  C   UNL     1       3.720 -37.658  25.566  1.00  0.00     0.000 C 
BRANCH   9  10
ATOM     10  C   UNL     1       2.480 -38.068  26.375  1.00  0.00     0.000 C 
BRANCH  10  11
ATOM     11  C   UNL     1       2.514 -37.449  27.781  1.00  0.00     0.000 C 
BRANCH  11  12
ATOM     12  C   UNL     1       1.638 -36.187  27.899  1.00  0.00     0.006 C 
BRANCH  12  13
ATOM     13  C   UNL     1       2.362 -34.964  28.482  1.00  0.00     0.053 C 
BRANCH  13  14
ATOM     14  C   UNL     1       1.635 -34.385  29.657  1.00  0.00     0.041 C 
ATOM     15  O   UNL     1       0.378 -34.444  29.716  1.00  0.00    -0.550 OA
ATOM     16  O   UNL     1       2.347 -33.811  30.704  1.00  0.00    -0.550 OA
ENDBRANCH  13  14
ENDBRANCH  12  13
ENDBRANCH  11  12
ENDBRANCH  10  11
ENDBRANCH   9  10
ENDBRANCH   8   9
ENDBRANCH   7   8
ENDBRANCH   6   7
ENDBRANCH   5   6
ENDBRANCH   4   5
ENDBRANCH   3   4
ENDBRANCH   2   3
ENDBRANCH   1   2
BRANCH   1  17
ATOM     17  C   UNL     1       4.801 -35.196  19.973  1.00  0.00     0.000 C 
BRANCH  17  18
ATOM     18  C   UNL     1       5.998 -36.122  20.253  1.00  0.00     0.000 C 
BRANCH  18  19
ATOM     19  C   UNL     1       5.888 -36.967  21.537  1.00  0.00     0.000 C 
BRANCH  19  20
ATOM     20  C   UNL     1       5.364 -38.388  21.278  1.00  0.00     0.000 C 
BRANCH  20  21
ATOM     21  C   UNL     1       5.471 -38.801  19.800  1.00  0.00     0.000 C 
BRANCH  21  22
ATOM     22  C   UNL     1       4.173 -38.563  19.000  1.00  0.00    -0.000 C 
BRANCH  22  23
ATOM     23  C   UNL     1       2.927 -38.565  19.903  1.00  0.00    -0.000 C 
BRANCH  23  24
ATOM     24  C   UNL     1       1.861 -37.552  19.452  1.00  0.00    -0.000 C 
BRANCH  24  25
ATOM     25  C   UNL     1       1.419 -37.767  17.995  1.00  0.00    -0.000 C 
BRANCH  25  26
ATOM     26  C   UNL     1       2.564 -37.566  16.990  1.00  0.00    -0.000 C 
BRANCH  26  27
ATOM     27  C   UNL     1       2.423 -36.268  16.175  1.00  0.00    -0.000 C 
BRANCH  27  28
ATOM     28  C   UNL     1       2.427 -36.527  14.658  1.00  0.00    -0.000 C 
BRANCH  28  29
ATOM     29  C   UNL     1       3.779 -37.053  14.155  1.00  0.00    -0.003 C 
ATOM     30  C   UNL     1       3.975 -38.518  14.539  1.00  0.00     0.004 C 
ENDBRANCH  28  29
ENDBRANCH  27  28
ENDBRANCH  26  27
ENDBRANCH  25  26
ENDBRANCH  24  25
ENDBRANCH  23  24
ENDBRANCH  22  23
ENDBRANCH  21  22
ENDBRANCH  20  21
ENDBRANCH  19  20
ENDBRANCH  18  19
ENDBRANCH  17  18
ENDBRANCH   1  17
TORSDOF 26
ENDMDL
