MODEL 1
REMARK VINA RESULT:    -2.984      0.000      0.000
REMARK INTER + INTRA:          -5.433
REMARK INTER:                  -4.379
REMARK INTRA:                  -1.054
REMARK UNBOUND:                -1.054
REMARK SMILES CCCCCC(=O)CCCCC
REMARK SMILES IDX 6 1 7 2 5 3 4 4 3 5 2 6 1 7 8 8 9 9 10 10 11 11 12 12
REMARK H PARENT
REMARK Flexibility Score: inf
ROOT
ATOM      1  C   UNL     1     141.937 142.219 141.680  1.00  0.00     0.132 C 
ATOM      2  O   UNL     1     142.506 142.351 140.607  1.00  0.00    -0.300 OA
ENDROOT
BRANCH   1   3
ATOM      3  C   UNL     1     142.583 141.323 142.718  1.00  0.00     0.075 C 
BRANCH   3   4
ATOM      4  C   UNL     1     143.025 139.941 142.203  1.00  0.00     0.008 C 
BRANCH   4   5
ATOM      5  C   UNL     1     141.869 139.151 141.568  1.00  0.00     0.000 C 
BRANCH   5   6
ATOM      6  C   UNL     1     140.815 138.716 142.597  1.00  0.00    -0.003 C 
ATOM      7  C   UNL     1     139.592 138.113 141.909  1.00  0.00     0.004 C 
ENDBRANCH   5   6
ENDBRANCH   4   5
ENDBRANCH   3   4
ENDBRANCH   1   3
BRANCH   1   8
ATOM      8  C   UNL     1     140.632 142.952 141.887  1.00  0.00     0.075 C 
BRANCH   8   9
ATOM      9  C   UNL     1     139.811 142.289 142.999  1.00  0.00     0.008 C 
BRANCH   9  10
ATOM     10  C   UNL     1     138.500 141.711 142.447  1.00  0.00     0.000 C 
BRANCH  10  11
ATOM     11  C   UNL     1     138.434 141.756 140.913  1.00  0.00    -0.003 C 
ATOM     12  C   UNL     1     137.000 141.777 140.383  1.00  0.00     0.004 C 
ENDBRANCH  10  11
ENDBRANCH   9  10
ENDBRANCH   8   9
ENDBRANCH   1   8
TORSDOF 8
ENDMDL
MODEL 2
REMARK VINA RESULT:    -2.976      1.835      3.285
REMARK INTER + INTRA:          -5.422
REMARK INTER:                  -4.304
REMARK INTRA:                  -1.118
REMARK UNBOUND:                -1.054
REMARK SMILES CCCCCC(=O)CCCCC
REMARK SMILES IDX 6 1 7 2 5 3 4 4 3 5 2 6 1 7 8 8 9 9 10 10 11 11 12 12
REMARK H PARENT
REMARK Flexibility Score: inf
ROOT
ATOM      1  C   UNL     1     139.613 139.712 141.711  1.00  0.00     0.132 C 
ATOM      2  O   UNL     1     139.157 139.718 140.578  1.00  0.00    -0.300 OA
ENDROOT
BRANCH   1   3
ATOM      3  C   UNL     1     140.789 138.799 141.996  1.00  0.00     0.075 C 
BRANCH   3   4
ATOM      4  C   UNL     1     141.804 139.341 143.018  1.00  0.00     0.008 C 
BRANCH   4   5
ATOM      5  C   UNL     1     143.223 139.454 142.438  1.00  0.00     0.000 C 
BRANCH   5   6
ATOM      6  C   UNL     1     143.238 140.062 141.027  1.00  0.00    -0.003 C 
ATOM      7  C   UNL     1     144.566 139.787 140.325  1.00  0.00     0.004 C 
ENDBRANCH   5   6
ENDBRANCH   4   5
ENDBRANCH   3   4
ENDBRANCH   1   3
BRANCH   1   8
ATOM      8  C   UNL     1     138.966 140.607 142.743  1.00  0.00     0.075 C 
BRANCH   8   9
ATOM      9  C   UNL     1     139.130 142.081 142.356  1.00  0.00     0.008 C 
BRANCH   9  10
ATOM     10  C   UNL     1     140.362 142.697 143.037  1.00  0.00     0.000 C 
BRANCH  10  11
ATOM     11  C   UNL     1     141.421 143.166 142.029  1.00  0.00    -0.003 C 
ATOM     12  C   UNL     1     140.953 143.047 140.579  1.00  0.00     0.004 C 
ENDBRANCH  10  11
ENDBRANCH   9  10
ENDBRANCH   8   9
ENDBRANCH   1   8
TORSDOF 8
ENDMDL
MODEL 3
REMARK VINA RESULT:    -2.937      1.665      3.430
REMARK INTER + INTRA:          -5.365
REMARK INTER:                  -4.044
REMARK INTRA:                  -1.321
REMARK UNBOUND:                -1.054
REMARK SMILES CCCCCC(=O)CCCCC
REMARK SMILES IDX 6 1 7 2 5 3 4 4 3 5 2 6 1 7 8 8 9 9 10 10 11 11 12 12
REMARK H PARENT
REMARK Flexibility Score: inf
ROOT
ATOM      1  C   UNL     1     142.508 139.924 142.723  1.00  0.00     0.132 C 
ATOM      2  O   UNL     1     143.433 139.156 142.503  1.00  0.00    -0.300 OA
ENDROOT
BRANCH   1   3
ATOM      3  C   UNL     1     142.849 141.345 143.125  1.00  0.00     0.075 C 
BRANCH   3   4
ATOM      4  C   UNL     1     141.696 142.355 142.991  1.00  0.00     0.008 C 
BRANCH   4   5
ATOM      5  C   UNL     1     141.988 143.449 141.951  1.00  0.00     0.000 C 
BRANCH   5   6
ATOM      6  C   UNL     1     141.239 143.223 140.630  1.00  0.00    -0.003 C 
ATOM      7  C   UNL     1     142.077 142.397 139.657  1.00  0.00     0.004 C 
ENDBRANCH   5   6
ENDBRANCH   4   5
ENDBRANCH   3   4
ENDBRANCH   1   3
BRANCH   1   8
ATOM      8  C   UNL     1     141.099 139.397 142.584  1.00  0.00     0.075 C 
BRANCH   8   9
ATOM      9  C   UNL     1     140.705 139.293 141.106  1.00  0.00     0.008 C 
BRANCH   9  10
ATOM     10  C   UNL     1     139.347 139.962 140.849  1.00  0.00     0.000 C 
BRANCH  10  11
ATOM     11  C   UNL     1     138.771 140.632 142.105  1.00  0.00    -0.003 C 
ATOM     12  C   UNL     1     137.983 141.903 141.789  1.00  0.00     0.004 C 
ENDBRANCH  10  11
ENDBRANCH   9  10
ENDBRANCH   8   9
ENDBRANCH   1   8
TORSDOF 8
ENDMDL
MODEL 4
REMARK VINA RESULT:    -2.919      1.163      3.543
REMARK INTER + INTRA:          -5.338
REMARK INTER:                  -4.055
REMARK INTRA:                  -1.283
REMARK UNBOUND:                -1.054
REMARK SMILES CCCCCC(=O)CCCCC
REMARK SMILES IDX 6 1 7 2 5 3 4 4 3 5 2 6 1 7 8 8 9 9 10 10 11 11 12 12
REMARK H PARENT
REMARK Flexibility Score: inf
ROOT
ATOM      1  C   UNL     1     142.809 141.010 140.889  1.00  0.00     0.132 C 
ATOM      2  O   UNL     1     143.089 140.331 139.912  1.00  0.00    -0.300 OA
ENDROOT
BRANCH   1   3
ATOM      3  C   UNL     1     142.107 142.332 140.653  1.00  0.00     0.075 C 
BRANCH   3   4
ATOM      4  C   UNL     1     141.774 143.130 141.927  1.00  0.00     0.008 C 
BRANCH   4   5
ATOM      5  C   UNL     1     140.356 142.844 142.447  1.00  0.00     0.000 C 
BRANCH   5   6
ATOM      6  C   UNL     1     139.418 142.321 141.350  1.00  0.00    -0.003 C 
ATOM      7  C   UNL     1     138.137 141.747 141.950  1.00  0.00     0.004 C 
ENDBRANCH   5   6
ENDBRANCH   4   5
ENDBRANCH   3   4
ENDBRANCH   1   3
BRANCH   1   8
ATOM      8  C   UNL     1     143.190 140.483 142.253  1.00  0.00     0.075 C 
BRANCH   8   9
ATOM      9  C   UNL     1     142.523 139.128 142.514  1.00  0.00     0.008 C 
BRANCH   9  10
ATOM     10  C   UNL     1     141.027 139.299 142.820  1.00  0.00     0.000 C 
BRANCH  10  11
ATOM     11  C   UNL     1     140.151 138.283 142.073  1.00  0.00    -0.003 C 
ATOM     12  C   UNL     1     139.888 138.683 140.622  1.00  0.00     0.004 C 
ENDBRANCH  10  11
ENDBRANCH   9  10
ENDBRANCH   8   9
ENDBRANCH   1   8
TORSDOF 8
ENDMDL
MODEL 5
REMARK VINA RESULT:    -2.917      2.044      4.591
REMARK INTER + INTRA:          -5.335
REMARK INTER:                  -4.019
REMARK INTRA:                  -1.316
REMARK UNBOUND:                -1.054
REMARK SMILES CCCCCC(=O)CCCCC
REMARK SMILES IDX 6 1 7 2 5 3 4 4 3 5 2 6 1 7 8 8 9 9 10 10 11 11 12 12
REMARK H PARENT
REMARK Flexibility Score: inf
ROOT
ATOM      1  C   UNL     1     139.830 138.376 140.932  1.00  0.00     0.132 C 
ATOM      2  O   UNL     1     140.261 137.310 140.517  1.00  0.00    -0.300 OA
ENDROOT
BRANCH   1   3
ATOM      3  C   UNL     1     139.345 139.387 139.913  1.00  0.00     0.075 C 
BRANCH   3   4
ATOM      4  C   UNL     1     140.286 140.583 139.682  1.00  0.00     0.008 C 
BRANCH   4   5
ATOM      5  C   UNL     1     139.693 141.907 140.192  1.00  0.00     0.000 C 
BRANCH   5   6
ATOM      6  C   UNL     1     138.307 141.727 140.829  1.00  0.00    -0.003 C 
ATOM      7  C   UNL     1     138.331 142.095 142.310  1.00  0.00     0.004 C 
ENDBRANCH   5   6
ENDBRANCH   4   5
ENDBRANCH   3   4
ENDBRANCH   1   3
BRANCH   1   8
ATOM      8  C   UNL     1     139.821 138.605 142.426  1.00  0.00     0.075 C 
BRANCH   8   9
ATOM      9  C   UNL     1     141.246 138.826 142.946  1.00  0.00     0.008 C 
BRANCH   9  10
ATOM     10  C   UNL     1     141.542 140.322 143.125  1.00  0.00     0.000 C 
BRANCH  10  11
ATOM     11  C   UNL     1     142.784 140.776 142.343  1.00  0.00    -0.003 C 
ATOM     12  C   UNL     1     143.506 139.617 141.656  1.00  0.00     0.004 C 
ENDBRANCH  10  11
ENDBRANCH   9  10
ENDBRANCH   8   9
ENDBRANCH   1   8
TORSDOF 8
ENDMDL
MODEL 6
REMARK VINA RESULT:    -2.916      1.925      4.298
REMARK INTER + INTRA:          -5.333
REMARK INTER:                  -4.076
REMARK INTRA:                  -1.257
REMARK UNBOUND:                -1.054
REMARK SMILES CCCCCC(=O)CCCCC
REMARK SMILES IDX 6 1 7 2 5 3 4 4 3 5 2 6 1 7 8 8 9 9 10 10 11 11 12 12
REMARK H PARENT
REMARK Flexibility Score: inf
ROOT
ATOM      1  C   UNL     1     139.835 139.193 142.319  1.00  0.00     0.132 C 
ATOM      2  O   UNL     1     139.443 138.049 142.143  1.00  0.00    -0.300 OA
ENDROOT
BRANCH   1   3
ATOM      3  C   UNL     1     138.954 140.127 143.125  1.00  0.00     0.075 C 
BRANCH   3   4
ATOM      4  C   UNL     1     138.811 141.547 142.550  1.00  0.00     0.008 C 
BRANCH   4   5
ATOM      5  C   UNL     1     137.926 141.588 141.294  1.00  0.00     0.000 C 
BRANCH   5   6
ATOM      6  C   UNL     1     138.721 141.913 140.021  1.00  0.00    -0.003 C 
ATOM      7  C   UNL     1     138.668 140.753 139.029  1.00  0.00     0.004 C 
ENDBRANCH   5   6
ENDBRANCH   4   5
ENDBRANCH   3   4
ENDBRANCH   1   3
BRANCH   1   8
ATOM      8  C   UNL     1     141.162 139.590 141.714  1.00  0.00     0.075 C 
BRANCH   8   9
ATOM      9  C   UNL     1     142.183 139.904 142.814  1.00  0.00     0.008 C 
BRANCH   9  10
ATOM     10  C   UNL     1     142.642 141.367 142.739  1.00  0.00     0.000 C 
BRANCH  10  11
ATOM     11  C   UNL     1     142.249 142.043 141.417  1.00  0.00    -0.003 C 
ATOM     12  C   UNL     1     141.861 143.511 141.596  1.00  0.00     0.004 C 
ENDBRANCH  10  11
ENDBRANCH   9  10
ENDBRANCH   8   9
ENDBRANCH   1   8
TORSDOF 8
ENDMDL
MODEL 7
REMARK VINA RESULT:    -2.907      2.032      4.944
REMARK INTER + INTRA:          -5.320
REMARK INTER:                  -4.143
REMARK INTRA:                  -1.177
REMARK UNBOUND:                -1.054
REMARK SMILES CCCCCC(=O)CCCCC
REMARK SMILES IDX 6 1 7 2 5 3 4 4 3 5 2 6 1 7 8 8 9 9 10 10 11 11 12 12
REMARK H PARENT
REMARK Flexibility Score: inf
ROOT
ATOM      1  C   UNL     1     139.885 139.523 142.074  1.00  0.00     0.132 C 
ATOM      2  O   UNL     1     139.412 139.117 143.125  1.00  0.00    -0.300 OA
ENDROOT
BRANCH   1   3
ATOM      3  C   UNL     1     139.053 140.483 141.248  1.00  0.00     0.075 C 
BRANCH   3   4
ATOM      4  C   UNL     1     139.698 141.858 141.000  1.00  0.00     0.008 C 
BRANCH   4   5
ATOM      5  C   UNL     1     140.232 142.501 142.290  1.00  0.00     0.000 C 
BRANCH   5   6
ATOM      6  C   UNL     1     141.558 143.246 142.074  1.00  0.00    -0.003 C 
ATOM      7  C   UNL     1     141.930 143.288 140.594  1.00  0.00     0.004 C 
ENDBRANCH   5   6
ENDBRANCH   4   5
ENDBRANCH   3   4
ENDBRANCH   1   3
BRANCH   1   8
ATOM      8  C   UNL     1     141.258 139.032 141.677  1.00  0.00     0.075 C 
BRANCH   8   9
ATOM      9  C   UNL     1     142.306 139.466 142.709  1.00  0.00     0.008 C 
BRANCH   9  10
ATOM     10  C   UNL     1     143.557 140.031 142.020  1.00  0.00     0.000 C 
BRANCH  10  11
ATOM     11  C   UNL     1     143.488 139.925 140.490  1.00  0.00    -0.003 C 
ATOM     12  C   UNL     1     144.856 139.682 139.852  1.00  0.00     0.004 C 
ENDBRANCH  10  11
ENDBRANCH   9  10
ENDBRANCH   8   9
ENDBRANCH   1   8
TORSDOF 8
ENDMDL
MODEL 8
REMARK VINA RESULT:    -2.881      2.199      4.761
REMARK INTER + INTRA:          -5.282
REMARK INTER:                  -4.020
REMARK INTRA:                  -1.262
REMARK UNBOUND:                -1.054
REMARK SMILES CCCCCC(=O)CCCCC
REMARK SMILES IDX 6 1 7 2 5 3 4 4 3 5 2 6 1 7 8 8 9 9 10 10 11 11 12 12
REMARK H PARENT
REMARK Flexibility Score: inf
ROOT
ATOM      1  C   UNL     1     139.612 138.844 141.469  1.00  0.00     0.132 C 
ATOM      2  O   UNL     1     139.609 137.632 141.623  1.00  0.00    -0.300 OA
ENDROOT
BRANCH   1   3
ATOM      3  C   UNL     1     139.718 139.713 142.706  1.00  0.00     0.075 C 
BRANCH   3   4
ATOM      4  C   UNL     1     138.740 140.900 142.755  1.00  0.00     0.008 C 
BRANCH   4   5
ATOM      5  C   UNL     1     139.452 142.257 142.643  1.00  0.00     0.000 C 
BRANCH   5   6
ATOM      6  C   UNL     1     140.974 142.142 142.817  1.00  0.00    -0.003 C 
ATOM      7  C   UNL     1     141.701 143.217 142.013  1.00  0.00     0.004 C 
ENDBRANCH   5   6
ENDBRANCH   4   5
ENDBRANCH   3   4
ENDBRANCH   1   3
BRANCH   1   8
ATOM      8  C   UNL     1     139.504 139.382 140.061  1.00  0.00     0.075 C 
BRANCH   8   9
ATOM      9  C   UNL     1     140.794 140.107 139.660  1.00  0.00     0.008 C 
BRANCH   9  10
ATOM     10  C   UNL     1     142.027 139.237 139.947  1.00  0.00     0.000 C 
BRANCH  10  11
ATOM     11  C   UNL     1     143.170 140.029 140.598  1.00  0.00    -0.003 C 
ATOM     12  C   UNL     1     143.478 139.562 142.021  1.00  0.00     0.004 C 
ENDBRANCH  10  11
ENDBRANCH   9  10
ENDBRANCH   8   9
ENDBRANCH   1   8
TORSDOF 8
ENDMDL
MODEL 9
REMARK VINA RESULT:    -2.791      1.724      3.194
REMARK INTER + INTRA:          -5.150
REMARK INTER:                  -3.941
REMARK INTRA:                  -1.209
REMARK UNBOUND:                -1.054
REMARK SMILES CCCCCC(=O)CCCCC
REMARK SMILES IDX 6 1 7 2 5 3 4 4 3 5 2 6 1 7 8 8 9 9 10 10 11 11 12 12
REMARK H PARENT
REMARK Flexibility Score: inf
ROOT
ATOM      1  C   UNL     1     140.829 139.145 142.259  1.00  0.00     0.132 C 
ATOM      2  O   UNL     1     141.583 138.730 143.125  1.00  0.00    -0.300 OA
ENDROOT
BRANCH   1   3
ATOM      3  C   UNL     1     141.341 139.181 140.833  1.00  0.00     0.075 C 
BRANCH   3   4
ATOM      4  C   UNL     1     142.636 139.986 140.625  1.00  0.00     0.008 C 
BRANCH   4   5
ATOM      5  C   UNL     1     142.610 141.342 141.347  1.00  0.00     0.000 C 
BRANCH   5   6
ATOM      6  C   UNL     1     142.125 142.484 140.442  1.00  0.00    -0.003 C 
ATOM      7  C   UNL     1     141.566 143.640 141.269  1.00  0.00     0.004 C 
ENDBRANCH   5   6
ENDBRANCH   4   5
ENDBRANCH   3   4
ENDBRANCH   1   3
BRANCH   1   8
ATOM      8  C   UNL     1     139.448 139.597 142.675  1.00  0.00     0.075 C 
BRANCH   8   9
ATOM      9  C   UNL     1     139.471 141.064 143.118  1.00  0.00     0.008 C 
BRANCH   9  10
ATOM     10  C   UNL     1     138.507 141.910 142.274  1.00  0.00     0.000 C 
BRANCH  10  11
ATOM     11  C   UNL     1     138.141 141.238 140.943  1.00  0.00    -0.003 C 
ATOM     12  C   UNL     1     138.434 142.124 139.732  1.00  0.00     0.004 C 
ENDBRANCH  10  11
ENDBRANCH   9  10
ENDBRANCH   8   9
ENDBRANCH   1   8
TORSDOF 8
ENDMDL
