MODEL 1
REMARK VINA RESULT:    -3.747      0.000      0.000
REMARK INTER + INTRA:          -4.494
REMARK INTER:                  -4.404
REMARK INTRA:                  -0.090
REMARK UNBOUND:                -0.090
REMARK SMILES CCCCC(=O)[O-]
REMARK SMILES IDX 4 1 5 2 6 3 7 4 3 5 2 6 1 7
REMARK H PARENT
REMARK Flexibility Score: inf
ROOT
ATOM      1  C   UNL     1       8.365   9.701  44.833  1.00  0.00     0.053 C 
ENDROOT
BRANCH   1   2
ATOM      2  C   UNL     1       8.647   9.933  43.382  1.00  0.00     0.041 C 
ATOM      3  O   UNL     1       8.615  11.100  42.908  1.00  0.00    -0.550 OA
ATOM      4  O   UNL     1       8.895   8.856  42.541  1.00  0.00    -0.550 OA
ENDBRANCH   1   2
BRANCH   1   5
ATOM      5  C   UNL     1       9.434   8.788  45.446  1.00  0.00     0.006 C 
BRANCH   5   6
ATOM      6  C   UNL     1      10.840   9.404  45.388  1.00  0.00    -0.003 C 
ATOM      7  C   UNL     1      11.948   8.351  45.404  1.00  0.00     0.004 C 
ENDBRANCH   5   6
ENDBRANCH   1   5
TORSDOF 3
ENDMDL
MODEL 2
REMARK VINA RESULT:    -3.720      9.972     11.316
REMARK INTER + INTRA:          -4.463
REMARK INTER:                  -4.379
REMARK INTRA:                  -0.084
REMARK UNBOUND:                -0.090
REMARK SMILES CCCCC(=O)[O-]
REMARK SMILES IDX 4 1 5 2 6 3 7 4 3 5 2 6 1 7
REMARK H PARENT
REMARK Flexibility Score: inf
ROOT
ATOM      1  C   UNL     1      20.732   9.445  40.417  1.00  0.00     0.053 C 
ENDROOT
BRANCH   1   2
ATOM      2  C   UNL     1      20.602   9.445  41.908  1.00  0.00     0.041 C 
ATOM      3  O   UNL     1      20.277   8.390  42.516  1.00  0.00    -0.550 OA
ATOM      4  O   UNL     1      20.792  10.620  42.623  1.00  0.00    -0.550 OA
ENDBRANCH   1   2
BRANCH   1   5
ATOM      5  C   UNL     1      19.361   9.654  39.761  1.00  0.00     0.006 C 
BRANCH   5   6
ATOM      6  C   UNL     1      18.704   8.333  39.335  1.00  0.00    -0.003 C 
ATOM      7  C   UNL     1      17.276   8.186  39.861  1.00  0.00     0.004 C 
ENDBRANCH   5   6
ENDBRANCH   1   5
TORSDOF 3
ENDMDL
MODEL 3
REMARK VINA RESULT:    -3.661      0.818      1.426
REMARK INTER + INTRA:          -4.393
REMARK INTER:                  -4.329
REMARK INTRA:                  -0.064
REMARK UNBOUND:                -0.090
REMARK SMILES CCCCC(=O)[O-]
REMARK SMILES IDX 4 1 5 2 6 3 7 4 3 5 2 6 1 7
REMARK H PARENT
REMARK Flexibility Score: inf
ROOT
ATOM      1  C   UNL     1       9.201   8.479  43.896  1.00  0.00     0.053 C 
ENDROOT
BRANCH   1   2
ATOM      2  C   UNL     1       8.720   9.391  42.811  1.00  0.00     0.041 C 
ATOM      3  O   UNL     1       8.608   8.967  41.631  1.00  0.00    -0.550 OA
ATOM      4  O   UNL     1       8.441  10.722  43.094  1.00  0.00    -0.550 OA
ENDBRANCH   1   2
BRANCH   1   5
ATOM      5  C   UNL     1       9.473   9.273  45.180  1.00  0.00     0.006 C 
BRANCH   5   6
ATOM      6  C   UNL     1      10.964   9.588  45.374  1.00  0.00    -0.003 C 
ATOM      7  C   UNL     1      11.832   8.330  45.427  1.00  0.00     0.004 C 
ENDBRANCH   5   6
ENDBRANCH   1   5
TORSDOF 3
ENDMDL
MODEL 4
REMARK VINA RESULT:    -3.543     10.761     11.973
REMARK INTER + INTRA:          -4.255
REMARK INTER:                  -4.213
REMARK INTRA:                  -0.042
REMARK UNBOUND:                -0.090
REMARK SMILES CCCCC(=O)[O-]
REMARK SMILES IDX 4 1 5 2 6 3 7 4 3 5 2 6 1 7
REMARK H PARENT
REMARK Flexibility Score: inf
ROOT
ATOM      1  C   UNL     1      20.239   9.469  40.994  1.00  0.00     0.053 C 
ENDROOT
BRANCH   1   2
ATOM      2  C   UNL     1      21.677   9.587  40.598  1.00  0.00     0.041 C 
ATOM      3  O   UNL     1      22.520  10.063  41.404  1.00  0.00    -0.550 OA
ATOM      4  O   UNL     1      22.079   9.216  39.321  1.00  0.00    -0.550 OA
ENDBRANCH   1   2
BRANCH   1   5
ATOM      5  C   UNL     1      19.331   9.665  39.774  1.00  0.00     0.006 C 
BRANCH   5   6
ATOM      6  C   UNL     1      18.666   8.358  39.317  1.00  0.00    -0.003 C 
ATOM      7  C   UNL     1      17.236   8.209  39.835  1.00  0.00     0.004 C 
ENDBRANCH   5   6
ENDBRANCH   1   5
TORSDOF 3
ENDMDL
MODEL 5
REMARK VINA RESULT:    -3.542     12.185     12.894
REMARK INTER + INTRA:          -4.254
REMARK INTER:                  -4.115
REMARK INTRA:                  -0.138
REMARK UNBOUND:                -0.090
REMARK SMILES CCCCC(=O)[O-]
REMARK SMILES IDX 4 1 5 2 6 3 7 4 3 5 2 6 1 7
REMARK H PARENT
REMARK Flexibility Score: inf
ROOT
ATOM      1  C   UNL     1      19.609  16.540  42.608  1.00  0.00     0.053 C 
ENDROOT
BRANCH   1   2
ATOM      2  C   UNL     1      20.968  16.665  41.996  1.00  0.00     0.041 C 
ATOM      3  O   UNL     1      21.169  16.278  40.814  1.00  0.00    -0.550 OA
ATOM      4  O   UNL     1      22.026  17.162  42.746  1.00  0.00    -0.550 OA
ENDBRANCH   1   2
BRANCH   1   5
ATOM      5  C   UNL     1      19.152  15.075  42.602  1.00  0.00     0.006 C 
BRANCH   5   6
ATOM      6  C   UNL     1      20.048  14.174  43.465  1.00  0.00    -0.003 C 
ATOM      7  C   UNL     1      20.582  12.964  42.699  1.00  0.00     0.004 C 
ENDBRANCH   5   6
ENDBRANCH   1   5
TORSDOF 3
ENDMDL
MODEL 6
REMARK VINA RESULT:    -3.385      6.288      7.188
REMARK INTER + INTRA:          -4.069
REMARK INTER:                  -4.006
REMARK INTRA:                  -0.063
REMARK UNBOUND:                -0.090
REMARK SMILES CCCCC(=O)[O-]
REMARK SMILES IDX 4 1 5 2 6 3 7 4 3 5 2 6 1 7
REMARK H PARENT
REMARK Flexibility Score: inf
ROOT
ATOM      1  C   UNL     1       9.587  16.406  41.671  1.00  0.00     0.053 C 
ENDROOT
BRANCH   1   2
ATOM      2  C   UNL     1       8.320  16.742  42.395  1.00  0.00     0.041 C 
ATOM      3  O   UNL     1       8.178  16.423  43.605  1.00  0.00    -0.550 OA
ATOM      4  O   UNL     1       7.278  17.364  41.720  1.00  0.00    -0.550 OA
ENDBRANCH   1   2
BRANCH   1   5
ATOM      5  C   UNL     1      10.004  14.960  41.968  1.00  0.00     0.006 C 
BRANCH   5   6
ATOM      6  C   UNL     1       9.018  13.932  41.393  1.00  0.00    -0.003 C 
ATOM      7  C   UNL     1       9.372  13.507  39.968  1.00  0.00     0.004 C 
ENDBRANCH   5   6
ENDBRANCH   1   5
TORSDOF 3
ENDMDL
MODEL 7
REMARK VINA RESULT:    -3.337     11.492     12.280
REMARK INTER + INTRA:          -4.012
REMARK INTER:                  -3.957
REMARK INTRA:                  -0.056
REMARK UNBOUND:                -0.090
REMARK SMILES CCCCC(=O)[O-]
REMARK SMILES IDX 4 1 5 2 6 3 7 4 3 5 2 6 1 7
REMARK H PARENT
REMARK Flexibility Score: inf
ROOT
ATOM      1  C   UNL     1      20.413  14.088  42.654  1.00  0.00     0.053 C 
ENDROOT
BRANCH   1   2
ATOM      2  C   UNL     1      20.302  13.182  43.840  1.00  0.00     0.041 C 
ATOM      3  O   UNL     1      19.940  13.640  44.956  1.00  0.00    -0.550 OA
ATOM      4  O   UNL     1      20.647  11.841  43.725  1.00  0.00    -0.550 OA
ENDBRANCH   1   2
BRANCH   1   5
ATOM      5  C   UNL     1      19.308  15.151  42.689  1.00  0.00     0.006 C 
BRANCH   5   6
ATOM      6  C   UNL     1      19.841  16.565  42.410  1.00  0.00    -0.003 C 
ATOM      7  C   UNL     1      21.063  16.565  41.492  1.00  0.00     0.004 C 
ENDBRANCH   5   6
ENDBRANCH   1   5
TORSDOF 3
ENDMDL
MODEL 8
REMARK VINA RESULT:    -3.260      4.832      6.114
REMARK INTER + INTRA:          -3.922
REMARK INTER:                  -3.839
REMARK INTRA:                  -0.084
REMARK UNBOUND:                -0.090
REMARK SMILES CCCCC(=O)[O-]
REMARK SMILES IDX 4 1 5 2 6 3 7 4 3 5 2 6 1 7
REMARK H PARENT
REMARK Flexibility Score: inf
ROOT
ATOM      1  C   UNL     1       9.048  14.178  40.770  1.00  0.00     0.053 C 
ENDROOT
BRANCH   1   2
ATOM      2  C   UNL     1       8.851  12.769  41.236  1.00  0.00     0.041 C 
ATOM      3  O   UNL     1       8.552  12.535  42.436  1.00  0.00    -0.550 OA
ATOM      4  O   UNL     1       9.047  11.712  40.356  1.00  0.00    -0.550 OA
ENDBRANCH   1   2
BRANCH   1   5
ATOM      5  C   UNL     1       9.890  14.963  41.783  1.00  0.00     0.006 C 
BRANCH   5   6
ATOM      6  C   UNL     1       9.321  16.362  42.065  1.00  0.00    -0.003 C 
ATOM      7  C   UNL     1       8.205  16.346  43.110  1.00  0.00     0.004 C 
ENDBRANCH   5   6
ENDBRANCH   1   5
TORSDOF 3
ENDMDL
MODEL 9
REMARK VINA RESULT:    -3.236      5.199      6.053
REMARK INTER + INTRA:          -3.893
REMARK INTER:                  -3.867
REMARK INTRA:                  -0.027
REMARK UNBOUND:                -0.090
REMARK SMILES CCCCC(=O)[O-]
REMARK SMILES IDX 4 1 5 2 6 3 7 4 3 5 2 6 1 7
REMARK H PARENT
REMARK Flexibility Score: inf
ROOT
ATOM      1  C   UNL     1       8.999  12.006  40.325  1.00  0.00     0.053 C 
ENDROOT
BRANCH   1   2
ATOM      2  C   UNL     1       9.544  11.220  39.174  1.00  0.00     0.041 C 
ATOM      3  O   UNL     1      10.065  11.813  38.192  1.00  0.00    -0.550 OA
ATOM      4  O   UNL     1       9.432   9.836  39.162  1.00  0.00    -0.550 OA
ENDBRANCH   1   2
BRANCH   1   5
ATOM      5  C   UNL     1       9.221  13.507  40.100  1.00  0.00     0.006 C 
BRANCH   5   6
ATOM      6  C   UNL     1       9.409  14.279  41.414  1.00  0.00    -0.003 C 
ATOM      7  C   UNL     1       8.931  15.728  41.322  1.00  0.00     0.004 C 
ENDBRANCH   5   6
ENDBRANCH   1   5
TORSDOF 3
ENDMDL
