MODEL 1
REMARK VINA RESULT:    -4.943      0.000      0.000
REMARK INTER + INTRA:          -7.995
REMARK INTER:                  -7.544
REMARK INTRA:                  -0.451
REMARK UNBOUND:                -0.451
REMARK SMILES O=C([O-])CCCCCCCCC(=O)[O-]
REMARK SMILES IDX 7 1 6 2 5 3 4 4 2 5 1 6 3 7 8 8 9 9 10 10 11 11 12 12 13 13
REMARK SMILES IDX 14 14
REMARK H PARENT
REMARK Flexibility Score: inf
ROOT
ATOM      1  C   UNL     1      25.075  72.170  27.665  1.00  0.00     0.000 C 
ENDROOT
BRANCH   1   2
ATOM      2  C   UNL     1      25.755  73.544  27.547  1.00  0.00     0.000 C 
BRANCH   2   3
ATOM      3  C   UNL     1      24.874  74.686  28.078  1.00  0.00     0.006 C 
BRANCH   3   4
ATOM      4  C   UNL     1      23.813  74.198  29.073  1.00  0.00     0.053 C 
BRANCH   4   5
ATOM      5  C   UNL     1      24.150  74.646  30.459  1.00  0.00     0.041 C 
ATOM      6  O   UNL     1      23.548  74.153  31.449  1.00  0.00    -0.550 OA
ATOM      7  O   UNL     1      25.166  75.572  30.662  1.00  0.00    -0.550 OA
ENDBRANCH   4   5
ENDBRANCH   3   4
ENDBRANCH   2   3
ENDBRANCH   1   2
BRANCH   1   8
ATOM      8  C   UNL     1      25.932  71.031  27.087  1.00  0.00     0.000 C 
BRANCH   8   9
ATOM      9  C   UNL     1      25.144  69.718  26.936  1.00  0.00     0.000 C 
BRANCH   9  10
ATOM     10  C   UNL     1      23.892  69.677  27.828  1.00  0.00     0.006 C 
BRANCH  10  11
ATOM     11  C   UNL     1      22.863  68.640  27.355  1.00  0.00     0.053 C 
BRANCH  11  12
ATOM     12  C   UNL     1      21.473  69.139  27.596  1.00  0.00     0.041 C 
ATOM     13  O   UNL     1      20.752  68.604  28.479  1.00  0.00    -0.550 OA
ATOM     14  O   UNL     1      20.955  70.162  26.811  1.00  0.00    -0.550 OA
ENDBRANCH  11  12
ENDBRANCH  10  11
ENDBRANCH   9  10
ENDBRANCH   8   9
ENDBRANCH   1   8
TORSDOF 9
ENDMDL
MODEL 2
REMARK VINA RESULT:    -4.480      9.746     11.757
REMARK INTER + INTRA:          -7.289
REMARK INTER:                  -6.529
REMARK INTRA:                  -0.759
REMARK UNBOUND:                -0.451
REMARK SMILES O=C([O-])CCCCCCCCC(=O)[O-]
REMARK SMILES IDX 7 1 6 2 5 3 4 4 2 5 1 6 3 7 8 8 9 9 10 10 11 11 12 12 13 13
REMARK SMILES IDX 14 14
REMARK H PARENT
REMARK Flexibility Score: inf
ROOT
ATOM      1  C   UNL     1      16.768  65.990  35.735  1.00  0.00     0.000 C 
ENDROOT
BRANCH   1   2
ATOM      2  C   UNL     1      16.148  67.383  35.942  1.00  0.00     0.000 C 
BRANCH   2   3
ATOM      3  C   UNL     1      16.462  68.346  34.787  1.00  0.00     0.006 C 
BRANCH   3   4
ATOM      4  C   UNL     1      15.722  67.977  33.494  1.00  0.00     0.053 C 
BRANCH   4   5
ATOM      5  C   UNL     1      15.752  69.120  32.530  1.00  0.00     0.041 C 
ATOM      6  O   UNL     1      16.718  69.928  32.535  1.00  0.00    -0.550 OA
ATOM      7  O   UNL     1      14.738  69.265  31.592  1.00  0.00    -0.550 OA
ENDBRANCH   4   5
ENDBRANCH   3   4
ENDBRANCH   2   3
ENDBRANCH   1   2
BRANCH   1   8
ATOM      8  C   UNL     1      17.684  65.569  36.896  1.00  0.00     0.000 C 
BRANCH   8   9
ATOM      9  C   UNL     1      17.382  66.339  38.194  1.00  0.00     0.000 C 
BRANCH   9  10
ATOM     10  C   UNL     1      18.625  67.040  38.766  1.00  0.00     0.006 C 
BRANCH  10  11
ATOM     11  C   UNL     1      19.574  67.548  37.672  1.00  0.00     0.053 C 
BRANCH  11  12
ATOM     12  C   UNL     1      19.240  68.961  37.308  1.00  0.00     0.041 C 
ATOM     13  O   UNL     1      19.576  69.422  36.185  1.00  0.00    -0.550 OA
ATOM     14  O   UNL     1      18.602  69.783  38.228  1.00  0.00    -0.550 OA
ENDBRANCH  11  12
ENDBRANCH  10  11
ENDBRANCH   9  10
ENDBRANCH   8   9
ENDBRANCH   1   8
TORSDOF 9
ENDMDL
MODEL 3
REMARK VINA RESULT:    -4.440     10.283     12.156
REMARK INTER + INTRA:          -7.227
REMARK INTER:                  -6.392
REMARK INTRA:                  -0.835
REMARK UNBOUND:                -0.451
REMARK SMILES O=C([O-])CCCCCCCCC(=O)[O-]
REMARK SMILES IDX 7 1 6 2 5 3 4 4 2 5 1 6 3 7 8 8 9 9 10 10 11 11 12 12 13 13
REMARK SMILES IDX 14 14
REMARK H PARENT
REMARK Flexibility Score: inf
ROOT
ATOM      1  C   UNL     1      17.049  66.299  37.465  1.00  0.00     0.000 C 
ENDROOT
BRANCH   1   2
ATOM      2  C   UNL     1      17.196  66.716  35.992  1.00  0.00     0.000 C 
BRANCH   2   3
ATOM      3  C   UNL     1      16.692  68.144  35.730  1.00  0.00     0.006 C 
BRANCH   3   4
ATOM      4  C   UNL     1      17.825  69.111  35.362  1.00  0.00     0.053 C 
BRANCH   4   5
ATOM      5  C   UNL     1      17.421  69.976  34.210  1.00  0.00     0.041 C 
ATOM      6  O   UNL     1      17.178  69.462  33.087  1.00  0.00    -0.550 OA
ATOM      7  O   UNL     1      17.263  71.344  34.390  1.00  0.00    -0.550 OA
ENDBRANCH   4   5
ENDBRANCH   3   4
ENDBRANCH   2   3
ENDBRANCH   1   2
BRANCH   1   8
ATOM      8  C   UNL     1      18.365  65.779  38.069  1.00  0.00     0.000 C 
BRANCH   8   9
ATOM      9  C   UNL     1      19.592  66.559  37.567  1.00  0.00     0.000 C 
BRANCH   9  10
ATOM     10  C   UNL     1      19.783  67.895  38.303  1.00  0.00     0.006 C 
BRANCH  10  11
ATOM     11  C   UNL     1      19.574  67.770  39.819  1.00  0.00     0.053 C 
BRANCH  11  12
ATOM     12  C   UNL     1      18.628  68.824  40.303  1.00  0.00     0.041 C 
ATOM     13  O   UNL     1      18.826  69.395  41.408  1.00  0.00    -0.550 OA
ATOM     14  O   UNL     1      17.500  69.141  39.556  1.00  0.00    -0.550 OA
ENDBRANCH  11  12
ENDBRANCH  10  11
ENDBRANCH   9  10
ENDBRANCH   8   9
ENDBRANCH   1   8
TORSDOF 9
ENDMDL
MODEL 4
REMARK VINA RESULT:    -4.425      9.885     11.823
REMARK INTER + INTRA:          -7.205
REMARK INTER:                  -6.693
REMARK INTRA:                  -0.512
REMARK UNBOUND:                -0.451
REMARK SMILES O=C([O-])CCCCCCCCC(=O)[O-]
REMARK SMILES IDX 7 1 6 2 5 3 4 4 2 5 1 6 3 7 8 8 9 9 10 10 11 11 12 12 13 13
REMARK SMILES IDX 14 14
REMARK H PARENT
REMARK Flexibility Score: inf
ROOT
ATOM      1  C   UNL     1      15.521  67.364  35.117  1.00  0.00     0.000 C 
ENDROOT
BRANCH   1   2
ATOM      2  C   UNL     1      15.727  67.534  33.603  1.00  0.00     0.000 C 
BRANCH   2   3
ATOM      3  C   UNL     1      15.733  69.009  33.171  1.00  0.00     0.006 C 
BRANCH   3   4
ATOM      4  C   UNL     1      17.150  69.588  33.068  1.00  0.00     0.053 C 
BRANCH   4   5
ATOM      5  C   UNL     1      17.457  70.435  34.262  1.00  0.00     0.041 C 
ATOM      6  O   UNL     1      17.175  71.661  34.258  1.00  0.00    -0.550 OA
ATOM      7  O   UNL     1      18.008  69.858  35.400  1.00  0.00    -0.550 OA
ENDBRANCH   4   5
ENDBRANCH   3   4
ENDBRANCH   2   3
ENDBRANCH   1   2
BRANCH   1   8
ATOM      8  C   UNL     1      16.571  66.441  35.759  1.00  0.00     0.000 C 
BRANCH   8   9
ATOM      9  C   UNL     1      17.118  67.002  37.083  1.00  0.00     0.000 C 
BRANCH   9  10
ATOM     10  C   UNL     1      17.766  65.918  37.960  1.00  0.00     0.006 C 
BRANCH  10  11
ATOM     11  C   UNL     1      17.828  66.315  39.441  1.00  0.00     0.053 C 
BRANCH  11  12
ATOM     12  C   UNL     1      18.500  67.643  39.597  1.00  0.00     0.041 C 
ATOM     13  O   UNL     1      19.737  67.756  39.388  1.00  0.00    -0.550 OA
ATOM     14  O   UNL     1      17.770  68.746  40.022  1.00  0.00    -0.550 OA
ENDBRANCH  11  12
ENDBRANCH  10  11
ENDBRANCH   9  10
ENDBRANCH   8   9
ENDBRANCH   1   8
TORSDOF 9
ENDMDL
MODEL 5
REMARK VINA RESULT:    -4.424     10.112     14.007
REMARK INTER + INTRA:          -7.202
REMARK INTER:                  -6.964
REMARK INTRA:                  -0.238
REMARK UNBOUND:                -0.451
REMARK SMILES O=C([O-])CCCCCCCCC(=O)[O-]
REMARK SMILES IDX 7 1 6 2 5 3 4 4 2 5 1 6 3 7 8 8 9 9 10 10 11 11 12 12 13 13
REMARK SMILES IDX 14 14
REMARK H PARENT
REMARK Flexibility Score: inf
ROOT
ATOM      1  C   UNL     1      14.779  65.170  33.140  1.00  0.00     0.000 C 
ENDROOT
BRANCH   1   2
ATOM      2  C   UNL     1      13.738  64.291  32.426  1.00  0.00     0.000 C 
BRANCH   2   3
ATOM      3  C   UNL     1      12.611  63.830  33.364  1.00  0.00     0.006 C 
BRANCH   3   4
ATOM      4  C   UNL     1      11.453  63.163  32.611  1.00  0.00     0.053 C 
BRANCH   4   5
ATOM      5  C   UNL     1      11.567  61.674  32.690  1.00  0.00     0.041 C 
ATOM      6  O   UNL     1      11.965  61.124  33.750  1.00  0.00    -0.550 OA
ATOM      7  O   UNL     1      11.187  60.890  31.608  1.00  0.00    -0.550 OA
ENDBRANCH   4   5
ENDBRANCH   3   4
ENDBRANCH   2   3
ENDBRANCH   1   2
BRANCH   1   8
ATOM      8  C   UNL     1      14.868  66.586  32.546  1.00  0.00     0.000 C 
BRANCH   8   9
ATOM      9  C   UNL     1      15.459  67.604  33.537  1.00  0.00     0.000 C 
BRANCH   9  10
ATOM     10  C   UNL     1      15.620  69.002  32.919  1.00  0.00     0.006 C 
BRANCH  10  11
ATOM     11  C   UNL     1      17.075  69.491  32.932  1.00  0.00     0.053 C 
BRANCH  11  12
ATOM     12  C   UNL     1      17.382  70.177  34.227  1.00  0.00     0.041 C 
ATOM     13  O   UNL     1      17.196  71.416  34.348  1.00  0.00    -0.550 OA
ATOM     14  O   UNL     1      17.922  69.455  35.284  1.00  0.00    -0.550 OA
ENDBRANCH  11  12
ENDBRANCH  10  11
ENDBRANCH   9  10
ENDBRANCH   8   9
ENDBRANCH   1   8
TORSDOF 9
ENDMDL
MODEL 6
REMARK VINA RESULT:    -4.382      9.798     11.965
REMARK INTER + INTRA:          -7.140
REMARK INTER:                  -6.863
REMARK INTRA:                  -0.276
REMARK UNBOUND:                -0.451
REMARK SMILES O=C([O-])CCCCCCCCC(=O)[O-]
REMARK SMILES IDX 7 1 6 2 5 3 4 4 2 5 1 6 3 7 8 8 9 9 10 10 11 11 12 12 13 13
REMARK SMILES IDX 14 14
REMARK H PARENT
REMARK Flexibility Score: inf
ROOT
ATOM      1  C   UNL     1      15.383  66.028  33.418  1.00  0.00     0.000 C 
ENDROOT
BRANCH   1   2
ATOM      2  C   UNL     1      15.356  67.543  33.153  1.00  0.00     0.000 C 
BRANCH   2   3
ATOM      3  C   UNL     1      16.370  68.311  34.016  1.00  0.00     0.006 C 
BRANCH   3   4
ATOM      4  C   UNL     1      16.653  69.720  33.479  1.00  0.00     0.053 C 
BRANCH   4   5
ATOM      5  C   UNL     1      17.422  70.518  34.483  1.00  0.00     0.041 C 
ATOM      6  O   UNL     1      17.425  71.775  34.427  1.00  0.00    -0.550 OA
ATOM      7  O   UNL     1      18.096  69.873  35.514  1.00  0.00    -0.550 OA
ENDBRANCH   4   5
ENDBRANCH   3   4
ENDBRANCH   2   3
ENDBRANCH   1   2
BRANCH   1   8
ATOM      8  C   UNL     1      14.316  65.265  32.615  1.00  0.00     0.000 C 
BRANCH   8   9
ATOM      9  C   UNL     1      14.824  63.906  32.104  1.00  0.00     0.000 C 
BRANCH   9  10
ATOM     10  C   UNL     1      13.706  63.059  31.473  1.00  0.00     0.006 C 
BRANCH  10  11
ATOM     11  C   UNL     1      12.319  63.696  31.633  1.00  0.00     0.053 C 
BRANCH  11  12
ATOM     12  C   UNL     1      11.512  62.939  32.642  1.00  0.00     0.041 C 
ATOM     13  O   UNL     1      11.541  63.273  33.856  1.00  0.00    -0.550 OA
ATOM     14  O   UNL     1      10.766  61.835  32.248  1.00  0.00    -0.550 OA
ENDBRANCH  11  12
ENDBRANCH  10  11
ENDBRANCH   9  10
ENDBRANCH   8   9
ENDBRANCH   1   8
TORSDOF 9
ENDMDL
MODEL 7
REMARK VINA RESULT:    -4.365      9.444     11.679
REMARK INTER + INTRA:          -7.112
REMARK INTER:                  -6.584
REMARK INTRA:                  -0.529
REMARK UNBOUND:                -0.451
REMARK SMILES O=C([O-])CCCCCCCCC(=O)[O-]
REMARK SMILES IDX 7 1 6 2 5 3 4 4 2 5 1 6 3 7 8 8 9 9 10 10 11 11 12 12 13 13
REMARK SMILES IDX 14 14
REMARK H PARENT
REMARK Flexibility Score: inf
ROOT
ATOM      1  C   UNL     1      16.439  66.311  35.089  1.00  0.00     0.000 C 
ENDROOT
BRANCH   1   2
ATOM      2  C   UNL     1      16.777  66.672  36.546  1.00  0.00     0.000 C 
BRANCH   2   3
ATOM      3  C   UNL     1      17.383  65.492  37.321  1.00  0.00     0.006 C 
BRANCH   3   4
ATOM      4  C   UNL     1      17.975  65.916  38.672  1.00  0.00     0.053 C 
BRANCH   4   5
ATOM      5  C   UNL     1      19.282  66.616  38.472  1.00  0.00     0.041 C 
ATOM      6  O   UNL     1      19.600  67.587  39.208  1.00  0.00    -0.550 OA
ATOM      7  O   UNL     1      20.172  66.164  37.506  1.00  0.00    -0.550 OA
ENDBRANCH   4   5
ENDBRANCH   3   4
ENDBRANCH   2   3
ENDBRANCH   1   2
BRANCH   1   8
ATOM      8  C   UNL     1      15.250  67.115  34.537  1.00  0.00     0.000 C 
BRANCH   8   9
ATOM      9  C   UNL     1      15.482  67.594  33.094  1.00  0.00     0.000 C 
BRANCH   9  10
ATOM     10  C   UNL     1      15.531  69.126  32.981  1.00  0.00     0.006 C 
BRANCH  10  11
ATOM     11  C   UNL     1      16.966  69.669  32.926  1.00  0.00     0.053 C 
BRANCH  11  12
ATOM     12  C   UNL     1      17.305  70.375  34.201  1.00  0.00     0.041 C 
ATOM     13  O   UNL     1      17.189  71.626  34.283  1.00  0.00    -0.550 OA
ATOM     14  O   UNL     1      17.797  69.656  35.284  1.00  0.00    -0.550 OA
ENDBRANCH  11  12
ENDBRANCH  10  11
ENDBRANCH   9  10
ENDBRANCH   8   9
ENDBRANCH   1   8
TORSDOF 9
ENDMDL
MODEL 8
REMARK VINA RESULT:    -4.327      9.688     12.034
REMARK INTER + INTRA:          -7.055
REMARK INTER:                  -6.524
REMARK INTRA:                  -0.531
REMARK UNBOUND:                -0.451
REMARK SMILES O=C([O-])CCCCCCCCC(=O)[O-]
REMARK SMILES IDX 7 1 6 2 5 3 4 4 2 5 1 6 3 7 8 8 9 9 10 10 11 11 12 12 13 13
REMARK SMILES IDX 14 14
REMARK H PARENT
REMARK Flexibility Score: inf
ROOT
ATOM      1  C   UNL     1      15.258  69.187  32.584  1.00  0.00     0.000 C 
ENDROOT
BRANCH   1   2
ATOM      2  C   UNL     1      14.984  67.713  32.241  1.00  0.00     0.000 C 
BRANCH   2   3
ATOM      3  C   UNL     1      15.060  66.797  33.473  1.00  0.00     0.006 C 
BRANCH   3   4
ATOM      4  C   UNL     1      15.668  65.425  33.151  1.00  0.00     0.053 C 
BRANCH   4   5
ATOM      5  C   UNL     1      14.635  64.524  32.551  1.00  0.00     0.041 C 
ATOM      6  O   UNL     1      14.931  63.781  31.579  1.00  0.00    -0.550 OA
ATOM      7  O   UNL     1      13.359  64.469  33.098  1.00  0.00    -0.550 OA
ENDBRANCH   4   5
ENDBRANCH   3   4
ENDBRANCH   2   3
ENDBRANCH   1   2
BRANCH   1   8
ATOM      8  C   UNL     1      16.750  69.474  32.824  1.00  0.00     0.000 C 
BRANCH   8   9
ATOM      9  C   UNL     1      17.015  70.095  34.207  1.00  0.00     0.000 C 
BRANCH   9  10
ATOM     10  C   UNL     1      17.464  69.053  35.244  1.00  0.00     0.006 C 
BRANCH  10  11
ATOM     11  C   UNL     1      18.751  69.461  35.975  1.00  0.00     0.053 C 
BRANCH  11  12
ATOM     12  C   UNL     1      19.092  68.456  37.030  1.00  0.00     0.041 C 
ATOM     13  O   UNL     1      19.883  68.758  37.962  1.00  0.00    -0.550 OA
ATOM     14  O   UNL     1      18.576  67.168  36.954  1.00  0.00    -0.550 OA
ENDBRANCH  11  12
ENDBRANCH  10  11
ENDBRANCH   9  10
ENDBRANCH   8   9
ENDBRANCH   1   8
TORSDOF 9
ENDMDL
MODEL 9
REMARK VINA RESULT:    -4.283      9.655     11.446
REMARK INTER + INTRA:          -6.987
REMARK INTER:                  -6.284
REMARK INTRA:                  -0.703
REMARK UNBOUND:                -0.451
REMARK SMILES O=C([O-])CCCCCCCCC(=O)[O-]
REMARK SMILES IDX 7 1 6 2 5 3 4 4 2 5 1 6 3 7 8 8 9 9 10 10 11 11 12 12 13 13
REMARK SMILES IDX 14 14
REMARK H PARENT
REMARK Flexibility Score: inf
ROOT
ATOM      1  C   UNL     1      16.770  66.623  36.645  1.00  0.00     0.000 C 
ENDROOT
BRANCH   1   2
ATOM      2  C   UNL     1      17.804  66.274  37.729  1.00  0.00     0.000 C 
BRANCH   2   3
ATOM      3  C   UNL     1      19.151  66.982  37.509  1.00  0.00     0.006 C 
BRANCH   3   4
ATOM      4  C   UNL     1      19.607  67.776  38.740  1.00  0.00     0.053 C 
BRANCH   4   5
ATOM      5  C   UNL     1      18.679  68.921  38.997  1.00  0.00     0.041 C 
ATOM      6  O   UNL     1      18.602  69.870  38.174  1.00  0.00    -0.550 OA
ATOM      7  O   UNL     1      17.861  68.914  40.120  1.00  0.00    -0.550 OA
ENDBRANCH   4   5
ENDBRANCH   3   4
ENDBRANCH   2   3
ENDBRANCH   1   2
BRANCH   1   8
ATOM      8  C   UNL     1      17.061  65.933  35.302  1.00  0.00     0.000 C 
BRANCH   8   9
ATOM      9  C   UNL     1      16.258  66.544  34.140  1.00  0.00     0.000 C 
BRANCH   9  10
ATOM     10  C   UNL     1      15.758  67.964  34.452  1.00  0.00     0.006 C 
BRANCH  10  11
ATOM     11  C   UNL     1      16.374  69.024  33.528  1.00  0.00     0.053 C 
BRANCH  11  12
ATOM     12  C   UNL     1      17.314  69.900  34.295  1.00  0.00     0.041 C 
ATOM     13  O   UNL     1      18.202  69.389  35.027  1.00  0.00    -0.550 OA
ATOM     14  O   UNL     1      17.179  71.282  34.239  1.00  0.00    -0.550 OA
ENDBRANCH  11  12
ENDBRANCH  10  11
ENDBRANCH   9  10
ENDBRANCH   8   9
ENDBRANCH   1   8
TORSDOF 9
ENDMDL
