MODEL 1
REMARK VINA RESULT:    -6.421      0.000      0.000
REMARK INTER + INTRA:         -10.757
REMARK INTER:                  -9.799
REMARK INTRA:                  -0.958
REMARK UNBOUND:                -0.958
REMARK SMILES CCCCCCCCCCC(=O)[O-]
REMARK SMILES IDX 7 1 8 2 9 3 10 4 11 5 12 6 13 7 6 8 5 9 4 10 3 11 2 12 1 13
REMARK H PARENT
REMARK Flexibility Score: inf
ROOT
ATOM      1  C   UNL     1      28.638  -4.491  18.536  1.00  0.00     0.000 C 
ENDROOT
BRANCH   1   2
ATOM      2  C   UNL     1      27.154  -4.892  18.453  1.00  0.00     0.000 C 
BRANCH   2   3
ATOM      3  C   UNL     1      26.602  -5.420  19.785  1.00  0.00     0.006 C 
BRANCH   3   4
ATOM      4  C   UNL     1      25.097  -5.680  19.691  1.00  0.00     0.053 C 
BRANCH   4   5
ATOM      5  C   UNL     1      24.771  -7.058  20.175  1.00  0.00     0.041 C 
ATOM      6  O   UNL     1      23.591  -7.352  20.501  1.00  0.00    -0.550 OA
ATOM      7  O   UNL     1      25.760  -8.031  20.219  1.00  0.00    -0.550 OA
ENDBRANCH   4   5
ENDBRANCH   3   4
ENDBRANCH   2   3
ENDBRANCH   1   2
BRANCH   1   8
ATOM      8  C   UNL     1      29.002  -3.596  19.737  1.00  0.00     0.000 C 
BRANCH   8   9
ATOM      9  C   UNL     1      29.225  -2.107  19.403  1.00  0.00    -0.000 C 
BRANCH   9  10
ATOM     10  C   UNL     1      27.960  -1.230  19.455  1.00  0.00    -0.000 C 
BRANCH  10  11
ATOM     11  C   UNL     1      26.945  -1.709  20.506  1.00  0.00    -0.000 C 
BRANCH  11  12
ATOM     12  C   UNL     1      25.524  -1.832  19.938  1.00  0.00    -0.003 C 
ATOM     13  C   UNL     1      24.836  -0.478  19.760  1.00  0.00     0.004 C 
ENDBRANCH  11  12
ENDBRANCH  10  11
ENDBRANCH   9  10
ENDBRANCH   8   9
ENDBRANCH   1   8
TORSDOF 9
ENDMDL
MODEL 2
REMARK VINA RESULT:    -6.362      2.931      5.680
REMARK INTER + INTRA:         -10.666
REMARK INTER:                 -10.049
REMARK INTRA:                  -0.617
REMARK UNBOUND:                -0.958
REMARK SMILES CCCCCCCCCCC(=O)[O-]
REMARK SMILES IDX 7 1 8 2 9 3 10 4 11 5 12 6 13 7 6 8 5 9 4 10 3 11 2 12 1 13
REMARK H PARENT
REMARK Flexibility Score: inf
ROOT
ATOM      1  C   UNL     1      25.572  -3.014  19.825  1.00  0.00     0.000 C 
ENDROOT
BRANCH   1   2
ATOM      2  C   UNL     1      26.279  -1.646  19.851  1.00  0.00     0.000 C 
BRANCH   2   3
ATOM      3  C   UNL     1      27.651  -1.698  20.540  1.00  0.00     0.006 C 
BRANCH   3   4
ATOM      4  C   UNL     1      28.773  -1.376  19.550  1.00  0.00     0.053 C 
BRANCH   4   5
ATOM      5  C   UNL     1      29.642  -2.575  19.334  1.00  0.00     0.041 C 
ATOM      6  O   UNL     1      29.864  -3.374  20.280  1.00  0.00    -0.550 OA
ATOM      7  O   UNL     1      30.164  -2.837  18.074  1.00  0.00    -0.550 OA
ENDBRANCH   4   5
ENDBRANCH   3   4
ENDBRANCH   2   3
ENDBRANCH   1   2
BRANCH   1   8
ATOM      8  C   UNL     1      26.301  -4.107  19.019  1.00  0.00     0.000 C 
BRANCH   8   9
ATOM      9  C   UNL     1      26.836  -5.290  19.851  1.00  0.00    -0.000 C 
BRANCH   9  10
ATOM     10  C   UNL     1      26.689  -6.673  19.190  1.00  0.00    -0.000 C 
BRANCH  10  11
ATOM     11  C   UNL     1      26.168  -7.746  20.159  1.00  0.00    -0.000 C 
BRANCH  11  12
ATOM     12  C   UNL     1      24.764  -7.425  20.694  1.00  0.00    -0.003 C 
ATOM     13  C   UNL     1      23.943  -8.678  20.999  1.00  0.00     0.004 C 
ENDBRANCH  11  12
ENDBRANCH  10  11
ENDBRANCH   9  10
ENDBRANCH   8   9
ENDBRANCH   1   8
TORSDOF 9
ENDMDL
MODEL 3
REMARK VINA RESULT:    -6.296      2.763      5.674
REMARK INTER + INTRA:         -10.567
REMARK INTER:                  -9.983
REMARK INTRA:                  -0.583
REMARK UNBOUND:                -0.958
REMARK SMILES CCCCCCCCCCC(=O)[O-]
REMARK SMILES IDX 7 1 8 2 9 3 10 4 11 5 12 6 13 7 6 8 5 9 4 10 3 11 2 12 1 13
REMARK H PARENT
REMARK Flexibility Score: inf
ROOT
ATOM      1  C   UNL     1      26.565  -2.109  20.476  1.00  0.00     0.000 C 
ENDROOT
BRANCH   1   2
ATOM      2  C   UNL     1      27.130  -0.915  19.686  1.00  0.00     0.000 C 
BRANCH   2   3
ATOM      3  C   UNL     1      28.562  -1.155  19.184  1.00  0.00     0.006 C 
BRANCH   3   4
ATOM      4  C   UNL     1      29.238  -2.279  19.973  1.00  0.00     0.053 C 
BRANCH   4   5
ATOM      5  C   UNL     1      29.906  -3.244  19.045  1.00  0.00     0.041 C 
ATOM      6  O   UNL     1      31.162  -3.316  19.003  1.00  0.00    -0.550 OA
ATOM      7  O   UNL     1      29.141  -4.100  18.263  1.00  0.00    -0.550 OA
ENDBRANCH   4   5
ENDBRANCH   3   4
ENDBRANCH   2   3
ENDBRANCH   1   2
BRANCH   1   8
ATOM      8  C   UNL     1      25.530  -2.961  19.715  1.00  0.00     0.000 C 
BRANCH   8   9
ATOM      9  C   UNL     1      25.874  -4.459  19.595  1.00  0.00    -0.000 C 
BRANCH   9  10
ATOM     10  C   UNL     1      24.677  -5.382  19.301  1.00  0.00    -0.000 C 
BRANCH  10  11
ATOM     11  C   UNL     1      24.913  -6.830  19.761  1.00  0.00    -0.000 C 
BRANCH  11  12
ATOM     12  C   UNL     1      26.398  -7.224  19.729  1.00  0.00    -0.003 C 
ATOM     13  C   UNL     1      26.667  -8.583  20.376  1.00  0.00     0.004 C 
ENDBRANCH  11  12
ENDBRANCH  10  11
ENDBRANCH   9  10
ENDBRANCH   8   9
ENDBRANCH   1   8
TORSDOF 9
ENDMDL
MODEL 4
REMARK VINA RESULT:    -6.224      0.867      1.659
REMARK INTER + INTRA:         -10.456
REMARK INTER:                  -9.656
REMARK INTRA:                  -0.800
REMARK UNBOUND:                -0.958
REMARK SMILES CCCCCCCCCCC(=O)[O-]
REMARK SMILES IDX 7 1 8 2 9 3 10 4 11 5 12 6 13 7 6 8 5 9 4 10 3 11 2 12 1 13
REMARK H PARENT
REMARK Flexibility Score: inf
ROOT
ATOM      1  C   UNL     1      28.858  -3.731  19.684  1.00  0.00     0.000 C 
ENDROOT
BRANCH   1   2
ATOM      2  C   UNL     1      28.265  -4.525  18.506  1.00  0.00     0.000 C 
BRANCH   2   3
ATOM      3  C   UNL     1      26.733  -4.623  18.565  1.00  0.00     0.006 C 
BRANCH   3   4
ATOM      4  C   UNL     1      26.278  -5.335  19.842  1.00  0.00     0.053 C 
BRANCH   4   5
ATOM      5  C   UNL     1      25.787  -6.713  19.529  1.00  0.00     0.041 C 
ATOM      6  O   UNL     1      26.575  -7.693  19.579  1.00  0.00    -0.550 OA
ATOM      7  O   UNL     1      24.446  -6.922  19.232  1.00  0.00    -0.550 OA
ENDBRANCH   4   5
ENDBRANCH   3   4
ENDBRANCH   2   3
ENDBRANCH   1   2
BRANCH   1   8
ATOM      8  C   UNL     1      29.403  -2.336  19.319  1.00  0.00     0.000 C 
BRANCH   8   9
ATOM      9  C   UNL     1      28.391  -1.180  19.456  1.00  0.00    -0.000 C 
BRANCH   9  10
ATOM     10  C   UNL     1      27.247  -1.429  20.456  1.00  0.00    -0.000 C 
BRANCH  10  11
ATOM     11  C   UNL     1      25.857  -1.177  19.848  1.00  0.00    -0.000 C 
BRANCH  11  12
ATOM     12  C   UNL     1      25.476   0.311  19.847  1.00  0.00    -0.003 C 
ATOM     13  C   UNL     1      24.072   0.564  19.296  1.00  0.00     0.004 C 
ENDBRANCH  11  12
ENDBRANCH  10  11
ENDBRANCH   9  10
ENDBRANCH   8   9
ENDBRANCH   1   8
TORSDOF 9
ENDMDL
MODEL 5
REMARK VINA RESULT:    -6.197      3.595      5.684
REMARK INTER + INTRA:         -10.415
REMARK INTER:                  -9.680
REMARK INTRA:                  -0.735
REMARK UNBOUND:                -0.958
REMARK SMILES CCCCCCCCCCC(=O)[O-]
REMARK SMILES IDX 7 1 8 2 9 3 10 4 11 5 12 6 13 7 6 8 5 9 4 10 3 11 2 12 1 13
REMARK H PARENT
REMARK Flexibility Score: inf
ROOT
ATOM      1  C   UNL     1      29.185  -3.374  19.749  1.00  0.00     0.000 C 
ENDROOT
BRANCH   1   2
ATOM      2  C   UNL     1      28.992  -1.875  19.452  1.00  0.00     0.000 C 
BRANCH   2   3
ATOM      3  C   UNL     1      28.082  -1.177  20.473  1.00  0.00     0.006 C 
BRANCH   3   4
ATOM      4  C   UNL     1      26.634  -1.137  19.979  1.00  0.00     0.053 C 
BRANCH   4   5
ATOM      5  C   UNL     1      26.181   0.278  19.797  1.00  0.00     0.041 C 
ATOM      6  O   UNL     1      24.953   0.554  19.796  1.00  0.00    -0.550 OA
ATOM      7  O   UNL     1      27.116   1.298  19.681  1.00  0.00    -0.550 OA
ENDBRANCH   4   5
ENDBRANCH   3   4
ENDBRANCH   2   3
ENDBRANCH   1   2
BRANCH   1   8
ATOM      8  C   UNL     1      28.813  -4.319  18.589  1.00  0.00     0.000 C 
BRANCH   8   9
ATOM      9  C   UNL     1      27.304  -4.593  18.424  1.00  0.00    -0.000 C 
BRANCH   9  10
ATOM     10  C   UNL     1      26.545  -4.878  19.734  1.00  0.00    -0.000 C 
BRANCH  10  11
ATOM     11  C   UNL     1      25.725  -6.177  19.677  1.00  0.00    -0.000 C 
BRANCH  11  12
ATOM     12  C   UNL     1      26.569  -7.388  19.252  1.00  0.00    -0.003 C 
ATOM     13  C   UNL     1      26.714  -8.430  20.362  1.00  0.00     0.004 C 
ENDBRANCH  11  12
ENDBRANCH  10  11
ENDBRANCH   9  10
ENDBRANCH   8   9
ENDBRANCH   1   8
TORSDOF 9
ENDMDL
MODEL 6
REMARK VINA RESULT:    -6.082      0.933      1.583
REMARK INTER + INTRA:         -10.240
REMARK INTER:                  -9.597
REMARK INTRA:                  -0.642
REMARK UNBOUND:                -0.958
REMARK SMILES CCCCCCCCCCC(=O)[O-]
REMARK SMILES IDX 7 1 8 2 9 3 10 4 11 5 12 6 13 7 6 8 5 9 4 10 3 11 2 12 1 13
REMARK H PARENT
REMARK Flexibility Score: inf
ROOT
ATOM      1  C   UNL     1      27.052  -4.694  18.157  1.00  0.00     0.000 C 
ENDROOT
BRANCH   1   2
ATOM      2  C   UNL     1      26.063  -4.667  19.336  1.00  0.00     0.000 C 
BRANCH   2   3
ATOM      3  C   UNL     1      25.832  -6.054  19.953  1.00  0.00     0.006 C 
BRANCH   3   4
ATOM      4  C   UNL     1      24.383  -6.507  19.758  1.00  0.00     0.053 C 
BRANCH   4   5
ATOM      5  C   UNL     1      24.116  -7.762  20.528  1.00  0.00     0.041 C 
ATOM      6  O   UNL     1      22.935  -8.097  20.803  1.00  0.00    -0.550 OA
ATOM      7  O   UNL     1      25.170  -8.588  20.896  1.00  0.00    -0.550 OA
ENDBRANCH   4   5
ENDBRANCH   3   4
ENDBRANCH   2   3
ENDBRANCH   1   2
BRANCH   1   8
ATOM      8  C   UNL     1      28.540  -4.636  18.555  1.00  0.00     0.000 C 
BRANCH   8   9
ATOM      9  C   UNL     1      28.882  -3.629  19.672  1.00  0.00    -0.000 C 
BRANCH   9  10
ATOM     10  C   UNL     1      29.377  -2.255  19.184  1.00  0.00    -0.000 C 
BRANCH  10  11
ATOM     11  C   UNL     1      28.874  -1.094  20.058  1.00  0.00    -0.000 C 
BRANCH  11  12
ATOM     12  C   UNL     1      27.712  -0.328  19.408  1.00  0.00    -0.003 C 
ATOM     13  C   UNL     1      26.342  -0.881  19.803  1.00  0.00     0.004 C 
ENDBRANCH  11  12
ENDBRANCH  10  11
ENDBRANCH   9  10
ENDBRANCH   8   9
ENDBRANCH   1   8
TORSDOF 9
ENDMDL
MODEL 7
REMARK VINA RESULT:    -5.962      3.718      5.733
REMARK INTER + INTRA:         -10.056
REMARK INTER:                  -9.406
REMARK INTRA:                  -0.650
REMARK UNBOUND:                -0.958
REMARK SMILES CCCCCCCCCCC(=O)[O-]
REMARK SMILES IDX 7 1 8 2 9 3 10 4 11 5 12 6 13 7 6 8 5 9 4 10 3 11 2 12 1 13
REMARK H PARENT
REMARK Flexibility Score: inf
ROOT
ATOM      1  C   UNL     1      27.503  -1.034  19.462  1.00  0.00     0.000 C 
ENDROOT
BRANCH   1   2
ATOM      2  C   UNL     1      26.222  -1.818  19.803  1.00  0.00     0.000 C 
BRANCH   2   3
ATOM      3  C   UNL     1      24.981  -0.918  19.898  1.00  0.00     0.006 C 
BRANCH   3   4
ATOM      4  C   UNL     1      25.346   0.548  19.652  1.00  0.00     0.053 C 
BRANCH   4   5
ATOM      5  C   UNL     1      24.196   1.278  19.033  1.00  0.00     0.041 C 
ATOM      6  O   UNL     1      23.014   0.915  19.269  1.00  0.00    -0.550 OA
ATOM      7  O   UNL     1      24.428   2.392  18.237  1.00  0.00    -0.550 OA
ENDBRANCH   4   5
ENDBRANCH   3   4
ENDBRANCH   2   3
ENDBRANCH   1   2
BRANCH   1   8
ATOM      8  C   UNL     1      28.802  -1.865  19.498  1.00  0.00     0.000 C 
BRANCH   8   9
ATOM      9  C   UNL     1      28.618  -3.355  19.849  1.00  0.00    -0.000 C 
BRANCH   9  10
ATOM     10  C   UNL     1      28.715  -4.324  18.656  1.00  0.00    -0.000 C 
BRANCH  10  11
ATOM     11  C   UNL     1      27.346  -4.874  18.221  1.00  0.00    -0.000 C 
BRANCH  11  12
ATOM     12  C   UNL     1      26.953  -6.147  18.985  1.00  0.00    -0.003 C 
ATOM     13  C   UNL     1      25.751  -5.940  19.907  1.00  0.00     0.004 C 
ENDBRANCH  11  12
ENDBRANCH  10  11
ENDBRANCH   9  10
ENDBRANCH   8   9
ENDBRANCH   1   8
TORSDOF 9
ENDMDL
MODEL 8
REMARK VINA RESULT:    -5.930      1.465      2.918
REMARK INTER + INTRA:         -10.008
REMARK INTER:                  -9.442
REMARK INTRA:                  -0.566
REMARK UNBOUND:                -0.958
REMARK SMILES CCCCCCCCCCC(=O)[O-]
REMARK SMILES IDX 7 1 8 2 9 3 10 4 11 5 12 6 13 7 6 8 5 9 4 10 3 11 2 12 1 13
REMARK H PARENT
REMARK Flexibility Score: inf
ROOT
ATOM      1  C   UNL     1      26.756  -4.913  19.660  1.00  0.00     0.000 C 
ENDROOT
BRANCH   1   2
ATOM      2  C   UNL     1      26.609  -6.442  19.559  1.00  0.00     0.000 C 
BRANCH   2   3
ATOM      3  C   UNL     1      25.182  -6.925  19.859  1.00  0.00     0.006 C 
BRANCH   3   4
ATOM      4  C   UNL     1      25.191  -8.043  20.905  1.00  0.00     0.053 C 
BRANCH   4   5
ATOM      5  C   UNL     1      23.805  -8.304  21.406  1.00  0.00     0.041 C 
ATOM      6  O   UNL     1      23.605  -8.532  22.627  1.00  0.00    -0.550 OA
ATOM      7  O   UNL     1      22.727  -8.245  20.532  1.00  0.00    -0.550 OA
ENDBRANCH   4   5
ENDBRANCH   3   4
ENDBRANCH   2   3
ENDBRANCH   1   2
BRANCH   1   8
ATOM      8  C   UNL     1      25.467  -4.116  19.379  1.00  0.00     0.000 C 
BRANCH   8   9
ATOM      9  C   UNL     1      25.504  -2.634  19.804  1.00  0.00    -0.000 C 
BRANCH   9  10
ATOM     10  C   UNL     1      26.822  -2.175  20.455  1.00  0.00    -0.000 C 
BRANCH  10  11
ATOM     11  C   UNL     1      27.494  -1.021  19.693  1.00  0.00    -0.000 C 
BRANCH  11  12
ATOM     12  C   UNL     1      29.027  -1.100  19.739  1.00  0.00    -0.003 C 
ATOM     13  C   UNL     1      29.562  -2.490  19.390  1.00  0.00     0.004 C 
ENDBRANCH  11  12
ENDBRANCH  10  11
ENDBRANCH   9  10
ENDBRANCH   8   9
ENDBRANCH   1   8
TORSDOF 9
ENDMDL
