MODEL 1
REMARK VINA RESULT:    -4.066      0.000      0.000
REMARK INTER + INTRA:          -4.902
REMARK INTER:                  -4.780
REMARK INTRA:                  -0.122
REMARK UNBOUND:                -0.122
REMARK SMILES O=C([O-])CCC(=O)[O-]
REMARK SMILES IDX 4 1 2 2 1 3 3 4 5 5 6 6 7 7 8 8
REMARK H PARENT
REMARK Flexibility Score: inf
ROOT
ATOM      1  C   UNL     1      92.628 122.716 119.765  1.00  0.00     0.059 C 
ENDROOT
BRANCH   1   2
ATOM      2  C   UNL     1      93.110 121.729 120.779  1.00  0.00     0.042 C 
ATOM      3  O   UNL     1      92.811 121.871 121.995  1.00  0.00    -0.550 OA
ATOM      4  O   UNL     1      93.931 120.677 120.392  1.00  0.00    -0.550 OA
ENDBRANCH   1   2
BRANCH   1   5
ATOM      5  C   UNL     1      93.403 122.560 118.456  1.00  0.00     0.059 C 
BRANCH   5   6
ATOM      6  C   UNL     1      92.519 121.997 117.388  1.00  0.00     0.042 C 
ATOM      7  O   UNL     1      92.237 120.770 117.380  1.00  0.00    -0.550 OA
ATOM      8  O   UNL     1      92.044 122.819 116.373  1.00  0.00    -0.550 OA
ENDBRANCH   5   6
ENDBRANCH   1   5
TORSDOF 3
ENDMDL
MODEL 2
REMARK VINA RESULT:    -4.035      1.615      3.854
REMARK INTER + INTRA:          -4.865
REMARK INTER:                  -4.692
REMARK INTRA:                  -0.173
REMARK UNBOUND:                -0.122
REMARK SMILES O=C([O-])CCC(=O)[O-]
REMARK SMILES IDX 4 1 2 2 1 3 3 4 5 5 6 6 7 7 8 8
REMARK H PARENT
REMARK Flexibility Score: inf
ROOT
ATOM      1  C   UNL     1      91.989 121.544 118.153  1.00  0.00     0.059 C 
ENDROOT
BRANCH   1   2
ATOM      2  C   UNL     1      92.324 121.889 116.736  1.00  0.00     0.042 C 
ATOM      3  O   UNL     1      92.052 123.031 116.281  1.00  0.00    -0.550 OA
ATOM      4  O   UNL     1      92.894 120.933 115.904  1.00  0.00    -0.550 OA
ENDBRANCH   1   2
BRANCH   1   5
ATOM      5  C   UNL     1      92.796 122.412 119.119  1.00  0.00     0.059 C 
BRANCH   5   6
ATOM      6  C   UNL     1      94.231 121.990 119.128  1.00  0.00     0.042 C 
ATOM      7  O   UNL     1      95.141 122.828 118.893  1.00  0.00    -0.550 OA
ATOM      8  O   UNL     1      94.563 120.658 119.350  1.00  0.00    -0.550 OA
ENDBRANCH   5   6
ENDBRANCH   1   5
TORSDOF 3
ENDMDL
MODEL 3
REMARK VINA RESULT:    -4.022      0.836      3.773
REMARK INTER + INTRA:          -4.850
REMARK INTER:                  -4.733
REMARK INTRA:                  -0.116
REMARK UNBOUND:                -0.122
REMARK SMILES O=C([O-])CCC(=O)[O-]
REMARK SMILES IDX 4 1 2 2 1 3 3 4 5 5 6 6 7 7 8 8
REMARK H PARENT
REMARK Flexibility Score: inf
ROOT
ATOM      1  C   UNL     1      92.787 122.989 118.500  1.00  0.00     0.059 C 
ENDROOT
BRANCH   1   2
ATOM      2  C   UNL     1      92.346 122.167 117.331  1.00  0.00     0.042 C 
ATOM      3  O   UNL     1      91.989 122.727 116.261  1.00  0.00    -0.550 OA
ATOM      4  O   UNL     1      92.284 120.783 117.437  1.00  0.00    -0.550 OA
ENDBRANCH   1   2
BRANCH   1   5
ATOM      5  C   UNL     1      94.158 122.525 118.993  1.00  0.00     0.059 C 
BRANCH   5   6
ATOM      6  C   UNL     1      94.036 121.859 120.328  1.00  0.00     0.042 C 
ATOM      7  O   UNL     1      93.959 120.605 120.405  1.00  0.00    -0.550 OA
ATOM      8  O   UNL     1      93.960 122.626 121.484  1.00  0.00    -0.550 OA
ENDBRANCH   5   6
ENDBRANCH   1   5
TORSDOF 3
ENDMDL
MODEL 4
REMARK VINA RESULT:    -4.019      0.827      1.788
REMARK INTER + INTRA:          -4.846
REMARK INTER:                  -4.730
REMARK INTRA:                  -0.117
REMARK UNBOUND:                -0.122
REMARK SMILES O=C([O-])CCC(=O)[O-]
REMARK SMILES IDX 4 1 2 2 1 3 3 4 5 5 6 6 7 7 8 8
REMARK H PARENT
REMARK Flexibility Score: inf
ROOT
ATOM      1  C   UNL     1      94.140 122.553 119.002  1.00  0.00     0.059 C 
ENDROOT
BRANCH   1   2
ATOM      2  C   UNL     1      94.019 121.865 120.325  1.00  0.00     0.042 C 
ATOM      3  O   UNL     1      93.968 120.608 120.383  1.00  0.00    -0.550 OA
ATOM      4  O   UNL     1      93.915 122.612 121.491  1.00  0.00    -0.550 OA
ENDBRANCH   1   2
BRANCH   1   5
ATOM      5  C   UNL     1      92.761 122.975 118.492  1.00  0.00     0.059 C 
BRANCH   5   6
ATOM      6  C   UNL     1      92.370 122.157 117.302  1.00  0.00     0.042 C 
ATOM      7  O   UNL     1      92.017 122.720 116.233  1.00  0.00    -0.550 OA
ATOM      8  O   UNL     1      92.349 120.770 117.389  1.00  0.00    -0.550 OA
ENDBRANCH   5   6
ENDBRANCH   1   5
TORSDOF 3
ENDMDL
MODEL 5
REMARK VINA RESULT:    -4.001      1.688      1.941
REMARK INTER + INTRA:          -4.825
REMARK INTER:                  -4.669
REMARK INTRA:                  -0.157
REMARK UNBOUND:                -0.122
REMARK SMILES O=C([O-])CCC(=O)[O-]
REMARK SMILES IDX 4 1 2 2 1 3 3 4 5 5 6 6 7 7 8 8
REMARK H PARENT
REMARK Flexibility Score: inf
ROOT
ATOM      1  C   UNL     1      92.829 122.598 119.095  1.00  0.00     0.059 C 
ENDROOT
BRANCH   1   2
ATOM      2  C   UNL     1      94.243 122.110 119.098  1.00  0.00     0.042 C 
ATOM      3  O   UNL     1      95.191 122.915 118.898  1.00  0.00    -0.550 OA
ATOM      4  O   UNL     1      94.512 120.759 119.275  1.00  0.00    -0.550 OA
ENDBRANCH   1   2
BRANCH   1   5
ATOM      5  C   UNL     1      91.996 121.815 118.079  1.00  0.00     0.059 C 
BRANCH   5   6
ATOM      6  C   UNL     1      92.242 122.327 116.695  1.00  0.00     0.042 C 
ATOM      7  O   UNL     1      92.464 121.523 115.751  1.00  0.00    -0.550 OA
ATOM      8  O   UNL     1      92.275 123.696 116.455  1.00  0.00    -0.550 OA
ENDBRANCH   5   6
ENDBRANCH   1   5
TORSDOF 3
ENDMDL
MODEL 6
REMARK VINA RESULT:    -3.970      5.243      7.056
REMARK INTER + INTRA:          -4.789
REMARK INTER:                  -4.754
REMARK INTRA:                  -0.035
REMARK UNBOUND:                -0.122
REMARK SMILES O=C([O-])CCC(=O)[O-]
REMARK SMILES IDX 4 1 2 2 1 3 3 4 5 5 6 6 7 7 8 8
REMARK H PARENT
REMARK Flexibility Score: inf
ROOT
ATOM      1  C   UNL     1      95.811 123.040 125.626  1.00  0.00     0.059 C 
ENDROOT
BRANCH   1   2
ATOM      2  C   UNL     1      97.154 123.658 125.856  1.00  0.00     0.042 C 
ATOM      3  O   UNL     1      98.135 122.938 126.182  1.00  0.00    -0.550 OA
ATOM      4  O   UNL     1      97.313 125.034 125.758  1.00  0.00    -0.550 OA
ENDBRANCH   1   2
BRANCH   1   5
ATOM      5  C   UNL     1      95.084 123.751 124.484  1.00  0.00     0.059 C 
BRANCH   5   6
ATOM      6  C   UNL     1      93.734 123.146 124.267  1.00  0.00     0.042 C 
ATOM      7  O   UNL     1      93.117 122.611 125.225  1.00  0.00    -0.550 OA
ATOM      8  O   UNL     1      93.175 123.129 122.994  1.00  0.00    -0.550 OA
ENDBRANCH   5   6
ENDBRANCH   1   5
TORSDOF 3
ENDMDL
MODEL 7
REMARK VINA RESULT:    -3.962      5.193      7.520
REMARK INTER + INTRA:          -4.780
REMARK INTER:                  -4.746
REMARK INTRA:                  -0.034
REMARK UNBOUND:                -0.122
REMARK SMILES O=C([O-])CCC(=O)[O-]
REMARK SMILES IDX 4 1 2 2 1 3 3 4 5 5 6 6 7 7 8 8
REMARK H PARENT
REMARK Flexibility Score: inf
ROOT
ATOM      1  C   UNL     1      95.022 123.703 124.454  1.00  0.00     0.059 C 
ENDROOT
BRANCH   1   2
ATOM      2  C   UNL     1      93.687 123.059 124.257  1.00  0.00     0.042 C 
ATOM      3  O   UNL     1      93.042 122.621 125.246  1.00  0.00    -0.550 OA
ATOM      4  O   UNL     1      93.174 122.900 122.976  1.00  0.00    -0.550 OA
ENDBRANCH   1   2
BRANCH   1   5
ATOM      5  C   UNL     1      95.727 123.108 125.674  1.00  0.00     0.059 C 
BRANCH   5   6
ATOM      6  C   UNL     1      97.105 123.675 125.810  1.00  0.00     0.042 C 
ATOM      7  O   UNL     1      98.065 122.934 126.149  1.00  0.00    -0.550 OA
ATOM      8  O   UNL     1      97.322 125.033 125.609  1.00  0.00    -0.550 OA
ENDBRANCH   5   6
ENDBRANCH   1   5
TORSDOF 3
ENDMDL
MODEL 8
REMARK VINA RESULT:    -3.915      2.760      3.985
REMARK INTER + INTRA:          -4.724
REMARK INTER:                  -4.681
REMARK INTRA:                  -0.043
REMARK UNBOUND:                -0.122
REMARK SMILES O=C([O-])CCC(=O)[O-]
REMARK SMILES IDX 4 1 2 2 1 3 3 4 5 5 6 6 7 7 8 8
REMARK H PARENT
REMARK Flexibility Score: inf
ROOT
ATOM      1  C   UNL     1      93.226 123.421 123.026  1.00  0.00     0.059 C 
ENDROOT
BRANCH   1   2
ATOM      2  C   UNL     1      93.810 123.125 124.370  1.00  0.00     0.042 C 
ATOM      3  O   UNL     1      93.102 122.591 125.265  1.00  0.00    -0.550 OA
ATOM      4  O   UNL     1      95.123 123.481 124.653  1.00  0.00    -0.550 OA
ENDBRANCH   1   2
BRANCH   1   5
ATOM      5  C   UNL     1      93.048 122.131 122.224  1.00  0.00     0.059 C 
BRANCH   5   6
ATOM      6  C   UNL     1      93.496 122.328 120.810  1.00  0.00     0.042 C 
ATOM      7  O   UNL     1      92.651 122.373 119.878  1.00  0.00    -0.550 OA
ATOM      8  O   UNL     1      94.851 122.415 120.515  1.00  0.00    -0.550 OA
ENDBRANCH   5   6
ENDBRANCH   1   5
TORSDOF 3
ENDMDL
MODEL 9
REMARK VINA RESULT:    -3.843      2.675      5.353
REMARK INTER + INTRA:          -4.639
REMARK INTER:                  -4.611
REMARK INTRA:                  -0.029
REMARK UNBOUND:                -0.122
REMARK SMILES O=C([O-])CCC(=O)[O-]
REMARK SMILES IDX 4 1 2 2 1 3 3 4 5 5 6 6 7 7 8 8
REMARK H PARENT
REMARK Flexibility Score: inf
ROOT
ATOM      1  C   UNL     1      92.954 121.989 122.403  1.00  0.00     0.059 C 
ENDROOT
BRANCH   1   2
ATOM      2  C   UNL     1      93.122 121.908 120.919  1.00  0.00     0.042 C 
ATOM      3  O   UNL     1      92.470 122.677 120.164  1.00  0.00    -0.550 OA
ATOM      4  O   UNL     1      93.963 120.951 120.365  1.00  0.00    -0.550 OA
ENDBRANCH   1   2
BRANCH   1   5
ATOM      5  C   UNL     1      93.391 123.361 122.916  1.00  0.00     0.059 C 
BRANCH   5   6
ATOM      6  C   UNL     1      93.871 123.263 124.330  1.00  0.00     0.042 C 
ATOM      7  O   UNL     1      93.163 122.693 125.201  1.00  0.00    -0.550 OA
ATOM      8  O   UNL     1      95.080 123.842 124.697  1.00  0.00    -0.550 OA
ENDBRANCH   5   6
ENDBRANCH   1   5
TORSDOF 3
ENDMDL
