MODEL 1
REMARK VINA RESULT:    -4.066      0.000      0.000
REMARK INTER + INTRA:          -9.146
REMARK INTER:                  -7.156
REMARK INTRA:                  -1.990
REMARK UNBOUND:                -1.990
REMARK SMILES CCCCCCCCCCCCCCC(=O)[O-]
REMARK SMILES IDX 9 1 10 2 11 3 12 4 13 5 14 6 15 7 16 8 17 9 8 10 7 11 6 12
REMARK SMILES IDX 5 13 4 14 3 15 2 16 1 17
REMARK H PARENT
REMARK Flexibility Score: inf
ROOT
ATOM      1  C   UNL     1      -4.760  37.879  18.663  1.00  0.00     0.000 C 
ENDROOT
BRANCH   1   2
ATOM      2  C   UNL     1      -4.105  39.213  19.058  1.00  0.00     0.000 C 
BRANCH   2   3
ATOM      3  C   UNL     1      -2.628  39.047  19.457  1.00  0.00     0.000 C 
BRANCH   3   4
ATOM      4  C   UNL     1      -2.075  37.647  19.135  1.00  0.00     0.000 C 
BRANCH   4   5
ATOM      5  C   UNL     1      -0.873  37.624  18.169  1.00  0.00     0.006 C 
BRANCH   5   6
ATOM      6  C   UNL     1      -1.204  37.134  16.750  1.00  0.00     0.053 C 
BRANCH   6   7
ATOM      7  C   UNL     1      -2.094  35.929  16.768  1.00  0.00     0.041 C 
ATOM      8  O   UNL     1      -3.200  35.948  16.168  1.00  0.00    -0.550 OA
ATOM      9  O   UNL     1      -1.685  34.772  17.421  1.00  0.00    -0.550 OA
ENDBRANCH   6   7
ENDBRANCH   5   6
ENDBRANCH   4   5
ENDBRANCH   3   4
ENDBRANCH   2   3
ENDBRANCH   1   2
BRANCH   1  10
ATOM     10  C   UNL     1      -6.295  37.973  18.603  1.00  0.00     0.000 C 
BRANCH  10  11
ATOM     11  C   UNL     1      -6.964  37.725  19.968  1.00  0.00    -0.000 C 
BRANCH  11  12
ATOM     12  C   UNL     1      -7.567  38.974  20.636  1.00  0.00    -0.000 C 
BRANCH  12  13
ATOM     13  C   UNL     1      -7.348  39.005  22.156  1.00  0.00    -0.000 C 
BRANCH  13  14
ATOM     14  C   UNL     1      -6.365  37.910  22.591  1.00  0.00    -0.000 C 
BRANCH  14  15
ATOM     15  C   UNL     1      -4.993  38.508  22.933  1.00  0.00    -0.000 C 
BRANCH  15  16
ATOM     16  C   UNL     1      -3.834  37.554  22.602  1.00  0.00    -0.003 C 
ATOM     17  C   UNL     1      -4.315  36.189  22.109  1.00  0.00     0.004 C 
ENDBRANCH  15  16
ENDBRANCH  14  15
ENDBRANCH  13  14
ENDBRANCH  12  13
ENDBRANCH  11  12
ENDBRANCH  10  11
ENDBRANCH   1  10
TORSDOF 13
ENDMDL
MODEL 2
REMARK VINA RESULT:    -3.894      1.270      2.773
REMARK INTER + INTRA:          -8.844
REMARK INTER:                  -6.722
REMARK INTRA:                  -2.122
REMARK UNBOUND:                -1.990
REMARK SMILES CCCCCCCCCCCCCCC(=O)[O-]
REMARK SMILES IDX 9 1 10 2 11 3 12 4 13 5 14 6 15 7 16 8 17 9 8 10 7 11 6 12
REMARK SMILES IDX 5 13 4 14 3 15 2 16 1 17
REMARK H PARENT
REMARK Flexibility Score: inf
ROOT
ATOM      1  C   UNL     1      -3.300  39.806  21.056  1.00  0.00     0.000 C 
ENDROOT
BRANCH   1   2
ATOM      2  C   UNL     1      -3.669  40.139  19.601  1.00  0.00     0.000 C 
BRANCH   2   3
ATOM      3  C   UNL     1      -2.697  39.510  18.589  1.00  0.00     0.000 C 
BRANCH   3   4
ATOM      4  C   UNL     1      -3.411  38.911  17.364  1.00  0.00     0.000 C 
BRANCH   4   5
ATOM      5  C   UNL     1      -3.544  37.375  17.368  1.00  0.00     0.006 C 
BRANCH   5   6
ATOM      6  C   UNL     1      -2.459  36.643  18.174  1.00  0.00     0.053 C 
BRANCH   6   7
ATOM      7  C   UNL     1      -1.621  35.755  17.306  1.00  0.00     0.041 C 
ATOM      8  O   UNL     1      -0.818  36.254  16.475  1.00  0.00    -0.550 OA
ATOM      9  O   UNL     1      -1.704  34.374  17.438  1.00  0.00    -0.550 OA
ENDBRANCH   6   7
ENDBRANCH   5   6
ENDBRANCH   4   5
ENDBRANCH   3   4
ENDBRANCH   2   3
ENDBRANCH   1   2
BRANCH   1  10
ATOM     10  C   UNL     1      -3.230  38.291  21.313  1.00  0.00     0.000 C 
BRANCH  10  11
ATOM     11  C   UNL     1      -4.121  37.840  22.486  1.00  0.00    -0.000 C 
BRANCH  11  12
ATOM     12  C   UNL     1      -4.707  38.982  23.336  1.00  0.00    -0.000 C 
BRANCH  12  13
ATOM     13  C   UNL     1      -6.242  38.954  23.399  1.00  0.00    -0.000 C 
BRANCH  13  14
ATOM     14  C   UNL     1      -6.826  38.185  22.206  1.00  0.00    -0.000 C 
BRANCH  14  15
ATOM     15  C   UNL     1      -7.441  39.148  21.180  1.00  0.00    -0.000 C 
BRANCH  15  16
ATOM     16  C   UNL     1      -7.082  38.777  19.733  1.00  0.00    -0.003 C 
ATOM     17  C   UNL     1      -6.487  37.374  19.613  1.00  0.00     0.004 C 
ENDBRANCH  15  16
ENDBRANCH  14  15
ENDBRANCH  13  14
ENDBRANCH  12  13
ENDBRANCH  11  12
ENDBRANCH  10  11
ENDBRANCH   1  10
TORSDOF 13
ENDMDL
MODEL 3
REMARK VINA RESULT:    -3.893      1.328      2.543
REMARK INTER + INTRA:          -8.842
REMARK INTER:                  -6.805
REMARK INTRA:                  -2.036
REMARK UNBOUND:                -1.990
REMARK SMILES CCCCCCCCCCCCCCC(=O)[O-]
REMARK SMILES IDX 9 1 10 2 11 3 12 4 13 5 14 6 15 7 16 8 17 9 8 10 7 11 6 12
REMARK SMILES IDX 5 13 4 14 3 15 2 16 1 17
REMARK H PARENT
REMARK Flexibility Score: inf
ROOT
ATOM      1  C   UNL     1      -7.185  38.917  19.858  1.00  0.00     0.000 C 
ENDROOT
BRANCH   1   2
ATOM      2  C   UNL     1      -6.692  37.560  19.328  1.00  0.00     0.000 C 
BRANCH   2   3
ATOM      3  C   UNL     1      -5.613  37.710  18.242  1.00  0.00     0.000 C 
BRANCH   3   4
ATOM      4  C   UNL     1      -4.259  38.182  18.803  1.00  0.00     0.000 C 
BRANCH   4   5
ATOM      5  C   UNL     1      -3.051  37.965  17.868  1.00  0.00     0.006 C 
BRANCH   5   6
ATOM      6  C   UNL     1      -2.111  36.826  18.294  1.00  0.00     0.053 C 
BRANCH   6   7
ATOM      7  C   UNL     1      -2.055  35.735  17.269  1.00  0.00     0.041 C 
ATOM      8  O   UNL     1      -1.217  34.803  17.379  1.00  0.00    -0.550 OA
ATOM      9  O   UNL     1      -2.954  35.731  16.209  1.00  0.00    -0.550 OA
ENDBRANCH   6   7
ENDBRANCH   5   6
ENDBRANCH   4   5
ENDBRANCH   3   4
ENDBRANCH   2   3
ENDBRANCH   1   2
BRANCH   1  10
ATOM     10  C   UNL     1      -7.404  38.909  21.381  1.00  0.00     0.000 C 
BRANCH  10  11
ATOM     11  C   UNL     1      -6.588  39.994  22.109  1.00  0.00    -0.000 C 
BRANCH  11  12
ATOM     12  C   UNL     1      -5.816  40.958  21.189  1.00  0.00    -0.000 C 
BRANCH  12  13
ATOM     13  C   UNL     1      -4.292  40.796  21.294  1.00  0.00    -0.000 C 
BRANCH  13  14
ATOM     14  C   UNL     1      -3.911  40.004  22.552  1.00  0.00    -0.000 C 
BRANCH  14  15
ATOM     15  C   UNL     1      -3.070  38.771  22.190  1.00  0.00    -0.000 C 
BRANCH  15  16
ATOM     16  C   UNL     1      -3.501  37.514  22.962  1.00  0.00    -0.003 C 
ATOM     17  C   UNL     1      -4.475  36.641  22.172  1.00  0.00     0.004 C 
ENDBRANCH  15  16
ENDBRANCH  14  15
ENDBRANCH  13  14
ENDBRANCH  12  13
ENDBRANCH  11  12
ENDBRANCH  10  11
ENDBRANCH   1  10
TORSDOF 13
ENDMDL
MODEL 4
REMARK VINA RESULT:    -3.887      2.173      3.350
REMARK INTER + INTRA:          -8.831
REMARK INTER:                  -6.562
REMARK INTRA:                  -2.269
REMARK UNBOUND:                -1.990
REMARK SMILES CCCCCCCCCCCCCCC(=O)[O-]
REMARK SMILES IDX 9 1 10 2 11 3 12 4 13 5 14 6 15 7 16 8 17 9 8 10 7 11 6 12
REMARK SMILES IDX 5 13 4 14 3 15 2 16 1 17
REMARK H PARENT
REMARK Flexibility Score: inf
ROOT
ATOM      1  C   UNL     1      -7.059  38.927  20.118  1.00  0.00     0.000 C 
ENDROOT
BRANCH   1   2
ATOM      2  C   UNL     1      -6.718  37.655  19.324  1.00  0.00     0.000 C 
BRANCH   2   3
ATOM      3  C   UNL     1      -5.462  37.824  18.453  1.00  0.00     0.000 C 
BRANCH   3   4
ATOM      4  C   UNL     1      -4.543  38.959  18.941  1.00  0.00     0.000 C 
BRANCH   4   5
ATOM      5  C   UNL     1      -3.334  39.261  18.032  1.00  0.00     0.006 C 
BRANCH   5   6
ATOM      6  C   UNL     1      -2.247  40.130  18.683  1.00  0.00     0.053 C 
BRANCH   6   7
ATOM      7  C   UNL     1      -1.464  39.371  19.709  1.00  0.00     0.041 C 
ATOM      8  O   UNL     1      -1.107  38.185  19.486  1.00  0.00    -0.550 OA
ATOM      9  O   UNL     1      -1.099  39.986  20.901  1.00  0.00    -0.550 OA
ENDBRANCH   6   7
ENDBRANCH   5   6
ENDBRANCH   4   5
ENDBRANCH   3   4
ENDBRANCH   2   3
ENDBRANCH   1   2
BRANCH   1  10
ATOM     10  C   UNL     1      -7.336  38.637  21.603  1.00  0.00     0.000 C 
BRANCH  10  11
ATOM     11  C   UNL     1      -6.786  39.729  22.540  1.00  0.00    -0.000 C 
BRANCH  11  12
ATOM     12  C   UNL     1      -5.770  40.690  21.896  1.00  0.00    -0.000 C 
BRANCH  12  13
ATOM     13  C   UNL     1      -4.318  40.378  22.288  1.00  0.00    -0.000 C 
BRANCH  13  14
ATOM     14  C   UNL     1      -4.266  39.487  23.536  1.00  0.00    -0.000 C 
BRANCH  14  15
ATOM     15  C   UNL     1      -3.359  38.270  23.305  1.00  0.00    -0.000 C 
BRANCH  15  16
ATOM     16  C   UNL     1      -3.718  37.501  22.023  1.00  0.00    -0.003 C 
ATOM     17  C   UNL     1      -4.522  36.232  22.302  1.00  0.00     0.004 C 
ENDBRANCH  15  16
ENDBRANCH  14  15
ENDBRANCH  13  14
ENDBRANCH  12  13
ENDBRANCH  11  12
ENDBRANCH  10  11
ENDBRANCH   1  10
TORSDOF 13
ENDMDL
MODEL 5
REMARK VINA RESULT:    -3.887      1.599      2.940
REMARK INTER + INTRA:          -8.830
REMARK INTER:                  -6.780
REMARK INTRA:                  -2.050
REMARK UNBOUND:                -1.990
REMARK SMILES CCCCCCCCCCCCCCC(=O)[O-]
REMARK SMILES IDX 9 1 10 2 11 3 12 4 13 5 14 6 15 7 16 8 17 9 8 10 7 11 6 12
REMARK SMILES IDX 5 13 4 14 3 15 2 16 1 17
REMARK H PARENT
REMARK Flexibility Score: inf
ROOT
ATOM      1  C   UNL     1      -5.034  36.993  20.723  1.00  0.00     0.000 C 
ENDROOT
BRANCH   1   2
ATOM      2  C   UNL     1      -6.349  37.156  19.940  1.00  0.00     0.000 C 
BRANCH   2   3
ATOM      3  C   UNL     1      -6.156  37.925  18.622  1.00  0.00     0.000 C 
BRANCH   3   4
ATOM      4  C   UNL     1      -4.676  38.072  18.225  1.00  0.00     0.000 C 
BRANCH   4   5
ATOM      5  C   UNL     1      -4.282  37.390  16.899  1.00  0.00     0.006 C 
BRANCH   5   6
ATOM      6  C   UNL     1      -2.781  37.445  16.574  1.00  0.00     0.053 C 
BRANCH   6   7
ATOM      7  C   UNL     1      -1.957  36.765  17.624  1.00  0.00     0.041 C 
ATOM      8  O   UNL     1      -1.962  35.511  17.722  1.00  0.00    -0.550 OA
ATOM      9  O   UNL     1      -1.155  37.518  18.474  1.00  0.00    -0.550 OA
ENDBRANCH   6   7
ENDBRANCH   5   6
ENDBRANCH   4   5
ENDBRANCH   3   4
ENDBRANCH   2   3
ENDBRANCH   1   2
BRANCH   1  10
ATOM     10  C   UNL     1      -5.249  37.025  22.246  1.00  0.00     0.000 C 
BRANCH  10  11
ATOM     11  C   UNL     1      -6.697  37.373  22.640  1.00  0.00    -0.000 C 
BRANCH  11  12
ATOM     12  C   UNL     1      -6.945  38.856  22.968  1.00  0.00    -0.000 C 
BRANCH  12  13
ATOM     13  C   UNL     1      -7.831  39.560  21.929  1.00  0.00    -0.000 C 
BRANCH  13  14
ATOM     14  C   UNL     1      -7.025  40.593  21.131  1.00  0.00    -0.000 C 
BRANCH  14  15
ATOM     15  C   UNL     1      -5.610  40.750  21.708  1.00  0.00    -0.000 C 
BRANCH  15  16
ATOM     16  C   UNL     1      -4.537  40.872  20.615  1.00  0.00    -0.003 C 
ATOM     17  C   UNL     1      -3.240  40.148  20.977  1.00  0.00     0.004 C 
ENDBRANCH  15  16
ENDBRANCH  14  15
ENDBRANCH  13  14
ENDBRANCH  12  13
ENDBRANCH  11  12
ENDBRANCH  10  11
ENDBRANCH   1  10
TORSDOF 13
ENDMDL
MODEL 6
REMARK VINA RESULT:    -3.886      1.350      3.300
REMARK INTER + INTRA:          -8.830
REMARK INTER:                  -6.406
REMARK INTRA:                  -2.424
REMARK UNBOUND:                -1.990
REMARK SMILES CCCCCCCCCCCCCCC(=O)[O-]
REMARK SMILES IDX 9 1 10 2 11 3 12 4 13 5 14 6 15 7 16 8 17 9 8 10 7 11 6 12
REMARK SMILES IDX 5 13 4 14 3 15 2 16 1 17
REMARK H PARENT
REMARK Flexibility Score: inf
ROOT
ATOM      1  C   UNL     1      -4.091  40.744  21.584  1.00  0.00     0.000 C 
ENDROOT
BRANCH   1   2
ATOM      2  C   UNL     1      -3.047  40.232  20.578  1.00  0.00     0.000 C 
BRANCH   2   3
ATOM      3  C   UNL     1      -3.505  40.397  19.118  1.00  0.00     0.000 C 
BRANCH   3   4
ATOM      4  C   UNL     1      -3.327  39.116  18.285  1.00  0.00     0.000 C 
BRANCH   4   5
ATOM      5  C   UNL     1      -2.301  38.108  18.844  1.00  0.00     0.006 C 
BRANCH   5   6
ATOM      6  C   UNL     1      -2.594  36.640  18.496  1.00  0.00     0.053 C 
BRANCH   6   7
ATOM      7  C   UNL     1      -1.592  36.083  17.534  1.00  0.00     0.041 C 
ATOM      8  O   UNL     1      -0.485  36.658  17.365  1.00  0.00    -0.550 OA
ATOM      9  O   UNL     1      -1.867  34.906  16.847  1.00  0.00    -0.550 OA
ENDBRANCH   6   7
ENDBRANCH   5   6
ENDBRANCH   4   5
ENDBRANCH   3   4
ENDBRANCH   2   3
ENDBRANCH   1   2
BRANCH   1  10
ATOM     10  C   UNL     1      -4.095  39.934  22.891  1.00  0.00     0.000 C 
BRANCH  10  11
ATOM     11  C   UNL     1      -3.165  38.707  22.839  1.00  0.00    -0.000 C 
BRANCH  11  12
ATOM     12  C   UNL     1      -3.876  37.345  22.947  1.00  0.00    -0.000 C 
BRANCH  12  13
ATOM     13  C   UNL     1      -4.391  36.830  21.595  1.00  0.00    -0.000 C 
BRANCH  13  14
ATOM     14  C   UNL     1      -5.893  37.102  21.439  1.00  0.00    -0.000 C 
BRANCH  14  15
ATOM     15  C   UNL     1      -6.207  37.672  20.048  1.00  0.00    -0.000 C 
BRANCH  15  16
ATOM     16  C   UNL     1      -7.124  38.903  20.107  1.00  0.00    -0.003 C 
ATOM     17  C   UNL     1      -7.551  39.254  21.533  1.00  0.00     0.004 C 
ENDBRANCH  15  16
ENDBRANCH  14  15
ENDBRANCH  13  14
ENDBRANCH  12  13
ENDBRANCH  11  12
ENDBRANCH  10  11
ENDBRANCH   1  10
TORSDOF 13
ENDMDL
MODEL 7
REMARK VINA RESULT:    -3.862      3.119      6.243
REMARK INTER + INTRA:          -8.787
REMARK INTER:                  -6.673
REMARK INTRA:                  -2.114
REMARK UNBOUND:                -1.990
REMARK SMILES CCCCCCCCCCCCCCC(=O)[O-]
REMARK SMILES IDX 9 1 10 2 11 3 12 4 13 5 14 6 15 7 16 8 17 9 8 10 7 11 6 12
REMARK SMILES IDX 5 13 4 14 3 15 2 16 1 17
REMARK H PARENT
REMARK Flexibility Score: inf
ROOT
ATOM      1  C   UNL     1      -3.129  38.547  20.977  1.00  0.00     0.000 C 
ENDROOT
BRANCH   1   2
ATOM      2  C   UNL     1      -3.914  37.310  20.510  1.00  0.00     0.000 C 
BRANCH   2   3
ATOM      3  C   UNL     1      -5.035  37.666  19.518  1.00  0.00     0.000 C 
BRANCH   3   4
ATOM      4  C   UNL     1      -5.725  39.002  19.847  1.00  0.00     0.000 C 
BRANCH   4   5
ATOM      5  C   UNL     1      -7.214  38.893  20.236  1.00  0.00     0.006 C 
BRANCH   5   6
ATOM      6  C   UNL     1      -7.521  39.265  21.695  1.00  0.00     0.053 C 
BRANCH   6   7
ATOM      7  C   UNL     1      -6.700  38.468  22.660  1.00  0.00     0.041 C 
ATOM      8  O   UNL     1      -5.991  39.049  23.522  1.00  0.00    -0.550 OA
ATOM      9  O   UNL     1      -6.744  37.079  22.629  1.00  0.00    -0.550 OA
ENDBRANCH   6   7
ENDBRANCH   5   6
ENDBRANCH   4   5
ENDBRANCH   3   4
ENDBRANCH   2   3
ENDBRANCH   1   2
BRANCH   1  10
ATOM     10  C   UNL     1      -1.749  38.655  20.308  1.00  0.00     0.000 C 
BRANCH  10  11
ATOM     11  C   UNL     1      -1.556  39.977  19.540  1.00  0.00    -0.000 C 
BRANCH  11  12
ATOM     12  C   UNL     1      -1.511  39.839  18.007  1.00  0.00    -0.000 C 
BRANCH  12  13
ATOM     13  C   UNL     1      -2.903  39.898  17.359  1.00  0.00    -0.000 C 
BRANCH  13  14
ATOM     14  C   UNL     1      -2.938  39.083  16.060  1.00  0.00    -0.000 C 
BRANCH  14  15
ATOM     15  C   UNL     1      -3.528  37.686  16.304  1.00  0.00    -0.000 C 
BRANCH  15  16
ATOM     16  C   UNL     1      -2.469  36.575  16.223  1.00  0.00    -0.003 C 
ATOM     17  C   UNL     1      -2.010  36.096  17.600  1.00  0.00     0.004 C 
ENDBRANCH  15  16
ENDBRANCH  14  15
ENDBRANCH  13  14
ENDBRANCH  12  13
ENDBRANCH  11  12
ENDBRANCH  10  11
ENDBRANCH   1  10
TORSDOF 13
ENDMDL
MODEL 8
REMARK VINA RESULT:    -3.773      1.720      2.993
REMARK INTER + INTRA:          -8.630
REMARK INTER:                  -6.316
REMARK INTRA:                  -2.314
REMARK UNBOUND:                -1.990
REMARK SMILES CCCCCCCCCCCCCCC(=O)[O-]
REMARK SMILES IDX 9 1 10 2 11 3 12 4 13 5 14 6 15 7 16 8 17 9 8 10 7 11 6 12
REMARK SMILES IDX 5 13 4 14 3 15 2 16 1 17
REMARK H PARENT
REMARK Flexibility Score: inf
ROOT
ATOM      1  C   UNL     1      -4.045  40.272  22.809  1.00  0.00     0.000 C 
ENDROOT
BRANCH   1   2
ATOM      2  C   UNL     1      -3.069  40.424  21.629  1.00  0.00     0.000 C 
BRANCH   2   3
ATOM      3  C   UNL     1      -3.788  40.764  20.312  1.00  0.00     0.000 C 
BRANCH   3   4
ATOM      4  C   UNL     1      -3.171  40.056  19.093  1.00  0.00     0.000 C 
BRANCH   4   5
ATOM      5  C   UNL     1      -1.694  39.641  19.253  1.00  0.00     0.006 C 
BRANCH   5   6
ATOM      6  C   UNL     1      -1.459  38.124  19.302  1.00  0.00     0.053 C 
BRANCH   6   7
ATOM      7  C   UNL     1      -0.907  37.601  18.012  1.00  0.00     0.041 C 
ATOM      8  O   UNL     1      -1.126  36.413  17.662  1.00  0.00    -0.550 OA
ATOM      9  O   UNL     1      -0.177  38.440  17.177  1.00  0.00    -0.550 OA
ENDBRANCH   6   7
ENDBRANCH   5   6
ENDBRANCH   4   5
ENDBRANCH   3   4
ENDBRANCH   2   3
ENDBRANCH   1   2
BRANCH   1  10
ATOM     10  C   UNL     1      -5.481  40.683  22.441  1.00  0.00     0.000 C 
BRANCH  10  11
ATOM     11  C   UNL     1      -6.541  39.708  22.986  1.00  0.00    -0.000 C 
BRANCH  11  12
ATOM     12  C   UNL     1      -7.424  39.039  21.917  1.00  0.00    -0.000 C 
BRANCH  12  13
ATOM     13  C   UNL     1      -7.165  39.580  20.503  1.00  0.00    -0.000 C 
BRANCH  13  14
ATOM     14  C   UNL     1      -6.672  38.466  19.570  1.00  0.00    -0.000 C 
BRANCH  14  15
ATOM     15  C   UNL     1      -6.270  37.218  20.371  1.00  0.00    -0.000 C 
BRANCH  15  16
ATOM     16  C   UNL     1      -4.747  37.064  20.499  1.00  0.00    -0.003 C 
ATOM     17  C   UNL     1      -4.308  36.688  21.914  1.00  0.00     0.004 C 
ENDBRANCH  15  16
ENDBRANCH  14  15
ENDBRANCH  13  14
ENDBRANCH  12  13
ENDBRANCH  11  12
ENDBRANCH  10  11
ENDBRANCH   1  10
TORSDOF 13
ENDMDL
MODEL 9
REMARK VINA RESULT:    -3.771      2.831      6.454
REMARK INTER + INTRA:          -8.627
REMARK INTER:                  -6.694
REMARK INTRA:                  -1.932
REMARK UNBOUND:                -1.990
REMARK SMILES CCCCCCCCCCCCCCC(=O)[O-]
REMARK SMILES IDX 9 1 10 2 11 3 12 4 13 5 14 6 15 7 16 8 17 9 8 10 7 11 6 12
REMARK SMILES IDX 5 13 4 14 3 15 2 16 1 17
REMARK H PARENT
REMARK Flexibility Score: inf
ROOT
ATOM      1  C   UNL     1      -3.711  37.660  20.116  1.00  0.00     0.000 C 
ENDROOT
BRANCH   1   2
ATOM      2  C   UNL     1      -4.678  38.568  19.339  1.00  0.00     0.000 C 
BRANCH   2   3
ATOM      3  C   UNL     1      -5.895  37.801  18.794  1.00  0.00     0.000 C 
BRANCH   3   4
ATOM      4  C   UNL     1      -7.199  38.137  19.540  1.00  0.00     0.000 C 
BRANCH   4   5
ATOM      5  C   UNL     1      -7.125  39.367  20.467  1.00  0.00     0.006 C 
BRANCH   5   6
ATOM      6  C   UNL     1      -7.490  39.085  21.933  1.00  0.00     0.053 C 
BRANCH   6   7
ATOM      7  C   UNL     1      -6.430  38.288  22.629  1.00  0.00     0.041 C 
ATOM      8  O   UNL     1      -5.547  38.868  23.314  1.00  0.00    -0.550 OA
ATOM      9  O   UNL     1      -6.438  36.901  22.550  1.00  0.00    -0.550 OA
ENDBRANCH   6   7
ENDBRANCH   5   6
ENDBRANCH   4   5
ENDBRANCH   3   4
ENDBRANCH   2   3
ENDBRANCH   1   2
BRANCH   1  10
ATOM     10  C   UNL     1      -2.263  38.177  20.082  1.00  0.00     0.000 C 
BRANCH  10  11
ATOM     11  C   UNL     1      -2.082  39.393  19.154  1.00  0.00    -0.000 C 
BRANCH  11  12
ATOM     12  C   UNL     1      -0.901  39.294  18.171  1.00  0.00    -0.000 C 
BRANCH  12  13
ATOM     13  C   UNL     1      -0.451  37.847  17.920  1.00  0.00    -0.000 C 
BRANCH  13  14
ATOM     14  C   UNL     1      -0.772  37.414  16.484  1.00  0.00    -0.000 C 
BRANCH  14  15
ATOM     15  C   UNL     1      -1.704  36.193  16.474  1.00  0.00    -0.000 C 
BRANCH  15  16
ATOM     16  C   UNL     1      -3.187  36.580  16.588  1.00  0.00    -0.003 C 
ATOM     17  C   UNL     1      -3.511  37.892  15.875  1.00  0.00     0.004 C 
ENDBRANCH  15  16
ENDBRANCH  14  15
ENDBRANCH  13  14
ENDBRANCH  12  13
ENDBRANCH  11  12
ENDBRANCH  10  11
ENDBRANCH   1  10
TORSDOF 13
ENDMDL
