MODEL 1
REMARK VINA RESULT:    -3.952      0.000      0.000
REMARK INTER + INTRA:          -4.068
REMARK INTER:                  -4.068
REMARK INTRA:                   0.000
REMARK UNBOUND:                 0.000
REMARK SMILES CC1(C)[C@H]2CC[C@](C)(C2)[C@@H]1O
REMARK SMILES IDX 1 1 2 2 4 3 5 4 6 5 7 6 9 7 10 8 8 9 3 10 11 11
REMARK H PARENT 11 12
REMARK Flexibility Score: inf
ROOT
ATOM      1  C   UNL     1     138.445 137.708 131.338  1.00  0.00     0.014 C 
ATOM      2  C   UNL     1     138.725 137.735 129.815  1.00  0.00    -0.006 C 
ATOM      3  C   UNL     1     138.199 139.030 129.105  1.00  0.00    -0.002 C 
ATOM      4  C   UNL     1     138.625 140.301 129.869  1.00  0.00     0.005 C 
ATOM      5  C   UNL     1     140.147 140.328 129.662  1.00  0.00     0.010 C 
ATOM      6  C   UNL     1     140.384 139.132 128.710  1.00  0.00    -0.006 C 
ATOM      7  C   UNL     1     139.110 139.131 127.895  1.00  0.00     0.013 C 
ATOM      8  C   UNL     1     140.262 137.811 129.522  1.00  0.00     0.126 C 
ATOM      9  C   UNL     1     141.663 139.270 127.876  1.00  0.00     0.014 C 
ATOM     10  C   UNL     1     138.041 136.485 129.199  1.00  0.00     0.014 C 
ENDROOT
BRANCH   8  11
ATOM     11  O   UNL     1     140.701 136.708 128.764  1.00  0.00    -0.392 OA
ATOM     12  H   UNL     1     140.992 136.010 129.406  1.00  0.00     0.211 HD
ENDBRANCH   8  11
TORSDOF 1
ENDMDL
MODEL 2
REMARK VINA RESULT:    -3.874      3.413      4.528
REMARK INTER + INTRA:          -3.988
REMARK INTER:                  -3.988
REMARK INTRA:                   0.000
REMARK UNBOUND:                 0.000
REMARK SMILES CC1(C)[C@H]2CC[C@](C)(C2)[C@@H]1O
REMARK SMILES IDX 1 1 2 2 4 3 5 4 6 5 7 6 9 7 10 8 8 9 3 10 11 11
REMARK H PARENT 11 12
REMARK Flexibility Score: inf
ROOT
ATOM      1  C   UNL     1     135.389 137.324 130.767  1.00  0.00     0.014 C 
ATOM      2  C   UNL     1     135.762 138.827 130.765  1.00  0.00    -0.006 C 
ATOM      3  C   UNL     1     137.258 139.100 130.383  1.00  0.00    -0.002 C 
ATOM      4  C   UNL     1     137.663 138.326 129.111  1.00  0.00     0.005 C 
ATOM      5  C   UNL     1     136.843 139.021 128.014  1.00  0.00     0.010 C 
ATOM      6  C   UNL     1     136.160 140.179 128.780  1.00  0.00    -0.006 C 
ATOM      7  C   UNL     1     137.201 140.511 129.826  1.00  0.00     0.013 C 
ATOM      8  C   UNL     1     134.998 139.600 129.636  1.00  0.00     0.126 C 
ATOM      9  C   UNL     1     135.781 141.358 127.875  1.00  0.00     0.014 C 
ATOM     10  C   UNL     1     135.477 139.376 132.188  1.00  0.00     0.014 C 
ENDROOT
BRANCH   8  11
ATOM     11  O   UNL     1     134.196 140.630 130.164  1.00  0.00    -0.392 OA
ATOM     12  H   UNL     1     134.569 140.861 131.054  1.00  0.00     0.211 HD
ENDBRANCH   8  11
TORSDOF 1
ENDMDL
MODEL 3
REMARK VINA RESULT:    -3.873      2.357      3.673
REMARK INTER + INTRA:          -3.986
REMARK INTER:                  -3.986
REMARK INTRA:                   0.000
REMARK UNBOUND:                 0.000
REMARK SMILES CC1(C)[C@H]2CC[C@](C)(C2)[C@@H]1O
REMARK SMILES IDX 1 1 2 2 4 3 5 4 6 5 7 6 9 7 10 8 8 9 3 10 11 11
REMARK H PARENT 11 12
REMARK Flexibility Score: inf
ROOT
ATOM      1  C   UNL     1     139.846 137.936 130.802  1.00  0.00     0.014 C 
ATOM      2  C   UNL     1     139.433 136.444 130.785  1.00  0.00    -0.006 C 
ATOM      3  C   UNL     1     137.934 136.213 130.392  1.00  0.00    -0.002 C 
ATOM      4  C   UNL     1     137.557 137.008 129.124  1.00  0.00     0.005 C 
ATOM      5  C   UNL     1     138.365 136.300 128.026  1.00  0.00     0.010 C 
ATOM      6  C   UNL     1     139.013 135.119 128.787  1.00  0.00    -0.006 C 
ATOM      7  C   UNL     1     137.957 134.806 129.824  1.00  0.00     0.013 C 
ATOM      8  C   UNL     1     140.184 135.660 129.655  1.00  0.00     0.126 C 
ATOM      9  C   UNL     1     139.367 133.937 127.875  1.00  0.00     0.014 C 
ATOM     10  C   UNL     1     139.695 135.877 132.206  1.00  0.00     0.014 C 
ENDROOT
BRANCH   8  11
ATOM     11  O   UNL     1     140.955 134.605 130.179  1.00  0.00    -0.392 OA
ATOM     12  H   UNL     1     141.546 134.995 130.875  1.00  0.00     0.211 HD
ENDBRANCH   8  11
TORSDOF 1
ENDMDL
MODEL 4
REMARK VINA RESULT:    -3.860      1.702      2.730
REMARK INTER + INTRA:          -3.973
REMARK INTER:                  -3.973
REMARK INTRA:                   0.000
REMARK UNBOUND:                 0.000
REMARK SMILES CC1(C)[C@H]2CC[C@](C)(C2)[C@@H]1O
REMARK SMILES IDX 1 1 2 2 4 3 5 4 6 5 7 6 9 7 10 8 8 9 3 10 11 11
REMARK H PARENT 11 12
REMARK Flexibility Score: inf
ROOT
ATOM      1  C   UNL     1     137.257 139.882 130.741  1.00  0.00     0.014 C 
ATOM      2  C   UNL     1     138.739 139.434 130.731  1.00  0.00    -0.006 C 
ATOM      3  C   UNL     1     138.943 137.958 130.245  1.00  0.00    -0.002 C 
ATOM      4  C   UNL     1     138.169 137.685 128.938  1.00  0.00     0.005 C 
ATOM      5  C   UNL     1     138.922 138.544 127.912  1.00  0.00     0.010 C 
ATOM      6  C   UNL     1     140.100 139.110 128.739  1.00  0.00    -0.006 C 
ATOM      7  C   UNL     1     140.364 137.982 129.711  1.00  0.00     0.013 C 
ATOM      8  C   UNL     1     139.567 140.237 129.669  1.00  0.00     0.126 C 
ATOM      9  C   UNL     1     141.311 139.493 127.878  1.00  0.00     0.014 C 
ATOM     10  C   UNL     1     139.279 139.589 132.177  1.00  0.00     0.014 C 
ENDROOT
BRANCH   8  11
ATOM     11  O   UNL     1     140.627 140.945 130.266  1.00  0.00    -0.392 OA
ATOM     12  H   UNL     1     141.322 140.278 130.508  1.00  0.00     0.211 HD
ENDBRANCH   8  11
TORSDOF 1
ENDMDL
MODEL 5
REMARK VINA RESULT:    -3.857      2.704      3.822
REMARK INTER + INTRA:          -3.970
REMARK INTER:                  -3.970
REMARK INTRA:                   0.000
REMARK UNBOUND:                 0.000
REMARK SMILES CC1(C)[C@H]2CC[C@](C)(C2)[C@@H]1O
REMARK SMILES IDX 1 1 2 2 4 3 5 4 6 5 7 6 9 7 10 8 8 9 3 10 11 11
REMARK H PARENT 11 12
REMARK Flexibility Score: inf
ROOT
ATOM      1  C   UNL     1     137.612 136.852 131.269  1.00  0.00     0.014 C 
ATOM      2  C   UNL     1     137.680 136.561 129.750  1.00  0.00    -0.006 C 
ATOM      3  C   UNL     1     139.022 137.022 129.084  1.00  0.00    -0.002 C 
ATOM      4  C   UNL     1     140.244 136.544 129.895  1.00  0.00     0.005 C 
ATOM      5  C   UNL     1     140.210 135.021 129.697  1.00  0.00     0.010 C 
ATOM      6  C   UNL     1     139.039 134.833 128.705  1.00  0.00    -0.006 C 
ATOM      7  C   UNL     1     139.125 136.100 127.883  1.00  0.00     0.013 C 
ATOM      8  C   UNL     1     137.697 135.019 129.468  1.00  0.00     0.126 C 
ATOM      9  C   UNL     1     139.148 133.542 127.882  1.00  0.00     0.014 C 
ATOM     10  C   UNL     1     136.486 137.296 129.085  1.00  0.00     0.014 C 
ENDROOT
BRANCH   8  11
ATOM     11  O   UNL     1     136.603 134.626 128.672  1.00  0.00    -0.392 OA
ATOM     12  H   UNL     1     136.855 134.798 127.727  1.00  0.00     0.211 HD
ENDBRANCH   8  11
TORSDOF 1
ENDMDL
MODEL 6
REMARK VINA RESULT:    -3.849      2.607      3.689
REMARK INTER + INTRA:          -3.962
REMARK INTER:                  -3.962
REMARK INTRA:                   0.000
REMARK UNBOUND:                 0.000
REMARK SMILES CC1(C)[C@H]2CC[C@](C)(C2)[C@@H]1O
REMARK SMILES IDX 1 1 2 2 4 3 5 4 6 5 7 6 9 7 10 8 8 9 3 10 11 11
REMARK H PARENT 11 12
REMARK Flexibility Score: inf
ROOT
ATOM      1  C   UNL     1     137.414 138.415 131.402  1.00  0.00     0.014 C 
ATOM      2  C   UNL     1     137.493 138.702 129.882  1.00  0.00    -0.006 C 
ATOM      3  C   UNL     1     136.218 138.246 129.093  1.00  0.00    -0.002 C 
ATOM      4  C   UNL     1     134.926 138.732 129.782  1.00  0.00     0.005 C 
ATOM      5  C   UNL     1     134.988 140.254 129.585  1.00  0.00     0.010 C 
ATOM      6  C   UNL     1     136.249 140.435 128.708  1.00  0.00    -0.006 C 
ATOM      7  C   UNL     1     136.235 139.166 127.885  1.00  0.00     0.013 C 
ATOM      8  C   UNL     1     137.511 140.243 129.597  1.00  0.00     0.126 C 
ATOM      9  C   UNL     1     136.225 141.723 127.876  1.00  0.00     0.014 C 
ATOM     10  C   UNL     1     138.741 137.960 129.336  1.00  0.00     0.014 C 
ENDROOT
BRANCH   8  11
ATOM     11  O   UNL     1     138.678 140.629 128.909  1.00  0.00    -0.392 OA
ATOM     12  H   UNL     1     138.483 141.498 128.471  1.00  0.00     0.211 HD
ENDBRANCH   8  11
TORSDOF 1
ENDMDL
MODEL 7
REMARK VINA RESULT:    -2.825      1.761      2.702
REMARK INTER + INTRA:          -2.907
REMARK INTER:                  -2.907
REMARK INTRA:                   0.000
REMARK UNBOUND:                 0.000
REMARK SMILES CC1(C)[C@H]2CC[C@](C)(C2)[C@@H]1O
REMARK SMILES IDX 1 1 2 2 4 3 5 4 6 5 7 6 9 7 10 8 8 9 3 10 11 11
REMARK H PARENT 11 12
REMARK Flexibility Score: inf
ROOT
ATOM      1  C   UNL     1     136.742 138.143 130.360  1.00  0.00     0.014 C 
ATOM      2  C   UNL     1     137.691 139.341 130.109  1.00  0.00    -0.006 C 
ATOM      3  C   UNL     1     138.862 139.440 131.146  1.00  0.00    -0.002 C 
ATOM      4  C   UNL     1     139.565 138.079 131.330  1.00  0.00     0.005 C 
ATOM      5  C   UNL     1     140.256 137.867 129.974  1.00  0.00     0.010 C 
ATOM      6  C   UNL     1     139.955 139.188 129.227  1.00  0.00    -0.006 C 
ATOM      7  C   UNL     1     139.929 140.185 130.364  1.00  0.00     0.013 C 
ATOM      8  C   UNL     1     138.471 139.174 128.760  1.00  0.00     0.126 C 
ATOM      9  C   UNL     1     140.981 139.509 128.133  1.00  0.00     0.014 C 
ATOM     10  C   UNL     1     136.830 140.631 130.167  1.00  0.00     0.014 C 
ENDROOT
BRANCH   8  11
ATOM     11  O   UNL     1     138.210 140.238 127.875  1.00  0.00    -0.392 OA
ATOM     12  H   UNL     1     137.980 139.836 126.997  1.00  0.00     0.211 HD
ENDBRANCH   8  11
TORSDOF 1
ENDMDL
MODEL 8
REMARK VINA RESULT:    -1.954      3.439      5.431
REMARK INTER + INTRA:          -2.011
REMARK INTER:                  -2.011
REMARK INTRA:                   0.000
REMARK UNBOUND:                 0.000
REMARK SMILES CC1(C)[C@H]2CC[C@](C)(C2)[C@@H]1O
REMARK SMILES IDX 1 1 2 2 4 3 5 4 6 5 7 6 9 7 10 8 8 9 3 10 11 11
REMARK H PARENT 11 12
REMARK Flexibility Score: inf
ROOT
ATOM      1  C   UNL     1     136.599 137.474 131.456  1.00  0.00     0.014 C 
ATOM      2  C   UNL     1     136.313 137.567 129.937  1.00  0.00    -0.006 C 
ATOM      3  C   UNL     1     136.891 136.363 129.117  1.00  0.00    -0.002 C 
ATOM      4  C   UNL     1     136.526 135.013 129.768  1.00  0.00     0.005 C 
ATOM      5  C   UNL     1     135.006 134.936 129.561  1.00  0.00     0.010 C 
ATOM      6  C   UNL     1     134.711 136.199 128.717  1.00  0.00    -0.006 C 
ATOM      7  C   UNL     1     135.980 136.327 127.903  1.00  0.00     0.013 C 
ATOM      8  C   UNL     1     134.778 137.448 129.641  1.00  0.00     0.126 C 
ATOM      9  C   UNL     1     133.435 136.077 127.875  1.00  0.00     0.014 C 
ATOM     10  C   UNL     1     136.937 138.894 129.431  1.00  0.00     0.014 C 
ENDROOT
BRANCH   8  11
ATOM     11  O   UNL     1     134.288 138.592 128.981  1.00  0.00    -0.392 OA
ATOM     12  H   UNL     1     133.302 138.592 129.095  1.00  0.00     0.211 HD
ENDBRANCH   8  11
TORSDOF 1
ENDMDL
