MODEL 1
REMARK VINA RESULT:    -6.152      0.000      0.000
REMARK INTER + INTRA:          -6.600
REMARK INTER:                  -6.512
REMARK INTRA:                  -0.088
REMARK UNBOUND:                -0.088
REMARK SMILES C=C(C)[C@@H]1CC=C(C)C(=O)C1
REMARK SMILES IDX 8 1 7 2 6 3 5 4 4 5 11 6 9 7 10 8 2 9 1 10 3 11
REMARK H PARENT
REMARK Flexibility Score: inf
ROOT
ATOM      1  C   UNL     1       0.342  10.927  45.959  1.00  0.00     0.048 C 
ATOM      2  C   UNL     1       1.670  11.567  46.257  1.00  0.00    -0.012 C 
ATOM      3  C   UNL     1       2.778  10.811  46.354  1.00  0.00    -0.019 C 
ATOM      4  C   UNL     1       4.141  11.415  46.570  1.00  0.00     0.036 C 
ATOM      5  C   UNL     1       4.048  12.723  47.377  1.00  0.00     0.025 C 
ATOM      6  C   UNL     1       3.077  13.705  46.696  1.00  0.00     0.089 C 
ATOM      7  C   UNL     1       1.756  13.040  46.418  1.00  0.00     0.158 C 
ATOM      8  O   UNL     1       0.727  13.753  46.280  1.00  0.00    -0.295 OA
ENDROOT
BRANCH   5   9
ATOM      9  C   UNL     1       5.420  13.349  47.593  1.00  0.00    -0.077 C 
ATOM     10  C   UNL     1       5.981  13.400  48.814  1.00  0.00     0.008 C 
ATOM     11  C   UNL     1       6.178  13.930  46.427  1.00  0.00     0.039 C 
ENDBRANCH   5   9
TORSDOF 1
ENDMDL
MODEL 2
REMARK VINA RESULT:    -5.987      2.091      3.282
REMARK INTER + INTRA:          -6.425
REMARK INTER:                  -6.332
REMARK INTRA:                  -0.093
REMARK UNBOUND:                -0.088
REMARK SMILES C=C(C)[C@@H]1CC=C(C)C(=O)C1
REMARK SMILES IDX 8 1 7 2 6 3 5 4 4 5 11 6 9 7 10 8 2 9 1 10 3 11
REMARK H PARENT
REMARK Flexibility Score: inf
ROOT
ATOM      1  C   UNL     1      -2.450  13.128  45.505  1.00  0.00     0.048 C 
ATOM      2  C   UNL     1      -1.068  12.594  45.761  1.00  0.00    -0.012 C 
ATOM      3  C   UNL     1      -0.894  11.306  46.106  1.00  0.00    -0.019 C 
ATOM      4  C   UNL     1       0.475  10.706  46.294  1.00  0.00     0.036 C 
ATOM      5  C   UNL     1       1.482  11.762  46.788  1.00  0.00     0.025 C 
ATOM      6  C   UNL     1       1.500  12.972  45.835  1.00  0.00     0.089 C 
ATOM      7  C   UNL     1       0.106  13.489  45.605  1.00  0.00     0.158 C 
ATOM      8  O   UNL     1      -0.054  14.682  45.235  1.00  0.00    -0.295 OA
ENDROOT
BRANCH   5   9
ATOM      9  C   UNL     1       2.873  11.170  46.971  1.00  0.00    -0.077 C 
ATOM     10  C   UNL     1       3.496  10.525  45.970  1.00  0.00     0.008 C 
ATOM     11  C   UNL     1       3.582  11.300  48.295  1.00  0.00     0.039 C 
ENDBRANCH   5   9
TORSDOF 1
ENDMDL
MODEL 3
REMARK VINA RESULT:    -5.975      1.383      2.063
REMARK INTER + INTRA:          -6.412
REMARK INTER:                  -6.319
REMARK INTRA:                  -0.093
REMARK UNBOUND:                -0.088
REMARK SMILES C=C(C)[C@@H]1CC=C(C)C(=O)C1
REMARK SMILES IDX 8 1 7 2 6 3 5 4 4 5 11 6 9 7 10 8 2 9 1 10 3 11
REMARK H PARENT
REMARK Flexibility Score: inf
ROOT
ATOM      1  C   UNL     1       0.332  12.537  45.763  1.00  0.00     0.048 C 
ATOM      2  C   UNL     1       1.716  12.813  46.284  1.00  0.00    -0.012 C 
ATOM      3  C   UNL     1       2.119  14.078  46.494  1.00  0.00    -0.019 C 
ATOM      4  C   UNL     1       3.465  14.400  47.090  1.00  0.00     0.036 C 
ATOM      5  C   UNL     1       4.507  13.327  46.720  1.00  0.00     0.025 C 
ATOM      6  C   UNL     1       4.006  11.930  47.130  1.00  0.00     0.089 C 
ATOM      7  C   UNL     1       2.625  11.680  46.589  1.00  0.00     0.158 C 
ATOM      8  O   UNL     1       2.230  10.494  46.438  1.00  0.00    -0.295 OA
ENDROOT
BRANCH   5   9
ATOM      9  C   UNL     1       5.870  13.635  47.326  1.00  0.00    -0.077 C 
ATOM     10  C   UNL     1       6.090  13.522  48.648  1.00  0.00     0.008 C 
ATOM     11  C   UNL     1       7.008  14.079  46.442  1.00  0.00     0.039 C 
ENDBRANCH   5   9
TORSDOF 1
ENDMDL
MODEL 4
REMARK VINA RESULT:    -5.789      2.566      3.966
REMARK INTER + INTRA:          -6.215
REMARK INTER:                  -6.126
REMARK INTRA:                  -0.089
REMARK UNBOUND:                -0.088
REMARK SMILES C=C(C)[C@@H]1CC=C(C)C(=O)C1
REMARK SMILES IDX 8 1 7 2 6 3 5 4 4 5 11 6 9 7 10 8 2 9 1 10 3 11
REMARK H PARENT
REMARK Flexibility Score: inf
ROOT
ATOM      1  C   UNL     1      -2.582  13.529  45.310  1.00  0.00     0.048 C 
ATOM      2  C   UNL     1      -1.270  12.917  45.719  1.00  0.00    -0.012 C 
ATOM      3  C   UNL     1      -0.133  13.627  45.619  1.00  0.00    -0.019 C 
ATOM      4  C   UNL     1       1.191  13.085  46.092  1.00  0.00     0.036 C 
ATOM      5  C   UNL     1       1.245  11.551  45.958  1.00  0.00     0.025 C 
ATOM      6  C   UNL     1       0.055  10.907  46.694  1.00  0.00     0.089 C 
ATOM      7  C   UNL     1      -1.242  11.534  46.258  1.00  0.00     0.158 C 
ATOM      8  O   UNL     1      -2.314  10.887  46.397  1.00  0.00    -0.295 OA
ENDROOT
BRANCH   5   9
ATOM      9  C   UNL     1       2.575  10.991  46.443  1.00  0.00    -0.077 C 
ATOM     10  C   UNL     1       3.356  10.248  45.639  1.00  0.00     0.008 C 
ATOM     11  C   UNL     1       3.041  11.262  47.851  1.00  0.00     0.039 C 
ENDBRANCH   5   9
TORSDOF 1
ENDMDL
MODEL 5
REMARK VINA RESULT:    -5.665      2.139      4.605
REMARK INTER + INTRA:          -6.085
REMARK INTER:                  -5.989
REMARK INTRA:                  -0.096
REMARK UNBOUND:                -0.088
REMARK SMILES C=C(C)[C@@H]1CC=C(C)C(=O)C1
REMARK SMILES IDX 8 1 7 2 6 3 5 4 4 5 11 6 9 7 10 8 2 9 1 10 3 11
REMARK H PARENT
REMARK Flexibility Score: inf
ROOT
ATOM      1  C   UNL     1       3.999  10.882  46.848  1.00  0.00     0.048 C 
ATOM      2  C   UNL     1       2.742  11.658  46.563  1.00  0.00    -0.012 C 
ATOM      3  C   UNL     1       1.607  11.012  46.246  1.00  0.00    -0.019 C 
ATOM      4  C   UNL     1       0.306  11.741  46.033  1.00  0.00     0.036 C 
ATOM      5  C   UNL     1       0.546  13.159  45.481  1.00  0.00     0.025 C 
ATOM      6  C   UNL     1       1.506  13.936  46.401  1.00  0.00     0.089 C 
ATOM      7  C   UNL     1       2.756  13.139  46.660  1.00  0.00     0.158 C 
ATOM      8  O   UNL     1       3.807  13.741  47.005  1.00  0.00    -0.295 OA
ENDROOT
BRANCH   5   9
ATOM      9  C   UNL     1      -0.762  13.910  45.271  1.00  0.00    -0.077 C 
ATOM     10  C   UNL     1      -1.940  13.264  45.227  1.00  0.00     0.008 C 
ATOM     11  C   UNL     1      -0.754  15.408  45.106  1.00  0.00     0.039 C 
ENDBRANCH   5   9
TORSDOF 1
ENDMDL
MODEL 6
REMARK VINA RESULT:    -5.628      1.675      2.657
REMARK INTER + INTRA:          -6.045
REMARK INTER:                  -5.948
REMARK INTRA:                  -0.097
REMARK UNBOUND:                -0.088
REMARK SMILES C=C(C)[C@@H]1CC=C(C)C(=O)C1
REMARK SMILES IDX 8 1 7 2 6 3 5 4 4 5 11 6 9 7 10 8 2 9 1 10 3 11
REMARK H PARENT
REMARK Flexibility Score: inf
ROOT
ATOM      1  C   UNL     1      -1.377  13.125  45.122  1.00  0.00     0.048 C 
ATOM      2  C   UNL     1      -0.040  12.926  45.783  1.00  0.00    -0.012 C 
ATOM      3  C   UNL     1       0.768  13.977  46.003  1.00  0.00    -0.019 C 
ATOM      4  C   UNL     1       2.079  13.839  46.733  1.00  0.00     0.036 C 
ATOM      5  C   UNL     1       2.698  12.446  46.506  1.00  0.00     0.025 C 
ATOM      6  C   UNL     1       1.694  11.344  46.895  1.00  0.00     0.089 C 
ATOM      7  C   UNL     1       0.371  11.566  46.213  1.00  0.00     0.158 C 
ATOM      8  O   UNL     1      -0.407  10.589  46.050  1.00  0.00    -0.295 OA
ENDROOT
BRANCH   5   9
ATOM      9  C   UNL     1       4.018  12.290  47.247  1.00  0.00    -0.077 C 
ATOM     10  C   UNL     1       4.327  11.152  47.894  1.00  0.00     0.008 C 
ATOM     11  C   UNL     1       5.012  13.424  47.270  1.00  0.00     0.039 C 
ENDBRANCH   5   9
TORSDOF 1
ENDMDL
MODEL 7
REMARK VINA RESULT:    -5.524      1.474      4.335
REMARK INTER + INTRA:          -5.935
REMARK INTER:                  -5.840
REMARK INTRA:                  -0.095
REMARK UNBOUND:                -0.088
REMARK SMILES C=C(C)[C@@H]1CC=C(C)C(=O)C1
REMARK SMILES IDX 8 1 7 2 6 3 5 4 4 5 11 6 9 7 10 8 2 9 1 10 3 11
REMARK H PARENT
REMARK Flexibility Score: inf
ROOT
ATOM      1  C   UNL     1       5.904  13.168  48.097  1.00  0.00     0.048 C 
ATOM      2  C   UNL     1       4.492  12.815  47.717  1.00  0.00    -0.012 C 
ATOM      3  C   UNL     1       3.996  11.601  48.014  1.00  0.00    -0.019 C 
ATOM      4  C   UNL     1       2.565  11.230  47.725  1.00  0.00     0.036 C 
ATOM      5  C   UNL     1       2.034  11.980  46.489  1.00  0.00     0.025 C 
ATOM      6  C   UNL     1       2.220  13.499  46.664  1.00  0.00     0.089 C 
ATOM      7  C   UNL     1       3.641  13.822  47.035  1.00  0.00     0.158 C 
ATOM      8  O   UNL     1       4.091  14.975  46.801  1.00  0.00    -0.295 OA
ENDROOT
BRANCH   5   9
ATOM      9  C   UNL     1       0.584  11.622  46.194  1.00  0.00    -0.077 C 
ATOM     10  C   UNL     1       0.076  10.424  46.533  1.00  0.00     0.008 C 
ATOM     11  C   UNL     1      -0.316  12.617  45.507  1.00  0.00     0.039 C 
ENDBRANCH   5   9
TORSDOF 1
ENDMDL
MODEL 8
REMARK VINA RESULT:    -5.396      1.814      4.819
REMARK INTER + INTRA:          -5.800
REMARK INTER:                  -5.702
REMARK INTRA:                  -0.097
REMARK UNBOUND:                -0.088
REMARK SMILES C=C(C)[C@@H]1CC=C(C)C(=O)C1
REMARK SMILES IDX 8 1 7 2 6 3 5 4 4 5 11 6 9 7 10 8 2 9 1 10 3 11
REMARK H PARENT
REMARK Flexibility Score: inf
ROOT
ATOM      1  C   UNL     1       5.260  13.527  47.565  1.00  0.00     0.048 C 
ATOM      2  C   UNL     1       3.891  13.184  47.047  1.00  0.00    -0.012 C 
ATOM      3  C   UNL     1       3.039  14.161  46.689  1.00  0.00    -0.019 C 
ATOM      4  C   UNL     1       1.689  13.864  46.089  1.00  0.00     0.036 C 
ATOM      5  C   UNL     1       1.128  12.530  46.615  1.00  0.00     0.025 C 
ATOM      6  C   UNL     1       2.137  11.391  46.372  1.00  0.00     0.089 C 
ATOM      7  C   UNL     1       3.493  11.760  46.908  1.00  0.00     0.158 C 
ATOM      8  O   UNL     1       4.309  10.845  47.197  1.00  0.00    -0.295 OA
ENDROOT
BRANCH   5   9
ATOM      9  C   UNL     1      -0.232  12.213  46.007  1.00  0.00    -0.077 C 
ATOM     10  C   UNL     1      -0.799  11.002  46.152  1.00  0.00     0.008 C 
ATOM     11  C   UNL     1      -0.973  13.265  45.222  1.00  0.00     0.039 C 
ENDBRANCH   5   9
TORSDOF 1
ENDMDL
MODEL 9
REMARK VINA RESULT:    -5.395      1.829      4.830
REMARK INTER + INTRA:          -5.799
REMARK INTER:                  -5.702
REMARK INTRA:                  -0.096
REMARK UNBOUND:                -0.088
REMARK SMILES C=C(C)[C@@H]1CC=C(C)C(=O)C1
REMARK SMILES IDX 8 1 7 2 6 3 5 4 4 5 11 6 9 7 10 8 2 9 1 10 3 11
REMARK H PARENT
REMARK Flexibility Score: inf
ROOT
ATOM      1  C   UNL     1       5.409  13.348  47.824  1.00  0.00     0.048 C 
ATOM      2  C   UNL     1       4.047  13.090  47.241  1.00  0.00    -0.012 C 
ATOM      3  C   UNL     1       3.264  14.118  46.872  1.00  0.00    -0.019 C 
ATOM      4  C   UNL     1       1.927  13.908  46.210  1.00  0.00     0.036 C 
ATOM      5  C   UNL     1       1.274  12.594  46.680  1.00  0.00     0.025 C 
ATOM      6  C   UNL     1       2.232  11.409  46.452  1.00  0.00     0.089 C 
ATOM      7  C   UNL     1       3.582  11.693  47.052  1.00  0.00     0.158 C 
ATOM      8  O   UNL     1       4.335  10.730  47.353  1.00  0.00    -0.295 OA
ENDROOT
BRANCH   5   9
ATOM      9  C   UNL     1      -0.074  12.364  46.010  1.00  0.00    -0.077 C 
ATOM     10  C   UNL     1      -0.691  13.343  45.325  1.00  0.00     0.008 C 
ATOM     11  C   UNL     1      -0.746  11.018  46.106  1.00  0.00     0.039 C 
ENDBRANCH   5   9
TORSDOF 1
ENDMDL
