MODEL 1
REMARK VINA RESULT:    -2.642      0.000      0.000
REMARK INTER + INTRA:          -8.173
REMARK INTER:                  -5.114
REMARK INTRA:                  -3.060
REMARK UNBOUND:                -3.060
REMARK SMILES CCCCCCCCCCCCCCCCCC(=O)[O-]
REMARK SMILES IDX 10 1 11 2 12 3 13 4 14 5 15 6 16 7 17 8 18 9 19 10 20 11
REMARK SMILES IDX 9 12 8 13 7 14 6 15 5 16 4 17 3 18 2 19 1 20
REMARK H PARENT
REMARK Flexibility Score: inf
ROOT
ATOM      1  C   UNL     1      96.435  66.942 228.066  1.00  0.00     0.000 C 
ENDROOT
BRANCH   1   2
ATOM      2  C   UNL     1      95.900  66.869 226.620  1.00  0.00     0.000 C 
BRANCH   2   3
ATOM      3  C   UNL     1      95.757  65.420 226.124  1.00  0.00     0.000 C 
BRANCH   3   4
ATOM      4  C   UNL     1      96.783  65.060 225.038  1.00  0.00     0.000 C 
BRANCH   4   5
ATOM      5  C   UNL     1      98.012  64.332 225.601  1.00  0.00     0.000 C 
BRANCH   5   6
ATOM      6  C   UNL     1      99.305  65.064 225.224  1.00  0.00     0.000 C 
BRANCH   6   7
ATOM      7  C   UNL     1      99.533  66.283 226.132  1.00  0.00     0.006 C 
BRANCH   7   8
ATOM      8  C   UNL     1     100.099  67.482 225.361  1.00  0.00     0.053 C 
BRANCH   8   9
ATOM      9  C   UNL     1     101.562  67.323 225.081  1.00  0.00     0.041 C 
ATOM     10  O   UNL     1     102.038  67.673 223.969  1.00  0.00    -0.550 OA
ATOM     11  O   UNL     1     102.396  66.760 226.040  1.00  0.00    -0.550 OA
ENDBRANCH   8   9
ENDBRANCH   7   8
ENDBRANCH   6   7
ENDBRANCH   5   6
ENDBRANCH   4   5
ENDBRANCH   3   4
ENDBRANCH   2   3
ENDBRANCH   1   2
BRANCH   1  12
ATOM     12  C   UNL     1      96.410  65.588 228.803  1.00  0.00     0.000 C 
BRANCH  12  13
ATOM     13  C   UNL     1      97.794  65.043 229.198  1.00  0.00    -0.000 C 
BRANCH  13  14
ATOM     14  C   UNL     1      97.864  63.512 229.366  1.00  0.00    -0.000 C 
BRANCH  14  15
ATOM     15  C   UNL     1      99.158  62.885 228.806  1.00  0.00    -0.000 C 
BRANCH  15  16
ATOM     16  C   UNL     1     100.362  63.839 228.913  1.00  0.00    -0.000 C 
BRANCH  16  17
ATOM     17  C   UNL     1     101.421  63.575 227.831  1.00  0.00    -0.000 C 
BRANCH  17  18
ATOM     18  C   UNL     1     101.207  62.232 227.111  1.00  0.00    -0.000 C 
BRANCH  18  19
ATOM     19  C   UNL     1     101.782  62.232 225.686  1.00  0.00    -0.003 C 
ATOM     20  C   UNL     1     102.756  63.384 225.443  1.00  0.00     0.004 C 
ENDBRANCH  18  19
ENDBRANCH  17  18
ENDBRANCH  16  17
ENDBRANCH  15  16
ENDBRANCH  14  15
ENDBRANCH  13  14
ENDBRANCH  12  13
ENDBRANCH   1  12
TORSDOF 16
ENDMDL
MODEL 2
REMARK VINA RESULT:    -2.624      1.737      3.640
REMARK INTER + INTRA:          -8.138
REMARK INTER:                  -5.004
REMARK INTRA:                  -3.134
REMARK UNBOUND:                -3.060
REMARK SMILES CCCCCCCCCCCCCCCCCC(=O)[O-]
REMARK SMILES IDX 10 1 11 2 12 3 13 4 14 5 15 6 16 7 17 8 18 9 19 10 20 11
REMARK SMILES IDX 9 12 8 13 7 14 6 15 5 16 4 17 3 18 2 19 1 20
REMARK H PARENT
REMARK Flexibility Score: inf
ROOT
ATOM      1  C   UNL     1      96.082  64.998 226.147  1.00  0.00     0.000 C 
ENDROOT
BRANCH   1   2
ATOM      2  C   UNL     1      97.178  65.478 225.172  1.00  0.00     0.000 C 
BRANCH   2   3
ATOM      3  C   UNL     1      98.504  64.722 225.366  1.00  0.00     0.000 C 
BRANCH   3   4
ATOM      4  C   UNL     1      99.722  65.658 225.390  1.00  0.00     0.000 C 
BRANCH   4   5
ATOM      5  C   UNL     1     101.016  64.937 225.795  1.00  0.00     0.000 C 
BRANCH   5   6
ATOM      6  C   UNL     1     101.333  63.791 224.827  1.00  0.00     0.000 C 
BRANCH   6   7
ATOM      7  C   UNL     1     102.353  62.818 225.440  1.00  0.00     0.006 C 
BRANCH   7   8
ATOM      8  C   UNL     1     103.021  63.395 226.695  1.00  0.00     0.053 C 
BRANCH   8   9
ATOM      9  C   UNL     1     104.432  63.821 226.428  1.00  0.00     0.041 C 
ATOM     10  O   UNL     1     105.254  63.013 225.921  1.00  0.00    -0.550 OA
ATOM     11  O   UNL     1     104.847  65.103 226.767  1.00  0.00    -0.550 OA
ENDBRANCH   8   9
ENDBRANCH   7   8
ENDBRANCH   6   7
ENDBRANCH   5   6
ENDBRANCH   4   5
ENDBRANCH   3   4
ENDBRANCH   2   3
ENDBRANCH   1   2
BRANCH   1  12
ATOM     12  C   UNL     1      96.049  65.782 227.474  1.00  0.00     0.000 C 
BRANCH  12  13
ATOM     13  C   UNL     1      96.629  67.206 227.396  1.00  0.00    -0.000 C 
BRANCH  13  14
ATOM     14  C   UNL     1      97.813  67.477 228.345  1.00  0.00    -0.000 C 
BRANCH  14  15
ATOM     15  C   UNL     1      98.141  66.294 229.280  1.00  0.00    -0.000 C 
BRANCH  15  16
ATOM     16  C   UNL     1      99.575  65.771 229.078  1.00  0.00    -0.000 C 
BRANCH  16  17
ATOM     17  C   UNL     1      99.674  64.245 229.229  1.00  0.00    -0.000 C 
BRANCH  17  18
ATOM     18  C   UNL     1      98.293  63.571 229.316  1.00  0.00    -0.000 C 
BRANCH  18  19
ATOM     19  C   UNL     1      98.108  62.473 228.257  1.00  0.00    -0.003 C 
ATOM     20  C   UNL     1      99.433  62.006 227.655  1.00  0.00     0.004 C 
ENDBRANCH  18  19
ENDBRANCH  17  18
ENDBRANCH  16  17
ENDBRANCH  15  16
ENDBRANCH  14  15
ENDBRANCH  13  14
ENDBRANCH  12  13
ENDBRANCH   1  12
TORSDOF 16
ENDMDL
MODEL 3
REMARK VINA RESULT:    -2.604      1.945      4.973
REMARK INTER + INTRA:          -8.099
REMARK INTER:                  -5.195
REMARK INTRA:                  -2.904
REMARK UNBOUND:                -3.060
REMARK SMILES CCCCCCCCCCCCCCCCCC(=O)[O-]
REMARK SMILES IDX 10 1 11 2 12 3 13 4 14 5 15 6 16 7 17 8 18 9 19 10 20 11
REMARK SMILES IDX 9 12 8 13 7 14 6 15 5 16 4 17 3 18 2 19 1 20
REMARK H PARENT
REMARK Flexibility Score: inf
ROOT
ATOM      1  C   UNL     1      99.286  66.484 229.095  1.00  0.00     0.000 C 
ENDROOT
BRANCH   1   2
ATOM      2  C   UNL     1     100.239  66.679 227.896  1.00  0.00     0.000 C 
BRANCH   2   3
ATOM      3  C   UNL     1      99.519  67.264 226.669  1.00  0.00     0.000 C 
BRANCH   3   4
ATOM      4  C   UNL     1     100.207  66.894 225.345  1.00  0.00     0.000 C 
BRANCH   4   5
ATOM      5  C   UNL     1     101.363  65.901 225.535  1.00  0.00     0.000 C 
BRANCH   5   6
ATOM      6  C   UNL     1     101.040  64.551 224.885  1.00  0.00     0.000 C 
BRANCH   6   7
ATOM      7  C   UNL     1     101.298  63.393 225.862  1.00  0.00     0.006 C 
BRANCH   7   8
ATOM      8  C   UNL     1     102.332  62.398 225.320  1.00  0.00     0.053 C 
BRANCH   8   9
ATOM      9  C   UNL     1     103.690  62.632 225.906  1.00  0.00     0.041 C 
ATOM     10  O   UNL     1     104.117  61.898 226.836  1.00  0.00    -0.550 OA
ATOM     11  O   UNL     1     104.475  63.682 225.444  1.00  0.00    -0.550 OA
ENDBRANCH   8   9
ENDBRANCH   7   8
ENDBRANCH   6   7
ENDBRANCH   5   6
ENDBRANCH   4   5
ENDBRANCH   3   4
ENDBRANCH   2   3
ENDBRANCH   1   2
BRANCH   1  12
ATOM     12  C   UNL     1      98.160  65.466 228.830  1.00  0.00     0.000 C 
BRANCH  12  13
ATOM     13  C   UNL     1      98.642  64.054 228.453  1.00  0.00    -0.000 C 
BRANCH  13  14
ATOM     14  C   UNL     1      98.067  63.502 227.134  1.00  0.00    -0.000 C 
BRANCH  14  15
ATOM     15  C   UNL     1      97.004  64.417 226.490  1.00  0.00    -0.000 C 
BRANCH  15  16
ATOM     16  C   UNL     1      97.313  64.723 225.014  1.00  0.00    -0.000 C 
BRANCH  16  17
ATOM     17  C   UNL     1      96.247  65.615 224.359  1.00  0.00    -0.000 C 
BRANCH  17  18
ATOM     18  C   UNL     1      96.400  67.097 224.745  1.00  0.00    -0.000 C 
BRANCH  18  19
ATOM     19  C   UNL     1      95.292  67.574 225.696  1.00  0.00    -0.003 C 
ATOM     20  C   UNL     1      95.802  67.834 227.113  1.00  0.00     0.004 C 
ENDBRANCH  18  19
ENDBRANCH  17  18
ENDBRANCH  16  17
ENDBRANCH  15  16
ENDBRANCH  14  15
ENDBRANCH  13  14
ENDBRANCH  12  13
ENDBRANCH   1  12
TORSDOF 16
ENDMDL
MODEL 4
REMARK VINA RESULT:    -2.599      1.752      3.816
REMARK INTER + INTRA:          -8.090
REMARK INTER:                  -5.198
REMARK INTRA:                  -2.892
REMARK UNBOUND:                -3.060
REMARK SMILES CCCCCCCCCCCCCCCCCC(=O)[O-]
REMARK SMILES IDX 10 1 11 2 12 3 13 4 14 5 15 6 16 7 17 8 18 9 19 10 20 11
REMARK SMILES IDX 9 12 8 13 7 14 6 15 5 16 4 17 3 18 2 19 1 20
REMARK H PARENT
REMARK Flexibility Score: inf
ROOT
ATOM      1  C   UNL     1      95.322  65.757 225.775  1.00  0.00     0.000 C 
ENDROOT
BRANCH   1   2
ATOM      2  C   UNL     1      95.492  67.223 226.227  1.00  0.00     0.000 C 
BRANCH   2   3
ATOM      3  C   UNL     1      96.402  67.352 227.461  1.00  0.00     0.000 C 
BRANCH   3   4
ATOM      4  C   UNL     1      97.824  67.814 227.104  1.00  0.00     0.000 C 
BRANCH   4   5
ATOM      5  C   UNL     1      97.878  68.601 225.787  1.00  0.00     0.000 C 
BRANCH   5   6
ATOM      6  C   UNL     1      99.140  68.251 224.990  1.00  0.00     0.000 C 
BRANCH   6   7
ATOM      7  C   UNL     1      99.944  67.143 225.689  1.00  0.00     0.006 C 
BRANCH   7   8
ATOM      8  C   UNL     1     101.276  66.861 224.983  1.00  0.00     0.053 C 
BRANCH   8   9
ATOM      9  C   UNL     1     101.564  65.393 224.904  1.00  0.00     0.041 C 
ATOM     10  O   UNL     1     100.861  64.647 224.172  1.00  0.00    -0.550 OA
ATOM     11  O   UNL     1     102.592  64.844 225.661  1.00  0.00    -0.550 OA
ENDBRANCH   8   9
ENDBRANCH   7   8
ENDBRANCH   6   7
ENDBRANCH   5   6
ENDBRANCH   4   5
ENDBRANCH   3   4
ENDBRANCH   2   3
ENDBRANCH   1   2
BRANCH   1  12
ATOM     12  C   UNL     1      96.267  65.351 224.627  1.00  0.00     0.000 C 
BRANCH  12  13
ATOM     13  C   UNL     1      97.500  64.540 225.063  1.00  0.00    -0.000 C 
BRANCH  13  14
ATOM     14  C   UNL     1      97.466  64.041 226.521  1.00  0.00    -0.000 C 
BRANCH  14  15
ATOM     15  C   UNL     1      98.841  63.583 227.052  1.00  0.00    -0.000 C 
BRANCH  15  16
ATOM     16  C   UNL     1      99.433  64.575 228.069  1.00  0.00    -0.000 C 
BRANCH  16  17
ATOM     17  C   UNL     1      99.239  64.115 229.523  1.00  0.00    -0.000 C 
BRANCH  17  18
ATOM     18  C   UNL     1      98.409  65.112 230.351  1.00  0.00    -0.000 C 
BRANCH  18  19
ATOM     19  C   UNL     1      96.897  64.897 230.183  1.00  0.00    -0.003 C 
ATOM     20  C   UNL     1      96.074  66.088 230.675  1.00  0.00     0.004 C 
ENDBRANCH  18  19
ENDBRANCH  17  18
ENDBRANCH  16  17
ENDBRANCH  15  16
ENDBRANCH  14  15
ENDBRANCH  13  14
ENDBRANCH  12  13
ENDBRANCH   1  12
TORSDOF 16
ENDMDL
MODEL 5
REMARK VINA RESULT:    -2.594      8.344     10.710
REMARK INTER + INTRA:          -8.079
REMARK INTER:                  -5.137
REMARK INTRA:                  -2.942
REMARK UNBOUND:                -3.060
REMARK SMILES CCCCCCCCCCCCCCCCCC(=O)[O-]
REMARK SMILES IDX 10 1 11 2 12 3 13 4 14 5 15 6 16 7 17 8 18 9 19 10 20 11
REMARK SMILES IDX 9 12 8 13 7 14 6 15 5 16 4 17 3 18 2 19 1 20
REMARK H PARENT
REMARK Flexibility Score: inf
ROOT
ATOM      1  C   UNL     1      99.414  56.894 222.272  1.00  0.00     0.000 C 
ENDROOT
BRANCH   1   2
ATOM      2  C   UNL     1     100.801  57.559 222.145  1.00  0.00     0.000 C 
BRANCH   2   3
ATOM      3  C   UNL     1     101.883  56.568 221.685  1.00  0.00     0.000 C 
BRANCH   3   4
ATOM      4  C   UNL     1     101.430  55.703 220.499  1.00  0.00     0.000 C 
BRANCH   4   5
ATOM      5  C   UNL     1     101.678  56.379 219.142  1.00  0.00     0.000 C 
BRANCH   5   6
ATOM      6  C   UNL     1     100.387  56.448 218.318  1.00  0.00     0.000 C 
BRANCH   6   7
ATOM      7  C   UNL     1      99.908  57.900 218.167  1.00  0.00     0.006 C 
BRANCH   7   8
ATOM      8  C   UNL     1     100.992  58.911 218.559  1.00  0.00     0.053 C 
BRANCH   8   9
ATOM      9  C   UNL     1     100.419  60.082 219.299  1.00  0.00     0.041 C 
ATOM     10  O   UNL     1      99.197  60.107 219.600  1.00  0.00    -0.550 OA
ATOM     11  O   UNL     1     101.232  61.159 219.630  1.00  0.00    -0.550 OA
ENDBRANCH   8   9
ENDBRANCH   7   8
ENDBRANCH   6   7
ENDBRANCH   5   6
ENDBRANCH   4   5
ENDBRANCH   3   4
ENDBRANCH   2   3
ENDBRANCH   1   2
BRANCH   1  12
ATOM     12  C   UNL     1      98.279  57.699 221.609  1.00  0.00     0.000 C 
BRANCH  12  13
ATOM     13  C   UNL     1      97.380  56.887 220.660  1.00  0.00    -0.000 C 
BRANCH  13  14
ATOM     14  C   UNL     1      97.726  55.388 220.565  1.00  0.00    -0.000 C 
BRANCH  14  15
ATOM     15  C   UNL     1      96.864  54.493 221.481  1.00  0.00    -0.000 C 
BRANCH  15  16
ATOM     16  C   UNL     1      95.484  55.110 221.768  1.00  0.00    -0.000 C 
BRANCH  16  17
ATOM     17  C   UNL     1      95.148  55.133 223.268  1.00  0.00    -0.000 C 
BRANCH  17  18
ATOM     18  C   UNL     1      96.324  55.629 224.128  1.00  0.00    -0.000 C 
BRANCH  18  19
ATOM     19  C   UNL     1      96.027  56.973 224.810  1.00  0.00    -0.003 C 
ATOM     20  C   UNL     1      97.281  57.630 225.388  1.00  0.00     0.004 C 
ENDBRANCH  18  19
ENDBRANCH  17  18
ENDBRANCH  16  17
ENDBRANCH  15  16
ENDBRANCH  14  15
ENDBRANCH  13  14
ENDBRANCH  12  13
ENDBRANCH   1  12
TORSDOF 16
ENDMDL
MODEL 6
REMARK VINA RESULT:    -2.589      1.774      2.901
REMARK INTER + INTRA:          -8.070
REMARK INTER:                  -4.867
REMARK INTRA:                  -3.203
REMARK UNBOUND:                -3.060
REMARK SMILES CCCCCCCCCCCCCCCCCC(=O)[O-]
REMARK SMILES IDX 10 1 11 2 12 3 13 4 14 5 15 6 16 7 17 8 18 9 19 10 20 11
REMARK SMILES IDX 9 12 8 13 7 14 6 15 5 16 4 17 3 18 2 19 1 20
REMARK H PARENT
REMARK Flexibility Score: inf
ROOT
ATOM      1  C   UNL     1      99.203  64.275 230.364  1.00  0.00     0.000 C 
ENDROOT
BRANCH   1   2
ATOM      2  C   UNL     1      98.811  64.788 228.961  1.00  0.00     0.000 C 
BRANCH   2   3
ATOM      3  C   UNL     1      97.287  64.911 228.791  1.00  0.00     0.000 C 
BRANCH   3   4
ATOM      4  C   UNL     1      96.791  64.337 227.454  1.00  0.00     0.000 C 
BRANCH   4   5
ATOM      5  C   UNL     1      97.916  64.186 226.420  1.00  0.00     0.000 C 
BRANCH   5   6
ATOM      6  C   UNL     1      97.699  65.129 225.230  1.00  0.00     0.000 C 
BRANCH   6   7
ATOM      7  C   UNL     1      98.796  66.203 225.171  1.00  0.00     0.006 C 
BRANCH   7   8
ATOM      8  C   UNL     1     100.133  65.695 225.725  1.00  0.00     0.053 C 
BRANCH   8   9
ATOM      9  C   UNL     1     101.121  65.423 224.632  1.00  0.00     0.041 C 
ATOM     10  O   UNL     1     101.272  64.255 224.188  1.00  0.00    -0.550 OA
ATOM     11  O   UNL     1     101.897  66.458 224.122  1.00  0.00    -0.550 OA
ENDBRANCH   8   9
ENDBRANCH   7   8
ENDBRANCH   6   7
ENDBRANCH   5   6
ENDBRANCH   4   5
ENDBRANCH   3   4
ENDBRANCH   2   3
ENDBRANCH   1   2
BRANCH   1  12
ATOM     12  C   UNL     1      98.305  63.133 230.877  1.00  0.00     0.000 C 
BRANCH  12  13
ATOM     13  C   UNL     1      98.742  61.723 230.440  1.00  0.00    -0.000 C 
BRANCH  13  14
ATOM     14  C   UNL     1      97.791  61.030 229.445  1.00  0.00    -0.000 C 
BRANCH  14  15
ATOM     15  C   UNL     1      98.350  60.948 228.008  1.00  0.00    -0.000 C 
BRANCH  15  16
ATOM     16  C   UNL     1      99.470  59.901 227.876  1.00  0.00    -0.000 C 
BRANCH  16  17
ATOM     17  C   UNL     1     100.837  60.535 227.574  1.00  0.00    -0.000 C 
BRANCH  17  18
ATOM     18  C   UNL     1     100.718  61.991 227.090  1.00  0.00    -0.000 C 
BRANCH  18  19
ATOM     19  C   UNL     1     101.757  62.915 227.744  1.00  0.00    -0.003 C 
ATOM     20  C   UNL     1     102.193  62.426 229.125  1.00  0.00     0.004 C 
ENDBRANCH  18  19
ENDBRANCH  17  18
ENDBRANCH  16  17
ENDBRANCH  15  16
ENDBRANCH  14  15
ENDBRANCH  13  14
ENDBRANCH  12  13
ENDBRANCH   1  12
TORSDOF 16
ENDMDL
MODEL 7
REMARK VINA RESULT:    -2.554      1.811      4.292
REMARK INTER + INTRA:          -8.003
REMARK INTER:                  -4.911
REMARK INTRA:                  -3.092
REMARK UNBOUND:                -3.060
REMARK SMILES CCCCCCCCCCCCCCCCCC(=O)[O-]
REMARK SMILES IDX 10 1 11 2 12 3 13 4 14 5 15 6 16 7 17 8 18 9 19 10 20 11
REMARK SMILES IDX 9 12 8 13 7 14 6 15 5 16 4 17 3 18 2 19 1 20
REMARK H PARENT
REMARK Flexibility Score: inf
ROOT
ATOM      1  C   UNL     1      97.051  65.909 229.435  1.00  0.00     0.000 C 
ENDROOT
BRANCH   1   2
ATOM      2  C   UNL     1      98.359  66.702 229.642  1.00  0.00     0.000 C 
BRANCH   2   3
ATOM      3  C   UNL     1      99.528  66.124 228.824  1.00  0.00     0.000 C 
BRANCH   3   4
ATOM      4  C   UNL     1      99.626  64.594 228.930  1.00  0.00     0.000 C 
BRANCH   4   5
ATOM      5  C   UNL     1     100.745  64.010 228.056  1.00  0.00     0.000 C 
BRANCH   5   6
ATOM      6  C   UNL     1     100.425  62.568 227.645  1.00  0.00     0.000 C 
BRANCH   6   7
ATOM      7  C   UNL     1     101.244  62.153 226.413  1.00  0.00     0.006 C 
BRANCH   7   8
ATOM      8  C   UNL     1     102.209  63.256 225.959  1.00  0.00     0.053 C 
BRANCH   8   9
ATOM      9  C   UNL     1     103.627  62.775 225.923  1.00  0.00     0.041 C 
ATOM     10  O   UNL     1     103.907  61.597 226.268  1.00  0.00    -0.550 OA
ATOM     11  O   UNL     1     104.644  63.639 225.536  1.00  0.00    -0.550 OA
ENDBRANCH   8   9
ENDBRANCH   7   8
ENDBRANCH   6   7
ENDBRANCH   5   6
ENDBRANCH   4   5
ENDBRANCH   3   4
ENDBRANCH   2   3
ENDBRANCH   1   2
BRANCH   1  12
ATOM     12  C   UNL     1      96.342  66.224 228.104  1.00  0.00     0.000 C 
BRANCH  12  13
ATOM     13  C   UNL     1      95.949  64.989 227.274  1.00  0.00    -0.000 C 
BRANCH  13  14
ATOM     14  C   UNL     1      96.479  64.985 225.827  1.00  0.00    -0.000 C 
BRANCH  14  15
ATOM     15  C   UNL     1      97.820  64.238 225.659  1.00  0.00    -0.000 C 
BRANCH  15  16
ATOM     16  C   UNL     1      98.928  65.147 225.100  1.00  0.00    -0.000 C 
BRANCH  16  17
ATOM     17  C   UNL     1      98.592  66.640 225.237  1.00  0.00    -0.000 C 
BRANCH  17  18
ATOM     18  C   UNL     1      99.834  67.501 225.527  1.00  0.00    -0.000 C 
BRANCH  18  19
ATOM     19  C   UNL     1     101.144  66.716 225.360  1.00  0.00    -0.003 C 
ATOM     20  C   UNL     1     102.187  67.079 226.417  1.00  0.00     0.004 C 
ENDBRANCH  18  19
ENDBRANCH  17  18
ENDBRANCH  16  17
ENDBRANCH  15  16
ENDBRANCH  14  15
ENDBRANCH  13  14
ENDBRANCH  12  13
ENDBRANCH   1  12
TORSDOF 16
ENDMDL
MODEL 8
REMARK VINA RESULT:    -2.507      2.698      4.914
REMARK INTER + INTRA:          -7.912
REMARK INTER:                  -5.264
REMARK INTRA:                  -2.648
REMARK UNBOUND:                -3.060
REMARK SMILES CCCCCCCCCCCCCCCCCC(=O)[O-]
REMARK SMILES IDX 10 1 11 2 12 3 13 4 14 5 15 6 16 7 17 8 18 9 19 10 20 11
REMARK SMILES IDX 9 12 8 13 7 14 6 15 5 16 4 17 3 18 2 19 1 20
REMARK H PARENT
REMARK Flexibility Score: inf
ROOT
ATOM      1  C   UNL     1     100.858  65.787 225.118  1.00  0.00     0.000 C 
ENDROOT
BRANCH   1   2
ATOM      2  C   UNL     1      99.338  65.919 225.356  1.00  0.00     0.000 C 
BRANCH   2   3
ATOM      3  C   UNL     1      98.628  64.554 225.358  1.00  0.00     0.000 C 
BRANCH   3   4
ATOM      4  C   UNL     1      97.126  64.667 225.053  1.00  0.00     0.000 C 
BRANCH   4   5
ATOM      5  C   UNL     1      96.285  64.941 226.308  1.00  0.00     0.000 C 
BRANCH   5   6
ATOM      6  C   UNL     1      95.457  66.222 226.146  1.00  0.00     0.000 C 
BRANCH   6   7
ATOM      7  C   UNL     1      95.807  67.245 227.238  1.00  0.00     0.006 C 
BRANCH   7   8
ATOM      8  C   UNL     1      96.808  66.685 228.257  1.00  0.00     0.053 C 
BRANCH   8   9
ATOM      9  C   UNL     1      96.287  66.781 229.658  1.00  0.00     0.041 C 
ATOM     10  O   UNL     1      96.592  67.764 230.383  1.00  0.00    -0.550 OA
ATOM     11  O   UNL     1      95.488  65.767 230.173  1.00  0.00    -0.550 OA
ENDBRANCH   8   9
ENDBRANCH   7   8
ENDBRANCH   6   7
ENDBRANCH   5   6
ENDBRANCH   4   5
ENDBRANCH   3   4
ENDBRANCH   2   3
ENDBRANCH   1   2
BRANCH   1  12
ATOM     12  C   UNL     1     101.310  64.350 224.792  1.00  0.00     0.000 C 
BRANCH  12  13
ATOM     13  C   UNL     1     102.583  63.892 225.526  1.00  0.00    -0.000 C 
BRANCH  13  14
ATOM     14  C   UNL     1     102.350  62.860 226.646  1.00  0.00    -0.000 C 
BRANCH  14  15
ATOM     15  C   UNL     1     101.366  61.735 226.259  1.00  0.00    -0.000 C 
BRANCH  15  16
ATOM     16  C   UNL     1     100.960  60.874 227.468  1.00  0.00    -0.000 C 
BRANCH  16  17
ATOM     17  C   UNL     1     100.331  61.703 228.599  1.00  0.00    -0.000 C 
BRANCH  17  18
ATOM     18  C   UNL     1      98.906  62.175 228.262  1.00  0.00    -0.000 C 
BRANCH  18  19
ATOM     19  C   UNL     1      98.589  63.556 228.853  1.00  0.00    -0.003 C 
ATOM     20  C   UNL     1      99.802  64.487 228.861  1.00  0.00     0.004 C 
ENDBRANCH  18  19
ENDBRANCH  17  18
ENDBRANCH  16  17
ENDBRANCH  15  16
ENDBRANCH  14  15
ENDBRANCH  13  14
ENDBRANCH  12  13
ENDBRANCH   1  12
TORSDOF 16
ENDMDL
MODEL 9
REMARK VINA RESULT:    -2.504      2.615      4.519
REMARK INTER + INTRA:          -7.905
REMARK INTER:                  -4.911
REMARK INTRA:                  -2.995
REMARK UNBOUND:                -3.060
REMARK SMILES CCCCCCCCCCCCCCCCCC(=O)[O-]
REMARK SMILES IDX 10 1 11 2 12 3 13 4 14 5 15 6 16 7 17 8 18 9 19 10 20 11
REMARK SMILES IDX 9 12 8 13 7 14 6 15 5 16 4 17 3 18 2 19 1 20
REMARK H PARENT
REMARK Flexibility Score: inf
ROOT
ATOM      1  C   UNL     1      98.278  64.787 225.314  1.00  0.00     0.000 C 
ENDROOT
BRANCH   1   2
ATOM      2  C   UNL     1      96.756  64.985 225.479  1.00  0.00     0.000 C 
BRANCH   2   3
ATOM      3  C   UNL     1      96.272  64.628 226.895  1.00  0.00     0.000 C 
BRANCH   3   4
ATOM      4  C   UNL     1      97.357  63.939 227.737  1.00  0.00     0.000 C 
BRANCH   4   5
ATOM      5  C   UNL     1      97.618  64.656 229.070  1.00  0.00     0.000 C 
BRANCH   5   6
ATOM      6  C   UNL     1      98.592  65.826 228.883  1.00  0.00     0.000 C 
BRANCH   6   7
ATOM      7  C   UNL     1      97.986  67.136 229.408  1.00  0.00     0.006 C 
BRANCH   7   8
ATOM      8  C   UNL     1      97.534  68.061 228.271  1.00  0.00     0.053 C 
BRANCH   8   9
ATOM      9  C   UNL     1      96.053  67.992 228.052  1.00  0.00     0.041 C 
ATOM     10  O   UNL     1      95.276  67.805 229.025  1.00  0.00    -0.550 OA
ATOM     11  O   UNL     1      95.534  68.105 226.768  1.00  0.00    -0.550 OA
ENDBRANCH   8   9
ENDBRANCH   7   8
ENDBRANCH   6   7
ENDBRANCH   5   6
ENDBRANCH   4   5
ENDBRANCH   3   4
ENDBRANCH   2   3
ENDBRANCH   1   2
BRANCH   1  12
ATOM     12  C   UNL     1      99.073  66.107 225.289  1.00  0.00     0.000 C 
BRANCH  12  13
ATOM     13  C   UNL     1     100.598  65.944 225.417  1.00  0.00    -0.000 C 
BRANCH  13  14
ATOM     14  C   UNL     1     101.193  64.766 224.622  1.00  0.00    -0.000 C 
BRANCH  14  15
ATOM     15  C   UNL     1     102.218  63.932 225.421  1.00  0.00    -0.000 C 
BRANCH  15  16
ATOM     16  C   UNL     1     101.702  62.515 225.731  1.00  0.00    -0.000 C 
BRANCH  16  17
ATOM     17  C   UNL     1     100.742  62.487 226.931  1.00  0.00    -0.000 C 
BRANCH  17  18
ATOM     18  C   UNL     1     101.214  63.387 228.086  1.00  0.00    -0.000 C 
BRANCH  18  19
ATOM     19  C   UNL     1     100.873  62.801 229.464  1.00  0.00    -0.003 C 
ATOM     20  C   UNL     1      99.882  61.640 229.383  1.00  0.00     0.004 C 
ENDBRANCH  18  19
ENDBRANCH  17  18
ENDBRANCH  16  17
ENDBRANCH  15  16
ENDBRANCH  14  15
ENDBRANCH  13  14
ENDBRANCH  12  13
ENDBRANCH   1  12
TORSDOF 16
ENDMDL
