MODEL 1
REMARK VINA RESULT:    -3.373      0.000      0.000
REMARK INTER + INTRA:         -13.598
REMARK INTER:                  -8.499
REMARK INTRA:                  -5.098
REMARK UNBOUND:                -5.098
REMARK SMILES CCCCCCCCCCCCCCCCCCCCCCCCCCCC(=O)[O-]
REMARK SMILES IDX 15 1 16 2 17 3 18 4 19 5 20 6 21 7 22 8 23 9 24 10 25 11
REMARK SMILES IDX 26 12 27 13 28 14 29 15 30 16 14 17 13 18 12 19 11 20 10 21
REMARK SMILES IDX 9 22 8 23 7 24 6 25 5 26 4 27 3 28 2 29 1 30
REMARK H PARENT
REMARK Flexibility Score: inf
ROOT
ATOM      1  C   UNL     1       2.015   7.463   8.254  1.00  0.00     0.000 C 
ENDROOT
BRANCH   1   2
ATOM      2  C   UNL     1       1.717   8.872   8.802  1.00  0.00     0.000 C 
BRANCH   2   3
ATOM      3  C   UNL     1       0.252   9.049   9.238  1.00  0.00     0.000 C 
BRANCH   3   4
ATOM      4  C   UNL     1       0.056  10.234  10.195  1.00  0.00     0.000 C 
BRANCH   4   5
ATOM      5  C   UNL     1      -0.237   9.785  11.639  1.00  0.00     0.000 C 
BRANCH   5   6
ATOM      6  C   UNL     1       0.320   8.382  11.959  1.00  0.00     0.000 C 
BRANCH   6   7
ATOM      7  C   UNL     1       1.719   8.386  12.605  1.00  0.00     0.000 C 
BRANCH   7   8
ATOM      8  C   UNL     1       2.412   9.760  12.676  1.00  0.00     0.000 C 
BRANCH   8   9
ATOM      9  C   UNL     1       3.810   9.822  12.031  1.00  0.00     0.000 C 
BRANCH   9  10
ATOM     10  C   UNL     1       4.330   8.445  11.596  1.00  0.00     0.000 C 
BRANCH  10  11
ATOM     11  C   UNL     1       5.646   8.578  10.816  1.00  0.00     0.000 C 
BRANCH  11  12
ATOM     12  C   UNL     1       5.458   8.490   9.292  1.00  0.00     0.006 C 
BRANCH  12  13
ATOM     13  C   UNL     1       5.938   9.738   8.531  1.00  0.00     0.053 C 
BRANCH  13  14
ATOM     14  C   UNL     1       5.127  10.008   7.300  1.00  0.00     0.041 C 
ATOM     15  O   UNL     1       4.152  10.803   7.346  1.00  0.00    -0.550 OA
ATOM     16  O   UNL     1       5.468   9.410   6.091  1.00  0.00    -0.550 OA
ENDBRANCH  13  14
ENDBRANCH  12  13
ENDBRANCH  11  12
ENDBRANCH  10  11
ENDBRANCH   9  10
ENDBRANCH   8   9
ENDBRANCH   7   8
ENDBRANCH   6   7
ENDBRANCH   5   6
ENDBRANCH   4   5
ENDBRANCH   3   4
ENDBRANCH   2   3
ENDBRANCH   1   2
BRANCH   1  17
ATOM     17  C   UNL     1       2.499   6.446   9.304  1.00  0.00     0.000 C 
BRANCH  17  18
ATOM     18  C   UNL     1       1.372   5.544   9.831  1.00  0.00     0.000 C 
BRANCH  18  19
ATOM     19  C   UNL     1       1.711   5.006  11.226  1.00  0.00     0.000 C 
BRANCH  19  20
ATOM     20  C   UNL     1       1.092   3.618  11.449  1.00  0.00     0.000 C 
BRANCH  20  21
ATOM     21  C   UNL     1       1.541   2.590  10.396  1.00  0.00     0.000 C 
BRANCH  21  22
ATOM     22  C   UNL     1       2.435   1.458  10.933  1.00  0.00    -0.000 C 
BRANCH  22  23
ATOM     23  C   UNL     1       2.822   1.661  12.408  1.00  0.00    -0.000 C 
BRANCH  23  24
ATOM     24  C   UNL     1       4.266   1.222  12.718  1.00  0.00    -0.000 C 
BRANCH  24  25
ATOM     25  C   UNL     1       5.277   2.369  12.929  1.00  0.00    -0.000 C 
BRANCH  25  26
ATOM     26  C   UNL     1       4.680   3.786  12.881  1.00  0.00    -0.000 C 
BRANCH  26  27
ATOM     27  C   UNL     1       5.534   4.770  12.063  1.00  0.00    -0.000 C 
BRANCH  27  28
ATOM     28  C   UNL     1       5.289   4.628  10.545  1.00  0.00    -0.000 C 
BRANCH  28  29
ATOM     29  C   UNL     1       6.533   4.916   9.691  1.00  0.00    -0.003 C 
ATOM     30  C   UNL     1       7.819   4.356  10.298  1.00  0.00     0.004 C 
ENDBRANCH  28  29
ENDBRANCH  27  28
ENDBRANCH  26  27
ENDBRANCH  25  26
ENDBRANCH  24  25
ENDBRANCH  23  24
ENDBRANCH  22  23
ENDBRANCH  21  22
ENDBRANCH  20  21
ENDBRANCH  19  20
ENDBRANCH  18  19
ENDBRANCH  17  18
ENDBRANCH   1  17
TORSDOF 26
ENDMDL
MODEL 2
REMARK VINA RESULT:    -3.220      1.084      5.659
REMARK INTER + INTRA:         -13.213
REMARK INTER:                  -8.085
REMARK INTRA:                  -5.127
REMARK UNBOUND:                -5.098
REMARK SMILES CCCCCCCCCCCCCCCCCCCCCCCCCCCC(=O)[O-]
REMARK SMILES IDX 15 1 16 2 17 3 18 4 19 5 20 6 21 7 22 8 23 9 24 10 25 11
REMARK SMILES IDX 26 12 27 13 28 14 29 15 30 16 14 17 13 18 12 19 11 20 10 21
REMARK SMILES IDX 9 22 8 23 7 24 6 25 5 26 4 27 3 28 2 29 1 30
REMARK H PARENT
REMARK Flexibility Score: inf
ROOT
ATOM      1  C   UNL     1       4.024   1.624  12.706  1.00  0.00     0.000 C 
ENDROOT
BRANCH   1   2
ATOM      2  C   UNL     1       4.474   3.062  13.028  1.00  0.00     0.000 C 
BRANCH   2   3
ATOM      3  C   UNL     1       5.635   3.541  12.138  1.00  0.00     0.000 C 
BRANCH   3   4
ATOM      4  C   UNL     1       5.281   4.796  11.326  1.00  0.00     0.000 C 
BRANCH   4   5
ATOM      5  C   UNL     1       5.535   4.614   9.818  1.00  0.00     0.000 C 
BRANCH   5   6
ATOM      6  C   UNL     1       6.961   5.022   9.393  1.00  0.00     0.000 C 
BRANCH   6   7
ATOM      7  C   UNL     1       7.521   6.247  10.142  1.00  0.00     0.000 C 
BRANCH   7   8
ATOM      8  C   UNL     1       7.322   7.602   9.438  1.00  0.00     0.000 C 
BRANCH   8   9
ATOM      9  C   UNL     1       5.968   8.287   9.705  1.00  0.00     0.000 C 
BRANCH   9  10
ATOM     10  C   UNL     1       6.074   9.817   9.768  1.00  0.00     0.000 C 
BRANCH  10  11
ATOM     11  C   UNL     1       4.794  10.478   9.237  1.00  0.00     0.000 C 
BRANCH  11  12
ATOM     12  C   UNL     1       4.479  10.102   7.778  1.00  0.00     0.006 C 
BRANCH  12  13
ATOM     13  C   UNL     1       5.447  10.716   6.753  1.00  0.00     0.053 C 
BRANCH  13  14
ATOM     14  C   UNL     1       6.012   9.695   5.813  1.00  0.00     0.041 C 
ATOM     15  O   UNL     1       6.938   8.930   6.191  1.00  0.00    -0.550 OA
ATOM     16  O   UNL     1       5.494   9.562   4.529  1.00  0.00    -0.550 OA
ENDBRANCH  13  14
ENDBRANCH  12  13
ENDBRANCH  11  12
ENDBRANCH  10  11
ENDBRANCH   9  10
ENDBRANCH   8   9
ENDBRANCH   7   8
ENDBRANCH   6   7
ENDBRANCH   5   6
ENDBRANCH   4   5
ENDBRANCH   3   4
ENDBRANCH   2   3
ENDBRANCH   1   2
BRANCH   1  17
ATOM     17  C   UNL     1       2.562   1.488  12.245  1.00  0.00     0.000 C 
BRANCH  17  18
ATOM     18  C   UNL     1       2.379   1.749  10.741  1.00  0.00     0.000 C 
BRANCH  18  19
ATOM     19  C   UNL     1       1.303   2.814  10.499  1.00  0.00     0.000 C 
BRANCH  19  20
ATOM     20  C   UNL     1       1.255   3.825  11.655  1.00  0.00     0.000 C 
BRANCH  20  21
ATOM     21  C   UNL     1       1.737   5.226  11.240  1.00  0.00     0.000 C 
BRANCH  21  22
ATOM     22  C   UNL     1       1.613   5.537   9.738  1.00  0.00    -0.000 C 
BRANCH  22  23
ATOM     23  C   UNL     1       2.592   6.631   9.278  1.00  0.00    -0.000 C 
BRANCH  23  24
ATOM     24  C   UNL     1       1.983   7.584   8.232  1.00  0.00    -0.000 C 
BRANCH  24  25
ATOM     25  C   UNL     1       0.849   8.496   8.748  1.00  0.00    -0.000 C 
BRANCH  25  26
ATOM     26  C   UNL     1       1.212   9.370   9.961  1.00  0.00    -0.000 C 
BRANCH  26  27
ATOM     27  C   UNL     1       0.668   8.811  11.288  1.00  0.00    -0.000 C 
BRANCH  27  28
ATOM     28  C   UNL     1       1.642   9.050  12.461  1.00  0.00    -0.000 C 
BRANCH  28  29
ATOM     29  C   UNL     1       3.122   8.918  12.069  1.00  0.00    -0.003 C 
ATOM     30  C   UNL     1       3.855   7.829  12.850  1.00  0.00     0.004 C 
ENDBRANCH  28  29
ENDBRANCH  27  28
ENDBRANCH  26  27
ENDBRANCH  25  26
ENDBRANCH  24  25
ENDBRANCH  23  24
ENDBRANCH  22  23
ENDBRANCH  21  22
ENDBRANCH  20  21
ENDBRANCH  19  20
ENDBRANCH  18  19
ENDBRANCH  17  18
ENDBRANCH   1  17
TORSDOF 26
ENDMDL
MODEL 3
REMARK VINA RESULT:    -3.169      6.193      8.714
REMARK INTER + INTRA:         -13.083
REMARK INTER:                 -11.059
REMARK INTRA:                  -2.024
REMARK UNBOUND:                -5.098
REMARK SMILES CCCCCCCCCCCCCCCCCCCCCCCCCCCC(=O)[O-]
REMARK SMILES IDX 15 1 16 2 17 3 18 4 19 5 20 6 21 7 22 8 23 9 24 10 25 11
REMARK SMILES IDX 26 12 27 13 28 14 29 15 30 16 14 17 13 18 12 19 11 20 10 21
REMARK SMILES IDX 9 22 8 23 7 24 6 25 5 26 4 27 3 28 2 29 1 30
REMARK H PARENT
REMARK Flexibility Score: inf
ROOT
ATOM      1  C   UNL     1       5.600  10.550   6.442  1.00  0.00     0.000 C 
ENDROOT
BRANCH   1   2
ATOM      2  C   UNL     1       5.130   9.976   7.793  1.00  0.00     0.000 C 
BRANCH   2   3
ATOM      3  C   UNL     1       3.872  10.676   8.338  1.00  0.00     0.000 C 
BRANCH   3   4
ATOM      4  C   UNL     1       2.601   9.831   8.167  1.00  0.00     0.000 C 
BRANCH   4   5
ATOM      5  C   UNL     1       1.652   9.943   9.375  1.00  0.00     0.000 C 
BRANCH   5   6
ATOM      6  C   UNL     1       0.490   8.928   9.326  1.00  0.00     0.000 C 
BRANCH   6   7
ATOM      7  C   UNL     1       0.703   7.678  10.203  1.00  0.00     0.000 C 
BRANCH   7   8
ATOM      8  C   UNL     1       0.644   7.918  11.723  1.00  0.00     0.000 C 
BRANCH   8   9
ATOM      9  C   UNL     1       1.902   7.489  12.503  1.00  0.00     0.000 C 
BRANCH   9  10
ATOM     10  C   UNL     1       2.982   8.579  12.544  1.00  0.00     0.000 C 
BRANCH  10  11
ATOM     11  C   UNL     1       4.339   8.023  12.087  1.00  0.00     0.000 C 
BRANCH  11  12
ATOM     12  C   UNL     1       4.277   7.322  10.719  1.00  0.00     0.006 C 
BRANCH  12  13
ATOM     13  C   UNL     1       4.227   5.787  10.806  1.00  0.00     0.053 C 
BRANCH  13  14
ATOM     14  C   UNL     1       3.564   5.166   9.615  1.00  0.00     0.041 C 
ATOM     15  O   UNL     1       3.209   5.883   8.642  1.00  0.00    -0.550 OA
ATOM     16  O   UNL     1       3.367   3.790   9.561  1.00  0.00    -0.550 OA
ENDBRANCH  13  14
ENDBRANCH  12  13
ENDBRANCH  11  12
ENDBRANCH  10  11
ENDBRANCH   9  10
ENDBRANCH   8   9
ENDBRANCH   7   8
ENDBRANCH   6   7
ENDBRANCH   5   6
ENDBRANCH   4   5
ENDBRANCH   3   4
ENDBRANCH   2   3
ENDBRANCH   1   2
BRANCH   1  17
ATOM     17  C   UNL     1       6.537   9.633   5.636  1.00  0.00     0.000 C 
BRANCH  17  18
ATOM     18  C   UNL     1       6.139   9.518   4.156  1.00  0.00     0.000 C 
BRANCH  18  19
ATOM     19  C   UNL     1       7.340   9.796   3.244  1.00  0.00     0.000 C 
BRANCH  19  20
ATOM     20  C   UNL     1       7.901   8.493   2.657  1.00  0.00     0.000 C 
BRANCH  20  21
ATOM     21  C   UNL     1       8.321   8.636   1.183  1.00  0.00     0.000 C 
BRANCH  21  22
ATOM     22  C   UNL     1       8.301   7.328   0.373  1.00  0.00    -0.000 C 
BRANCH  22  23
ATOM     23  C   UNL     1       7.658   6.164   1.145  1.00  0.00    -0.000 C 
BRANCH  23  24
ATOM     24  C   UNL     1       8.556   4.913   1.208  1.00  0.00    -0.000 C 
BRANCH  24  25
ATOM     25  C   UNL     1       8.051   3.694   0.407  1.00  0.00    -0.000 C 
BRANCH  25  26
ATOM     26  C   UNL     1       6.551   3.387   0.555  1.00  0.00    -0.000 C 
BRANCH  26  27
ATOM     27  C   UNL     1       6.156   2.025  -0.041  1.00  0.00    -0.000 C 
BRANCH  27  28
ATOM     28  C   UNL     1       7.311   1.382  -0.837  1.00  0.00    -0.000 C 
BRANCH  28  29
ATOM     29  C   UNL     1       6.839   0.497  -2.001  1.00  0.00    -0.003 C 
ATOM     30  C   UNL     1       6.360   1.300  -3.209  1.00  0.00     0.004 C 
ENDBRANCH  28  29
ENDBRANCH  27  28
ENDBRANCH  26  27
ENDBRANCH  25  26
ENDBRANCH  24  25
ENDBRANCH  23  24
ENDBRANCH  22  23
ENDBRANCH  21  22
ENDBRANCH  20  21
ENDBRANCH  19  20
ENDBRANCH  18  19
ENDBRANCH  17  18
ENDBRANCH   1  17
TORSDOF 26
ENDMDL
MODEL 4
REMARK VINA RESULT:    -3.052      5.873      8.997
REMARK INTER + INTRA:         -12.788
REMARK INTER:                 -10.490
REMARK INTRA:                  -2.298
REMARK UNBOUND:                -5.098
REMARK SMILES CCCCCCCCCCCCCCCCCCCCCCCCCCCC(=O)[O-]
REMARK SMILES IDX 15 1 16 2 17 3 18 4 19 5 20 6 21 7 22 8 23 9 24 10 25 11
REMARK SMILES IDX 26 12 27 13 28 14 29 15 30 16 14 17 13 18 12 19 11 20 10 21
REMARK SMILES IDX 9 22 8 23 7 24 6 25 5 26 4 27 3 28 2 29 1 30
REMARK H PARENT
REMARK Flexibility Score: inf
ROOT
ATOM      1  C   UNL     1       7.507   9.050   7.347  1.00  0.00     0.000 C 
ENDROOT
BRANCH   1   2
ATOM      2  C   UNL     1       8.125   9.441   8.703  1.00  0.00     0.000 C 
BRANCH   2   3
ATOM      3  C   UNL     1       7.131  10.164   9.630  1.00  0.00     0.000 C 
BRANCH   3   4
ATOM      4  C   UNL     1       5.894   9.313   9.953  1.00  0.00     0.000 C 
BRANCH   4   5
ATOM      5  C   UNL     1       4.576  10.074   9.715  1.00  0.00     0.000 C 
BRANCH   5   6
ATOM      6  C   UNL     1       3.831   9.608   8.447  1.00  0.00     0.000 C 
BRANCH   6   7
ATOM      7  C   UNL     1       2.351  10.035   8.388  1.00  0.00     0.000 C 
BRANCH   7   8
ATOM      8  C   UNL     1       1.329   8.883   8.387  1.00  0.00     0.000 C 
BRANCH   8   9
ATOM      9  C   UNL     1       1.936   7.468   8.435  1.00  0.00     0.000 C 
BRANCH   9  10
ATOM     10  C   UNL     1       1.282   6.571   9.495  1.00  0.00     0.000 C 
BRANCH  10  11
ATOM     11  C   UNL     1       1.830   6.887  10.894  1.00  0.00     0.000 C 
BRANCH  11  12
ATOM     12  C   UNL     1       2.974   5.950  11.321  1.00  0.00     0.006 C 
BRANCH  12  13
ATOM     13  C   UNL     1       4.198   5.994  10.390  1.00  0.00     0.053 C 
BRANCH  13  14
ATOM     14  C   UNL     1       4.366   4.731   9.602  1.00  0.00     0.041 C 
ATOM     15  O   UNL     1       5.438   4.513   8.977  1.00  0.00    -0.550 OA
ATOM     16  O   UNL     1       3.355   3.777   9.583  1.00  0.00    -0.550 OA
ENDBRANCH  13  14
ENDBRANCH  12  13
ENDBRANCH  11  12
ENDBRANCH  10  11
ENDBRANCH   9  10
ENDBRANCH   8   9
ENDBRANCH   7   8
ENDBRANCH   6   7
ENDBRANCH   5   6
ENDBRANCH   4   5
ENDBRANCH   3   4
ENDBRANCH   2   3
ENDBRANCH   1   2
BRANCH   1  17
ATOM     17  C   UNL     1       6.965  10.227   6.515  1.00  0.00     0.000 C 
BRANCH  17  18
ATOM     18  C   UNL     1       6.071   9.777   5.349  1.00  0.00     0.000 C 
BRANCH  18  19
ATOM     19  C   UNL     1       6.738  10.078   4.002  1.00  0.00     0.000 C 
BRANCH  19  20
ATOM     20  C   UNL     1       7.643   8.917   3.561  1.00  0.00     0.000 C 
BRANCH  20  21
ATOM     21  C   UNL     1       8.308   9.166   2.196  1.00  0.00     0.000 C 
BRANCH  21  22
ATOM     22  C   UNL     1       8.773   7.897   1.460  1.00  0.00    -0.000 C 
BRANCH  22  23
ATOM     23  C   UNL     1       7.900   7.569   0.237  1.00  0.00    -0.000 C 
BRANCH  23  24
ATOM     24  C   UNL     1       7.153   6.228   0.373  1.00  0.00    -0.000 C 
BRANCH  24  25
ATOM     25  C   UNL     1       7.967   5.076   0.999  1.00  0.00    -0.000 C 
BRANCH  25  26
ATOM     26  C   UNL     1       7.854   3.724   0.274  1.00  0.00    -0.000 C 
BRANCH  26  27
ATOM     27  C   UNL     1       6.452   3.100   0.382  1.00  0.00    -0.000 C 
BRANCH  27  28
ATOM     28  C   UNL     1       6.380   1.713  -0.292  1.00  0.00    -0.000 C 
BRANCH  28  29
ATOM     29  C   UNL     1       7.188   1.620  -1.596  1.00  0.00    -0.003 C 
ATOM     30  C   UNL     1       7.859   0.261  -1.789  1.00  0.00     0.004 C 
ENDBRANCH  28  29
ENDBRANCH  27  28
ENDBRANCH  26  27
ENDBRANCH  25  26
ENDBRANCH  24  25
ENDBRANCH  23  24
ENDBRANCH  22  23
ENDBRANCH  21  22
ENDBRANCH  20  21
ENDBRANCH  19  20
ENDBRANCH  18  19
ENDBRANCH  17  18
ENDBRANCH   1  17
TORSDOF 26
ENDMDL
MODEL 5
REMARK VINA RESULT:    -3.049      6.840      9.389
REMARK INTER + INTRA:         -12.781
REMARK INTER:                 -11.124
REMARK INTRA:                  -1.658
REMARK UNBOUND:                -5.098
REMARK SMILES CCCCCCCCCCCCCCCCCCCCCCCCCCCC(=O)[O-]
REMARK SMILES IDX 15 1 16 2 17 3 18 4 19 5 20 6 21 7 22 8 23 9 24 10 25 11
REMARK SMILES IDX 26 12 27 13 28 14 29 15 30 16 14 17 13 18 12 19 11 20 10 21
REMARK SMILES IDX 9 22 8 23 7 24 6 25 5 26 4 27 3 28 2 29 1 30
REMARK H PARENT
REMARK Flexibility Score: inf
ROOT
ATOM      1  C   UNL     1       6.073   9.623   5.048  1.00  0.00     0.000 C 
ENDROOT
BRANCH   1   2
ATOM      2  C   UNL     1       5.787  10.609   6.196  1.00  0.00     0.000 C 
BRANCH   2   3
ATOM      3  C   UNL     1       6.021   9.994   7.588  1.00  0.00     0.000 C 
BRANCH   3   4
ATOM      4  C   UNL     1       4.921  10.363   8.593  1.00  0.00     0.000 C 
BRANCH   4   5
ATOM      5  C   UNL     1       3.601  10.756   7.906  1.00  0.00     0.000 C 
BRANCH   5   6
ATOM      6  C   UNL     1       2.364  10.095   8.551  1.00  0.00     0.000 C 
BRANCH   6   7
ATOM      7  C   UNL     1       2.694   9.106   9.687  1.00  0.00     0.000 C 
BRANCH   7   8
ATOM      8  C   UNL     1       1.816   9.226  10.946  1.00  0.00     0.000 C 
BRANCH   8   9
ATOM      9  C   UNL     1       1.170   7.911  11.422  1.00  0.00     0.000 C 
BRANCH   9  10
ATOM     10  C   UNL     1       2.021   7.169  12.462  1.00  0.00     0.000 C 
BRANCH  10  11
ATOM     11  C   UNL     1       2.151   5.682  12.104  1.00  0.00     0.000 C 
BRANCH  11  12
ATOM     12  C   UNL     1       1.471   5.319  10.772  1.00  0.00     0.006 C 
BRANCH  12  13
ATOM     13  C   UNL     1       1.204   3.814  10.598  1.00  0.00     0.053 C 
BRANCH  13  14
ATOM     14  C   UNL     1       2.449   3.043  10.279  1.00  0.00     0.041 C 
ATOM     15  O   UNL     1       2.616   1.887  10.750  1.00  0.00    -0.550 OA
ATOM     16  O   UNL     1       3.412   3.585   9.433  1.00  0.00    -0.550 OA
ENDBRANCH  13  14
ENDBRANCH  12  13
ENDBRANCH  11  12
ENDBRANCH  10  11
ENDBRANCH   9  10
ENDBRANCH   8   9
ENDBRANCH   7   8
ENDBRANCH   6   7
ENDBRANCH   5   6
ENDBRANCH   4   5
ENDBRANCH   3   4
ENDBRANCH   2   3
ENDBRANCH   1   2
BRANCH   1  17
ATOM     17  C   UNL     1       7.496   9.698   4.464  1.00  0.00     0.000 C 
BRANCH  17  18
ATOM     18  C   UNL     1       8.345   8.460   4.792  1.00  0.00     0.000 C 
BRANCH  18  19
ATOM     19  C   UNL     1       8.861   7.796   3.509  1.00  0.00     0.000 C 
BRANCH  19  20
ATOM     20  C   UNL     1       7.770   7.759   2.429  1.00  0.00     0.000 C 
BRANCH  20  21
ATOM     21  C   UNL     1       8.295   7.266   1.069  1.00  0.00     0.000 C 
BRANCH  21  22
ATOM     22  C   UNL     1       7.410   6.216   0.374  1.00  0.00    -0.000 C 
BRANCH  22  23
ATOM     23  C   UNL     1       7.404   4.866   1.112  1.00  0.00    -0.000 C 
BRANCH  23  24
ATOM     24  C   UNL     1       7.546   3.660   0.163  1.00  0.00    -0.000 C 
BRANCH  24  25
ATOM     25  C   UNL     1       6.243   2.880  -0.117  1.00  0.00    -0.000 C 
BRANCH  25  26
ATOM     26  C   UNL     1       6.338   1.356   0.073  1.00  0.00    -0.000 C 
BRANCH  26  27
ATOM     27  C   UNL     1       6.087   0.573  -1.226  1.00  0.00    -0.000 C 
BRANCH  27  28
ATOM     28  C   UNL     1       6.436   1.402  -2.481  1.00  0.00    -0.000 C 
BRANCH  28  29
ATOM     29  C   UNL     1       7.736   0.958  -3.170  1.00  0.00    -0.003 C 
ATOM     30  C   UNL     1       8.989   1.308  -2.368  1.00  0.00     0.004 C 
ENDBRANCH  28  29
ENDBRANCH  27  28
ENDBRANCH  26  27
ENDBRANCH  25  26
ENDBRANCH  24  25
ENDBRANCH  23  24
ENDBRANCH  22  23
ENDBRANCH  21  22
ENDBRANCH  20  21
ENDBRANCH  19  20
ENDBRANCH  18  19
ENDBRANCH  17  18
ENDBRANCH   1  17
TORSDOF 26
ENDMDL
MODEL 6
REMARK VINA RESULT:    -2.967      1.572      6.146
REMARK INTER + INTRA:         -12.574
REMARK INTER:                  -8.843
REMARK INTRA:                  -3.730
REMARK UNBOUND:                -5.098
REMARK SMILES CCCCCCCCCCCCCCCCCCCCCCCCCCCC(=O)[O-]
REMARK SMILES IDX 15 1 16 2 17 3 18 4 19 5 20 6 21 7 22 8 23 9 24 10 25 11
REMARK SMILES IDX 26 12 27 13 28 14 29 15 30 16 14 17 13 18 12 19 11 20 10 21
REMARK SMILES IDX 9 22 8 23 7 24 6 25 5 26 4 27 3 28 2 29 1 30
REMARK H PARENT
REMARK Flexibility Score: inf
ROOT
ATOM      1  C   UNL     1       3.683   1.096  13.075  1.00  0.00     0.000 C 
ENDROOT
BRANCH   1   2
ATOM      2  C   UNL     1       5.026   1.850  13.107  1.00  0.00     0.000 C 
BRANCH   2   3
ATOM      3  C   UNL     1       4.861   3.376  12.981  1.00  0.00     0.000 C 
BRANCH   3   4
ATOM      4  C   UNL     1       6.010   4.035  12.204  1.00  0.00     0.000 C 
BRANCH   4   5
ATOM      5  C   UNL     1       5.647   5.441  11.693  1.00  0.00     0.000 C 
BRANCH   5   6
ATOM      6  C   UNL     1       5.561   5.521  10.154  1.00  0.00     0.000 C 
BRANCH   6   7
ATOM      7  C   UNL     1       5.645   6.952   9.588  1.00  0.00     0.000 C 
BRANCH   7   8
ATOM      8  C   UNL     1       5.031   8.052  10.473  1.00  0.00     0.000 C 
BRANCH   8   9
ATOM      9  C   UNL     1       5.229   9.492   9.962  1.00  0.00     0.000 C 
BRANCH   9  10
ATOM     10  C   UNL     1       4.925   9.643   8.465  1.00  0.00     0.000 C 
BRANCH  10  11
ATOM     11  C   UNL     1       5.911  10.614   7.801  1.00  0.00     0.000 C 
BRANCH  11  12
ATOM     12  C   UNL     1       5.746  10.694   6.273  1.00  0.00     0.006 C 
BRANCH  12  13
ATOM     13  C   UNL     1       6.782   9.871   5.489  1.00  0.00     0.053 C 
BRANCH  13  14
ATOM     14  C   UNL     1       6.349   9.592   4.082  1.00  0.00     0.041 C 
ATOM     15  O   UNL     1       7.185   9.638   3.142  1.00  0.00    -0.550 OA
ATOM     16  O   UNL     1       5.030   9.245   3.811  1.00  0.00    -0.550 OA
ENDBRANCH  13  14
ENDBRANCH  12  13
ENDBRANCH  11  12
ENDBRANCH  10  11
ENDBRANCH   9  10
ENDBRANCH   8   9
ENDBRANCH   7   8
ENDBRANCH   6   7
ENDBRANCH   5   6
ENDBRANCH   4   5
ENDBRANCH   3   4
ENDBRANCH   2   3
ENDBRANCH   1   2
BRANCH   1  17
ATOM     17  C   UNL     1       3.166   0.747  11.667  1.00  0.00     0.000 C 
BRANCH  17  18
ATOM     18  C   UNL     1       1.755   1.290  11.393  1.00  0.00     0.000 C 
BRANCH  18  19
ATOM     19  C   UNL     1       1.743   2.172  10.140  1.00  0.00     0.000 C 
BRANCH  19  20
ATOM     20  C   UNL     1       2.419   3.525  10.409  1.00  0.00     0.000 C 
BRANCH  20  21
ATOM     21  C   UNL     1       1.635   4.394  11.407  1.00  0.00     0.000 C 
BRANCH  21  22
ATOM     22  C   UNL     1       2.041   5.878  11.433  1.00  0.00    -0.000 C 
BRANCH  22  23
ATOM     23  C   UNL     1       1.262   6.722  10.410  1.00  0.00    -0.000 C 
BRANCH  23  24
ATOM     24  C   UNL     1       1.912   6.726   9.013  1.00  0.00    -0.000 C 
BRANCH  24  25
ATOM     25  C   UNL     1       1.782   8.047   8.225  1.00  0.00    -0.000 C 
BRANCH  25  26
ATOM     26  C   UNL     1       0.834   9.089   8.844  1.00  0.00    -0.000 C 
BRANCH  26  27
ATOM     27  C   UNL     1       1.549  10.056   9.803  1.00  0.00    -0.000 C 
BRANCH  27  28
ATOM     28  C   UNL     1       0.557  10.977  10.545  1.00  0.00    -0.000 C 
BRANCH  28  29
ATOM     29  C   UNL     1      -0.845  10.367  10.707  1.00  0.00    -0.003 C 
ATOM     30  C   UNL     1      -1.007   9.571  12.001  1.00  0.00     0.004 C 
ENDBRANCH  28  29
ENDBRANCH  27  28
ENDBRANCH  26  27
ENDBRANCH  25  26
ENDBRANCH  24  25
ENDBRANCH  23  24
ENDBRANCH  22  23
ENDBRANCH  21  22
ENDBRANCH  20  21
ENDBRANCH  19  20
ENDBRANCH  18  19
ENDBRANCH  17  18
ENDBRANCH   1  17
TORSDOF 26
ENDMDL
MODEL 7
REMARK VINA RESULT:    -2.949      5.816      8.992
REMARK INTER + INTRA:         -12.530
REMARK INTER:                  -9.983
REMARK INTRA:                  -2.547
REMARK UNBOUND:                -5.098
REMARK SMILES CCCCCCCCCCCCCCCCCCCCCCCCCCCC(=O)[O-]
REMARK SMILES IDX 15 1 16 2 17 3 18 4 19 5 20 6 21 7 22 8 23 9 24 10 25 11
REMARK SMILES IDX 26 12 27 13 28 14 29 15 30 16 14 17 13 18 12 19 11 20 10 21
REMARK SMILES IDX 9 22 8 23 7 24 6 25 5 26 4 27 3 28 2 29 1 30
REMARK H PARENT
REMARK Flexibility Score: inf
ROOT
ATOM      1  C   UNL     1       6.160  10.522   8.398  1.00  0.00     0.000 C 
ENDROOT
BRANCH   1   2
ATOM      2  C   UNL     1       6.464   9.721   7.117  1.00  0.00     0.000 C 
BRANCH   2   3
ATOM      3  C   UNL     1       6.091  10.481   5.831  1.00  0.00     0.000 C 
BRANCH   3   4
ATOM      4  C   UNL     1       6.126   9.589   4.582  1.00  0.00     0.000 C 
BRANCH   4   5
ATOM      5  C   UNL     1       7.522   8.995   4.320  1.00  0.00     0.000 C 
BRANCH   5   6
ATOM      6  C   UNL     1       8.256   9.674   3.144  1.00  0.00     0.000 C 
BRANCH   6   7
ATOM      7  C   UNL     1       8.534   8.743   1.948  1.00  0.00     0.000 C 
BRANCH   7   8
ATOM      8  C   UNL     1       7.567   7.554   1.794  1.00  0.00     0.000 C 
BRANCH   8   9
ATOM      9  C   UNL     1       8.099   6.381   0.949  1.00  0.00     0.000 C 
BRANCH   9  10
ATOM     10  C   UNL     1       7.758   5.009   1.547  1.00  0.00     0.000 C 
BRANCH  10  11
ATOM     11  C   UNL     1       8.124   3.880   0.573  1.00  0.00     0.000 C 
BRANCH  11  12
ATOM     12  C   UNL     1       6.899   3.263  -0.125  1.00  0.00     0.006 C 
BRANCH  12  13
ATOM     13  C   UNL     1       7.244   2.445  -1.381  1.00  0.00     0.053 C 
BRANCH  13  14
ATOM     14  C   UNL     1       6.463   1.170  -1.468  1.00  0.00     0.041 C 
ATOM     15  O   UNL     1       6.131   0.558  -0.419  1.00  0.00    -0.550 OA
ATOM     16  O   UNL     1       6.070   0.672  -2.706  1.00  0.00    -0.550 OA
ENDBRANCH  13  14
ENDBRANCH  12  13
ENDBRANCH  11  12
ENDBRANCH  10  11
ENDBRANCH   9  10
ENDBRANCH   8   9
ENDBRANCH   7   8
ENDBRANCH   6   7
ENDBRANCH   5   6
ENDBRANCH   4   5
ENDBRANCH   3   4
ENDBRANCH   2   3
ENDBRANCH   1   2
BRANCH   1  17
ATOM     17  C   UNL     1       6.060   9.680   9.683  1.00  0.00     0.000 C 
BRANCH  17  18
ATOM     18  C   UNL     1       5.462   8.285   9.443  1.00  0.00     0.000 C 
BRANCH  18  19
ATOM     19  C   UNL     1       5.055   7.629  10.767  1.00  0.00     0.000 C 
BRANCH  19  20
ATOM     20  C   UNL     1       5.575   6.186  10.852  1.00  0.00     0.000 C 
BRANCH  20  21
ATOM     21  C   UNL     1       4.496   5.190  11.312  1.00  0.00     0.000 C 
BRANCH  21  22
ATOM     22  C   UNL     1       3.073   5.769  11.395  1.00  0.00    -0.000 C 
BRANCH  22  23
ATOM     23  C   UNL     1       2.140   5.204  10.309  1.00  0.00    -0.000 C 
BRANCH  23  24
ATOM     24  C   UNL     1       1.310   6.292   9.602  1.00  0.00    -0.000 C 
BRANCH  24  25
ATOM     25  C   UNL     1       2.082   7.161   8.587  1.00  0.00    -0.000 C 
BRANCH  25  26
ATOM     26  C   UNL     1       1.390   8.475   8.188  1.00  0.00    -0.000 C 
BRANCH  26  27
ATOM     27  C   UNL     1       2.032   9.713   8.838  1.00  0.00    -0.000 C 
BRANCH  27  28
ATOM     28  C   UNL     1       1.964   9.661  10.379  1.00  0.00    -0.000 C 
BRANCH  28  29
ATOM     29  C   UNL     1       0.580  10.012  10.946  1.00  0.00    -0.003 C 
ATOM     30  C   UNL     1      -0.077   8.848  11.687  1.00  0.00     0.004 C 
ENDBRANCH  28  29
ENDBRANCH  27  28
ENDBRANCH  26  27
ENDBRANCH  25  26
ENDBRANCH  24  25
ENDBRANCH  23  24
ENDBRANCH  22  23
ENDBRANCH  21  22
ENDBRANCH  20  21
ENDBRANCH  19  20
ENDBRANCH  18  19
ENDBRANCH  17  18
ENDBRANCH   1  17
TORSDOF 26
ENDMDL
MODEL 8
REMARK VINA RESULT:    -2.886      5.641      8.333
REMARK INTER + INTRA:         -12.371
REMARK INTER:                 -10.010
REMARK INTRA:                  -2.360
REMARK UNBOUND:                -5.098
REMARK SMILES CCCCCCCCCCCCCCCCCCCCCCCCCCCC(=O)[O-]
REMARK SMILES IDX 15 1 16 2 17 3 18 4 19 5 20 6 21 7 22 8 23 9 24 10 25 11
REMARK SMILES IDX 26 12 27 13 28 14 29 15 30 16 14 17 13 18 12 19 11 20 10 21
REMARK SMILES IDX 9 22 8 23 7 24 6 25 5 26 4 27 3 28 2 29 1 30
REMARK H PARENT
REMARK Flexibility Score: inf
ROOT
ATOM      1  C   UNL     1       5.064   9.948   8.483  1.00  0.00     0.000 C 
ENDROOT
BRANCH   1   2
ATOM      2  C   UNL     1       6.091   9.651   7.373  1.00  0.00     0.000 C 
BRANCH   2   3
ATOM      3  C   UNL     1       5.837  10.460   6.088  1.00  0.00     0.000 C 
BRANCH   3   4
ATOM      4  C   UNL     1       6.094   9.644   4.812  1.00  0.00     0.000 C 
BRANCH   4   5
ATOM      5  C   UNL     1       7.567   9.218   4.672  1.00  0.00     0.000 C 
BRANCH   5   6
ATOM      6  C   UNL     1       8.064   9.236   3.210  1.00  0.00     0.000 C 
BRANCH   6   7
ATOM      7  C   UNL     1       8.368   7.842   2.627  1.00  0.00     0.000 C 
BRANCH   7   8
ATOM      8  C   UNL     1       7.431   7.378   1.497  1.00  0.00     0.000 C 
BRANCH   8   9
ATOM      9  C   UNL     1       7.992   6.259   0.599  1.00  0.00     0.000 C 
BRANCH   9  10
ATOM     10  C   UNL     1       8.735   5.172   1.390  1.00  0.00     0.000 C 
BRANCH  10  11
ATOM     11  C   UNL     1       8.303   3.771   0.934  1.00  0.00     0.000 C 
BRANCH  11  12
ATOM     12  C   UNL     1       6.893   3.742   0.321  1.00  0.00     0.006 C 
BRANCH  12  13
ATOM     13  C   UNL     1       6.203   2.369   0.407  1.00  0.00     0.053 C 
BRANCH  13  14
ATOM     14  C   UNL     1       6.465   1.518  -0.798  1.00  0.00     0.041 C 
ATOM     15  O   UNL     1       6.841   0.324  -0.661  1.00  0.00    -0.550 OA
ATOM     16  O   UNL     1       6.261   2.030  -2.075  1.00  0.00    -0.550 OA
ENDBRANCH  13  14
ENDBRANCH  12  13
ENDBRANCH  11  12
ENDBRANCH  10  11
ENDBRANCH   9  10
ENDBRANCH   8   9
ENDBRANCH   7   8
ENDBRANCH   6   7
ENDBRANCH   5   6
ENDBRANCH   4   5
ENDBRANCH   3   4
ENDBRANCH   2   3
ENDBRANCH   1   2
BRANCH   1  17
ATOM     17  C   UNL     1       3.810  10.713   8.021  1.00  0.00     0.000 C 
BRANCH  17  18
ATOM     18  C   UNL     1       2.843  11.031   9.173  1.00  0.00     0.000 C 
BRANCH  18  19
ATOM     19  C   UNL     1       2.098   9.770   9.625  1.00  0.00     0.000 C 
BRANCH  19  20
ATOM     20  C   UNL     1       1.330   9.133   8.457  1.00  0.00     0.000 C 
BRANCH  20  21
ATOM     21  C   UNL     1       1.737   7.670   8.204  1.00  0.00     0.000 C 
BRANCH  21  22
ATOM     22  C   UNL     1       2.764   7.101   9.198  1.00  0.00    -0.000 C 
BRANCH  22  23
ATOM     23  C   UNL     1       2.362   5.719   9.738  1.00  0.00    -0.000 C 
BRANCH  23  24
ATOM     24  C   UNL     1       3.514   4.697   9.700  1.00  0.00    -0.000 C 
BRANCH  24  25
ATOM     25  C   UNL     1       4.793   5.112  10.458  1.00  0.00    -0.000 C 
BRANCH  25  26
ATOM     26  C   UNL     1       6.116   4.759   9.756  1.00  0.00    -0.000 C 
BRANCH  26  27
ATOM     27  C   UNL     1       7.288   5.652  10.199  1.00  0.00    -0.000 C 
BRANCH  27  28
ATOM     28  C   UNL     1       7.211   7.062   9.575  1.00  0.00    -0.000 C 
BRANCH  28  29
ATOM     29  C   UNL     1       8.483   7.468   8.814  1.00  0.00    -0.003 C 
ATOM     30  C   UNL     1       8.721   6.636   7.556  1.00  0.00     0.004 C 
ENDBRANCH  28  29
ENDBRANCH  27  28
ENDBRANCH  26  27
ENDBRANCH  25  26
ENDBRANCH  24  25
ENDBRANCH  23  24
ENDBRANCH  22  23
ENDBRANCH  21  22
ENDBRANCH  20  21
ENDBRANCH  19  20
ENDBRANCH  18  19
ENDBRANCH  17  18
ENDBRANCH   1  17
TORSDOF 26
ENDMDL
MODEL 9
REMARK VINA RESULT:    -2.881      2.900      6.875
REMARK INTER + INTRA:         -12.359
REMARK INTER:                  -8.057
REMARK INTRA:                  -4.301
REMARK UNBOUND:                -5.098
REMARK SMILES CCCCCCCCCCCCCCCCCCCCCCCCCCCC(=O)[O-]
REMARK SMILES IDX 15 1 16 2 17 3 18 4 19 5 20 6 21 7 22 8 23 9 24 10 25 11
REMARK SMILES IDX 26 12 27 13 28 14 29 15 30 16 14 17 13 18 12 19 11 20 10 21
REMARK SMILES IDX 9 22 8 23 7 24 6 25 5 26 4 27 3 28 2 29 1 30
REMARK H PARENT
REMARK Flexibility Score: inf
ROOT
ATOM      1  C   UNL     1       2.266   6.658   9.041  1.00  0.00     0.000 C 
ENDROOT
BRANCH   1   2
ATOM      2  C   UNL     1       1.246   5.955   9.957  1.00  0.00     0.000 C 
BRANCH   2   3
ATOM      3  C   UNL     1       1.714   5.868  11.421  1.00  0.00     0.000 C 
BRANCH   3   4
ATOM      4  C   UNL     1       1.872   7.248  12.077  1.00  0.00     0.000 C 
BRANCH   4   5
ATOM      5  C   UNL     1       3.345   7.678  12.202  1.00  0.00     0.000 C 
BRANCH   5   6
ATOM      6  C   UNL     1       4.302   6.491  12.443  1.00  0.00     0.000 C 
BRANCH   6   7
ATOM      7  C   UNL     1       5.245   6.187  11.262  1.00  0.00     0.000 C 
BRANCH   7   8
ATOM      8  C   UNL     1       5.748   4.734  11.174  1.00  0.00     0.000 C 
BRANCH   8   9
ATOM      9  C   UNL     1       6.289   4.147  12.491  1.00  0.00     0.000 C 
BRANCH   9  10
ATOM     10  C   UNL     1       5.542   2.880  12.933  1.00  0.00     0.000 C 
BRANCH  10  11
ATOM     11  C   UNL     1       4.119   2.855  12.358  1.00  0.00     0.000 C 
BRANCH  11  12
ATOM     12  C   UNL     1       3.392   1.521  12.599  1.00  0.00     0.006 C 
BRANCH  12  13
ATOM     13  C   UNL     1       2.653   0.980  11.363  1.00  0.00     0.053 C 
BRANCH  13  14
ATOM     14  C   UNL     1       1.744   1.999  10.746  1.00  0.00     0.041 C 
ATOM     15  O   UNL     1       2.032   2.512   9.632  1.00  0.00    -0.550 OA
ATOM     16  O   UNL     1       0.561   2.359  11.382  1.00  0.00    -0.550 OA
ENDBRANCH  13  14
ENDBRANCH  12  13
ENDBRANCH  11  12
ENDBRANCH  10  11
ENDBRANCH   9  10
ENDBRANCH   8   9
ENDBRANCH   7   8
ENDBRANCH   6   7
ENDBRANCH   5   6
ENDBRANCH   4   5
ENDBRANCH   3   4
ENDBRANCH   2   3
ENDBRANCH   1   2
BRANCH   1  17
ATOM     17  C   UNL     1       1.687   7.789   8.171  1.00  0.00     0.000 C 
BRANCH  17  18
ATOM     18  C   UNL     1       1.009   8.895   8.996  1.00  0.00     0.000 C 
BRANCH  18  19
ATOM     19  C   UNL     1       2.021   9.973   9.401  1.00  0.00     0.000 C 
BRANCH  19  20
ATOM     20  C   UNL     1       2.814  10.473   8.184  1.00  0.00     0.000 C 
BRANCH  20  21
ATOM     21  C   UNL     1       4.327  10.555   8.452  1.00  0.00     0.000 C 
BRANCH  21  22
ATOM     22  C   UNL     1       4.927   9.332   9.167  1.00  0.00    -0.000 C 
BRANCH  22  23
ATOM     23  C   UNL     1       5.849   9.723  10.334  1.00  0.00    -0.000 C 
BRANCH  23  24
ATOM     24  C   UNL     1       7.242   9.070  10.247  1.00  0.00    -0.000 C 
BRANCH  24  25
ATOM     25  C   UNL     1       8.023   9.346   8.944  1.00  0.00    -0.000 C 
BRANCH  25  26
ATOM     26  C   UNL     1       8.309   8.107   8.077  1.00  0.00    -0.000 C 
BRANCH  26  27
ATOM     27  C   UNL     1       8.121   8.371   6.573  1.00  0.00    -0.000 C 
BRANCH  27  28
ATOM     28  C   UNL     1       7.373   9.695   6.305  1.00  0.00    -0.000 C 
BRANCH  28  29
ATOM     29  C   UNL     1       6.161   9.539   5.373  1.00  0.00    -0.003 C 
ATOM     30  C   UNL     1       6.526   9.635   3.893  1.00  0.00     0.004 C 
ENDBRANCH  28  29
ENDBRANCH  27  28
ENDBRANCH  26  27
ENDBRANCH  25  26
ENDBRANCH  24  25
ENDBRANCH  23  24
ENDBRANCH  22  23
ENDBRANCH  21  22
ENDBRANCH  20  21
ENDBRANCH  19  20
ENDBRANCH  18  19
ENDBRANCH  17  18
ENDBRANCH   1  17
TORSDOF 26
ENDMDL
