MODEL 1
REMARK VINA RESULT:    -2.782      0.000      0.000
REMARK INTER + INTRA:          -4.790
REMARK INTER:                  -5.384
REMARK INTRA:                   0.594
REMARK UNBOUND:                 0.594
REMARK SMILES CCCCCCCCCCCCCCCCCC(=O)[O-]
REMARK SMILES IDX 10 1 11 2 12 3 13 4 14 5 15 6 16 7 17 8 18 9 19 10 20 11
REMARK SMILES IDX 9 12 8 13 7 14 6 15 5 16 4 17 3 18 2 19 1 20
REMARK H PARENT
REMARK Flexibility Score: inf
ROOT
ATOM      1  C   UNL     1       3.284 -36.725  19.241  1.00  0.00     0.000 C 
ENDROOT
BRANCH   1   2
ATOM      2  C   UNL     1       2.463 -37.874  19.864  1.00  0.00     0.000 C 
BRANCH   2   3
ATOM      3  C   UNL     1       0.952 -37.707  19.621  1.00  0.00     0.000 C 
BRANCH   3   4
ATOM      4  C   UNL     1       0.612 -37.460  18.142  1.00  0.00     0.000 C 
BRANCH   4   5
ATOM      5  C   UNL     1       1.859 -37.458  17.242  1.00  0.00     0.000 C 
BRANCH   5   6
ATOM      6  C   UNL     1       1.674 -36.607  15.975  1.00  0.00     0.000 C 
BRANCH   6   7
ATOM      7  C   UNL     1       2.956 -36.498  15.137  1.00  0.00     0.006 C 
BRANCH   7   8
ATOM      8  C   UNL     1       3.011 -37.599  14.075  1.00  0.00     0.053 C 
BRANCH   8   9
ATOM      9  C   UNL     1       4.356 -38.256  14.066  1.00  0.00     0.041 C 
ATOM     10  O   UNL     1       4.452 -39.505  14.194  1.00  0.00    -0.550 OA
ATOM     11  O   UNL     1       5.501 -37.493  13.876  1.00  0.00    -0.550 OA
ENDBRANCH   8   9
ENDBRANCH   7   8
ENDBRANCH   6   7
ENDBRANCH   5   6
ENDBRANCH   4   5
ENDBRANCH   3   4
ENDBRANCH   2   3
ENDBRANCH   1   2
BRANCH   1  12
ATOM     12  C   UNL     1       4.809 -36.907  19.370  1.00  0.00     0.000 C 
BRANCH  12  13
ATOM     13  C   UNL     1       5.257 -37.899  20.458  1.00  0.00    -0.000 C 
BRANCH  13  14
ATOM     14  C   UNL     1       5.708 -37.200  21.753  1.00  0.00    -0.000 C 
BRANCH  14  15
ATOM     15  C   UNL     1       5.878 -35.680  21.581  1.00  0.00    -0.000 C 
BRANCH  15  16
ATOM     16  C   UNL     1       5.383 -34.831  22.768  1.00  0.00    -0.000 C 
BRANCH  16  17
ATOM     17  C   UNL     1       6.123 -35.077  24.097  1.00  0.00    -0.000 C 
BRANCH  17  18
ATOM     18  C   UNL     1       6.060 -36.542  24.580  1.00  0.00    -0.000 C 
BRANCH  18  19
ATOM     19  C   UNL     1       4.928 -36.778  25.590  1.00  0.00    -0.003 C 
ATOM     20  C   UNL     1       4.899 -38.231  26.054  1.00  0.00     0.004 C 
ENDBRANCH  18  19
ENDBRANCH  17  18
ENDBRANCH  16  17
ENDBRANCH  15  16
ENDBRANCH  14  15
ENDBRANCH  13  14
ENDBRANCH  12  13
ENDBRANCH   1  12
TORSDOF 16
ENDMDL
MODEL 2
REMARK VINA RESULT:    -2.753      3.099      8.201
REMARK INTER + INTRA:          -4.735
REMARK INTER:                  -3.531
REMARK INTRA:                  -1.204
REMARK UNBOUND:                 0.594
REMARK SMILES CCCCCCCCCCCCCCCCCC(=O)[O-]
REMARK SMILES IDX 10 1 11 2 12 3 13 4 14 5 15 6 16 7 17 8 18 9 19 10 20 11
REMARK SMILES IDX 9 12 8 13 7 14 6 15 5 16 4 17 3 18 2 19 1 20
REMARK H PARENT
REMARK Flexibility Score: inf
ROOT
ATOM      1  C   UNL     1       3.823 -35.620  21.051  1.00  0.00     0.000 C 
ENDROOT
BRANCH   1   2
ATOM      2  C   UNL     1       4.310 -35.187  22.451  1.00  0.00     0.000 C 
BRANCH   2   3
ATOM      3  C   UNL     1       5.817 -35.436  22.645  1.00  0.00     0.000 C 
BRANCH   3   4
ATOM      4  C   UNL     1       6.111 -36.720  23.438  1.00  0.00     0.000 C 
BRANCH   4   5
ATOM      5  C   UNL     1       5.752 -36.587  24.929  1.00  0.00     0.000 C 
BRANCH   5   6
ATOM      6  C   UNL     1       5.094 -37.857  25.494  1.00  0.00     0.000 C 
BRANCH   6   7
ATOM      7  C   UNL     1       4.661 -38.842  24.398  1.00  0.00     0.006 C 
BRANCH   7   8
ATOM      8  C   UNL     1       5.396 -40.178  24.542  1.00  0.00     0.053 C 
BRANCH   8   9
ATOM      9  C   UNL     1       5.524 -40.855  23.214  1.00  0.00     0.041 C 
ATOM     10  O   UNL     1       5.752 -42.091  23.153  1.00  0.00    -0.550 OA
ATOM     11  O   UNL     1       5.350 -40.128  22.043  1.00  0.00    -0.550 OA
ENDBRANCH   8   9
ENDBRANCH   7   8
ENDBRANCH   6   7
ENDBRANCH   5   6
ENDBRANCH   4   5
ENDBRANCH   3   4
ENDBRANCH   2   3
ENDBRANCH   1   2
BRANCH   1  12
ATOM     12  C   UNL     1       4.964 -35.981  20.079  1.00  0.00     0.000 C 
BRANCH  12  13
ATOM     13  C   UNL     1       4.691 -37.195  19.176  1.00  0.00    -0.000 C 
BRANCH  13  14
ATOM     14  C   UNL     1       3.274 -37.768  19.358  1.00  0.00    -0.000 C 
BRANCH  14  15
ATOM     15  C   UNL     1       2.302 -37.315  18.253  1.00  0.00    -0.000 C 
BRANCH  15  16
ATOM     16  C   UNL     1       2.921 -37.199  16.848  1.00  0.00    -0.000 C 
BRANCH  16  17
ATOM     17  C   UNL     1       2.002 -36.575  15.781  1.00  0.00    -0.000 C 
BRANCH  17  18
ATOM     18  C   UNL     1       2.495 -36.792  14.334  1.00  0.00    -0.000 C 
BRANCH  18  19
ATOM     19  C   UNL     1       3.443 -37.994  14.212  1.00  0.00    -0.003 C 
ATOM     20  C   UNL     1       4.861 -37.544  13.875  1.00  0.00     0.004 C 
ENDBRANCH  18  19
ENDBRANCH  17  18
ENDBRANCH  16  17
ENDBRANCH  15  16
ENDBRANCH  14  15
ENDBRANCH  13  14
ENDBRANCH  12  13
ENDBRANCH   1  12
TORSDOF 16
ENDMDL
MODEL 3
REMARK VINA RESULT:    -2.364      2.584      4.594
REMARK INTER + INTRA:          -3.981
REMARK INTER:                  -3.808
REMARK INTRA:                  -0.173
REMARK UNBOUND:                 0.594
REMARK SMILES CCCCCCCCCCCCCCCCCC(=O)[O-]
REMARK SMILES IDX 10 1 11 2 12 3 13 4 14 5 15 6 16 7 17 8 18 9 19 10 20 11
REMARK SMILES IDX 9 12 8 13 7 14 6 15 5 16 4 17 3 18 2 19 1 20
REMARK H PARENT
REMARK Flexibility Score: inf
ROOT
ATOM      1  C   UNL     1       5.746 -36.270  22.956  1.00  0.00     0.000 C 
ENDROOT
BRANCH   1   2
ATOM      2  C   UNL     1       5.827 -35.206  21.840  1.00  0.00     0.000 C 
BRANCH   2   3
ATOM      3  C   UNL     1       5.816 -35.836  20.435  1.00  0.00     0.000 C 
BRANCH   3   4
ATOM      4  C   UNL     1       4.410 -35.884  19.816  1.00  0.00     0.000 C 
BRANCH   4   5
ATOM      5  C   UNL     1       3.560 -37.040  20.371  1.00  0.00     0.000 C 
BRANCH   5   6
ATOM      6  C   UNL     1       2.280 -37.279  19.554  1.00  0.00     0.000 C 
BRANCH   6   7
ATOM      7  C   UNL     1       2.561 -37.880  18.169  1.00  0.00     0.006 C 
BRANCH   7   8
ATOM      8  C   UNL     1       3.303 -36.880  17.278  1.00  0.00     0.053 C 
BRANCH   8   9
ATOM      9  C   UNL     1       2.826 -36.980  15.863  1.00  0.00     0.041 C 
ATOM     10  O   UNL     1       3.497 -37.621  15.013  1.00  0.00    -0.550 OA
ATOM     11  O   UNL     1       1.620 -36.398  15.493  1.00  0.00    -0.550 OA
ENDBRANCH   8   9
ENDBRANCH   7   8
ENDBRANCH   6   7
ENDBRANCH   5   6
ENDBRANCH   4   5
ENDBRANCH   3   4
ENDBRANCH   2   3
ENDBRANCH   1   2
BRANCH   1  12
ATOM     12  C   UNL     1       5.954 -35.703  24.374  1.00  0.00     0.000 C 
BRANCH  12  13
ATOM     13  C   UNL     1       5.927 -36.745  25.504  1.00  0.00    -0.000 C 
BRANCH  13  14
ATOM     14  C   UNL     1       4.638 -37.586  25.510  1.00  0.00    -0.000 C 
BRANCH  14  15
ATOM     15  C   UNL     1       4.908 -39.093  25.348  1.00  0.00    -0.000 C 
BRANCH  15  16
ATOM     16  C   UNL     1       5.643 -39.487  24.053  1.00  0.00    -0.000 C 
BRANCH  16  17
ATOM     17  C   UNL     1       4.943 -40.573  23.213  1.00  0.00    -0.000 C 
BRANCH  17  18
ATOM     18  C   UNL     1       5.922 -41.498  22.457  1.00  0.00    -0.000 C 
BRANCH  18  19
ATOM     19  C   UNL     1       5.979 -42.909  23.058  1.00  0.00    -0.003 C 
ATOM     20  C   UNL     1       6.120 -42.856  24.576  1.00  0.00     0.004 C 
ENDBRANCH  18  19
ENDBRANCH  17  18
ENDBRANCH  16  17
ENDBRANCH  15  16
ENDBRANCH  14  15
ENDBRANCH  13  14
ENDBRANCH  12  13
ENDBRANCH   1  12
TORSDOF 16
ENDMDL
MODEL 4
REMARK VINA RESULT:    -1.936      2.595      6.729
REMARK INTER + INTRA:          -3.153
REMARK INTER:                  -1.594
REMARK INTRA:                  -1.559
REMARK UNBOUND:                 0.594
REMARK SMILES CCCCCCCCCCCCCCCCCC(=O)[O-]
REMARK SMILES IDX 10 1 11 2 12 3 13 4 14 5 15 6 16 7 17 8 18 9 19 10 20 11
REMARK SMILES IDX 9 12 8 13 7 14 6 15 5 16 4 17 3 18 2 19 1 20
REMARK H PARENT
REMARK Flexibility Score: inf
ROOT
ATOM      1  C   UNL     1       4.071 -35.282  21.903  1.00  0.00     0.000 C 
ENDROOT
BRANCH   1   2
ATOM      2  C   UNL     1       5.232 -35.372  22.917  1.00  0.00     0.000 C 
BRANCH   2   3
ATOM      3  C   UNL     1       6.002 -36.700  22.802  1.00  0.00     0.000 C 
BRANCH   3   4
ATOM      4  C   UNL     1       5.132 -37.847  22.261  1.00  0.00     0.000 C 
BRANCH   4   5
ATOM      5  C   UNL     1       5.739 -38.508  21.012  1.00  0.00     0.000 C 
BRANCH   5   6
ATOM      6  C   UNL     1       4.839 -38.370  19.773  1.00  0.00     0.000 C 
BRANCH   6   7
ATOM      7  C   UNL     1       3.398 -37.972  20.126  1.00  0.00     0.006 C 
BRANCH   7   8
ATOM      8  C   UNL     1       2.505 -37.992  18.881  1.00  0.00     0.053 C 
BRANCH   8   9
ATOM      9  C   UNL     1       1.078 -37.738  19.252  1.00  0.00     0.041 C 
ATOM     10  O   UNL     1       0.154 -38.024  18.447  1.00  0.00    -0.550 OA
ATOM     11  O   UNL     1       0.766 -37.225  20.505  1.00  0.00    -0.550 OA
ENDBRANCH   8   9
ENDBRANCH   7   8
ENDBRANCH   6   7
ENDBRANCH   5   6
ENDBRANCH   4   5
ENDBRANCH   3   4
ENDBRANCH   2   3
ENDBRANCH   1   2
BRANCH   1  12
ATOM     12  C   UNL     1       4.435 -34.538  20.603  1.00  0.00     0.000 C 
BRANCH  12  13
ATOM     13  C   UNL     1       5.724 -35.018  19.916  1.00  0.00    -0.000 C 
BRANCH  13  14
ATOM     14  C   UNL     1       5.626 -34.995  18.381  1.00  0.00    -0.000 C 
BRANCH  14  15
ATOM     15  C   UNL     1       4.171 -34.986  17.877  1.00  0.00    -0.000 C 
BRANCH  15  16
ATOM     16  C   UNL     1       3.843 -36.053  16.815  1.00  0.00    -0.000 C 
BRANCH  16  17
ATOM     17  C   UNL     1       2.444 -35.932  16.181  1.00  0.00    -0.000 C 
BRANCH  17  18
ATOM     18  C   UNL     1       2.220 -36.883  14.986  1.00  0.00    -0.000 C 
BRANCH  18  19
ATOM     19  C   UNL     1       3.477 -37.043  14.120  1.00  0.00    -0.003 C 
ATOM     20  C   UNL     1       4.059 -38.447  14.247  1.00  0.00     0.004 C 
ENDBRANCH  18  19
ENDBRANCH  17  18
ENDBRANCH  16  17
ENDBRANCH  15  16
ENDBRANCH  14  15
ENDBRANCH  13  14
ENDBRANCH  12  13
ENDBRANCH   1  12
TORSDOF 16
ENDMDL
MODEL 5
REMARK VINA RESULT:    -1.842      1.953      3.371
REMARK INTER + INTRA:          -2.971
REMARK INTER:                  -1.225
REMARK INTRA:                  -1.746
REMARK UNBOUND:                 0.594
REMARK SMILES CCCCCCCCCCCCCCCCCC(=O)[O-]
REMARK SMILES IDX 10 1 11 2 12 3 13 4 14 5 15 6 16 7 17 8 18 9 19 10 20 11
REMARK SMILES IDX 9 12 8 13 7 14 6 15 5 16 4 17 3 18 2 19 1 20
REMARK H PARENT
REMARK Flexibility Score: inf
ROOT
ATOM      1  C   UNL     1       4.236 -37.062  20.679  1.00  0.00     0.000 C 
ENDROOT
BRANCH   1   2
ATOM      2  C   UNL     1       4.599 -35.563  20.755  1.00  0.00     0.000 C 
BRANCH   2   3
ATOM      3  C   UNL     1       5.984 -35.269  20.152  1.00  0.00     0.000 C 
BRANCH   3   4
ATOM      4  C   UNL     1       5.903 -34.664  18.742  1.00  0.00     0.000 C 
BRANCH   4   5
ATOM      5  C   UNL     1       4.471 -34.667  18.180  1.00  0.00     0.000 C 
BRANCH   5   6
ATOM      6  C   UNL     1       4.261 -35.741  17.099  1.00  0.00     0.000 C 
BRANCH   6   7
ATOM      7  C   UNL     1       2.971 -36.548  17.305  1.00  0.00     0.006 C 
BRANCH   7   8
ATOM      8  C   UNL     1       2.995 -37.836  16.477  1.00  0.00     0.053 C 
BRANCH   8   9
ATOM      9  C   UNL     1       3.180 -37.526  15.024  1.00  0.00     0.041 C 
ATOM     10  O   UNL     1       4.082 -38.104  14.363  1.00  0.00    -0.550 OA
ATOM     11  O   UNL     1       2.330 -36.628  14.391  1.00  0.00    -0.550 OA
ENDBRANCH   8   9
ENDBRANCH   7   8
ENDBRANCH   6   7
ENDBRANCH   5   6
ENDBRANCH   4   5
ENDBRANCH   3   4
ENDBRANCH   2   3
ENDBRANCH   1   2
BRANCH   1  12
ATOM     12  C   UNL     1       5.454 -37.989  20.499  1.00  0.00     0.000 C 
BRANCH  12  13
ATOM     13  C   UNL     1       5.180 -39.482  20.748  1.00  0.00    -0.000 C 
BRANCH  13  14
ATOM     14  C   UNL     1       5.964 -40.040  21.949  1.00  0.00    -0.000 C 
BRANCH  14  15
ATOM     15  C   UNL     1       5.047 -40.512  23.093  1.00  0.00    -0.000 C 
BRANCH  15  16
ATOM     16  C   UNL     1       5.003 -39.581  24.319  1.00  0.00    -0.000 C 
BRANCH  16  17
ATOM     17  C   UNL     1       5.720 -38.229  24.135  1.00  0.00    -0.000 C 
BRANCH  17  18
ATOM     18  C   UNL     1       5.165 -37.106  25.038  1.00  0.00    -0.000 C 
BRANCH  18  19
ATOM     19  C   UNL     1       6.118 -35.905  25.133  1.00  0.00    -0.003 C 
ATOM     20  C   UNL     1       5.948 -34.973  23.937  1.00  0.00     0.004 C 
ENDBRANCH  18  19
ENDBRANCH  17  18
ENDBRANCH  16  17
ENDBRANCH  15  16
ENDBRANCH  14  15
ENDBRANCH  13  14
ENDBRANCH  12  13
ENDBRANCH   1  12
TORSDOF 16
ENDMDL
MODEL 6
REMARK VINA RESULT:    -1.642      2.853      4.438
REMARK INTER + INTRA:          -2.585
REMARK INTER:                  -1.701
REMARK INTRA:                  -0.884
REMARK UNBOUND:                 0.594
REMARK SMILES CCCCCCCCCCCCCCCCCC(=O)[O-]
REMARK SMILES IDX 10 1 11 2 12 3 13 4 14 5 15 6 16 7 17 8 18 9 19 10 20 11
REMARK SMILES IDX 9 12 8 13 7 14 6 15 5 16 4 17 3 18 2 19 1 20
REMARK H PARENT
REMARK Flexibility Score: inf
ROOT
ATOM      1  C   UNL     1       4.487 -35.512  22.172  1.00  0.00     0.000 C 
ENDROOT
BRANCH   1   2
ATOM      2  C   UNL     1       4.296 -35.507  20.640  1.00  0.00     0.000 C 
BRANCH   2   3
ATOM      3  C   UNL     1       5.598 -35.164  19.894  1.00  0.00     0.000 C 
BRANCH   3   4
ATOM      4  C   UNL     1       5.403 -35.062  18.372  1.00  0.00     0.000 C 
BRANCH   4   5
ATOM      5  C   UNL     1       3.923 -35.151  17.960  1.00  0.00     0.000 C 
BRANCH   5   6
ATOM      6  C   UNL     1       3.709 -36.013  16.705  1.00  0.00     0.000 C 
BRANCH   6   7
ATOM      7  C   UNL     1       2.832 -37.245  16.972  1.00  0.00     0.006 C 
BRANCH   7   8
ATOM      8  C   UNL     1       3.049 -37.773  18.393  1.00  0.00     0.053 C 
BRANCH   8   9
ATOM      9  C   UNL     1       1.753 -37.827  19.139  1.00  0.00     0.041 C 
ATOM     10  O   UNL     1       0.811 -38.549  18.720  1.00  0.00    -0.550 OA
ATOM     11  O   UNL     1       1.600 -37.110  20.319  1.00  0.00    -0.550 OA
ENDBRANCH   8   9
ENDBRANCH   7   8
ENDBRANCH   6   7
ENDBRANCH   5   6
ENDBRANCH   4   5
ENDBRANCH   3   4
ENDBRANCH   2   3
ENDBRANCH   1   2
BRANCH   1  12
ATOM     12  C   UNL     1       5.920 -35.166  22.623  1.00  0.00     0.000 C 
BRANCH  12  13
ATOM     13  C   UNL     1       6.043 -34.650  24.067  1.00  0.00    -0.000 C 
BRANCH  13  14
ATOM     14  C   UNL     1       6.120 -35.787  25.101  1.00  0.00    -0.000 C 
BRANCH  14  15
ATOM     15  C   UNL     1       4.938 -36.768  24.998  1.00  0.00    -0.000 C 
BRANCH  15  16
ATOM     16  C   UNL     1       5.329 -38.257  24.953  1.00  0.00    -0.000 C 
BRANCH  16  17
ATOM     17  C   UNL     1       5.657 -38.801  23.549  1.00  0.00    -0.000 C 
BRANCH  17  18
ATOM     18  C   UNL     1       5.388 -40.314  23.392  1.00  0.00    -0.000 C 
BRANCH  18  19
ATOM     19  C   UNL     1       5.449 -41.062  24.731  1.00  0.00    -0.003 C 
ATOM     20  C   UNL     1       6.054 -42.452  24.558  1.00  0.00     0.004 C 
ENDBRANCH  18  19
ENDBRANCH  17  18
ENDBRANCH  16  17
ENDBRANCH  15  16
ENDBRANCH  14  15
ENDBRANCH  13  14
ENDBRANCH  12  13
ENDBRANCH   1  12
TORSDOF 16
ENDMDL
MODEL 7
REMARK VINA RESULT:    -1.629      3.944      7.204
REMARK INTER + INTRA:          -2.560
REMARK INTER:                  -1.345
REMARK INTRA:                  -1.215
REMARK UNBOUND:                 0.594
REMARK SMILES CCCCCCCCCCCCCCCCCC(=O)[O-]
REMARK SMILES IDX 10 1 11 2 12 3 13 4 14 5 15 6 16 7 17 8 18 9 19 10 20 11
REMARK SMILES IDX 9 12 8 13 7 14 6 15 5 16 4 17 3 18 2 19 1 20
REMARK H PARENT
REMARK Flexibility Score: inf
ROOT
ATOM      1  C   UNL     1       4.586 -35.719  17.747  1.00  0.00     0.000 C 
ENDROOT
BRANCH   1   2
ATOM      2  C   UNL     1       5.456 -34.647  18.438  1.00  0.00     0.000 C 
BRANCH   2   3
ATOM      3  C   UNL     1       5.563 -34.875  19.957  1.00  0.00     0.000 C 
BRANCH   3   4
ATOM      4  C   UNL     1       4.191 -34.910  20.651  1.00  0.00     0.000 C 
BRANCH   4   5
ATOM      5  C   UNL     1       4.301 -35.182  22.161  1.00  0.00     0.000 C 
BRANCH   5   6
ATOM      6  C   UNL     1       5.756 -35.180  22.659  1.00  0.00     0.000 C 
BRANCH   6   7
ATOM      7  C   UNL     1       6.124 -36.458  23.426  1.00  0.00     0.006 C 
BRANCH   7   8
ATOM      8  C   UNL     1       5.738 -36.340  24.903  1.00  0.00     0.053 C 
BRANCH   8   9
ATOM      9  C   UNL     1       5.028 -37.575  25.363  1.00  0.00     0.041 C 
ATOM     10  O   UNL     1       5.380 -38.704  24.934  1.00  0.00    -0.550 OA
ATOM     11  O   UNL     1       4.005 -37.481  26.298  1.00  0.00    -0.550 OA
ENDBRANCH   8   9
ENDBRANCH   7   8
ENDBRANCH   6   7
ENDBRANCH   5   6
ENDBRANCH   4   5
ENDBRANCH   3   4
ENDBRANCH   2   3
ENDBRANCH   1   2
BRANCH   1  12
ATOM     12  C   UNL     1       3.290 -35.164  17.126  1.00  0.00     0.000 C 
BRANCH  12  13
ATOM     13  C   UNL     1       2.499 -36.163  16.265  1.00  0.00    -0.000 C 
BRANCH  13  14
ATOM     14  C   UNL     1       2.419 -37.563  16.898  1.00  0.00    -0.000 C 
BRANCH  14  15
ATOM     15  C   UNL     1       1.629 -37.575  18.220  1.00  0.00    -0.000 C 
BRANCH  15  16
ATOM     16  C   UNL     1       2.469 -37.869  19.477  1.00  0.00    -0.000 C 
BRANCH  16  17
ATOM     17  C   UNL     1       3.959 -38.159  19.211  1.00  0.00    -0.000 C 
BRANCH  17  18
ATOM     18  C   UNL     1       4.811 -38.250  20.495  1.00  0.00    -0.000 C 
BRANCH  18  19
ATOM     19  C   UNL     1       5.795 -39.428  20.464  1.00  0.00    -0.003 C 
ATOM     20  C   UNL     1       5.716 -40.246  21.750  1.00  0.00     0.004 C 
ENDBRANCH  18  19
ENDBRANCH  17  18
ENDBRANCH  16  17
ENDBRANCH  15  16
ENDBRANCH  14  15
ENDBRANCH  13  14
ENDBRANCH  12  13
ENDBRANCH   1  12
TORSDOF 16
ENDMDL
