MODEL 1
REMARK VINA RESULT:    -4.611      0.000      0.000
REMARK INTER + INTRA:          -4.897
REMARK INTER:                  -4.880
REMARK INTRA:                  -0.016
REMARK UNBOUND:                -0.016
REMARK SMILES O=C([O-])c1cccnc1
REMARK SMILES IDX 4 1 5 2 9 3 6 4 8 5 7 6 2 7 1 8 3 9
REMARK H PARENT
REMARK Flexibility Score: inf
ROOT
ATOM      1  C   UNL     1       2.567  -2.448  -2.227  1.00  0.00     0.016 A 
ATOM      2  C   UNL     1       3.102  -2.693  -0.952  1.00  0.00     0.013 A 
ATOM      3  C   UNL     1       1.180  -2.593  -2.409  1.00  0.00     0.120 A 
ATOM      4  C   UNL     1       2.264  -3.071   0.099  1.00  0.00     0.021 A 
ATOM      5  N   UNL     1       0.386  -2.962  -1.368  1.00  0.00    -0.264 NA
ATOM      6  C   UNL     1       0.894  -3.201  -0.131  1.00  0.00     0.111 A 
ENDROOT
BRANCH   1   7
ATOM      7  C   UNL     1       3.445  -2.048  -3.348  1.00  0.00     0.073 C 
ATOM      8  O   UNL     1       4.165  -2.901  -3.934  1.00  0.00    -0.545 OA
ATOM      9  O   UNL     1       3.486  -0.724  -3.772  1.00  0.00    -0.545 OA
ENDBRANCH   1   7
TORSDOF 1
ENDMDL
MODEL 2
REMARK VINA RESULT:    -3.835     11.528     12.527
REMARK INTER + INTRA:          -4.076
REMARK INTER:                  -4.052
REMARK INTRA:                  -0.024
REMARK UNBOUND:                -0.016
REMARK SMILES O=C([O-])c1cccnc1
REMARK SMILES IDX 4 1 5 2 9 3 6 4 8 5 7 6 2 7 1 8 3 9
REMARK H PARENT
REMARK Flexibility Score: inf
ROOT
ATOM      1  C   UNL     1       1.491   8.241  -7.281  1.00  0.00     0.016 A 
ATOM      2  C   UNL     1       2.307   7.154  -6.928  1.00  0.00     0.013 A 
ATOM      3  C   UNL     1       1.799   8.954  -8.454  1.00  0.00     0.120 A 
ATOM      4  C   UNL     1       3.394   6.803  -7.732  1.00  0.00     0.021 A 
ATOM      5  N   UNL     1       2.863   8.590  -9.220  1.00  0.00    -0.264 NA
ATOM      6  C   UNL     1       3.658   7.540  -8.887  1.00  0.00     0.111 A 
ENDROOT
BRANCH   1   7
ATOM      7  C   UNL     1       0.339   8.623  -6.438  1.00  0.00     0.073 C 
ATOM      8  O   UNL     1      -0.348   9.644  -6.715  1.00  0.00    -0.545 OA
ATOM      9  O   UNL     1      -0.004   7.861  -5.327  1.00  0.00    -0.545 OA
ENDBRANCH   1   7
TORSDOF 1
ENDMDL
MODEL 3
REMARK VINA RESULT:    -3.734     11.171     12.477
REMARK INTER + INTRA:          -3.968
REMARK INTER:                  -3.944
REMARK INTRA:                  -0.024
REMARK UNBOUND:                -0.016
REMARK SMILES O=C([O-])c1cccnc1
REMARK SMILES IDX 4 1 5 2 9 3 6 4 8 5 7 6 2 7 1 8 3 9
REMARK H PARENT
REMARK Flexibility Score: inf
ROOT
ATOM      1  C   UNL     1       1.489   8.179  -7.203  1.00  0.00     0.016 A 
ATOM      2  C   UNL     1       1.835   8.841  -8.393  1.00  0.00     0.013 A 
ATOM      3  C   UNL     1       2.294   7.108  -6.776  1.00  0.00     0.120 A 
ATOM      4  C   UNL     1       2.954   8.432  -9.123  1.00  0.00     0.021 A 
ATOM      5  N   UNL     1       3.379   6.731  -7.505  1.00  0.00    -0.264 NA
ATOM      6  C   UNL     1       3.722   7.365  -8.657  1.00  0.00     0.111 A 
ENDROOT
BRANCH   1   7
ATOM      7  C   UNL     1       0.307   8.602  -6.423  1.00  0.00     0.073 C 
ATOM      8  O   UNL     1      -0.346   9.629  -6.753  1.00  0.00    -0.545 OA
ATOM      9  O   UNL     1      -0.102   7.871  -5.313  1.00  0.00    -0.545 OA
ENDBRANCH   1   7
TORSDOF 1
ENDMDL
MODEL 4
REMARK VINA RESULT:    -3.578     12.106     12.740
REMARK INTER + INTRA:          -3.804
REMARK INTER:                  -3.784
REMARK INTRA:                  -0.020
REMARK UNBOUND:                -0.016
REMARK SMILES O=C([O-])c1cccnc1
REMARK SMILES IDX 4 1 5 2 9 3 6 4 8 5 7 6 2 7 1 8 3 9
REMARK H PARENT
REMARK Flexibility Score: inf
ROOT
ATOM      1  C   UNL     1      -2.221   8.708  -4.938  1.00  0.00     0.016 A 
ATOM      2  C   UNL     1      -2.455   9.385  -3.730  1.00  0.00     0.013 A 
ATOM      3  C   UNL     1      -3.325   8.380  -5.746  1.00  0.00     0.120 A 
ATOM      4  C   UNL     1      -3.758   9.717  -3.354  1.00  0.00     0.021 A 
ATOM      5  N   UNL     1      -4.584   8.716  -5.355  1.00  0.00    -0.264 NA
ATOM      6  C   UNL     1      -4.821   9.371  -4.189  1.00  0.00     0.111 A 
ENDROOT
BRANCH   1   7
ATOM      7  C   UNL     1      -0.846   8.350  -5.347  1.00  0.00     0.073 C 
ATOM      8  O   UNL     1      -0.057   7.801  -4.531  1.00  0.00    -0.545 OA
ATOM      9  O   UNL     1      -0.404   8.614  -6.639  1.00  0.00    -0.545 OA
ENDBRANCH   1   7
TORSDOF 1
ENDMDL
MODEL 5
REMARK VINA RESULT:    -3.495     12.451     13.117
REMARK INTER + INTRA:          -3.715
REMARK INTER:                  -3.699
REMARK INTRA:                  -0.016
REMARK UNBOUND:                -0.016
REMARK SMILES O=C([O-])c1cccnc1
REMARK SMILES IDX 4 1 5 2 9 3 6 4 8 5 7 6 2 7 1 8 3 9
REMARK H PARENT
REMARK Flexibility Score: inf
ROOT
ATOM      1  C   UNL     1      -3.815   8.239  -5.158  1.00  0.00     0.016 A 
ATOM      2  C   UNL     1      -3.504   8.975  -4.004  1.00  0.00     0.013 A 
ATOM      3  C   UNL     1      -2.756   7.755  -5.948  1.00  0.00     0.120 A 
ATOM      4  C   UNL     1      -2.170   9.213  -3.662  1.00  0.00     0.021 A 
ATOM      5  N   UNL     1      -1.466   8.001  -5.592  1.00  0.00    -0.264 NA
ATOM      6  C   UNL     1      -1.155   8.712  -4.478  1.00  0.00     0.111 A 
ENDROOT
BRANCH   1   7
ATOM      7  C   UNL     1      -5.222   7.980  -5.530  1.00  0.00     0.073 C 
ATOM      8  O   UNL     1      -5.891   8.851  -6.149  1.00  0.00    -0.545 OA
ATOM      9  O   UNL     1      -5.827   6.772  -5.203  1.00  0.00    -0.545 OA
ENDBRANCH   1   7
TORSDOF 1
ENDMDL
MODEL 6
REMARK VINA RESULT:    -3.492     10.248     11.419
REMARK INTER + INTRA:          -3.712
REMARK INTER:                  -3.696
REMARK INTRA:                  -0.016
REMARK UNBOUND:                -0.016
REMARK SMILES O=C([O-])c1cccnc1
REMARK SMILES IDX 4 1 5 2 9 3 6 4 8 5 7 6 2 7 1 8 3 9
REMARK H PARENT
REMARK Flexibility Score: inf
ROOT
ATOM      1  C   UNL     1      -2.562  -7.649   6.536  1.00  0.00     0.016 A 
ATOM      2  C   UNL     1      -1.664  -7.122   7.479  1.00  0.00     0.013 A 
ATOM      3  C   UNL     1      -3.783  -8.174   6.996  1.00  0.00     0.120 A 
ATOM      4  C   UNL     1      -1.991  -7.128   8.837  1.00  0.00     0.021 A 
ATOM      5  N   UNL     1      -4.076  -8.166   8.325  1.00  0.00    -0.264 NA
ATOM      6  C   UNL     1      -3.215  -7.659   9.244  1.00  0.00     0.111 A 
ENDROOT
BRANCH   1   7
ATOM      7  C   UNL     1      -2.228  -7.649   5.095  1.00  0.00     0.073 C 
ATOM      8  O   UNL     1      -1.759  -8.683   4.547  1.00  0.00    -0.545 OA
ATOM      9  O   UNL     1      -2.428  -6.509   4.326  1.00  0.00    -0.545 OA
ENDBRANCH   1   7
TORSDOF 1
ENDMDL
MODEL 7
REMARK VINA RESULT:    -3.483     11.555     12.666
REMARK INTER + INTRA:          -3.703
REMARK INTER:                  -3.679
REMARK INTRA:                  -0.023
REMARK UNBOUND:                -0.016
REMARK SMILES O=C([O-])c1cccnc1
REMARK SMILES IDX 4 1 5 2 9 3 6 4 8 5 7 6 2 7 1 8 3 9
REMARK H PARENT
REMARK Flexibility Score: inf
ROOT
ATOM      1  C   UNL     1       2.100   8.176  -7.879  1.00  0.00     0.016 A 
ATOM      2  C   UNL     1       2.028   9.146  -8.892  1.00  0.00     0.013 A 
ATOM      3  C   UNL     1       1.149   8.220  -6.844  1.00  0.00     0.120 A 
ATOM      4  C   UNL     1       1.031  10.124  -8.858  1.00  0.00     0.021 A 
ATOM      5  N   UNL     1       0.187   9.183  -6.835  1.00  0.00    -0.264 NA
ATOM      6  C   UNL     1       0.109  10.125  -7.811  1.00  0.00     0.111 A 
ENDROOT
BRANCH   1   7
ATOM      7  C   UNL     1       3.151   7.137  -7.904  1.00  0.00     0.073 C 
ATOM      8  O   UNL     1       3.072   6.128  -7.153  1.00  0.00    -0.545 OA
ATOM      9  O   UNL     1       4.241   7.259  -8.758  1.00  0.00    -0.545 OA
ENDBRANCH   1   7
TORSDOF 1
ENDMDL
MODEL 8
REMARK VINA RESULT:    -3.341     12.932     13.767
REMARK INTER + INTRA:          -3.552
REMARK INTER:                  -3.531
REMARK INTRA:                  -0.021
REMARK UNBOUND:                -0.016
REMARK SMILES O=C([O-])c1cccnc1
REMARK SMILES IDX 4 1 5 2 9 3 6 4 8 5 7 6 2 7 1 8 3 9
REMARK H PARENT
REMARK Flexibility Score: inf
ROOT
ATOM      1  C   UNL     1      -6.394   6.853  -5.762  1.00  0.00     0.016 A 
ATOM      2  C   UNL     1      -6.764   8.002  -5.045  1.00  0.00     0.013 A 
ATOM      3  C   UNL     1      -5.033   6.660  -6.060  1.00  0.00     0.120 A 
ATOM      4  C   UNL     1      -5.792   8.923  -4.646  1.00  0.00     0.021 A 
ATOM      5  N   UNL     1      -4.107   7.572  -5.658  1.00  0.00    -0.264 NA
ATOM      6  C   UNL     1      -4.454   8.687  -4.964  1.00  0.00     0.111 A 
ENDROOT
BRANCH   1   7
ATOM      7  C   UNL     1      -7.414   5.872  -6.191  1.00  0.00     0.073 C 
ATOM      8  O   UNL     1      -8.402   5.611  -5.453  1.00  0.00    -0.545 OA
ATOM      9  O   UNL     1      -7.297   5.224  -7.415  1.00  0.00    -0.545 OA
ENDBRANCH   1   7
TORSDOF 1
ENDMDL
MODEL 9
REMARK VINA RESULT:    -3.222     12.468     13.342
REMARK INTER + INTRA:          -3.427
REMARK INTER:                  -3.405
REMARK INTRA:                  -0.022
REMARK UNBOUND:                -0.016
REMARK SMILES O=C([O-])c1cccnc1
REMARK SMILES IDX 4 1 5 2 9 3 6 4 8 5 7 6 2 7 1 8 3 9
REMARK H PARENT
REMARK Flexibility Score: inf
ROOT
ATOM      1  C   UNL     1      -4.984   7.769  -5.283  1.00  0.00     0.016 A 
ATOM      2  C   UNL     1      -6.005   8.678  -4.959  1.00  0.00     0.013 A 
ATOM      3  C   UNL     1      -5.345   6.459  -5.646  1.00  0.00     0.120 A 
ATOM      4  C   UNL     1      -7.342   8.274  -5.001  1.00  0.00     0.021 A 
ATOM      5  N   UNL     1      -6.655   6.093  -5.679  1.00  0.00    -0.264 NA
ATOM      6  C   UNL     1      -7.650   6.964  -5.368  1.00  0.00     0.111 A 
ENDROOT
BRANCH   1   7
ATOM      7  C   UNL     1      -3.565   8.184  -5.242  1.00  0.00     0.073 C 
ATOM      8  O   UNL     1      -3.191   9.110  -4.474  1.00  0.00    -0.545 OA
ATOM      9  O   UNL     1      -2.625   7.556  -6.051  1.00  0.00    -0.545 OA
ENDBRANCH   1   7
TORSDOF 1
ENDMDL
