MODEL 1
REMARK VINA RESULT:    -4.425      0.000      0.000
REMARK INTER + INTRA:          -6.741
REMARK INTER:                  -6.494
REMARK INTRA:                  -0.246
REMARK UNBOUND:                -0.246
REMARK SMILES O=C([O-])CCCCCCCC(=O)[O-]
REMARK SMILES IDX 7 1 6 2 5 3 4 4 2 5 1 6 3 7 8 8 9 9 10 10 11 11 12 12 13 13
REMARK H PARENT
REMARK Flexibility Score: inf
ROOT
ATOM      1  C   UNL     1      41.151 -12.197  26.887  1.00  0.00     0.000 C 
ENDROOT
BRANCH   1   2
ATOM      2  C   UNL     1      40.683 -10.832  26.368  1.00  0.00     0.000 C 
BRANCH   2   3
ATOM      3  C   UNL     1      39.378 -10.403  27.046  1.00  0.00     0.006 C 
BRANCH   3   4
ATOM      4  C   UNL     1      38.774 -11.553  27.856  1.00  0.00     0.053 C 
BRANCH   4   5
ATOM      5  C   UNL     1      37.281 -11.455  27.875  1.00  0.00     0.041 C 
ATOM      6  O   UNL     1      36.634 -11.431  26.795  1.00  0.00    -0.550 OA
ATOM      7  O   UNL     1      36.607 -11.339  29.084  1.00  0.00    -0.550 OA
ENDBRANCH   4   5
ENDBRANCH   3   4
ENDBRANCH   2   3
ENDBRANCH   1   2
BRANCH   1   8
ATOM      8  C   UNL     1      42.678 -12.330  26.788  1.00  0.00     0.000 C 
BRANCH   8   9
ATOM      9  C   UNL     1      43.156 -13.794  26.773  1.00  0.00     0.006 C 
BRANCH   9  10
ATOM     10  C   UNL     1      44.663 -13.961  27.041  1.00  0.00     0.053 C 
BRANCH  10  11
ATOM     11  C   UNL     1      44.985 -14.052  28.502  1.00  0.00     0.041 C 
ATOM     12  O   UNL     1      44.060 -14.125  29.353  1.00  0.00    -0.550 OA
ATOM     13  O   UNL     1      46.307 -14.024  28.925  1.00  0.00    -0.550 OA
ENDBRANCH  10  11
ENDBRANCH   9  10
ENDBRANCH   8   9
ENDBRANCH   1   8
TORSDOF 8
ENDMDL
MODEL 2
REMARK VINA RESULT:    -4.304     12.477     14.349
REMARK INTER + INTRA:          -6.563
REMARK INTER:                  -5.888
REMARK INTRA:                  -0.676
REMARK UNBOUND:                -0.246
REMARK SMILES O=C([O-])CCCCCCCC(=O)[O-]
REMARK SMILES IDX 7 1 6 2 5 3 4 4 2 5 1 6 3 7 8 8 9 9 10 10 11 11 12 12 13 13
REMARK H PARENT
REMARK Flexibility Score: inf
ROOT
ATOM      1  C   UNL     1      44.999   0.711  22.015  1.00  0.00     0.000 C 
ENDROOT
BRANCH   1   2
ATOM      2  C   UNL     1      45.561   1.497  23.205  1.00  0.00     0.000 C 
BRANCH   2   3
ATOM      3  C   UNL     1      44.937   1.024  24.522  1.00  0.00     0.006 C 
BRANCH   3   4
ATOM      4  C   UNL     1      45.087  -0.491  24.689  1.00  0.00     0.053 C 
BRANCH   4   5
ATOM      5  C   UNL     1      43.767  -1.117  25.009  1.00  0.00     0.041 C 
ATOM      6  O   UNL     1      42.716  -0.421  24.997  1.00  0.00    -0.550 OA
ATOM      7  O   UNL     1      43.700  -2.457  25.370  1.00  0.00    -0.550 OA
ENDBRANCH   4   5
ENDBRANCH   3   4
ENDBRANCH   2   3
ENDBRANCH   1   2
BRANCH   1   8
ATOM      8  C   UNL     1      43.791   1.432  21.399  1.00  0.00     0.000 C 
BRANCH   8   9
ATOM      9  C   UNL     1      42.458   0.707  21.662  1.00  0.00     0.006 C 
BRANCH   9  10
ATOM     10  C   UNL     1      42.438  -0.756  21.184  1.00  0.00     0.053 C 
BRANCH  10  11
ATOM     11  C   UNL     1      41.483  -0.981  20.051  1.00  0.00     0.041 C 
ATOM     12  O   UNL     1      40.481  -1.729  20.203  1.00  0.00    -0.550 OA
ATOM     13  O   UNL     1      41.718  -0.391  18.816  1.00  0.00    -0.550 OA
ENDBRANCH  10  11
ENDBRANCH   9  10
ENDBRANCH   8   9
ENDBRANCH   1   8
TORSDOF 8
ENDMDL
MODEL 3
REMARK VINA RESULT:    -4.274      1.996      2.607
REMARK INTER + INTRA:          -6.519
REMARK INTER:                  -5.931
REMARK INTRA:                  -0.588
REMARK UNBOUND:                -0.246
REMARK SMILES O=C([O-])CCCCCCCC(=O)[O-]
REMARK SMILES IDX 7 1 6 2 5 3 4 4 2 5 1 6 3 7 8 8 9 9 10 10 11 11 12 12 13 13
REMARK H PARENT
REMARK Flexibility Score: inf
ROOT
ATOM      1  C   UNL     1      41.106 -12.564  26.884  1.00  0.00     0.000 C 
ENDROOT
BRANCH   1   2
ATOM      2  C   UNL     1      40.703 -11.116  26.581  1.00  0.00     0.000 C 
BRANCH   2   3
ATOM      3  C   UNL     1      39.450 -10.717  27.368  1.00  0.00     0.006 C 
BRANCH   3   4
ATOM      4  C   UNL     1      38.460 -11.882  27.455  1.00  0.00     0.053 C 
BRANCH   4   5
ATOM      5  C   UNL     1      37.071 -11.374  27.677  1.00  0.00     0.041 C 
ATOM      6  O   UNL     1      36.641 -11.194  28.847  1.00  0.00    -0.550 OA
ATOM      7  O   UNL     1      36.232 -11.146  26.593  1.00  0.00    -0.550 OA
ENDBRANCH   4   5
ENDBRANCH   3   4
ENDBRANCH   2   3
ENDBRANCH   1   2
BRANCH   1   8
ATOM      8  C   UNL     1      42.611 -12.669  27.172  1.00  0.00     0.000 C 
BRANCH   8   9
ATOM      9  C   UNL     1      42.932 -13.563  28.384  1.00  0.00     0.006 C 
BRANCH   9  10
ATOM     10  C   UNL     1      41.746 -13.759  29.347  1.00  0.00     0.053 C 
BRANCH  10  11
ATOM     11  C   UNL     1      41.763 -12.789  30.490  1.00  0.00     0.041 C 
ATOM     12  O   UNL     1      42.326 -13.094  31.574  1.00  0.00    -0.550 OA
ATOM     13  O   UNL     1      41.127 -11.561  30.368  1.00  0.00    -0.550 OA
ENDBRANCH  10  11
ENDBRANCH   9  10
ENDBRANCH   8   9
ENDBRANCH   1   8
TORSDOF 8
ENDMDL
MODEL 4
REMARK VINA RESULT:    -4.266      2.610      6.881
REMARK INTER + INTRA:          -6.507
REMARK INTER:                  -6.058
REMARK INTRA:                  -0.449
REMARK UNBOUND:                -0.246
REMARK SMILES O=C([O-])CCCCCCCC(=O)[O-]
REMARK SMILES IDX 7 1 6 2 5 3 4 4 2 5 1 6 3 7 8 8 9 9 10 10 11 11 12 12 13 13
REMARK H PARENT
REMARK Flexibility Score: inf
ROOT
ATOM      1  C   UNL     1      37.856 -11.951  28.888  1.00  0.00     0.000 C 
ENDROOT
BRANCH   1   2
ATOM      2  C   UNL     1      38.919 -12.222  27.816  1.00  0.00     0.000 C 
BRANCH   2   3
ATOM      3  C   UNL     1      40.320 -11.877  28.330  1.00  0.00     0.006 C 
BRANCH   3   4
ATOM      4  C   UNL     1      41.356 -12.885  27.823  1.00  0.00     0.053 C 
BRANCH   4   5
ATOM      5  C   UNL     1      42.250 -12.252  26.805  1.00  0.00     0.041 C 
ATOM      6  O   UNL     1      41.807 -11.350  26.046  1.00  0.00    -0.550 OA
ATOM      7  O   UNL     1      43.560 -12.691  26.660  1.00  0.00    -0.550 OA
ENDBRANCH   4   5
ENDBRANCH   3   4
ENDBRANCH   2   3
ENDBRANCH   1   2
BRANCH   1   8
ATOM      8  C   UNL     1      36.656 -11.197  28.296  1.00  0.00     0.000 C 
BRANCH   8   9
ATOM      9  C   UNL     1      36.580 -11.293  26.761  1.00  0.00     0.006 C 
BRANCH   9  10
ATOM     10  C   UNL     1      36.207  -9.969  26.071  1.00  0.00     0.053 C 
BRANCH  10  11
ATOM     11  C   UNL     1      37.337  -9.394  25.271  1.00  0.00     0.041 C 
ATOM     12  O   UNL     1      38.490  -9.309  25.770  1.00  0.00    -0.550 OA
ATOM     13  O   UNL     1      37.109  -8.923  23.985  1.00  0.00    -0.550 OA
ENDBRANCH  10  11
ENDBRANCH   9  10
ENDBRANCH   8   9
ENDBRANCH   1   8
TORSDOF 8
ENDMDL
MODEL 5
REMARK VINA RESULT:    -4.232      2.507      5.922
REMARK INTER + INTRA:          -6.458
REMARK INTER:                  -5.851
REMARK INTRA:                  -0.607
REMARK UNBOUND:                -0.246
REMARK SMILES O=C([O-])CCCCCCCC(=O)[O-]
REMARK SMILES IDX 7 1 6 2 5 3 4 4 2 5 1 6 3 7 8 8 9 9 10 10 11 11 12 12 13 13
REMARK H PARENT
REMARK Flexibility Score: inf
ROOT
ATOM      1  C   UNL     1      41.079 -12.706  26.886  1.00  0.00     0.000 C 
ENDROOT
BRANCH   1   2
ATOM      2  C   UNL     1      42.193 -12.853  27.929  1.00  0.00     0.000 C 
BRANCH   2   3
ATOM      3  C   UNL     1      41.776 -13.809  29.051  1.00  0.00     0.006 C 
BRANCH   3   4
ATOM      4  C   UNL     1      42.109 -13.224  30.427  1.00  0.00     0.053 C 
BRANCH   4   5
ATOM      5  C   UNL     1      41.095 -12.196  30.819  1.00  0.00     0.041 C 
ATOM      6  O   UNL     1      41.464 -11.105  31.328  1.00  0.00    -0.550 OA
ATOM      7  O   UNL     1      39.740 -12.462  30.669  1.00  0.00    -0.550 OA
ENDBRANCH   4   5
ENDBRANCH   3   4
ENDBRANCH   2   3
ENDBRANCH   1   2
BRANCH   1   8
ATOM      8  C   UNL     1      40.743 -11.227  26.642  1.00  0.00     0.000 C 
BRANCH   8   9
ATOM      9  C   UNL     1      39.460 -10.773  27.362  1.00  0.00     0.006 C 
BRANCH   9  10
ATOM     10  C   UNL     1      38.419 -11.893  27.547  1.00  0.00     0.053 C 
BRANCH  10  11
ATOM     11  C   UNL     1      37.023 -11.367  27.694  1.00  0.00     0.041 C 
ATOM     12  O   UNL     1      36.539 -11.162  28.838  1.00  0.00    -0.550 OA
ATOM     13  O   UNL     1      36.246 -11.134  26.567  1.00  0.00    -0.550 OA
ENDBRANCH  10  11
ENDBRANCH   9  10
ENDBRANCH   8   9
ENDBRANCH   1   8
TORSDOF 8
ENDMDL
MODEL 6
REMARK VINA RESULT:    -4.201      2.077      2.791
REMARK INTER + INTRA:          -6.411
REMARK INTER:                  -5.862
REMARK INTRA:                  -0.550
REMARK UNBOUND:                -0.246
REMARK SMILES O=C([O-])CCCCCCCC(=O)[O-]
REMARK SMILES IDX 7 1 6 2 5 3 4 4 2 5 1 6 3 7 8 8 9 9 10 10 11 11 12 12 13 13
REMARK H PARENT
REMARK Flexibility Score: inf
ROOT
ATOM      1  C   UNL     1      40.745 -11.930  29.584  1.00  0.00     0.000 C 
ENDROOT
BRANCH   1   2
ATOM      2  C   UNL     1      39.561 -12.483  30.387  1.00  0.00     0.000 C 
BRANCH   2   3
ATOM      3  C   UNL     1      38.447 -12.976  29.458  1.00  0.00     0.006 C 
BRANCH   3   4
ATOM      4  C   UNL     1      38.377 -12.130  28.184  1.00  0.00     0.053 C 
BRANCH   4   5
ATOM      5  C   UNL     1      37.047 -11.455  28.075  1.00  0.00     0.041 C 
ATOM      6  O   UNL     1      36.397 -11.163  29.114  1.00  0.00    -0.550 OA
ATOM      7  O   UNL     1      36.500 -11.192  26.825  1.00  0.00    -0.550 OA
ENDBRANCH   4   5
ENDBRANCH   3   4
ENDBRANCH   2   3
ENDBRANCH   1   2
BRANCH   1   8
ATOM      8  C   UNL     1      41.869 -12.970  29.472  1.00  0.00     0.000 C 
BRANCH   8   9
ATOM      9  C   UNL     1      41.877 -13.709  28.121  1.00  0.00     0.006 C 
BRANCH   9  10
ATOM     10  C   UNL     1      42.359 -12.846  26.941  1.00  0.00     0.053 C 
BRANCH  10  11
ATOM     11  C   UNL     1      43.675 -13.304  26.390  1.00  0.00     0.041 C 
ATOM     12  O   UNL     1      43.868 -13.332  25.145  1.00  0.00    -0.550 OA
ATOM     13  O   UNL     1      44.679 -13.730  27.249  1.00  0.00    -0.550 OA
ENDBRANCH  10  11
ENDBRANCH   9  10
ENDBRANCH   8   9
ENDBRANCH   1   8
TORSDOF 8
ENDMDL
MODEL 7
REMARK VINA RESULT:    -4.175     13.887     15.225
REMARK INTER + INTRA:          -6.374
REMARK INTER:                  -6.090
REMARK INTRA:                  -0.285
REMARK UNBOUND:                -0.246
REMARK SMILES O=C([O-])CCCCCCCC(=O)[O-]
REMARK SMILES IDX 7 1 6 2 5 3 4 4 2 5 1 6 3 7 8 8 9 9 10 10 11 11 12 12 13 13
REMARK H PARENT
REMARK Flexibility Score: inf
ROOT
ATOM      1  C   UNL     1      41.555  -1.067  20.315  1.00  0.00     0.000 C 
ENDROOT
BRANCH   1   2
ATOM      2  C   UNL     1      41.618  -0.549  18.873  1.00  0.00     0.000 C 
BRANCH   2   3
ATOM      3  C   UNL     1      41.946   0.947  18.839  1.00  0.00     0.006 C 
BRANCH   3   4
ATOM      4  C   UNL     1      41.526   1.573  17.506  1.00  0.00     0.053 C 
BRANCH   4   5
ATOM      5  C   UNL     1      42.714   1.765  16.618  1.00  0.00     0.041 C 
ATOM      6  O   UNL     1      43.646   2.538  16.966  1.00  0.00    -0.550 OA
ATOM      7  O   UNL     1      42.771   1.129  15.385  1.00  0.00    -0.550 OA
ENDBRANCH   4   5
ENDBRANCH   3   4
ENDBRANCH   2   3
ENDBRANCH   1   2
BRANCH   1   8
ATOM      8  C   UNL     1      42.149  -0.045  21.295  1.00  0.00     0.000 C 
BRANCH   8   9
ATOM      9  C   UNL     1      43.308  -0.616  22.133  1.00  0.00     0.006 C 
BRANCH   9  10
ATOM     10  C   UNL     1      43.445   0.023  23.526  1.00  0.00     0.053 C 
BRANCH  10  11
ATOM     11  C   UNL     1      44.081  -0.895  24.525  1.00  0.00     0.041 C 
ATOM     12  O   UNL     1      43.443  -1.883  24.977  1.00  0.00    -0.550 OA
ATOM     13  O   UNL     1      45.368  -0.642  24.982  1.00  0.00    -0.550 OA
ENDBRANCH  10  11
ENDBRANCH   9  10
ENDBRANCH   8   9
ENDBRANCH   1   8
TORSDOF 8
ENDMDL
MODEL 8
REMARK VINA RESULT:    -4.168     13.772     15.492
REMARK INTER + INTRA:          -6.364
REMARK INTER:                  -6.009
REMARK INTRA:                  -0.355
REMARK UNBOUND:                -0.246
REMARK SMILES O=C([O-])CCCCCCCC(=O)[O-]
REMARK SMILES IDX 7 1 6 2 5 3 4 4 2 5 1 6 3 7 8 8 9 9 10 10 11 11 12 12 13 13
REMARK H PARENT
REMARK Flexibility Score: inf
ROOT
ATOM      1  C   UNL     1      41.682  -1.064  20.473  1.00  0.00     0.000 C 
ENDROOT
BRANCH   1   2
ATOM      2  C   UNL     1      42.393   0.052  21.247  1.00  0.00     0.000 C 
BRANCH   2   3
ATOM      3  C   UNL     1      43.437  -0.524  22.210  1.00  0.00     0.006 C 
BRANCH   3   4
ATOM      4  C   UNL     1      43.057  -0.242  23.666  1.00  0.00     0.053 C 
BRANCH   4   5
ATOM      5  C   UNL     1      43.927  -1.025  24.597  1.00  0.00     0.041 C 
ATOM      6  O   UNL     1      45.094  -0.630  24.857  1.00  0.00    -0.550 OA
ATOM      7  O   UNL     1      43.469  -2.220  25.139  1.00  0.00    -0.550 OA
ENDBRANCH   4   5
ENDBRANCH   3   4
ENDBRANCH   2   3
ENDBRANCH   1   2
BRANCH   1   8
ATOM      8  C   UNL     1      41.530  -0.697  18.989  1.00  0.00     0.000 C 
BRANCH   8   9
ATOM      9  C   UNL     1      41.545   0.823  18.740  1.00  0.00     0.006 C 
BRANCH   9  10
ATOM     10  C   UNL     1      42.279   1.236  17.451  1.00  0.00     0.053 C 
BRANCH  10  11
ATOM     11  C   UNL     1      43.456   2.126  17.715  1.00  0.00     0.041 C 
ATOM     12  O   UNL     1      43.853   2.321  18.894  1.00  0.00    -0.550 OA
ATOM     13  O   UNL     1      44.095   2.764  16.660  1.00  0.00    -0.550 OA
ENDBRANCH  10  11
ENDBRANCH   9  10
ENDBRANCH   8   9
ENDBRANCH   1   8
TORSDOF 8
ENDMDL
MODEL 9
REMARK VINA RESULT:    -4.140     13.769     15.061
REMARK INTER + INTRA:          -6.323
REMARK INTER:                  -5.643
REMARK INTRA:                  -0.680
REMARK UNBOUND:                -0.246
REMARK SMILES O=C([O-])CCCCCCCC(=O)[O-]
REMARK SMILES IDX 7 1 6 2 5 3 4 4 2 5 1 6 3 7 8 8 9 9 10 10 11 11 12 12 13 13
REMARK H PARENT
REMARK Flexibility Score: inf
ROOT
ATOM      1  C   UNL     1      41.369  -0.708  20.125  1.00  0.00     0.000 C 
ENDROOT
BRANCH   1   2
ATOM      2  C   UNL     1      41.748  -0.288  18.700  1.00  0.00     0.000 C 
BRANCH   2   3
ATOM      3  C   UNL     1      41.348   1.166  18.429  1.00  0.00     0.006 C 
BRANCH   3   4
ATOM      4  C   UNL     1      42.583   2.059  18.280  1.00  0.00     0.053 C 
BRANCH   4   5
ATOM      5  C   UNL     1      43.030   2.563  19.615  1.00  0.00     0.041 C 
ATOM      6  O   UNL     1      44.240   2.474  19.953  1.00  0.00    -0.550 OA
ATOM      7  O   UNL     1      42.103   3.088  20.507  1.00  0.00    -0.550 OA
ENDBRANCH   4   5
ENDBRANCH   3   4
ENDBRANCH   2   3
ENDBRANCH   1   2
BRANCH   1   8
ATOM      8  C   UNL     1      42.622  -0.949  20.980  1.00  0.00     0.000 C 
BRANCH   8   9
ATOM      9  C   UNL     1      42.678  -0.055  22.233  1.00  0.00     0.006 C 
BRANCH   9  10
ATOM     10  C   UNL     1      44.103   0.184  22.764  1.00  0.00     0.053 C 
BRANCH  10  11
ATOM     11  C   UNL     1      44.366  -0.526  24.057  1.00  0.00     0.041 C 
ATOM     12  O   UNL     1      43.504  -1.307  24.541  1.00  0.00    -0.550 OA
ATOM     13  O   UNL     1      45.551  -0.302  24.746  1.00  0.00    -0.550 OA
ENDBRANCH  10  11
ENDBRANCH   9  10
ENDBRANCH   8   9
ENDBRANCH   1   8
TORSDOF 8
ENDMDL
