MODEL 1
REMARK VINA RESULT:    -3.245      0.000      0.000
REMARK INTER + INTRA:          -3.533
REMARK INTER:                  -3.435
REMARK INTRA:                  -0.098
REMARK UNBOUND:                -0.098
REMARK SMILES C=C(C)[C@H]1CC=C(C)C(=O)C1
REMARK SMILES IDX 8 1 7 2 6 3 5 4 4 5 11 6 9 7 10 8 2 9 1 10 3 11
REMARK H PARENT
REMARK Flexibility Score: inf
ROOT
ATOM      1  C   UNL     1      -5.343  15.099   6.003  1.00  0.00     0.048 C 
ATOM      2  C   UNL     1      -4.603  13.965   6.658  1.00  0.00    -0.012 C 
ATOM      3  C   UNL     1      -3.387  13.605   6.211  1.00  0.00    -0.019 C 
ATOM      4  C   UNL     1      -2.643  12.426   6.781  1.00  0.00     0.036 C 
ATOM      5  C   UNL     1      -2.994  12.211   8.265  1.00  0.00     0.025 C 
ATOM      6  C   UNL     1      -4.518  12.079   8.442  1.00  0.00     0.089 C 
ATOM      7  C   UNL     1      -5.230  13.230   7.783  1.00  0.00     0.158 C 
ATOM      8  O   UNL     1      -6.389  13.537   8.171  1.00  0.00    -0.295 OA
ENDROOT
BRANCH   5   9
ATOM      9  C   UNL     1      -2.262  11.007   8.844  1.00  0.00    -0.077 C 
ATOM     10  C   UNL     1      -2.934   9.878   9.116  1.00  0.00     0.008 C 
ATOM     11  C   UNL     1      -0.780  11.048   9.122  1.00  0.00     0.039 C 
ENDBRANCH   5   9
TORSDOF 1
ENDMDL
MODEL 2
REMARK VINA RESULT:    -2.913      1.962      4.628
REMARK INTER + INTRA:          -3.182
REMARK INTER:                  -3.083
REMARK INTRA:                  -0.098
REMARK UNBOUND:                -0.098
REMARK SMILES C=C(C)[C@H]1CC=C(C)C(=O)C1
REMARK SMILES IDX 8 1 7 2 6 3 5 4 4 5 11 6 9 7 10 8 2 9 1 10 3 11
REMARK H PARENT
REMARK Flexibility Score: inf
ROOT
ATOM      1  C   UNL     1      -1.627   9.952   8.363  1.00  0.00     0.048 C 
ATOM      2  C   UNL     1      -2.747  10.942   8.202  1.00  0.00    -0.012 C 
ATOM      3  C   UNL     1      -3.722  11.015   9.125  1.00  0.00    -0.019 C 
ATOM      4  C   UNL     1      -4.906  11.933   8.966  1.00  0.00     0.036 C 
ATOM      5  C   UNL     1      -4.528  13.195   8.169  1.00  0.00     0.025 C 
ATOM      6  C   UNL     1      -3.906  12.808   6.815  1.00  0.00     0.089 C 
ATOM      7  C   UNL     1      -2.785  11.823   7.008  1.00  0.00     0.158 C 
ATOM      8  O   UNL     1      -1.897  11.722   6.120  1.00  0.00    -0.295 OA
ENDROOT
BRANCH   5   9
ATOM      9  C   UNL     1      -5.725  14.119   7.986  1.00  0.00    -0.077 C 
ATOM     10  C   UNL     1      -5.960  14.689   6.794  1.00  0.00     0.008 C 
ATOM     11  C   UNL     1      -6.671  14.415   9.124  1.00  0.00     0.039 C 
ENDBRANCH   5   9
TORSDOF 1
ENDMDL
MODEL 3
REMARK VINA RESULT:    -2.748      1.685      4.310
REMARK INTER + INTRA:          -3.006
REMARK INTER:                  -2.912
REMARK INTRA:                  -0.094
REMARK UNBOUND:                -0.098
REMARK SMILES C=C(C)[C@H]1CC=C(C)C(=O)C1
REMARK SMILES IDX 8 1 7 2 6 3 5 4 4 5 11 6 9 7 10 8 2 9 1 10 3 11
REMARK H PARENT
REMARK Flexibility Score: inf
ROOT
ATOM      1  C   UNL     1      -1.607  10.102   7.378  1.00  0.00     0.048 C 
ATOM      2  C   UNL     1      -2.552  11.272   7.355  1.00  0.00    -0.012 C 
ATOM      3  C   UNL     1      -2.345  12.292   6.504  1.00  0.00    -0.019 C 
ATOM      4  C   UNL     1      -3.216  13.520   6.501  1.00  0.00     0.036 C 
ATOM      5  C   UNL     1      -4.654  13.184   6.937  1.00  0.00     0.025 C 
ATOM      6  C   UNL     1      -4.648  12.477   8.305  1.00  0.00     0.089 C 
ATOM      7  C   UNL     1      -3.701  11.309   8.294  1.00  0.00     0.158 C 
ATOM      8  O   UNL     1      -3.867  10.375   9.125  1.00  0.00    -0.295 OA
ENDROOT
BRANCH   5   9
ATOM      9  C   UNL     1      -5.536  14.425   6.957  1.00  0.00    -0.077 C 
ATOM     10  C   UNL     1      -5.633  15.200   5.865  1.00  0.00     0.008 C 
ATOM     11  C   UNL     1      -6.318  14.814   8.188  1.00  0.00     0.039 C 
ENDBRANCH   5   9
TORSDOF 1
ENDMDL
MODEL 4
REMARK VINA RESULT:    -2.580      1.481      2.108
REMARK INTER + INTRA:          -2.829
REMARK INTER:                  -2.739
REMARK INTRA:                  -0.090
REMARK UNBOUND:                -0.098
REMARK SMILES C=C(C)[C@H]1CC=C(C)C(=O)C1
REMARK SMILES IDX 8 1 7 2 6 3 5 4 4 5 11 6 9 7 10 8 2 9 1 10 3 11
REMARK H PARENT
REMARK Flexibility Score: inf
ROOT
ATOM      1  C   UNL     1      -5.716  15.122   5.727  1.00  0.00     0.048 C 
ATOM      2  C   UNL     1      -4.906  14.160   6.552  1.00  0.00    -0.012 C 
ATOM      3  C   UNL     1      -5.440  13.594   7.648  1.00  0.00    -0.019 C 
ATOM      4  C   UNL     1      -4.642  12.689   8.549  1.00  0.00     0.036 C 
ATOM      5  C   UNL     1      -3.562  11.927   7.758  1.00  0.00     0.025 C 
ATOM      6  C   UNL     1      -2.668  12.914   6.984  1.00  0.00     0.089 C 
ATOM      7  C   UNL     1      -3.506  13.857   6.164  1.00  0.00     0.158 C 
ATOM      8  O   UNL     1      -2.990  14.424   5.164  1.00  0.00    -0.295 OA
ENDROOT
BRANCH   5   9
ATOM      9  C   UNL     1      -2.737  11.025   8.666  1.00  0.00    -0.077 C 
ATOM     10  C   UNL     1      -3.256   9.875   9.125  1.00  0.00     0.008 C 
ATOM     11  C   UNL     1      -1.330  11.391   9.070  1.00  0.00     0.039 C 
ENDBRANCH   5   9
TORSDOF 1
ENDMDL
MODEL 5
REMARK VINA RESULT:    -2.503      0.328      1.095
REMARK INTER + INTRA:          -2.747
REMARK INTER:                  -2.657
REMARK INTRA:                  -0.090
REMARK UNBOUND:                -0.098
REMARK SMILES C=C(C)[C@H]1CC=C(C)C(=O)C1
REMARK SMILES IDX 8 1 7 2 6 3 5 4 4 5 11 6 9 7 10 8 2 9 1 10 3 11
REMARK H PARENT
REMARK Flexibility Score: inf
ROOT
ATOM      1  C   UNL     1      -5.048  15.240   5.664  1.00  0.00     0.048 C 
ATOM      2  C   UNL     1      -4.394  14.102   6.399  1.00  0.00    -0.012 C 
ATOM      3  C   UNL     1      -3.238  13.583   5.948  1.00  0.00    -0.019 C 
ATOM      4  C   UNL     1      -2.589  12.392   6.603  1.00  0.00     0.036 C 
ATOM      5  C   UNL     1      -2.896  12.349   8.112  1.00  0.00     0.025 C 
ATOM      6  C   UNL     1      -4.417  12.388   8.350  1.00  0.00     0.089 C 
ATOM      7  C   UNL     1      -5.041  13.539   7.610  1.00  0.00     0.158 C 
ATOM      8  O   UNL     1      -6.148  13.995   8.004  1.00  0.00    -0.295 OA
ENDROOT
BRANCH   5   9
ATOM      9  C   UNL     1      -2.260  11.136   8.777  1.00  0.00    -0.077 C 
ATOM     10  C   UNL     1      -0.950  11.138   9.069  1.00  0.00     0.008 C 
ATOM     11  C   UNL     1      -3.073   9.914   9.124  1.00  0.00     0.039 C 
ENDBRANCH   5   9
TORSDOF 1
ENDMDL
MODEL 6
REMARK VINA RESULT:    -1.681      1.740      2.367
REMARK INTER + INTRA:          -1.877
REMARK INTER:                  -1.779
REMARK INTRA:                  -0.098
REMARK UNBOUND:                -0.098
REMARK SMILES C=C(C)[C@H]1CC=C(C)C(=O)C1
REMARK SMILES IDX 8 1 7 2 6 3 5 4 4 5 11 6 9 7 10 8 2 9 1 10 3 11
REMARK H PARENT
REMARK Flexibility Score: inf
ROOT
ATOM      1  C   UNL     1      -7.096  12.955   5.103  1.00  0.00     0.048 C 
ATOM      2  C   UNL     1      -5.992  12.706   6.094  1.00  0.00    -0.012 C 
ATOM      3  C   UNL     1      -5.977  11.572   6.817  1.00  0.00    -0.019 C 
ATOM      4  C   UNL     1      -4.938  11.316   7.877  1.00  0.00     0.036 C 
ATOM      5  C   UNL     1      -3.606  12.006   7.531  1.00  0.00     0.025 C 
ATOM      6  C   UNL     1      -3.830  13.510   7.286  1.00  0.00     0.089 C 
ATOM      7  C   UNL     1      -4.933  13.727   6.287  1.00  0.00     0.158 C 
ATOM      8  O   UNL     1      -4.975  14.810   5.644  1.00  0.00    -0.295 OA
ENDROOT
BRANCH   5   9
ATOM      9  C   UNL     1      -2.557  11.769   8.609  1.00  0.00    -0.077 C 
ATOM     10  C   UNL     1      -1.875  12.804   9.125  1.00  0.00     0.008 C 
ATOM     11  C   UNL     1      -2.258  10.382   9.123  1.00  0.00     0.039 C 
ENDBRANCH   5   9
TORSDOF 1
ENDMDL
MODEL 7
REMARK VINA RESULT:    -1.326      1.880      2.576
REMARK INTER + INTRA:          -1.502
REMARK INTER:                  -1.406
REMARK INTRA:                  -0.096
REMARK UNBOUND:                -0.098
REMARK SMILES C=C(C)[C@H]1CC=C(C)C(=O)C1
REMARK SMILES IDX 8 1 7 2 6 3 5 4 4 5 11 6 9 7 10 8 2 9 1 10 3 11
REMARK H PARENT
REMARK Flexibility Score: inf
ROOT
ATOM      1  C   UNL     1      -5.317  15.862   4.753  1.00  0.00     0.048 C 
ATOM      2  C   UNL     1      -4.819  14.806   5.702  1.00  0.00    -0.012 C 
ATOM      3  C   UNL     1      -5.604  14.373   6.703  1.00  0.00    -0.019 C 
ATOM      4  C   UNL     1      -5.120  13.378   7.725  1.00  0.00     0.036 C 
ATOM      5  C   UNL     1      -4.076  12.421   7.119  1.00  0.00     0.025 C 
ATOM      6  C   UNL     1      -2.919  13.220   6.490  1.00  0.00     0.089 C 
ATOM      7  C   UNL     1      -3.447  14.262   5.542  1.00  0.00     0.158 C 
ATOM      8  O   UNL     1      -2.695  14.702   4.632  1.00  0.00    -0.295 OA
ENDROOT
BRANCH   5   9
ATOM      9  C   UNL     1      -3.566  11.425   8.152  1.00  0.00    -0.077 C 
ATOM     10  C   UNL     1      -4.388  10.966   9.109  1.00  0.00     0.008 C 
ATOM     11  C   UNL     1      -2.140  10.929   8.130  1.00  0.00     0.039 C 
ENDBRANCH   5   9
TORSDOF 1
ENDMDL
