MODEL 1
REMARK VINA RESULT:    -3.214      0.000      0.000
REMARK INTER + INTRA:          -4.186
REMARK INTER:                  -3.966
REMARK INTRA:                  -0.220
REMARK UNBOUND:                -0.220
REMARK SMILES CCCCCC(=O)[O-]
REMARK SMILES IDX 4 1 5 2 6 3 7 4 8 5 3 6 2 7 1 8
REMARK H PARENT
REMARK Flexibility Score: inf
ROOT
ATOM      1  C   UNL     1      12.283  73.079  46.174  1.00  0.00     0.006 C 
ENDROOT
BRANCH   1   2
ATOM      2  C   UNL     1      11.849  74.450  46.711  1.00  0.00     0.053 C 
BRANCH   2   3
ATOM      3  C   UNL     1      11.184  75.245  45.632  1.00  0.00     0.041 C 
ATOM      4  O   UNL     1      11.313  74.908  44.426  1.00  0.00    -0.550 OA
ATOM      5  O   UNL     1      10.461  76.386  45.954  1.00  0.00    -0.550 OA
ENDBRANCH   2   3
ENDBRANCH   1   2
BRANCH   1   6
ATOM      6  C   UNL     1      11.240  71.983  46.439  1.00  0.00     0.000 C 
BRANCH   6   7
ATOM      7  C   UNL     1      10.578  71.473  45.150  1.00  0.00    -0.003 C 
ATOM      8  C   UNL     1      11.616  71.240  44.056  1.00  0.00     0.004 C 
ENDBRANCH   6   7
ENDBRANCH   1   6
TORSDOF 4
ENDMDL
MODEL 2
REMARK VINA RESULT:    -3.138      2.232      3.808
REMARK INTER + INTRA:          -4.091
REMARK INTER:                  -3.918
REMARK INTRA:                  -0.173
REMARK UNBOUND:                -0.220
REMARK SMILES CCCCCC(=O)[O-]
REMARK SMILES IDX 4 1 5 2 6 3 7 4 8 5 3 6 2 7 1 8
REMARK H PARENT
REMARK Flexibility Score: inf
ROOT
ATOM      1  C   UNL     1      11.956  72.259  46.161  1.00  0.00     0.006 C 
ENDROOT
BRANCH   1   2
ATOM      2  C   UNL     1      10.836  71.721  45.261  1.00  0.00     0.053 C 
BRANCH   2   3
ATOM      3  C   UNL     1      11.374  71.376  43.909  1.00  0.00     0.041 C 
ATOM      4  O   UNL     1      12.056  70.330  43.747  1.00  0.00    -0.550 OA
ATOM      5  O   UNL     1      11.164  72.234  42.838  1.00  0.00    -0.550 OA
ENDBRANCH   2   3
ENDBRANCH   1   2
BRANCH   1   6
ATOM      6  C   UNL     1      11.663  73.672  46.690  1.00  0.00     0.000 C 
BRANCH   6   7
ATOM      7  C   UNL     1      12.083  74.771  45.703  1.00  0.00    -0.003 C 
ATOM      8  C   UNL     1      10.875  75.575  45.231  1.00  0.00     0.004 C 
ENDBRANCH   6   7
ENDBRANCH   1   6
TORSDOF 4
ENDMDL
MODEL 3
REMARK VINA RESULT:    -3.130      1.388      1.650
REMARK INTER + INTRA:          -4.081
REMARK INTER:                  -3.886
REMARK INTRA:                  -0.196
REMARK UNBOUND:                -0.220
REMARK SMILES CCCCCC(=O)[O-]
REMARK SMILES IDX 4 1 5 2 6 3 7 4 8 5 3 6 2 7 1 8
REMARK H PARENT
REMARK Flexibility Score: inf
ROOT
ATOM      1  C   UNL     1      12.072  72.248  46.100  1.00  0.00     0.006 C 
ENDROOT
BRANCH   1   2
ATOM      2  C   UNL     1      11.633  73.488  46.891  1.00  0.00     0.053 C 
BRANCH   2   3
ATOM      3  C   UNL     1      12.080  74.735  46.198  1.00  0.00     0.041 C 
ATOM      4  O   UNL     1      11.315  75.316  45.384  1.00  0.00    -0.550 OA
ATOM      5  O   UNL     1      13.360  75.229  46.412  1.00  0.00    -0.550 OA
ENDBRANCH   2   3
ENDBRANCH   1   2
BRANCH   1   6
ATOM      6  C   UNL     1      10.935  71.651  45.257  1.00  0.00     0.000 C 
BRANCH   6   7
ATOM      7  C   UNL     1      11.343  71.416  43.795  1.00  0.00    -0.003 C 
ATOM      8  C   UNL     1      10.937  72.596  42.916  1.00  0.00     0.004 C 
ENDBRANCH   6   7
ENDBRANCH   1   6
TORSDOF 4
ENDMDL
MODEL 4
REMARK VINA RESULT:    -3.080      7.386      8.259
REMARK INTER + INTRA:          -4.020
REMARK INTER:                  -3.877
REMARK INTRA:                  -0.143
REMARK UNBOUND:                -0.220
REMARK SMILES CCCCCC(=O)[O-]
REMARK SMILES IDX 4 1 5 2 6 3 7 4 8 5 3 6 2 7 1 8
REMARK H PARENT
REMARK Flexibility Score: inf
ROOT
ATOM      1  C   UNL     1       7.481  80.912  44.892  1.00  0.00     0.006 C 
ENDROOT
BRANCH   1   2
ATOM      2  C   UNL     1       7.320  80.960  46.417  1.00  0.00     0.053 C 
BRANCH   2   3
ATOM      3  C   UNL     1       7.026  79.595  46.954  1.00  0.00     0.041 C 
ATOM      4  O   UNL     1       5.835  79.227  47.130  1.00  0.00    -0.550 OA
ATOM      5  O   UNL     1       8.067  78.747  47.306  1.00  0.00    -0.550 OA
ENDBRANCH   2   3
ENDBRANCH   1   2
BRANCH   1   6
ATOM      6  C   UNL     1       8.809  81.522  44.417  1.00  0.00     0.000 C 
BRANCH   6   7
ATOM      7  C   UNL     1      10.017  80.628  44.736  1.00  0.00    -0.003 C 
ATOM      8  C   UNL     1      11.317  81.426  44.691  1.00  0.00     0.004 C 
ENDBRANCH   6   7
ENDBRANCH   1   6
TORSDOF 4
ENDMDL
MODEL 5
REMARK VINA RESULT:    -3.050      9.078      9.579
REMARK INTER + INTRA:          -3.982
REMARK INTER:                  -3.876
REMARK INTRA:                  -0.106
REMARK UNBOUND:                -0.220
REMARK SMILES CCCCCC(=O)[O-]
REMARK SMILES IDX 4 1 5 2 6 3 7 4 8 5 3 6 2 7 1 8
REMARK H PARENT
REMARK Flexibility Score: inf
ROOT
ATOM      1  C   UNL     1       9.818  79.021  38.301  1.00  0.00     0.006 C 
ENDROOT
BRANCH   1   2
ATOM      2  C   UNL     1      10.574  80.348  38.458  1.00  0.00     0.053 C 
BRANCH   2   3
ATOM      3  C   UNL     1      10.876  80.608  39.900  1.00  0.00     0.041 C 
ATOM      4  O   UNL     1      12.066  80.602  40.309  1.00  0.00    -0.550 OA
ATOM      5  O   UNL     1       9.839  80.809  40.802  1.00  0.00    -0.550 OA
ENDBRANCH   2   3
ENDBRANCH   1   2
BRANCH   1   6
ATOM      6  C   UNL     1       8.762  79.071  37.186  1.00  0.00     0.000 C 
BRANCH   6   7
ATOM      7  C   UNL     1       9.089  78.127  36.020  1.00  0.00    -0.003 C 
ATOM      8  C   UNL     1      10.232  77.182  36.383  1.00  0.00     0.004 C 
ENDBRANCH   6   7
ENDBRANCH   1   6
TORSDOF 4
ENDMDL
MODEL 6
REMARK VINA RESULT:    -3.048      9.538     10.330
REMARK INTER + INTRA:          -3.980
REMARK INTER:                  -3.806
REMARK INTRA:                  -0.175
REMARK UNBOUND:                -0.220
REMARK SMILES CCCCCC(=O)[O-]
REMARK SMILES IDX 4 1 5 2 6 3 7 4 8 5 3 6 2 7 1 8
REMARK H PARENT
REMARK Flexibility Score: inf
ROOT
ATOM      1  C   UNL     1       8.312  79.128  37.711  1.00  0.00     0.006 C 
ENDROOT
BRANCH   1   2
ATOM      2  C   UNL     1       8.843  78.564  36.386  1.00  0.00     0.053 C 
BRANCH   2   3
ATOM      3  C   UNL     1       9.304  77.152  36.568  1.00  0.00     0.041 C 
ATOM      4  O   UNL     1       8.481  76.252  36.879  1.00  0.00    -0.550 OA
ATOM      5  O   UNL     1      10.651  76.839  36.443  1.00  0.00    -0.550 OA
ENDBRANCH   2   3
ENDBRANCH   1   2
BRANCH   1   6
ATOM      6  C   UNL     1       9.413  79.285  38.771  1.00  0.00     0.000 C 
BRANCH   6   7
ATOM      7  C   UNL     1      10.520  80.256  38.334  1.00  0.00    -0.003 C 
ATOM      8  C   UNL     1      11.308  80.767  39.536  1.00  0.00     0.004 C 
ENDBRANCH   6   7
ENDBRANCH   1   6
TORSDOF 4
ENDMDL
MODEL 7
REMARK VINA RESULT:    -3.006      2.269      3.966
REMARK INTER + INTRA:          -3.928
REMARK INTER:                  -3.671
REMARK INTRA:                  -0.257
REMARK UNBOUND:                -0.220
REMARK SMILES CCCCCC(=O)[O-]
REMARK SMILES IDX 4 1 5 2 6 3 7 4 8 5 3 6 2 7 1 8
REMARK H PARENT
REMARK Flexibility Score: inf
ROOT
ATOM      1  C   UNL     1      11.303  74.567  44.385  1.00  0.00     0.006 C 
ENDROOT
BRANCH   1   2
ATOM      2  C   UNL     1      10.496  73.272  44.219  1.00  0.00     0.053 C 
BRANCH   2   3
ATOM      3  C   UNL     1      11.202  72.129  44.877  1.00  0.00     0.041 C 
ATOM      4  O   UNL     1      11.200  72.022  46.132  1.00  0.00    -0.550 OA
ATOM      5  O   UNL     1      11.903  71.210  44.109  1.00  0.00    -0.550 OA
ENDBRANCH   2   3
ENDBRANCH   1   2
BRANCH   1   6
ATOM      6  C   UNL     1      10.713  75.500  45.453  1.00  0.00     0.000 C 
BRANCH   6   7
ATOM      7  C   UNL     1      11.549  75.528  46.741  1.00  0.00    -0.003 C 
ATOM      8  C   UNL     1      12.991  75.110  46.469  1.00  0.00     0.004 C 
ENDBRANCH   6   7
ENDBRANCH   1   6
TORSDOF 4
ENDMDL
MODEL 8
REMARK VINA RESULT:    -2.937      8.291      9.405
REMARK INTER + INTRA:          -3.843
REMARK INTER:                  -3.720
REMARK INTRA:                  -0.124
REMARK UNBOUND:                -0.220
REMARK SMILES CCCCCC(=O)[O-]
REMARK SMILES IDX 4 1 5 2 6 3 7 4 8 5 3 6 2 7 1 8
REMARK H PARENT
REMARK Flexibility Score: inf
ROOT
ATOM      1  C   UNL     1       4.396  74.410  39.622  1.00  0.00     0.006 C 
ENDROOT
BRANCH   1   2
ATOM      2  C   UNL     1       5.887  74.143  39.869  1.00  0.00     0.053 C 
BRANCH   2   3
ATOM      3  C   UNL     1       6.173  72.677  39.793  1.00  0.00     0.041 C 
ATOM      4  O   UNL     1       5.239  71.842  39.916  1.00  0.00    -0.550 OA
ATOM      5  O   UNL     1       7.479  72.230  39.635  1.00  0.00    -0.550 OA
ENDBRANCH   2   3
ENDBRANCH   1   2
BRANCH   1   6
ATOM      6  C   UNL     1       4.141  75.769  38.952  1.00  0.00     0.000 C 
BRANCH   6   7
ATOM      7  C   UNL     1       5.396  76.655  38.917  1.00  0.00    -0.003 C 
ATOM      8  C   UNL     1       5.160  77.970  39.655  1.00  0.00     0.004 C 
ENDBRANCH   6   7
ENDBRANCH   1   6
TORSDOF 4
ENDMDL
MODEL 9
REMARK VINA RESULT:    -2.886      8.910      9.413
REMARK INTER + INTRA:          -3.780
REMARK INTER:                  -3.678
REMARK INTRA:                  -0.102
REMARK UNBOUND:                -0.220
REMARK SMILES CCCCCC(=O)[O-]
REMARK SMILES IDX 4 1 5 2 6 3 7 4 8 5 3 6 2 7 1 8
REMARK H PARENT
REMARK Flexibility Score: inf
ROOT
ATOM      1  C   UNL     1       5.969  77.412  39.140  1.00  0.00     0.006 C 
ENDROOT
BRANCH   1   2
ATOM      2  C   UNL     1       4.956  78.397  39.740  1.00  0.00     0.053 C 
BRANCH   2   3
ATOM      3  C   UNL     1       5.602  79.227  40.803  1.00  0.00     0.041 C 
ATOM      4  O   UNL     1       5.015  79.419  41.900  1.00  0.00    -0.550 OA
ATOM      5  O   UNL     1       6.830  79.829  40.565  1.00  0.00    -0.550 OA
ENDBRANCH   2   3
ENDBRANCH   1   2
BRANCH   1   6
ATOM      6  C   UNL     1       5.305  76.345  38.256  1.00  0.00     0.000 C 
BRANCH   6   7
ATOM      7  C   UNL     1       4.114  75.664  38.946  1.00  0.00    -0.003 C 
ATOM      8  C   UNL     1       4.549  74.385  39.656  1.00  0.00     0.004 C 
ENDBRANCH   6   7
ENDBRANCH   1   6
TORSDOF 4
ENDMDL
