MODEL 1
REMARK VINA RESULT:    -3.342      0.000      0.000
REMARK INTER + INTRA:          -3.964
REMARK INTER:                  -3.928
REMARK INTRA:                  -0.036
REMARK UNBOUND:                -0.036
REMARK SMILES CCCCC(=O)[O-]
REMARK SMILES IDX 4 1 5 2 6 3 7 4 3 5 2 6 1 7
REMARK H PARENT
REMARK Flexibility Score: inf
ROOT
ATOM      1  C   UNL     1     -19.095 -21.392  11.478  1.00  0.00     0.053 C 
ENDROOT
BRANCH   1   2
ATOM      2  C   UNL     1     -19.582 -21.269  10.069  1.00  0.00     0.041 C 
ATOM      3  O   UNL     1     -20.116 -20.200   9.673  1.00  0.00    -0.550 OA
ATOM      4  O   UNL     1     -19.490 -22.353   9.205  1.00  0.00    -0.550 OA
ENDBRANCH   1   2
BRANCH   1   5
ATOM      5  C   UNL     1     -19.106 -22.856  11.924  1.00  0.00     0.006 C 
BRANCH   5   6
ATOM      6  C   UNL     1     -20.137 -23.085  13.036  1.00  0.00    -0.003 C 
ATOM      7  C   UNL     1     -19.570 -23.976  14.138  1.00  0.00     0.004 C 
ENDBRANCH   5   6
ENDBRANCH   1   5
TORSDOF 3
ENDMDL
MODEL 2
REMARK VINA RESULT:    -3.333     11.748     12.395
REMARK INTER + INTRA:          -3.954
REMARK INTER:                  -3.901
REMARK INTRA:                  -0.053
REMARK UNBOUND:                -0.036
REMARK SMILES CCCCC(=O)[O-]
REMARK SMILES IDX 4 1 5 2 6 3 7 4 3 5 2 6 1 7
REMARK H PARENT
REMARK Flexibility Score: inf
ROOT
ATOM      1  C   UNL     1     -29.211 -22.218  17.268  1.00  0.00     0.053 C 
ENDROOT
BRANCH   1   2
ATOM      2  C   UNL     1     -29.798 -23.587  17.405  1.00  0.00     0.041 C 
ATOM      3  O   UNL     1     -29.575 -24.273  18.436  1.00  0.00    -0.550 OA
ATOM      4  O   UNL     1     -30.554 -24.125  16.371  1.00  0.00    -0.550 OA
ENDBRANCH   1   2
BRANCH   1   5
ATOM      5  C   UNL     1     -30.306 -21.195  16.952  1.00  0.00     0.006 C 
BRANCH   5   6
ATOM      6  C   UNL     1     -30.034 -19.862  17.662  1.00  0.00    -0.003 C 
ATOM      7  C   UNL     1     -29.261 -20.078  18.960  1.00  0.00     0.004 C 
ENDBRANCH   5   6
ENDBRANCH   1   5
TORSDOF 3
ENDMDL
MODEL 3
REMARK VINA RESULT:    -3.313     11.593     12.302
REMARK INTER + INTRA:          -3.931
REMARK INTER:                  -3.850
REMARK INTRA:                  -0.081
REMARK UNBOUND:                -0.036
REMARK SMILES CCCCC(=O)[O-]
REMARK SMILES IDX 4 1 5 2 6 3 7 4 3 5 2 6 1 7
REMARK H PARENT
REMARK Flexibility Score: inf
ROOT
ATOM      1  C   UNL     1     -29.915 -21.615  18.247  1.00  0.00     0.053 C 
ENDROOT
BRANCH   1   2
ATOM      2  C   UNL     1     -29.778 -20.138  18.049  1.00  0.00     0.041 C 
ATOM      3  O   UNL     1     -29.204 -19.433  18.918  1.00  0.00    -0.550 OA
ATOM      4  O   UNL     1     -30.326 -19.534  16.924  1.00  0.00    -0.550 OA
ENDBRANCH   1   2
BRANCH   1   5
ATOM      5  C   UNL     1     -28.970 -22.372  17.310  1.00  0.00     0.006 C 
BRANCH   5   6
ATOM      6  C   UNL     1     -29.713 -23.484  16.559  1.00  0.00    -0.003 C 
ATOM      7  C   UNL     1     -31.217 -23.406  16.808  1.00  0.00     0.004 C 
ENDBRANCH   5   6
ENDBRANCH   1   5
TORSDOF 3
ENDMDL
MODEL 4
REMARK VINA RESULT:    -3.308     10.486     11.107
REMARK INTER + INTRA:          -3.924
REMARK INTER:                  -3.885
REMARK INTRA:                  -0.039
REMARK UNBOUND:                -0.036
REMARK SMILES CCCCC(=O)[O-]
REMARK SMILES IDX 4 1 5 2 6 3 7 4 3 5 2 6 1 7
REMARK H PARENT
REMARK Flexibility Score: inf
ROOT
ATOM      1  C   UNL     1     -27.092 -29.400   6.838  1.00  0.00     0.053 C 
ENDROOT
BRANCH   1   2
ATOM      2  C   UNL     1     -27.052 -28.758   8.189  1.00  0.00     0.041 C 
ATOM      3  O   UNL     1     -27.928 -27.917   8.517  1.00  0.00    -0.550 OA
ATOM      4  O   UNL     1     -26.019 -29.054   9.069  1.00  0.00    -0.550 OA
ENDBRANCH   1   2
BRANCH   1   5
ATOM      5  C   UNL     1     -25.676 -29.561   6.280  1.00  0.00     0.006 C 
BRANCH   5   6
ATOM      6  C   UNL     1     -25.399 -28.531   5.178  1.00  0.00    -0.003 C 
ATOM      7  C   UNL     1     -24.438 -29.088   4.132  1.00  0.00     0.004 C 
ENDBRANCH   5   6
ENDBRANCH   1   5
TORSDOF 3
ENDMDL
MODEL 5
REMARK VINA RESULT:    -3.247      9.250      9.847
REMARK INTER + INTRA:          -3.852
REMARK INTER:                  -3.719
REMARK INTRA:                  -0.134
REMARK UNBOUND:                -0.036
REMARK SMILES CCCCC(=O)[O-]
REMARK SMILES IDX 4 1 5 2 6 3 7 4 3 5 2 6 1 7
REMARK H PARENT
REMARK Flexibility Score: inf
ROOT
ATOM      1  C   UNL     1     -21.750 -28.929  15.825  1.00  0.00     0.053 C 
ENDROOT
BRANCH   1   2
ATOM      2  C   UNL     1     -21.800 -30.304  16.413  1.00  0.00     0.041 C 
ATOM      3  O   UNL     1     -22.525 -31.190  15.891  1.00  0.00    -0.550 OA
ATOM      4  O   UNL     1     -21.082 -30.593  17.566  1.00  0.00    -0.550 OA
ENDBRANCH   1   2
BRANCH   1   5
ATOM      5  C   UNL     1     -21.840 -27.871  16.928  1.00  0.00     0.006 C 
BRANCH   5   6
ATOM      6  C   UNL     1     -23.255 -27.812  17.518  1.00  0.00    -0.003 C 
ATOM      7  C   UNL     1     -23.232 -28.026  19.029  1.00  0.00     0.004 C 
ENDBRANCH   5   6
ENDBRANCH   1   5
TORSDOF 3
ENDMDL
MODEL 6
REMARK VINA RESULT:    -3.186      2.115      2.736
REMARK INTER + INTRA:          -3.781
REMARK INTER:                  -3.713
REMARK INTRA:                  -0.069
REMARK UNBOUND:                -0.036
REMARK SMILES CCCCC(=O)[O-]
REMARK SMILES IDX 4 1 5 2 6 3 7 4 3 5 2 6 1 7
REMARK H PARENT
REMARK Flexibility Score: inf
ROOT
ATOM      1  C   UNL     1     -20.242 -20.805   9.405  1.00  0.00     0.053 C 
ENDROOT
BRANCH   1   2
ATOM      2  C   UNL     1     -21.424 -21.385   8.695  1.00  0.00     0.041 C 
ATOM      3  O   UNL     1     -22.136 -20.660   7.953  1.00  0.00    -0.550 OA
ATOM      4  O   UNL     1     -21.768 -22.717   8.892  1.00  0.00    -0.550 OA
ENDBRANCH   1   2
BRANCH   1   5
ATOM      5  C   UNL     1     -19.448 -21.907  10.113  1.00  0.00     0.006 C 
BRANCH   5   6
ATOM      6  C   UNL     1     -19.377 -21.649  11.623  1.00  0.00    -0.003 C 
ATOM      7  C   UNL     1     -19.364 -20.153  11.927  1.00  0.00     0.004 C 
ENDBRANCH   5   6
ENDBRANCH   1   5
TORSDOF 3
ENDMDL
MODEL 7
REMARK VINA RESULT:    -3.161     10.392     10.844
REMARK INTER + INTRA:          -3.752
REMARK INTER:                  -3.643
REMARK INTRA:                  -0.109
REMARK UNBOUND:                -0.036
REMARK SMILES CCCCC(=O)[O-]
REMARK SMILES IDX 4 1 5 2 6 3 7 4 3 5 2 6 1 7
REMARK H PARENT
REMARK Flexibility Score: inf
ROOT
ATOM      1  C   UNL     1     -26.300 -28.842   5.779  1.00  0.00     0.053 C 
ENDROOT
BRANCH   1   2
ATOM      2  C   UNL     1     -24.973 -29.504   5.581  1.00  0.00     0.041 C 
ATOM      3  O   UNL     1     -24.320 -29.312   4.523  1.00  0.00    -0.550 OA
ATOM      4  O   UNL     1     -24.479 -30.374   6.546  1.00  0.00    -0.550 OA
ENDBRANCH   1   2
BRANCH   1   5
ATOM      5  C   UNL     1     -27.132 -29.607   6.812  1.00  0.00     0.006 C 
BRANCH   5   6
ATOM      6  C   UNL     1     -27.563 -28.686   7.961  1.00  0.00    -0.003 C 
ATOM      7  C   UNL     1     -26.438 -28.507   8.976  1.00  0.00     0.004 C 
ENDBRANCH   5   6
ENDBRANCH   1   5
TORSDOF 3
ENDMDL
MODEL 8
REMARK VINA RESULT:    -3.157      9.307     10.460
REMARK INTER + INTRA:          -3.747
REMARK INTER:                  -3.723
REMARK INTRA:                  -0.024
REMARK UNBOUND:                -0.036
REMARK SMILES CCCCC(=O)[O-]
REMARK SMILES IDX 4 1 5 2 6 3 7 4 3 5 2 6 1 7
REMARK H PARENT
REMARK Flexibility Score: inf
ROOT
ATOM      1  C   UNL     1     -22.658 -31.497  11.563  1.00  0.00     0.053 C 
ENDROOT
BRANCH   1   2
ATOM      2  C   UNL     1     -22.761 -32.884  11.011  1.00  0.00     0.041 C 
ATOM      3  O   UNL     1     -21.859 -33.336  10.260  1.00  0.00    -0.550 OA
ATOM      4  O   UNL     1     -23.879 -33.660  11.288  1.00  0.00    -0.550 OA
ENDBRANCH   1   2
BRANCH   1   5
ATOM      5  C   UNL     1     -21.391 -31.351  12.410  1.00  0.00     0.006 C 
BRANCH   5   6
ATOM      6  C   UNL     1     -21.738 -30.994  13.861  1.00  0.00    -0.003 C 
ATOM      7  C   UNL     1     -21.258 -29.589  14.213  1.00  0.00     0.004 C 
ENDBRANCH   5   6
ENDBRANCH   1   5
TORSDOF 3
ENDMDL
MODEL 9
REMARK VINA RESULT:    -3.134      9.685     10.190
REMARK INTER + INTRA:          -3.720
REMARK INTER:                  -3.632
REMARK INTRA:                  -0.089
REMARK UNBOUND:                -0.036
REMARK SMILES CCCCC(=O)[O-]
REMARK SMILES IDX 4 1 5 2 6 3 7 4 3 5 2 6 1 7
REMARK H PARENT
REMARK Flexibility Score: inf
ROOT
ATOM      1  C   UNL     1     -26.332 -28.649   8.785  1.00  0.00     0.053 C 
ENDROOT
BRANCH   1   2
ATOM      2  C   UNL     1     -26.461 -27.177   9.020  1.00  0.00     0.041 C 
ATOM      3  O   UNL     1     -25.492 -26.410   8.784  1.00  0.00    -0.550 OA
ATOM      4  O   UNL     1     -27.638 -26.657   9.544  1.00  0.00    -0.550 OA
ENDBRANCH   1   2
BRANCH   1   5
ATOM      5  C   UNL     1     -27.375 -29.123   7.770  1.00  0.00     0.006 C 
BRANCH   5   6
ATOM      6  C   UNL     1     -26.781 -29.181   6.357  1.00  0.00    -0.003 C 
ATOM      7  C   UNL     1     -25.366 -29.753   6.378  1.00  0.00     0.004 C 
ENDBRANCH   5   6
ENDBRANCH   1   5
TORSDOF 3
ENDMDL
