MODEL 1
REMARK VINA RESULT:    -3.944      0.000      0.000
REMARK INTER + INTRA:          -4.335
REMARK INTER:                  -4.290
REMARK INTRA:                  -0.046
REMARK UNBOUND:                -0.046
REMARK SMILES COc1cc2ccc(=O)oc2cc1O
REMARK SMILES IDX 3 1 13 2 12 3 11 4 5 5 4 6 6 7 7 8 8 9 9 10 10 11 2 12 1 13
REMARK SMILES IDX 14 14
REMARK H PARENT 14 15
REMARK Flexibility Score: inf
ROOT
ATOM      1  C   UNL     1       3.421   1.470 -19.007  1.00  0.00     0.161 A 
ATOM      2  C   UNL     1       3.625   2.844 -19.214  1.00  0.00     0.161 A 
ATOM      3  C   UNL     1       4.168   3.640 -18.197  1.00  0.00     0.098 A 
ATOM      4  C   UNL     1       4.512   3.075 -16.966  1.00  0.00     0.142 A 
ATOM      5  C   UNL     1       4.309   1.697 -16.749  1.00  0.00     0.022 A 
ATOM      6  C   UNL     1       3.767   0.898 -17.766  1.00  0.00     0.062 A 
ATOM      7  C   UNL     1       4.663   1.160 -15.507  1.00  0.00     0.019 A 
ATOM      8  C   UNL     1       5.199   1.995 -14.527  1.00  0.00     0.094 A 
ATOM      9  C   UNL     1       5.371   3.353 -14.815  1.00  0.00     0.336 A 
ATOM     10  O   UNL     1       5.853   4.123 -13.944  1.00  0.00    -0.246 OA
ATOM     11  O   UNL     1       5.026   3.838 -16.005  1.00  0.00    -0.423 OA
ENDROOT
BRANCH   1  12
ATOM     12  O   UNL     1       2.875   0.710 -20.053  1.00  0.00    -0.493 OA
ATOM     13  C   UNL     1       2.896  -0.712 -20.113  1.00  0.00     0.278 C 
ENDBRANCH   1  12
BRANCH   2  14
ATOM     14  O   UNL     1       3.284   3.410 -20.442  1.00  0.00    -0.504 OA
ATOM     15  H   UNL     1       2.471   4.008 -20.542  1.00  0.00     0.293 HD
ENDBRANCH   2  14
TORSDOF 2
ENDMDL
MODEL 2
REMARK VINA RESULT:    -3.637      1.568      5.429
REMARK INTER + INTRA:          -4.002
REMARK INTER:                  -4.015
REMARK INTRA:                   0.013
REMARK UNBOUND:                -0.046
REMARK SMILES COc1cc2ccc(=O)oc2cc1O
REMARK SMILES IDX 3 1 13 2 12 3 11 4 5 5 4 6 6 7 7 8 8 9 9 10 10 11 2 12 1 13
REMARK SMILES IDX 14 14
REMARK H PARENT 14 15
REMARK Flexibility Score: inf
ROOT
ATOM      1  C   UNL     1       4.651   2.620 -15.626  1.00  0.00     0.161 A 
ATOM      2  C   UNL     1       4.894   1.272 -15.321  1.00  0.00     0.161 A 
ATOM      3  C   UNL     1       4.568   0.267 -16.243  1.00  0.00     0.098 A 
ATOM      4  C   UNL     1       4.000   0.599 -17.475  1.00  0.00     0.142 A 
ATOM      5  C   UNL     1       3.751   1.951 -17.789  1.00  0.00     0.022 A 
ATOM      6  C   UNL     1       4.076   2.957 -16.868  1.00  0.00     0.062 A 
ATOM      7  C   UNL     1       3.181   2.252 -19.031  1.00  0.00     0.019 A 
ATOM      8  C   UNL     1       2.875   1.217 -19.914  1.00  0.00     0.094 A 
ATOM      9  C   UNL     1       3.149  -0.101 -19.532  1.00  0.00     0.336 A 
ATOM     10  O   UNL     1       2.882  -1.050 -20.315  1.00  0.00    -0.246 OA
ATOM     11  O   UNL     1       3.692  -0.359 -18.345  1.00  0.00    -0.423 OA
ENDROOT
BRANCH   1  12
ATOM     12  O   UNL     1       4.992   3.593 -14.673  1.00  0.00    -0.493 OA
ATOM     13  C   UNL     1       6.303   4.117 -14.489  1.00  0.00     0.278 C 
ENDBRANCH   1  12
BRANCH   2  14
ATOM     14  O   UNL     1       5.462   0.937 -14.092  1.00  0.00    -0.504 OA
ATOM     15  H   UNL     1       5.427   1.572 -13.302  1.00  0.00     0.293 HD
ENDBRANCH   2  14
TORSDOF 2
ENDMDL
MODEL 3
REMARK VINA RESULT:    -3.473      2.126      2.665
REMARK INTER + INTRA:          -3.824
REMARK INTER:                  -3.909
REMARK INTRA:                   0.086
REMARK UNBOUND:                -0.046
REMARK SMILES COc1cc2ccc(=O)oc2cc1O
REMARK SMILES IDX 3 1 13 2 12 3 11 4 5 5 4 6 6 7 7 8 8 9 9 10 10 11 2 12 1 13
REMARK SMILES IDX 14 14
REMARK H PARENT 14 15
REMARK Flexibility Score: inf
ROOT
ATOM      1  C   UNL     1       2.887  -0.275 -20.356  1.00  0.00     0.161 A 
ATOM      2  C   UNL     1       2.880   1.007 -20.929  1.00  0.00     0.161 A 
ATOM      3  C   UNL     1       2.877   2.147 -20.113  1.00  0.00     0.098 A 
ATOM      4  C   UNL     1       2.882   2.018 -18.722  1.00  0.00     0.142 A 
ATOM      5  C   UNL     1       2.888   0.734 -18.138  1.00  0.00     0.022 A 
ATOM      6  C   UNL     1       2.891  -0.407 -18.953  1.00  0.00     0.062 A 
ATOM      7  C   UNL     1       2.893   0.637 -16.743  1.00  0.00     0.019 A 
ATOM      8  C   UNL     1       2.891   1.801 -15.974  1.00  0.00     0.094 A 
ATOM      9  C   UNL     1       2.884   3.041 -16.624  1.00  0.00     0.336 A 
ATOM     10  O   UNL     1       2.882   4.103 -15.949  1.00  0.00    -0.246 OA
ATOM     11  O   UNL     1       2.879   3.104 -17.953  1.00  0.00    -0.423 OA
ENDROOT
BRANCH   1  12
ATOM     12  O   UNL     1       2.889  -1.388 -21.211  1.00  0.00    -0.493 OA
ATOM     13  C   UNL     1       4.016  -1.826 -21.962  1.00  0.00     0.278 C 
ENDBRANCH   1  12
BRANCH   2  14
ATOM     14  O   UNL     1       2.875   1.139 -22.317  1.00  0.00    -0.504 OA
ATOM     15  H   UNL     1       3.454   0.552 -22.907  1.00  0.00     0.293 HD
ENDBRANCH   2  14
TORSDOF 2
ENDMDL
MODEL 4
REMARK VINA RESULT:    -3.333      2.038      5.537
REMARK INTER + INTRA:          -3.671
REMARK INTER:                  -3.620
REMARK INTRA:                  -0.051
REMARK UNBOUND:                -0.046
REMARK SMILES COc1cc2ccc(=O)oc2cc1O
REMARK SMILES IDX 3 1 13 2 12 3 11 4 5 5 4 6 6 7 7 8 8 9 9 10 10 11 2 12 1 13
REMARK SMILES IDX 14 14
REMARK H PARENT 14 15
REMARK Flexibility Score: inf
ROOT
ATOM      1  C   UNL     1       2.919   1.510 -17.643  1.00  0.00     0.161 A 
ATOM      2  C   UNL     1       2.917   2.688 -18.407  1.00  0.00     0.161 A 
ATOM      3  C   UNL     1       2.908   2.624 -19.806  1.00  0.00     0.098 A 
ATOM      4  C   UNL     1       2.900   1.387 -20.456  1.00  0.00     0.142 A 
ATOM      5  C   UNL     1       2.903   0.199 -19.696  1.00  0.00     0.022 A 
ATOM      6  C   UNL     1       2.912   0.261 -18.296  1.00  0.00     0.062 A 
ATOM      7  C   UNL     1       2.895  -1.025 -20.374  1.00  0.00     0.019 A 
ATOM      8  C   UNL     1       2.886  -1.036 -21.769  1.00  0.00     0.094 A 
ATOM      9  C   UNL     1       2.884   0.184 -22.455  1.00  0.00     0.336 A 
ATOM     10  O   UNL     1       2.875   0.196 -23.714  1.00  0.00    -0.246 OA
ATOM     11  O   UNL     1       2.891   1.333 -21.785  1.00  0.00    -0.423 OA
ENDROOT
BRANCH   1  12
ATOM     12  O   UNL     1       2.929   1.621 -16.243  1.00  0.00    -0.493 OA
ATOM     13  C   UNL     1       4.106   1.617 -15.442  1.00  0.00     0.278 C 
ENDBRANCH   1  12
BRANCH   2  14
ATOM     14  O   UNL     1       2.924   3.924 -17.761  1.00  0.00    -0.504 OA
ATOM     15  H   UNL     1       3.318   4.749 -18.200  1.00  0.00     0.293 HD
ENDBRANCH   2  14
TORSDOF 2
ENDMDL
MODEL 5
REMARK VINA RESULT:    -1.857      2.373      3.679
REMARK INTER + INTRA:          -2.065
REMARK INTER:                  -2.019
REMARK INTRA:                  -0.046
REMARK UNBOUND:                -0.046
REMARK SMILES COc1cc2ccc(=O)oc2cc1O
REMARK SMILES IDX 3 1 13 2 12 3 11 4 5 5 4 6 6 7 7 8 8 9 9 10 10 11 2 12 1 13
REMARK SMILES IDX 14 14
REMARK H PARENT 14 15
REMARK Flexibility Score: inf
ROOT
ATOM      1  C   UNL     1       2.879   0.426 -21.181  1.00  0.00     0.161 A 
ATOM      2  C   UNL     1       2.884  -0.540 -20.162  1.00  0.00     0.161 A 
ATOM      3  C   UNL     1       2.889  -0.150 -18.816  1.00  0.00     0.098 A 
ATOM      4  C   UNL     1       2.885   1.205 -18.474  1.00  0.00     0.142 A 
ATOM      5  C   UNL     1       2.881   2.182 -19.491  1.00  0.00     0.022 A 
ATOM      6  C   UNL     1       2.876   1.794 -20.838  1.00  0.00     0.062 A 
ATOM      7  C   UNL     1       2.878   3.531 -19.118  1.00  0.00     0.019 A 
ATOM      8  C   UNL     1       2.882   3.867 -17.765  1.00  0.00     0.094 A 
ATOM      9  C   UNL     1       2.888   2.842 -16.812  1.00  0.00     0.336 A 
ATOM     10  O   UNL     1       2.891   3.125 -15.586  1.00  0.00    -0.246 OA
ATOM     11  O   UNL     1       2.890   1.568 -17.194  1.00  0.00    -0.423 OA
ENDROOT
BRANCH   1  12
ATOM     12  O   UNL     1       2.875  -0.009 -22.515  1.00  0.00    -0.493 OA
ATOM     13  C   UNL     1       3.267   0.791 -23.626  1.00  0.00     0.278 C 
ENDBRANCH   1  12
BRANCH   2  14
ATOM     14  O   UNL     1       2.887  -1.893 -20.500  1.00  0.00    -0.504 OA
ATOM     15  H   UNL     1       2.622  -2.208 -21.426  1.00  0.00     0.293 HD
ENDBRANCH   2  14
TORSDOF 2
ENDMDL
MODEL 6
REMARK VINA RESULT:    -1.392      2.271      5.963
REMARK INTER + INTRA:          -1.559
REMARK INTER:                  -1.494
REMARK INTRA:                  -0.065
REMARK UNBOUND:                -0.046
REMARK SMILES COc1cc2ccc(=O)oc2cc1O
REMARK SMILES IDX 3 1 13 2 12 3 11 4 5 5 4 6 6 7 7 8 8 9 9 10 10 11 2 12 1 13
REMARK SMILES IDX 14 14
REMARK H PARENT 14 15
REMARK Flexibility Score: inf
ROOT
ATOM      1  C   UNL     1       2.935   1.633 -17.526  1.00  0.00     0.161 A 
ATOM      2  C   UNL     1       3.053   0.275 -17.192  1.00  0.00     0.161 A 
ATOM      3  C   UNL     1       3.110  -0.700 -18.197  1.00  0.00     0.098 A 
ATOM      4  C   UNL     1       3.051  -0.329 -19.543  1.00  0.00     0.142 A 
ATOM      5  C   UNL     1       2.932   1.034 -19.888  1.00  0.00     0.022 A 
ATOM      6  C   UNL     1       2.875   2.010 -18.884  1.00  0.00     0.062 A 
ATOM      7  C   UNL     1       2.875   1.374 -21.244  1.00  0.00     0.019 A 
ATOM      8  C   UNL     1       2.936   0.367 -22.207  1.00  0.00     0.094 A 
ATOM      9  C   UNL     1       3.053  -0.963 -21.789  1.00  0.00     0.336 A 
ATOM     10  O   UNL     1       3.110  -1.886 -22.642  1.00  0.00    -0.246 OA
ATOM     11  O   UNL     1       3.105  -1.259 -20.493  1.00  0.00    -0.423 OA
ENDROOT
BRANCH   1  12
ATOM     12  O   UNL     1       2.882   2.575 -16.487  1.00  0.00    -0.493 OA
ATOM     13  C   UNL     1       3.964   3.418 -16.106  1.00  0.00     0.278 C 
ENDBRANCH   1  12
BRANCH   2  14
ATOM     14  O   UNL     1       3.113  -0.099 -15.849  1.00  0.00    -0.504 OA
ATOM     15  H   UNL     1       3.627  -0.919 -15.550  1.00  0.00     0.293 HD
ENDBRANCH   2  14
TORSDOF 2
ENDMDL
