MODEL 1
REMARK VINA RESULT:     4.523      0.000      0.000
REMARK INTER + INTRA:           6.454
REMARK INTER:                   7.167
REMARK INTRA:                  -0.713
REMARK UNBOUND:                -0.713
REMARK SMILES CCCCCCCCCCCC(=O)[O-]
REMARK SMILES IDX 7 1 8 2 9 3 10 4 11 5 12 6 13 7 14 8 6 9 5 10 4 11 3 12 2 13
REMARK SMILES IDX 1 14
REMARK H PARENT
REMARK Flexibility Score: inf
ROOT
ATOM      1  C   UNL     1      27.873  44.304   3.784  1.00  0.00     0.000 C 
ENDROOT
BRANCH   1   2
ATOM      2  C   UNL     1      26.718  43.760   4.643  1.00  0.00     0.000 C 
BRANCH   2   3
ATOM      3  C   UNL     1      25.491  43.366   3.793  1.00  0.00     0.000 C 
BRANCH   3   4
ATOM      4  C   UNL     1      24.777  42.097   4.295  1.00  0.00     0.006 C 
BRANCH   4   5
ATOM      5  C   UNL     1      23.244  42.186   4.262  1.00  0.00     0.053 C 
BRANCH   5   6
ATOM      6  C   UNL     1      22.733  42.494   2.887  1.00  0.00     0.041 C 
ATOM      7  O   UNL     1      21.966  43.477   2.703  1.00  0.00    -0.550 OA
ATOM      8  O   UNL     1      23.083  41.687   1.813  1.00  0.00    -0.550 OA
ENDBRANCH   5   6
ENDBRANCH   4   5
ENDBRANCH   3   4
ENDBRANCH   2   3
ENDBRANCH   1   2
BRANCH   1   9
ATOM      9  C   UNL     1      28.302  45.720   4.198  1.00  0.00     0.000 C 
BRANCH   9  10
ATOM     10  C   UNL     1      27.207  46.463   4.981  1.00  0.00    -0.000 C 
BRANCH  10  11
ATOM     11  C   UNL     1      27.777  47.468   5.997  1.00  0.00    -0.000 C 
BRANCH  11  12
ATOM     12  C   UNL     1      27.085  47.412   7.376  1.00  0.00    -0.000 C 
BRANCH  12  13
ATOM     13  C   UNL     1      26.010  46.316   7.443  1.00  0.00    -0.003 C 
ATOM     14  C   UNL     1      24.653  46.900   7.821  1.00  0.00     0.004 C 
ENDBRANCH  12  13
ENDBRANCH  11  12
ENDBRANCH  10  11
ENDBRANCH   9  10
ENDBRANCH   1   9
TORSDOF 10
ENDMDL
MODEL 2
REMARK VINA RESULT:     5.132      2.765      6.012
REMARK INTER + INTRA:           7.419
REMARK INTER:                   7.321
REMARK INTRA:                   0.098
REMARK UNBOUND:                -0.713
REMARK SMILES CCCCCCCCCCCC(=O)[O-]
REMARK SMILES IDX 7 1 8 2 9 3 10 4 11 5 12 6 13 7 14 8 6 9 5 10 4 11 3 12 2 13
REMARK SMILES IDX 1 14
REMARK H PARENT
REMARK Flexibility Score: inf
ROOT
ATOM      1  C   UNL     1      27.716  44.248   3.680  1.00  0.00     0.000 C 
ENDROOT
BRANCH   1   2
ATOM      2  C   UNL     1      28.223  45.605   4.198  1.00  0.00     0.000 C 
BRANCH   2   3
ATOM      3  C   UNL     1      27.178  46.323   5.079  1.00  0.00     0.000 C 
BRANCH   3   4
ATOM      4  C   UNL     1      27.756  47.505   5.880  1.00  0.00     0.006 C 
BRANCH   4   5
ATOM      5  C   UNL     1      27.168  47.652   7.291  1.00  0.00     0.053 C 
BRANCH   5   6
ATOM      6  C   UNL     1      26.084  46.650   7.552  1.00  0.00     0.041 C 
ATOM      7  O   UNL     1      26.357  45.421   7.591  1.00  0.00    -0.550 OA
ATOM      8  O   UNL     1      24.773  47.069   7.731  1.00  0.00    -0.550 OA
ENDBRANCH   5   6
ENDBRANCH   4   5
ENDBRANCH   3   4
ENDBRANCH   2   3
ENDBRANCH   1   2
BRANCH   1   9
ATOM      9  C   UNL     1      26.509  43.725   4.475  1.00  0.00     0.000 C 
BRANCH   9  10
ATOM     10  C   UNL     1      25.398  43.174   3.566  1.00  0.00    -0.000 C 
BRANCH  10  11
ATOM     11  C   UNL     1      24.570  42.066   4.239  1.00  0.00    -0.000 C 
BRANCH  11  12
ATOM     12  C   UNL     1      23.059  42.378   4.305  1.00  0.00    -0.000 C 
BRANCH  12  13
ATOM     13  C   UNL     1      22.486  42.775   2.936  1.00  0.00    -0.003 C 
ATOM     14  C   UNL     1      22.813  41.725   1.878  1.00  0.00     0.004 C 
ENDBRANCH  12  13
ENDBRANCH  11  12
ENDBRANCH  10  11
ENDBRANCH   9  10
ENDBRANCH   1   9
TORSDOF 10
ENDMDL
MODEL 3
REMARK VINA RESULT:     5.465      3.990      6.274
REMARK INTER + INTRA:           7.947
REMARK INTER:                   8.363
REMARK INTRA:                  -0.417
REMARK UNBOUND:                -0.713
REMARK SMILES CCCCCCCCCCCC(=O)[O-]
REMARK SMILES IDX 7 1 8 2 9 3 10 4 11 5 12 6 13 7 14 8 6 9 5 10 4 11 3 12 2 13
REMARK SMILES IDX 1 14
REMARK H PARENT
REMARK Flexibility Score: inf
ROOT
ATOM      1  C   UNL     1      28.879  44.335   3.614  1.00  0.00     0.000 C 
ENDROOT
BRANCH   1   2
ATOM      2  C   UNL     1      29.366  44.706   2.202  1.00  0.00     0.000 C 
BRANCH   2   3
ATOM      3  C   UNL     1      29.292  43.512   1.225  1.00  0.00     0.000 C 
BRANCH   3   4
ATOM      4  C   UNL     1      30.396  43.527   0.150  1.00  0.00     0.006 C 
BRANCH   4   5
ATOM      5  C   UNL     1      30.362  42.321  -0.799  1.00  0.00     0.053 C 
BRANCH   5   6
ATOM      6  C   UNL     1      29.474  42.566  -1.982  1.00  0.00     0.041 C 
ATOM      7  O   UNL     1      28.490  41.810  -2.200  1.00  0.00    -0.550 OA
ATOM      8  O   UNL     1      29.743  43.612  -2.853  1.00  0.00    -0.550 OA
ENDBRANCH   5   6
ENDBRANCH   4   5
ENDBRANCH   3   4
ENDBRANCH   2   3
ENDBRANCH   1   2
BRANCH   1   9
ATOM      9  C   UNL     1      27.450  44.827   3.894  1.00  0.00     0.000 C 
BRANCH   9  10
ATOM     10  C   UNL     1      26.567  43.741   4.530  1.00  0.00    -0.000 C 
BRANCH  10  11
ATOM     11  C   UNL     1      25.491  43.207   3.568  1.00  0.00    -0.000 C 
BRANCH  11  12
ATOM     12  C   UNL     1      24.430  42.322   4.257  1.00  0.00    -0.000 C 
BRANCH  12  13
ATOM     13  C   UNL     1      23.067  42.391   3.551  1.00  0.00    -0.003 C 
ATOM     14  C   UNL     1      23.195  42.036   2.073  1.00  0.00     0.004 C 
ENDBRANCH  12  13
ENDBRANCH  11  12
ENDBRANCH  10  11
ENDBRANCH   9  10
ENDBRANCH   1   9
TORSDOF 10
ENDMDL
MODEL 4
REMARK VINA RESULT:     5.781      3.555      5.997
REMARK INTER + INTRA:           8.447
REMARK INTER:                   8.817
REMARK INTRA:                  -0.370
REMARK UNBOUND:                -0.713
REMARK SMILES CCCCCCCCCCCC(=O)[O-]
REMARK SMILES IDX 7 1 8 2 9 3 10 4 11 5 12 6 13 7 14 8 6 9 5 10 4 11 3 12 2 13
REMARK SMILES IDX 1 14
REMARK H PARENT
REMARK Flexibility Score: inf
ROOT
ATOM      1  C   UNL     1      28.872  44.500   3.487  1.00  0.00     0.000 C 
ENDROOT
BRANCH   1   2
ATOM      2  C   UNL     1      27.334  44.463   3.476  1.00  0.00     0.000 C 
BRANCH   2   3
ATOM      3  C   UNL     1      26.748  44.068   4.850  1.00  0.00     0.000 C 
BRANCH   3   4
ATOM      4  C   UNL     1      25.521  43.142   4.752  1.00  0.00     0.006 C 
BRANCH   4   5
ATOM      5  C   UNL     1      25.045  42.884   3.315  1.00  0.00     0.053 C 
BRANCH   5   6
ATOM      6  C   UNL     1      23.652  42.331   3.279  1.00  0.00     0.041 C 
ATOM      7  O   UNL     1      22.995  42.203   4.346  1.00  0.00    -0.550 OA
ATOM      8  O   UNL     1      23.086  41.938   2.074  1.00  0.00    -0.550 OA
ENDBRANCH   5   6
ENDBRANCH   4   5
ENDBRANCH   3   4
ENDBRANCH   2   3
ENDBRANCH   1   2
BRANCH   1   9
ATOM      9  C   UNL     1      29.468  44.689   2.083  1.00  0.00     0.000 C 
BRANCH   9  10
ATOM     10  C   UNL     1      29.582  43.366   1.307  1.00  0.00    -0.000 C 
BRANCH  10  11
ATOM     11  C   UNL     1      30.404  43.501   0.014  1.00  0.00    -0.000 C 
BRANCH  11  12
ATOM     12  C   UNL     1      30.094  42.409  -1.032  1.00  0.00    -0.000 C 
BRANCH  12  13
ATOM     13  C   UNL     1      29.758  43.002  -2.409  1.00  0.00    -0.003 C 
ATOM     14  C   UNL     1      28.870  42.057  -3.212  1.00  0.00     0.004 C 
ENDBRANCH  12  13
ENDBRANCH  11  12
ENDBRANCH  10  11
ENDBRANCH   9  10
ENDBRANCH   1   9
TORSDOF 10
ENDMDL
