MODEL 1
REMARK VINA RESULT:    -4.855      0.000      0.000
REMARK INTER + INTRA:          -7.135
REMARK INTER:                  -6.842
REMARK INTRA:                  -0.292
REMARK UNBOUND:                -0.292
REMARK SMILES CCCCCCCCC(=O)[O-]
REMARK SMILES IDX 6 1 7 2 8 3 9 4 10 5 11 6 5 7 4 8 3 9 2 10 1 11
REMARK H PARENT
REMARK Flexibility Score: inf
ROOT
ATOM      1  C   UNL     1      98.598 124.206 126.704  1.00  0.00     0.000 C 
ENDROOT
BRANCH   1   2
ATOM      2  C   UNL     1      98.708 122.702 126.407  1.00  0.00     0.006 C 
BRANCH   2   3
ATOM      3  C   UNL     1     100.161 122.218 126.322  1.00  0.00     0.053 C 
BRANCH   3   4
ATOM      4  C   UNL     1     100.219 120.725 126.402  1.00  0.00     0.041 C 
ATOM      5  O   UNL     1     100.423 120.156 127.506  1.00  0.00    -0.550 OA
ATOM      6  O   UNL     1     100.095 119.962 125.247  1.00  0.00    -0.550 OA
ENDBRANCH   3   4
ENDBRANCH   2   3
ENDBRANCH   1   2
BRANCH   1   7
ATOM      7  C   UNL     1      97.352 124.844 126.067  1.00  0.00     0.000 C 
BRANCH   7   8
ATOM      8  C   UNL     1      96.330 123.797 125.594  1.00  0.00    -0.000 C 
BRANCH   8   9
ATOM      9  C   UNL     1      95.778 124.098 124.189  1.00  0.00    -0.000 C 
BRANCH   9  10
ATOM     10  C   UNL     1      94.275 123.800 124.071  1.00  0.00    -0.003 C 
ATOM     11  C   UNL     1      93.803 122.744 125.069  1.00  0.00     0.004 C 
ENDBRANCH   9  10
ENDBRANCH   8   9
ENDBRANCH   7   8
ENDBRANCH   1   7
TORSDOF 7
ENDMDL
MODEL 2
REMARK VINA RESULT:    -4.846      3.228      5.742
REMARK INTER + INTRA:          -7.122
REMARK INTER:                  -6.898
REMARK INTRA:                  -0.223
REMARK UNBOUND:                -0.292
REMARK SMILES CCCCCCCCC(=O)[O-]
REMARK SMILES IDX 6 1 7 2 8 3 9 4 10 5 11 6 5 7 4 8 3 9 2 10 1 11
REMARK H PARENT
REMARK Flexibility Score: inf
ROOT
ATOM      1  C   UNL     1      97.268 124.699 125.892  1.00  0.00     0.000 C 
ENDROOT
BRANCH   1   2
ATOM      2  C   UNL     1      96.200 123.635 125.593  1.00  0.00     0.006 C 
BRANCH   2   3
ATOM      3  C   UNL     1      95.317 124.002 124.393  1.00  0.00     0.053 C 
BRANCH   3   4
ATOM      4  C   UNL     1      94.003 123.292 124.477  1.00  0.00     0.041 C 
ATOM      5  O   UNL     1      93.753 122.532 125.449  1.00  0.00    -0.550 OA
ATOM      6  O   UNL     1      93.071 123.433 123.456  1.00  0.00    -0.550 OA
ENDBRANCH   3   4
ENDBRANCH   2   3
ENDBRANCH   1   2
BRANCH   1   7
ATOM      7  C   UNL     1      98.522 124.105 126.556  1.00  0.00     0.000 C 
BRANCH   7   8
ATOM      8  C   UNL     1      98.584 122.573 126.435  1.00  0.00    -0.000 C 
BRANCH   8   9
ATOM      9  C   UNL     1     100.027 122.040 126.386  1.00  0.00    -0.000 C 
BRANCH   9  10
ATOM     10  C   UNL     1     100.115 120.549 126.748  1.00  0.00    -0.003 C 
ATOM     11  C   UNL     1     101.293 119.845 126.073  1.00  0.00     0.004 C 
ENDBRANCH   9  10
ENDBRANCH   8   9
ENDBRANCH   7   8
ENDBRANCH   1   7
TORSDOF 7
ENDMDL
MODEL 3
REMARK VINA RESULT:    -4.807      3.238      5.835
REMARK INTER + INTRA:          -7.066
REMARK INTER:                  -6.846
REMARK INTRA:                  -0.221
REMARK UNBOUND:                -0.292
REMARK SMILES CCCCCCCCC(=O)[O-]
REMARK SMILES IDX 6 1 7 2 8 3 9 4 10 5 11 6 5 7 4 8 3 9 2 10 1 11
REMARK H PARENT
REMARK Flexibility Score: inf
ROOT
ATOM      1  C   UNL     1      97.167 124.725 125.850  1.00  0.00     0.000 C 
ENDROOT
BRANCH   1   2
ATOM      2  C   UNL     1      96.135 123.640 125.504  1.00  0.00     0.006 C 
BRANCH   2   3
ATOM      3  C   UNL     1      95.262 124.014 124.300  1.00  0.00     0.053 C 
BRANCH   3   4
ATOM      4  C   UNL     1      93.953 123.292 124.361  1.00  0.00     0.041 C 
ATOM      5  O   UNL     1      93.100 123.448 123.448  1.00  0.00    -0.550 OA
ATOM      6  O   UNL     1      93.654 122.485 125.450  1.00  0.00    -0.550 OA
ENDBRANCH   3   4
ENDBRANCH   2   3
ENDBRANCH   1   2
BRANCH   1   7
ATOM      7  C   UNL     1      98.379 124.165 126.614  1.00  0.00     0.000 C 
BRANCH   7   8
ATOM      8  C   UNL     1      98.520 122.642 126.460  1.00  0.00    -0.000 C 
BRANCH   8   9
ATOM      9  C   UNL     1      99.989 122.182 126.431  1.00  0.00    -0.000 C 
BRANCH   9  10
ATOM     10  C   UNL     1     100.131 120.658 126.578  1.00  0.00    -0.003 C 
ATOM     11  C   UNL     1     101.513 120.152 126.169  1.00  0.00     0.004 C 
ENDBRANCH   9  10
ENDBRANCH   8   9
ENDBRANCH   7   8
ENDBRANCH   1   7
TORSDOF 7
ENDMDL
MODEL 4
REMARK VINA RESULT:    -4.418      1.584      2.508
REMARK INTER + INTRA:          -6.518
REMARK INTER:                  -6.248
REMARK INTRA:                  -0.270
REMARK UNBOUND:                -0.292
REMARK SMILES CCCCCCCCC(=O)[O-]
REMARK SMILES IDX 6 1 7 2 8 3 9 4 10 5 11 6 5 7 4 8 3 9 2 10 1 11
REMARK H PARENT
REMARK Flexibility Score: inf
ROOT
ATOM      1  C   UNL     1      96.632 124.588 124.948  1.00  0.00     0.000 C 
ENDROOT
BRANCH   1   2
ATOM      2  C   UNL     1      97.125 123.750 126.138  1.00  0.00     0.006 C 
BRANCH   2   3
ATOM      3  C   UNL     1      98.574 124.070 126.528  1.00  0.00     0.053 C 
BRANCH   3   4
ATOM      4  C   UNL     1      99.399 122.822 126.537  1.00  0.00     0.041 C 
ATOM      5  O   UNL     1     100.629 122.873 126.275  1.00  0.00    -0.550 OA
ATOM      6  O   UNL     1      98.800 121.593 126.786  1.00  0.00    -0.550 OA
ENDBRANCH   3   4
ENDBRANCH   2   3
ENDBRANCH   1   2
BRANCH   1   7
ATOM      7  C   UNL     1      95.401 123.971 124.261  1.00  0.00     0.000 C 
BRANCH   7   8
ATOM      8  C   UNL     1      94.650 122.986 125.172  1.00  0.00    -0.000 C 
BRANCH   8   9
ATOM      9  C   UNL     1      93.174 122.815 124.771  1.00  0.00    -0.000 C 
BRANCH   9  10
ATOM     10  C   UNL     1      92.828 123.554 123.469  1.00  0.00    -0.003 C 
ATOM     11  C   UNL     1      92.798 122.627 122.254  1.00  0.00     0.004 C 
ENDBRANCH   9  10
ENDBRANCH   8   9
ENDBRANCH   7   8
ENDBRANCH   1   7
TORSDOF 7
ENDMDL
MODEL 5
REMARK VINA RESULT:    -4.200      2.398      3.704
REMARK INTER + INTRA:          -6.210
REMARK INTER:                  -5.920
REMARK INTRA:                  -0.290
REMARK UNBOUND:                -0.292
REMARK SMILES CCCCCCCCC(=O)[O-]
REMARK SMILES IDX 6 1 7 2 8 3 9 4 10 5 11 6 5 7 4 8 3 9 2 10 1 11
REMARK H PARENT
REMARK Flexibility Score: inf
ROOT
ATOM      1  C   UNL     1      95.304 123.930 124.146  1.00  0.00     0.000 C 
ENDROOT
BRANCH   1   2
ATOM      2  C   UNL     1      96.511 124.296 125.025  1.00  0.00     0.006 C 
BRANCH   2   3
ATOM      3  C   UNL     1      96.723 123.311 126.182  1.00  0.00     0.053 C 
BRANCH   3   4
ATOM      4  C   UNL     1      98.184 123.102 126.427  1.00  0.00     0.041 C 
ATOM      5  O   UNL     1      98.650 121.936 126.525  1.00  0.00    -0.550 OA
ATOM      6  O   UNL     1      99.024 124.195 126.597  1.00  0.00    -0.550 OA
ENDBRANCH   3   4
ENDBRANCH   2   3
ENDBRANCH   1   2
BRANCH   1   7
ATOM      7  C   UNL     1      94.259 123.090 124.900  1.00  0.00     0.000 C 
BRANCH   7   8
ATOM      8  C   UNL     1      92.890 123.087 124.201  1.00  0.00    -0.000 C 
BRANCH   8   9
ATOM      9  C   UNL     1      92.994 123.362 122.690  1.00  0.00    -0.000 C 
BRANCH   9  10
ATOM     10  C   UNL     1      92.632 122.133 121.842  1.00  0.00    -0.003 C 
ATOM     11  C   UNL     1      92.578 122.442 120.346  1.00  0.00     0.004 C 
ENDBRANCH   9  10
ENDBRANCH   8   9
ENDBRANCH   7   8
ENDBRANCH   1   7
TORSDOF 7
ENDMDL
MODEL 6
REMARK VINA RESULT:    -4.180      3.687      5.885
REMARK INTER + INTRA:          -6.183
REMARK INTER:                  -5.937
REMARK INTRA:                  -0.246
REMARK UNBOUND:                -0.292
REMARK SMILES CCCCCCCCC(=O)[O-]
REMARK SMILES IDX 6 1 7 2 8 3 9 4 10 5 11 6 5 7 4 8 3 9 2 10 1 11
REMARK H PARENT
REMARK Flexibility Score: inf
ROOT
ATOM      1  C   UNL     1      96.740 123.980 124.774  1.00  0.00     0.000 C 
ENDROOT
BRANCH   1   2
ATOM      2  C   UNL     1      95.269 123.623 125.040  1.00  0.00     0.006 C 
BRANCH   2   3
ATOM      3  C   UNL     1      94.329 124.125 123.937  1.00  0.00     0.053 C 
BRANCH   3   4
ATOM      4  C   UNL     1      93.123 123.244 123.839  1.00  0.00     0.041 C 
ATOM      5  O   UNL     1      92.477 122.937 124.875  1.00  0.00    -0.550 OA
ATOM      6  O   UNL     1      92.740 122.722 122.610  1.00  0.00    -0.550 OA
ENDBRANCH   3   4
ENDBRANCH   2   3
ENDBRANCH   1   2
BRANCH   1   7
ATOM      7  C   UNL     1      97.317 124.932 125.835  1.00  0.00     0.000 C 
BRANCH   7   8
ATOM      8  C   UNL     1      98.318 124.236 126.771  1.00  0.00    -0.000 C 
BRANCH   8   9
ATOM      9  C   UNL     1      98.503 122.744 126.438  1.00  0.00    -0.000 C 
BRANCH   9  10
ATOM     10  C   UNL     1      99.981 122.325 126.417  1.00  0.00    -0.003 C 
ATOM     11  C   UNL     1     100.165 120.808 126.401  1.00  0.00     0.004 C 
ENDBRANCH   9  10
ENDBRANCH   8   9
ENDBRANCH   7   8
ENDBRANCH   1   7
TORSDOF 7
ENDMDL
MODEL 7
REMARK VINA RESULT:    -4.125      4.388      6.839
REMARK INTER + INTRA:          -6.105
REMARK INTER:                  -5.821
REMARK INTRA:                  -0.285
REMARK UNBOUND:                -0.292
REMARK SMILES CCCCCCCCC(=O)[O-]
REMARK SMILES IDX 6 1 7 2 8 3 9 4 10 5 11 6 5 7 4 8 3 9 2 10 1 11
REMARK H PARENT
REMARK Flexibility Score: inf
ROOT
ATOM      1  C   UNL     1      93.094 123.006 124.186  1.00  0.00     0.000 C 
ENDROOT
BRANCH   1   2
ATOM      2  C   UNL     1      93.193 123.189 122.663  1.00  0.00     0.006 C 
BRANCH   2   3
ATOM      3  C   UNL     1      92.410 122.123 121.886  1.00  0.00     0.053 C 
BRANCH   3   4
ATOM      4  C   UNL     1      92.796 122.144 120.440  1.00  0.00     0.041 C 
ATOM      5  O   UNL     1      93.817 121.521 120.047  1.00  0.00    -0.550 OA
ATOM      6  O   UNL     1      92.055 122.891 119.534  1.00  0.00    -0.550 OA
ENDBRANCH   3   4
ENDBRANCH   2   3
ENDBRANCH   1   2
BRANCH   1   7
ATOM      7  C   UNL     1      94.432 123.267 124.900  1.00  0.00     0.000 C 
BRANCH   7   8
ATOM      8  C   UNL     1      95.420 124.058 124.027  1.00  0.00    -0.000 C 
BRANCH   8   9
ATOM      9  C   UNL     1      96.627 124.584 124.826  1.00  0.00    -0.000 C 
BRANCH   9  10
ATOM     10  C   UNL     1      96.909 123.748 126.085  1.00  0.00    -0.003 C 
ATOM     11  C   UNL     1      98.364 123.843 126.542  1.00  0.00     0.004 C 
ENDBRANCH   9  10
ENDBRANCH   8   9
ENDBRANCH   7   8
ENDBRANCH   1   7
TORSDOF 7
ENDMDL
MODEL 8
REMARK VINA RESULT:    -3.827     13.682     14.906
REMARK INTER + INTRA:          -5.685
REMARK INTER:                  -5.307
REMARK INTRA:                  -0.378
REMARK UNBOUND:                -0.292
REMARK SMILES CCCCCCCCC(=O)[O-]
REMARK SMILES IDX 6 1 7 2 8 3 9 4 10 5 11 6 5 7 4 8 3 9 2 10 1 11
REMARK H PARENT
REMARK Flexibility Score: inf
ROOT
ATOM      1  C   UNL     1      84.502 122.714 124.918  1.00  0.00     0.000 C 
ENDROOT
BRANCH   1   2
ATOM      2  C   UNL     1      83.622 123.952 125.152  1.00  0.00     0.006 C 
BRANCH   2   3
ATOM      3  C   UNL     1      83.113 124.052 126.596  1.00  0.00     0.053 C 
BRANCH   3   4
ATOM      4  C   UNL     1      84.257 124.258 127.539  1.00  0.00     0.041 C 
ATOM      5  O   UNL     1      84.982 125.282 127.442  1.00  0.00    -0.550 OA
ATOM      6  O   UNL     1      84.552 123.294 128.494  1.00  0.00    -0.550 OA
ENDBRANCH   3   4
ENDBRANCH   2   3
ENDBRANCH   1   2
BRANCH   1   7
ATOM      7  C   UNL     1      83.675 121.448 124.635  1.00  0.00     0.000 C 
BRANCH   7   8
ATOM      8  C   UNL     1      82.609 121.670 123.551  1.00  0.00    -0.000 C 
BRANCH   8   9
ATOM      9  C   UNL     1      81.875 120.372 123.164  1.00  0.00    -0.000 C 
BRANCH   9  10
ATOM     10  C   UNL     1      82.233 119.894 121.748  1.00  0.00    -0.003 C 
ATOM     11  C   UNL     1      82.568 121.047 120.803  1.00  0.00     0.004 C 
ENDBRANCH   9  10
ENDBRANCH   8   9
ENDBRANCH   7   8
ENDBRANCH   1   7
TORSDOF 7
ENDMDL
MODEL 9
REMARK VINA RESULT:    -3.728     13.470     14.956
REMARK INTER + INTRA:          -5.546
REMARK INTER:                  -5.140
REMARK INTRA:                  -0.406
REMARK UNBOUND:                -0.292
REMARK SMILES CCCCCCCCC(=O)[O-]
REMARK SMILES IDX 6 1 7 2 8 3 9 4 10 5 11 6 5 7 4 8 3 9 2 10 1 11
REMARK H PARENT
REMARK Flexibility Score: inf
ROOT
ATOM      1  C   UNL     1      84.371 121.795 124.822  1.00  0.00     0.000 C 
ENDROOT
BRANCH   1   2
ATOM      2  C   UNL     1      83.178 120.971 124.311  1.00  0.00     0.006 C 
BRANCH   2   3
ATOM      3  C   UNL     1      82.471 121.629 123.120  1.00  0.00     0.053 C 
BRANCH   3   4
ATOM      4  C   UNL     1      82.512 120.727 121.927  1.00  0.00     0.041 C 
ATOM      5  O   UNL     1      82.601 119.480 122.077  1.00  0.00    -0.550 OA
ATOM      6  O   UNL     1      82.503 121.267 120.647  1.00  0.00    -0.550 OA
ENDBRANCH   3   4
ENDBRANCH   2   3
ENDBRANCH   1   2
BRANCH   1   7
ATOM      7  C   UNL     1      84.048 123.295 124.933  1.00  0.00     0.000 C 
BRANCH   7   8
ATOM      8  C   UNL     1      83.384 123.657 126.272  1.00  0.00    -0.000 C 
BRANCH   8   9
ATOM      9  C   UNL     1      84.301 124.496 127.181  1.00  0.00    -0.000 C 
BRANCH   9  10
ATOM     10  C   UNL     1      85.560 123.729 127.615  1.00  0.00    -0.003 C 
ATOM     11  C   UNL     1      85.239 122.505 128.472  1.00  0.00     0.004 C 
ENDBRANCH   9  10
ENDBRANCH   8   9
ENDBRANCH   7   8
ENDBRANCH   1   7
TORSDOF 7
ENDMDL
