MODEL 1
REMARK VINA RESULT:    -3.448      0.000      0.000
REMARK INTER + INTRA:          -4.176
REMARK INTER:                  -4.053
REMARK INTRA:                  -0.123
REMARK UNBOUND:                -0.123
REMARK SMILES CCCCC(=O)[O-]
REMARK SMILES IDX 4 1 5 2 6 3 7 4 3 5 2 6 1 7
REMARK H PARENT
REMARK Flexibility Score: inf
ROOT
ATOM      1  C   UNL     1      54.550  46.096  11.771  1.00  0.00     0.053 C 
ENDROOT
BRANCH   1   2
ATOM      2  C   UNL     1      54.653  44.626  12.025  1.00  0.00     0.041 C 
ATOM      3  O   UNL     1      54.617  43.813  11.064  1.00  0.00    -0.550 OA
ATOM      4  O   UNL     1      54.741  44.149  13.327  1.00  0.00    -0.550 OA
ENDBRANCH   1   2
BRANCH   1   5
ATOM      5  C   UNL     1      53.233  46.646  12.335  1.00  0.00     0.006 C 
BRANCH   5   6
ATOM      6  C   UNL     1      52.001  46.086  11.609  1.00  0.00    -0.003 C 
ATOM      7  C   UNL     1      51.929  46.523  10.146  1.00  0.00     0.004 C 
ENDBRANCH   5   6
ENDBRANCH   1   5
TORSDOF 3
ENDMDL
MODEL 2
REMARK VINA RESULT:    -3.378      2.286      3.396
REMARK INTER + INTRA:          -4.093
REMARK INTER:                  -3.960
REMARK INTRA:                  -0.133
REMARK UNBOUND:                -0.123
REMARK SMILES CCCCC(=O)[O-]
REMARK SMILES IDX 4 1 5 2 6 3 7 4 3 5 2 6 1 7
REMARK H PARENT
REMARK Flexibility Score: inf
ROOT
ATOM      1  C   UNL     1      53.531  46.481  12.054  1.00  0.00     0.053 C 
ENDROOT
BRANCH   1   2
ATOM      2  C   UNL     1      52.192  46.270  11.421  1.00  0.00     0.041 C 
ATOM      3  O   UNL     1      51.167  46.133  12.139  1.00  0.00    -0.550 OA
ATOM      4  O   UNL     1      52.083  46.177  10.040  1.00  0.00    -0.550 OA
ENDBRANCH   1   2
BRANCH   1   5
ATOM      5  C   UNL     1      54.594  45.621  11.358  1.00  0.00     0.006 C 
BRANCH   5   6
ATOM      6  C   UNL     1      54.493  44.136  11.735  1.00  0.00    -0.003 C 
ATOM      7  C   UNL     1      54.189  43.241  10.534  1.00  0.00     0.004 C 
ENDBRANCH   5   6
ENDBRANCH   1   5
TORSDOF 3
ENDMDL
MODEL 3
REMARK VINA RESULT:    -3.352      1.503      1.710
REMARK INTER + INTRA:          -4.062
REMARK INTER:                  -3.948
REMARK INTRA:                  -0.115
REMARK UNBOUND:                -0.123
REMARK SMILES CCCCC(=O)[O-]
REMARK SMILES IDX 4 1 5 2 6 3 7 4 3 5 2 6 1 7
REMARK H PARENT
REMARK Flexibility Score: inf
ROOT
ATOM      1  C   UNL     1      54.307  44.596  12.217  1.00  0.00     0.053 C 
ENDROOT
BRANCH   1   2
ATOM      2  C   UNL     1      54.263  44.080  10.813  1.00  0.00     0.041 C 
ATOM      3  O   UNL     1      54.283  44.882   9.843  1.00  0.00    -0.550 OA
ATOM      4  O   UNL     1      54.150  42.716  10.577  1.00  0.00    -0.550 OA
ENDBRANCH   1   2
BRANCH   1   5
ATOM      5  C   UNL     1      53.750  46.024  12.281  1.00  0.00     0.006 C 
BRANCH   5   6
ATOM      6  C   UNL     1      52.235  46.057  12.529  1.00  0.00    -0.003 C 
ATOM      7  C   UNL     1      51.461  46.696  11.376  1.00  0.00     0.004 C 
ENDBRANCH   5   6
ENDBRANCH   1   5
TORSDOF 3
ENDMDL
MODEL 4
REMARK VINA RESULT:    -3.339     13.650     14.258
REMARK INTER + INTRA:          -4.048
REMARK INTER:                  -4.010
REMARK INTRA:                  -0.038
REMARK UNBOUND:                -0.123
REMARK SMILES CCCCC(=O)[O-]
REMARK SMILES IDX 4 1 5 2 6 3 7 4 3 5 2 6 1 7
REMARK H PARENT
REMARK Flexibility Score: inf
ROOT
ATOM      1  C   UNL     1      49.631  32.585   6.062  1.00  0.00     0.053 C 
ENDROOT
BRANCH   1   2
ATOM      2  C   UNL     1      49.213  33.349   7.278  1.00  0.00     0.041 C 
ATOM      3  O   UNL     1      48.382  32.853   8.084  1.00  0.00    -0.550 OA
ATOM      4  O   UNL     1      49.703  34.631   7.496  1.00  0.00    -0.550 OA
ENDBRANCH   1   2
BRANCH   1   5
ATOM      5  C   UNL     1      49.561  33.478   4.817  1.00  0.00     0.006 C 
BRANCH   5   6
ATOM      6  C   UNL     1      50.833  33.397   3.960  1.00  0.00    -0.003 C 
ATOM      7  C   UNL     1      50.589  33.793   2.503  1.00  0.00     0.004 C 
ENDBRANCH   5   6
ENDBRANCH   1   5
TORSDOF 3
ENDMDL
MODEL 5
REMARK VINA RESULT:    -3.324     14.507     15.221
REMARK INTER + INTRA:          -4.030
REMARK INTER:                  -3.999
REMARK INTRA:                  -0.031
REMARK UNBOUND:                -0.123
REMARK SMILES CCCCC(=O)[O-]
REMARK SMILES IDX 4 1 5 2 6 3 7 4 3 5 2 6 1 7
REMARK H PARENT
REMARK Flexibility Score: inf
ROOT
ATOM      1  C   UNL     1      50.358  33.747   3.658  1.00  0.00     0.053 C 
ENDROOT
BRANCH   1   2
ATOM      2  C   UNL     1      50.657  33.707   2.193  1.00  0.00     0.041 C 
ATOM      3  O   UNL     1      49.727  33.830   1.353  1.00  0.00    -0.550 OA
ATOM      4  O   UNL     1      51.956  33.484   1.754  1.00  0.00    -0.550 OA
ENDBRANCH   1   2
BRANCH   1   5
ATOM      5  C   UNL     1      51.131  32.645   4.393  1.00  0.00     0.006 C 
BRANCH   5   6
ATOM      6  C   UNL     1      50.570  32.365   5.795  1.00  0.00    -0.003 C 
ATOM      7  C   UNL     1      49.541  33.405   6.238  1.00  0.00     0.004 C 
ENDBRANCH   5   6
ENDBRANCH   1   5
TORSDOF 3
ENDMDL
MODEL 6
REMARK VINA RESULT:    -3.287     14.493     14.850
REMARK INTER + INTRA:          -3.987
REMARK INTER:                  -3.964
REMARK INTRA:                  -0.023
REMARK UNBOUND:                -0.123
REMARK SMILES CCCCC(=O)[O-]
REMARK SMILES IDX 4 1 5 2 6 3 7 4 3 5 2 6 1 7
REMARK H PARENT
REMARK Flexibility Score: inf
ROOT
ATOM      1  C   UNL     1      49.609  33.416   4.897  1.00  0.00     0.053 C 
ENDROOT
BRANCH   1   2
ATOM      2  C   UNL     1      49.906  32.670   6.160  1.00  0.00     0.041 C 
ATOM      3  O   UNL     1      51.035  32.140   6.331  1.00  0.00    -0.550 OA
ATOM      4  O   UNL     1      48.920  32.519   7.126  1.00  0.00    -0.550 OA
ENDBRANCH   1   2
BRANCH   1   5
ATOM      5  C   UNL     1      50.838  33.425   3.979  1.00  0.00     0.006 C 
BRANCH   5   6
ATOM      6  C   UNL     1      50.494  33.822   2.536  1.00  0.00    -0.003 C 
ATOM      7  C   UNL     1      51.561  33.382   1.533  1.00  0.00     0.004 C 
ENDBRANCH   5   6
ENDBRANCH   1   5
TORSDOF 3
ENDMDL
MODEL 7
REMARK VINA RESULT:    -3.270     12.863     14.209
REMARK INTER + INTRA:          -3.966
REMARK INTER:                  -3.920
REMARK INTRA:                  -0.046
REMARK UNBOUND:                -0.123
REMARK SMILES CCCCC(=O)[O-]
REMARK SMILES IDX 4 1 5 2 6 3 7 4 3 5 2 6 1 7
REMARK H PARENT
REMARK Flexibility Score: inf
ROOT
ATOM      1  C   UNL     1      47.112  51.410   1.691  1.00  0.00     0.053 C 
ENDROOT
BRANCH   1   2
ATOM      2  C   UNL     1      45.739  51.024   1.242  1.00  0.00     0.041 C 
ATOM      3  O   UNL     1      45.083  50.160   1.881  1.00  0.00    -0.550 OA
ATOM      4  O   UNL     1      45.202  51.581   0.088  1.00  0.00    -0.550 OA
ENDBRANCH   1   2
BRANCH   1   5
ATOM      5  C   UNL     1      47.866  52.122   0.561  1.00  0.00     0.006 C 
BRANCH   5   6
ATOM      6  C   UNL     1      49.365  51.790   0.549  1.00  0.00    -0.003 C 
ATOM      7  C   UNL     1      49.762  50.814   1.656  1.00  0.00     0.004 C 
ENDBRANCH   5   6
ENDBRANCH   1   5
TORSDOF 3
ENDMDL
MODEL 8
REMARK VINA RESULT:    -3.235     11.812     12.952
REMARK INTER + INTRA:          -3.924
REMARK INTER:                  -3.893
REMARK INTRA:                  -0.031
REMARK UNBOUND:                -0.123
REMARK SMILES CCCCC(=O)[O-]
REMARK SMILES IDX 4 1 5 2 6 3 7 4 3 5 2 6 1 7
REMARK H PARENT
REMARK Flexibility Score: inf
ROOT
ATOM      1  C   UNL     1      48.705  50.947   1.726  1.00  0.00     0.053 C 
ENDROOT
BRANCH   1   2
ATOM      2  C   UNL     1      50.199  50.966   1.662  1.00  0.00     0.041 C 
ATOM      3  O   UNL     1      50.785  50.988   0.547  1.00  0.00    -0.550 OA
ATOM      4  O   UNL     1      50.946  50.911   2.831  1.00  0.00    -0.550 OA
ENDBRANCH   1   2
BRANCH   1   5
ATOM      5  C   UNL     1      48.109  51.800   0.598  1.00  0.00     0.006 C 
BRANCH   5   6
ATOM      6  C   UNL     1      46.585  51.950   0.713  1.00  0.00    -0.003 C 
ATOM      7  C   UNL     1      45.947  50.859   1.573  1.00  0.00     0.004 C 
ENDBRANCH   5   6
ENDBRANCH   1   5
TORSDOF 3
ENDMDL
MODEL 9
REMARK VINA RESULT:    -3.209     13.303     14.001
REMARK INTER + INTRA:          -3.894
REMARK INTER:                  -3.842
REMARK INTRA:                  -0.052
REMARK UNBOUND:                -0.123
REMARK SMILES CCCCC(=O)[O-]
REMARK SMILES IDX 4 1 5 2 6 3 7 4 3 5 2 6 1 7
REMARK H PARENT
REMARK Flexibility Score: inf
ROOT
ATOM      1  C   UNL     1      49.391  33.777   5.597  1.00  0.00     0.053 C 
ENDROOT
BRANCH   1   2
ATOM      2  C   UNL     1      50.422  33.279   4.634  1.00  0.00     0.041 C 
ATOM      3  O   UNL     1      50.521  33.796   3.490  1.00  0.00    -0.550 OA
ATOM      4  O   UNL     1      51.240  32.212   4.981  1.00  0.00    -0.550 OA
ENDBRANCH   1   2
BRANCH   1   5
ATOM      5  C   UNL     1      49.322  32.863   6.827  1.00  0.00     0.006 C 
BRANCH   5   6
ATOM      6  C   UNL     1      49.015  33.634   8.120  1.00  0.00    -0.003 C 
ATOM      7  C   UNL     1      49.927  34.845   8.316  1.00  0.00     0.004 C 
ENDBRANCH   5   6
ENDBRANCH   1   5
TORSDOF 3
ENDMDL
