MODEL 1
REMARK VINA RESULT:    -3.637      0.000      0.000
REMARK INTER + INTRA:          -5.742
REMARK INTER:                  -4.913
REMARK INTRA:                  -0.829
REMARK UNBOUND:                -0.829
REMARK SMILES CCCCCCC=CC(=O)[O-]
REMARK SMILES IDX 5 1 6 2 7 3 8 4 9 5 10 6 11 7 4 8 3 9 2 10 1 11
REMARK H PARENT
REMARK Flexibility Score: inf
ROOT
ATOM      1  C   UNL     1       8.772  -3.750 -14.078  1.00  0.00     0.004 C 
ENDROOT
BRANCH   1   2
ATOM      2  C   UNL     1       8.165  -4.784 -13.117  1.00  0.00     0.027 C 
BRANCH   2   3
ATOM      3  C   UNL     1       8.762  -4.665 -11.740  1.00  0.00    -0.025 C 
ATOM      4  C   UNL     1       8.148  -4.162 -10.656  1.00  0.00     0.020 C 
BRANCH   4   5
ATOM      5  C   UNL     1       6.762  -3.652 -10.584  1.00  0.00     0.064 C 
ATOM      6  O   UNL     1       5.850  -4.272  -9.980  1.00  0.00    -0.545 OA
ATOM      7  O   UNL     1       6.463  -2.438 -11.191  1.00  0.00    -0.545 OA
ENDBRANCH   4   5
ENDBRANCH   2   3
ENDBRANCH   1   2
BRANCH   1   8
ATOM      8  C   UNL     1      10.255  -3.466 -13.784  1.00  0.00     0.000 C 
BRANCH   8   9
ATOM      9  C   UNL     1      10.612  -1.976 -13.611  1.00  0.00    -0.000 C 
BRANCH   9  10
ATOM     10  C   UNL     1       9.547  -1.133 -12.887  1.00  0.00    -0.003 C 
ATOM     11  C   UNL     1       9.780  -1.045 -11.380  1.00  0.00     0.004 C 
ENDBRANCH   9  10
ENDBRANCH   8   9
ENDBRANCH   1   8
TORSDOF 6
ENDMDL
MODEL 2
REMARK VINA RESULT:    -3.513      1.941      3.408
REMARK INTER + INTRA:          -5.574
REMARK INTER:                  -5.030
REMARK INTRA:                  -0.544
REMARK UNBOUND:                -0.829
REMARK SMILES CCCCCCC=CC(=O)[O-]
REMARK SMILES IDX 5 1 6 2 7 3 8 4 9 5 10 6 11 7 4 8 3 9 2 10 1 11
REMARK H PARENT
REMARK Flexibility Score: inf
ROOT
ATOM      1  C   UNL     1       8.761  -3.732 -14.038  1.00  0.00     0.004 C 
ENDROOT
BRANCH   1   2
ATOM      2  C   UNL     1       7.367  -4.144 -13.540  1.00  0.00     0.027 C 
BRANCH   2   3
ATOM      3  C   UNL     1       6.611  -2.961 -12.998  1.00  0.00    -0.025 C 
ATOM      4  C   UNL     1       6.325  -2.734 -11.704  1.00  0.00     0.020 C 
BRANCH   4   5
ATOM      5  C   UNL     1       6.715  -3.576 -10.554  1.00  0.00     0.064 C 
ATOM      6  O   UNL     1       5.891  -4.307  -9.948  1.00  0.00    -0.545 OA
ATOM      7  O   UNL     1       8.042  -3.571 -10.140  1.00  0.00    -0.545 OA
ENDBRANCH   4   5
ENDBRANCH   2   3
ENDBRANCH   1   2
BRANCH   1   8
ATOM      8  C   UNL     1       9.895  -4.300 -13.165  1.00  0.00     0.000 C 
BRANCH   8   9
ATOM      9  C   UNL     1       9.710  -5.768 -12.731  1.00  0.00    -0.000 C 
BRANCH   9  10
ATOM     10  C   UNL     1      10.145  -6.813 -13.774  1.00  0.00    -0.003 C 
ATOM     11  C   UNL     1       9.374  -8.126 -13.659  1.00  0.00     0.004 C 
ENDBRANCH   9  10
ENDBRANCH   8   9
ENDBRANCH   1   8
TORSDOF 6
ENDMDL
MODEL 3
REMARK VINA RESULT:    -3.511      2.394      3.652
REMARK INTER + INTRA:          -5.572
REMARK INTER:                  -4.893
REMARK INTRA:                  -0.679
REMARK UNBOUND:                -0.829
REMARK SMILES CCCCCCC=CC(=O)[O-]
REMARK SMILES IDX 5 1 6 2 7 3 8 4 9 5 10 6 11 7 4 8 3 9 2 10 1 11
REMARK H PARENT
REMARK Flexibility Score: inf
ROOT
ATOM      1  C   UNL     1       8.186  -0.034 -12.680  1.00  0.00     0.004 C 
ENDROOT
BRANCH   1   2
ATOM      2  C   UNL     1       8.715  -1.473 -12.572  1.00  0.00     0.027 C 
BRANCH   2   3
ATOM      3  C   UNL     1       9.043  -1.827 -11.146  1.00  0.00    -0.025 C 
ATOM      4  C   UNL     1       8.534  -2.859 -10.453  1.00  0.00     0.020 C 
BRANCH   4   5
ATOM      5  C   UNL     1       7.577  -3.870 -10.951  1.00  0.00     0.064 C 
ATOM      6  O   UNL     1       6.392  -3.934 -10.535  1.00  0.00    -0.545 OA
ATOM      7  O   UNL     1       7.998  -4.768 -11.925  1.00  0.00    -0.545 OA
ENDBRANCH   4   5
ENDBRANCH   2   3
ENDBRANCH   1   2
BRANCH   1   8
ATOM      8  C   UNL     1       6.762   0.033 -13.258  1.00  0.00     0.000 C 
BRANCH   8   9
ATOM      9  C   UNL     1       5.856  -1.163 -12.901  1.00  0.00    -0.000 C 
BRANCH   9  10
ATOM     10  C   UNL     1       5.270  -1.917 -14.107  1.00  0.00    -0.003 C 
ATOM     11  C   UNL     1       5.695  -3.383 -14.158  1.00  0.00     0.004 C 
ENDBRANCH   9  10
ENDBRANCH   8   9
ENDBRANCH   1   8
TORSDOF 6
ENDMDL
MODEL 4
REMARK VINA RESULT:    -3.483      1.989      2.824
REMARK INTER + INTRA:          -5.534
REMARK INTER:                  -4.709
REMARK INTRA:                  -0.825
REMARK UNBOUND:                -0.829
REMARK SMILES CCCCCCC=CC(=O)[O-]
REMARK SMILES IDX 5 1 6 2 7 3 8 4 9 5 10 6 11 7 4 8 3 9 2 10 1 11
REMARK H PARENT
REMARK Flexibility Score: inf
ROOT
ATOM      1  C   UNL     1       6.131  -0.525 -13.252  1.00  0.00     0.004 C 
ENDROOT
BRANCH   1   2
ATOM      2  C   UNL     1       5.835  -1.780 -12.416  1.00  0.00     0.027 C 
BRANCH   2   3
ATOM      3  C   UNL     1       6.686  -2.941 -12.858  1.00  0.00    -0.025 C 
ATOM      4  C   UNL     1       7.347  -3.786 -12.049  1.00  0.00     0.020 C 
BRANCH   4   5
ATOM      5  C   UNL     1       7.353  -3.770 -10.571  1.00  0.00     0.064 C 
ATOM      6  O   UNL     1       8.289  -3.253  -9.910  1.00  0.00    -0.545 OA
ATOM      7  O   UNL     1       6.278  -4.329  -9.891  1.00  0.00    -0.545 OA
ENDBRANCH   4   5
ENDBRANCH   2   3
ENDBRANCH   1   2
BRANCH   1   8
ATOM      8  C   UNL     1       7.617  -0.399 -13.630  1.00  0.00     0.000 C 
BRANCH   8   9
ATOM      9  C   UNL     1       8.498   0.311 -12.583  1.00  0.00    -0.000 C 
BRANCH   9  10
ATOM     10  C   UNL     1       9.433  -0.615 -11.785  1.00  0.00    -0.003 C 
ATOM     11  C   UNL     1      10.245  -1.554 -12.675  1.00  0.00     0.004 C 
ENDBRANCH   9  10
ENDBRANCH   8   9
ENDBRANCH   1   8
TORSDOF 6
ENDMDL
MODEL 5
REMARK VINA RESULT:    -3.438     15.790     17.876
REMARK INTER + INTRA:          -5.472
REMARK INTER:                  -4.719
REMARK INTRA:                  -0.753
REMARK UNBOUND:                -0.829
REMARK SMILES CCCCCCC=CC(=O)[O-]
REMARK SMILES IDX 5 1 6 2 7 3 8 4 9 5 10 6 11 7 4 8 3 9 2 10 1 11
REMARK H PARENT
REMARK Flexibility Score: inf
ROOT
ATOM      1  C   UNL     1      -5.344   7.675  -4.483  1.00  0.00     0.004 C 
ENDROOT
BRANCH   1   2
ATOM      2  C   UNL     1      -4.471   7.893  -5.729  1.00  0.00     0.027 C 
BRANCH   2   3
ATOM      3  C   UNL     1      -5.149   7.369  -6.967  1.00  0.00    -0.025 C 
ATOM      4  C   UNL     1      -4.664   6.426  -7.792  1.00  0.00     0.020 C 
BRANCH   4   5
ATOM      5  C   UNL     1      -3.389   5.692  -7.640  1.00  0.00     0.064 C 
ATOM      6  O   UNL     1      -2.401   5.903  -8.388  1.00  0.00    -0.545 OA
ATOM      7  O   UNL     1      -3.276   4.750  -6.625  1.00  0.00    -0.545 OA
ENDBRANCH   4   5
ENDBRANCH   2   3
ENDBRANCH   1   2
BRANCH   1   8
ATOM      8  C   UNL     1      -4.781   6.592  -3.547  1.00  0.00     0.000 C 
BRANCH   8   9
ATOM      9  C   UNL     1      -5.742   5.423  -3.250  1.00  0.00    -0.000 C 
BRANCH   9  10
ATOM     10  C   UNL     1      -5.659   4.247  -4.239  1.00  0.00    -0.003 C 
ATOM     11  C   UNL     1      -6.668   4.356  -5.381  1.00  0.00     0.004 C 
ENDBRANCH   9  10
ENDBRANCH   8   9
ENDBRANCH   1   8
TORSDOF 6
ENDMDL
MODEL 6
REMARK VINA RESULT:    -3.415     16.148     17.815
REMARK INTER + INTRA:          -5.441
REMARK INTER:                  -4.991
REMARK INTRA:                  -0.450
REMARK UNBOUND:                -0.829
REMARK SMILES CCCCCCC=CC(=O)[O-]
REMARK SMILES IDX 5 1 6 2 7 3 8 4 9 5 10 6 11 7 4 8 3 9 2 10 1 11
REMARK H PARENT
REMARK Flexibility Score: inf
ROOT
ATOM      1  C   UNL     1      -4.506   4.733  -5.397  1.00  0.00     0.004 C 
ENDROOT
BRANCH   1   2
ATOM      2  C   UNL     1      -5.398   4.211  -4.260  1.00  0.00     0.027 C 
BRANCH   2   3
ATOM      3  C   UNL     1      -6.490   5.193  -3.929  1.00  0.00    -0.025 C 
ATOM      4  C   UNL     1      -6.621   5.866  -2.773  1.00  0.00     0.020 C 
BRANCH   4   5
ATOM      5  C   UNL     1      -5.714   5.803  -1.608  1.00  0.00     0.064 C 
ATOM      6  O   UNL     1      -5.823   4.920  -0.720  1.00  0.00    -0.545 OA
ATOM      7  O   UNL     1      -4.696   6.743  -1.501  1.00  0.00    -0.545 OA
ENDBRANCH   4   5
ENDBRANCH   2   3
ENDBRANCH   1   2
BRANCH   1   8
ATOM      8  C   UNL     1      -3.709   5.987  -4.999  1.00  0.00     0.000 C 
BRANCH   8   9
ATOM      9  C   UNL     1      -2.900   6.635  -6.140  1.00  0.00    -0.000 C 
BRANCH   9  10
ATOM     10  C   UNL     1      -3.316   6.203  -7.558  1.00  0.00    -0.003 C 
ATOM     11  C   UNL     1      -2.166   5.593  -8.357  1.00  0.00     0.004 C 
ENDBRANCH   9  10
ENDBRANCH   8   9
ENDBRANCH   1   8
TORSDOF 6
ENDMDL
MODEL 7
REMARK VINA RESULT:    -3.406      3.015      3.687
REMARK INTER + INTRA:          -5.429
REMARK INTER:                  -4.946
REMARK INTRA:                  -0.482
REMARK UNBOUND:                -0.829
REMARK SMILES CCCCCCC=CC(=O)[O-]
REMARK SMILES IDX 5 1 6 2 7 3 8 4 9 5 10 6 11 7 4 8 3 9 2 10 1 11
REMARK H PARENT
REMARK Flexibility Score: inf
ROOT
ATOM      1  C   UNL     1       5.419  -1.054 -13.218  1.00  0.00     0.004 C 
ENDROOT
BRANCH   1   2
ATOM      2  C   UNL     1       6.084  -2.208 -12.451  1.00  0.00     0.027 C 
BRANCH   2   3
ATOM      3  C   UNL     1       7.342  -1.750 -11.762  1.00  0.00    -0.025 C 
ATOM      4  C   UNL     1       8.136  -2.507 -10.987  1.00  0.00     0.020 C 
BRANCH   4   5
ATOM      5  C   UNL     1       7.956  -3.941 -10.675  1.00  0.00     0.064 C 
ATOM      6  O   UNL     1       8.769  -4.818 -11.063  1.00  0.00    -0.545 OA
ATOM      7  O   UNL     1       6.861  -4.329  -9.913  1.00  0.00    -0.545 OA
ENDBRANCH   4   5
ENDBRANCH   2   3
ENDBRANCH   1   2
BRANCH   1   8
ATOM      8  C   UNL     1       6.440  -0.057 -13.794  1.00  0.00     0.000 C 
BRANCH   8   9
ATOM      9  C   UNL     1       6.017   1.424 -13.723  1.00  0.00    -0.000 C 
BRANCH   9  10
ATOM     10  C   UNL     1       7.034   2.358 -13.045  1.00  0.00    -0.003 C 
ATOM     11  C   UNL     1       8.367   1.673 -12.748  1.00  0.00     0.004 C 
ENDBRANCH   9  10
ENDBRANCH   8   9
ENDBRANCH   1   8
TORSDOF 6
ENDMDL
MODEL 8
REMARK VINA RESULT:    -3.393     16.955     19.003
REMARK INTER + INTRA:          -5.411
REMARK INTER:                  -5.052
REMARK INTRA:                  -0.359
REMARK UNBOUND:                -0.829
REMARK SMILES CCCCCCC=CC(=O)[O-]
REMARK SMILES IDX 5 1 6 2 7 3 8 4 9 5 10 6 11 7 4 8 3 9 2 10 1 11
REMARK H PARENT
REMARK Flexibility Score: inf
ROOT
ATOM      1  C   UNL     1      -6.056   5.319  -1.350  1.00  0.00     0.004 C 
ENDROOT
BRANCH   1   2
ATOM      2  C   UNL     1      -5.884   5.289  -2.877  1.00  0.00     0.027 C 
BRANCH   2   3
ATOM      3  C   UNL     1      -4.928   6.356  -3.338  1.00  0.00    -0.025 C 
ATOM      4  C   UNL     1      -4.346   6.424  -4.547  1.00  0.00     0.020 C 
BRANCH   4   5
ATOM      5  C   UNL     1      -4.545   5.489  -5.675  1.00  0.00     0.064 C 
ATOM      6  O   UNL     1      -3.715   4.585  -5.951  1.00  0.00    -0.545 OA
ATOM      7  O   UNL     1      -5.695   5.604  -6.445  1.00  0.00    -0.545 OA
ENDBRANCH   4   5
ENDBRANCH   2   3
ENDBRANCH   1   2
BRANCH   1   8
ATOM      8  C   UNL     1      -5.228   6.429  -0.681  1.00  0.00     0.000 C 
BRANCH   8   9
ATOM      9  C   UNL     1      -4.493   6.008   0.607  1.00  0.00    -0.000 C 
BRANCH   9  10
ATOM     10  C   UNL     1      -3.011   6.419   0.674  1.00  0.00    -0.003 C 
ATOM     11  C   UNL     1      -2.226   5.648   1.733  1.00  0.00     0.004 C 
ENDBRANCH   9  10
ENDBRANCH   8   9
ENDBRANCH   1   8
TORSDOF 6
ENDMDL
MODEL 9
REMARK VINA RESULT:    -3.377     15.998     18.072
REMARK INTER + INTRA:          -5.391
REMARK INTER:                  -5.032
REMARK INTRA:                  -0.359
REMARK UNBOUND:                -0.829
REMARK SMILES CCCCCCC=CC(=O)[O-]
REMARK SMILES IDX 5 1 6 2 7 3 8 4 9 5 10 6 11 7 4 8 3 9 2 10 1 11
REMARK H PARENT
REMARK Flexibility Score: inf
ROOT
ATOM      1  C   UNL     1      -5.594   4.258  -3.867  1.00  0.00     0.004 C 
ENDROOT
BRANCH   1   2
ATOM      2  C   UNL     1      -4.950   4.734  -5.179  1.00  0.00     0.027 C 
BRANCH   2   3
ATOM      3  C   UNL     1      -3.971   5.850  -4.932  1.00  0.00    -0.025 C 
ATOM      4  C   UNL     1      -3.153   6.398  -5.846  1.00  0.00     0.020 C 
BRANCH   4   5
ATOM      5  C   UNL     1      -3.064   6.040  -7.278  1.00  0.00     0.064 C 
ATOM      6  O   UNL     1      -2.143   5.314  -7.731  1.00  0.00    -0.545 OA
ATOM      7  O   UNL     1      -4.042   6.508  -8.147  1.00  0.00    -0.545 OA
ENDBRANCH   4   5
ENDBRANCH   2   3
ENDBRANCH   1   2
BRANCH   1   8
ATOM      8  C   UNL     1      -6.191   5.414  -3.045  1.00  0.00     0.000 C 
BRANCH   8   9
ATOM      9  C   UNL     1      -5.952   5.324  -1.525  1.00  0.00    -0.000 C 
BRANCH   9  10
ATOM     10  C   UNL     1      -5.177   6.507  -0.919  1.00  0.00    -0.003 C 
ATOM     11  C   UNL     1      -4.442   6.141   0.370  1.00  0.00     0.004 C 
ENDBRANCH   9  10
ENDBRANCH   8   9
ENDBRANCH   1   8
TORSDOF 6
ENDMDL
