MODEL 1
REMARK VINA RESULT:    -3.871      0.000      0.000
REMARK INTER + INTRA:         -14.453
REMARK INTER:                 -10.093
REMARK INTRA:                  -4.360
REMARK UNBOUND:                -4.360
REMARK SMILES CCCCCCCCCCCCCCCCCCCCCCCCCCCCCO
REMARK SMILES IDX 16 1 15 2 14 3 13 4 12 5 11 6 10 7 9 8 8 9 7 10 6 11 5 12
REMARK SMILES IDX 4 13 3 14 2 15 1 16 17 17 18 18 19 19 20 20 21 21 22 22
REMARK SMILES IDX 23 23 24 24 25 25 26 26 27 27 28 28 29 29 30 30
REMARK H PARENT 30 31
REMARK Flexibility Score: inf
ROOT
ATOM      1  C   UNL     1       5.142  -1.410  37.870  1.00  0.00     0.000 C 
ENDROOT
BRANCH   1   2
ATOM      2  C   UNL     1       5.493  -0.015  38.423  1.00  0.00     0.000 C 
BRANCH   2   3
ATOM      3  C   UNL     1       6.471   0.749  37.516  1.00  0.00     0.000 C 
BRANCH   3   4
ATOM      4  C   UNL     1       7.903   0.779  38.071  1.00  0.00     0.000 C 
BRANCH   4   5
ATOM      5  C   UNL     1       8.657  -0.499  37.685  1.00  0.00     0.000 C 
BRANCH   5   6
ATOM      6  C   UNL     1       8.471  -0.833  36.196  1.00  0.00     0.000 C 
BRANCH   6   7
ATOM      7  C   UNL     1       7.947  -2.261  35.965  1.00  0.00     0.000 C 
BRANCH   7   8
ATOM      8  C   UNL     1       8.871  -3.338  36.557  1.00  0.00    -0.000 C 
BRANCH   8   9
ATOM      9  C   UNL     1      10.191  -3.478  35.778  1.00  0.00    -0.000 C 
BRANCH   9  10
ATOM     10  C   UNL     1      10.029  -3.928  34.315  1.00  0.00    -0.000 C 
BRANCH  10  11
ATOM     11  C   UNL     1      10.602  -2.920  33.295  1.00  0.00    -0.000 C 
BRANCH  11  12
ATOM     12  C   UNL     1       9.498  -2.251  32.455  1.00  0.00    -0.000 C 
BRANCH  12  13
ATOM     13  C   UNL     1       9.285  -0.772  32.818  1.00  0.00    -0.000 C 
BRANCH  13  14
ATOM     14  C   UNL     1       9.212   0.139  31.579  1.00  0.00    -0.000 C 
BRANCH  14  15
ATOM     15  C   UNL     1      10.449   0.005  30.676  1.00  0.00    -0.003 C 
ATOM     16  C   UNL     1      11.104   1.353  30.376  1.00  0.00     0.004 C 
ENDBRANCH  14  15
ENDBRANCH  13  14
ENDBRANCH  12  13
ENDBRANCH  11  12
ENDBRANCH  10  11
ENDBRANCH   9  10
ENDBRANCH   8   9
ENDBRANCH   7   8
ENDBRANCH   6   7
ENDBRANCH   5   6
ENDBRANCH   4   5
ENDBRANCH   3   4
ENDBRANCH   2   3
ENDBRANCH   1   2
BRANCH   1  17
ATOM     17  C   UNL     1       5.201  -2.506  38.947  1.00  0.00     0.000 C 
BRANCH  17  18
ATOM     18  C   UNL     1       6.530  -2.505  39.724  1.00  0.00     0.000 C 
BRANCH  18  19
ATOM     19  C   UNL     1       6.518  -3.442  40.940  1.00  0.00     0.000 C 
BRANCH  19  20
ATOM     20  C   UNL     1       6.873  -2.719  42.251  1.00  0.00     0.000 C 
BRANCH  20  21
ATOM     21  C   UNL     1       5.665  -2.001  42.881  1.00  0.00     0.000 C 
BRANCH  21  22
ATOM     22  C   UNL     1       4.364  -2.830  42.934  1.00  0.00     0.000 C 
BRANCH  22  23
ATOM     23  C   UNL     1       3.164  -2.236  42.169  1.00  0.00     0.000 C 
BRANCH  23  24
ATOM     24  C   UNL     1       3.415  -0.843  41.562  1.00  0.00     0.000 C 
BRANCH  24  25
ATOM     25  C   UNL     1       2.382  -0.482  40.483  1.00  0.00     0.000 C 
BRANCH  25  26
ATOM     26  C   UNL     1       1.515  -1.686  40.077  1.00  0.00     0.000 C 
BRANCH  26  27
ATOM     27  C   UNL     1       1.284  -1.826  38.556  1.00  0.00     0.002 C 
BRANCH  27  28
ATOM     28  C   UNL     1       1.758  -3.155  37.937  1.00  0.00     0.028 C 
BRANCH  28  29
ATOM     29  C   UNL     1       1.889  -4.287  38.960  1.00  0.00     0.156 C 
BRANCH  29  30
ATOM     30  O   UNL     1       2.815  -5.234  38.496  1.00  0.00    -0.396 OA
ATOM     31  H   UNL     1       3.481  -5.351  39.222  1.00  0.00     0.210 HD
ENDBRANCH  29  30
ENDBRANCH  28  29
ENDBRANCH  27  28
ENDBRANCH  26  27
ENDBRANCH  25  26
ENDBRANCH  24  25
ENDBRANCH  23  24
ENDBRANCH  22  23
ENDBRANCH  21  22
ENDBRANCH  20  21
ENDBRANCH  19  20
ENDBRANCH  18  19
ENDBRANCH  17  18
ENDBRANCH   1  17
TORSDOF 28
ENDMDL
MODEL 2
REMARK VINA RESULT:    -3.855      1.547      4.103
REMARK INTER + INTRA:         -14.411
REMARK INTER:                 -10.742
REMARK INTRA:                  -3.669
REMARK UNBOUND:                -4.360
REMARK SMILES CCCCCCCCCCCCCCCCCCCCCCCCCCCCCO
REMARK SMILES IDX 16 1 15 2 14 3 13 4 12 5 11 6 10 7 9 8 8 9 7 10 6 11 5 12
REMARK SMILES IDX 4 13 3 14 2 15 1 16 17 17 18 18 19 19 20 20 21 21 22 22
REMARK SMILES IDX 23 23 24 24 25 25 26 26 27 27 28 28 29 29 30 30
REMARK H PARENT 30 31
REMARK Flexibility Score: inf
ROOT
ATOM      1  C   UNL     1       4.203  -0.247  38.926  1.00  0.00     0.000 C 
ENDROOT
BRANCH   1   2
ATOM      2  C   UNL     1       4.623  -1.483  38.107  1.00  0.00     0.000 C 
BRANCH   2   3
ATOM      3  C   UNL     1       5.374  -2.523  38.953  1.00  0.00     0.000 C 
BRANCH   3   4
ATOM      4  C   UNL     1       6.844  -2.684  38.537  1.00  0.00     0.000 C 
BRANCH   4   5
ATOM      5  C   UNL     1       7.686  -1.521  39.076  1.00  0.00     0.000 C 
BRANCH   5   6
ATOM      6  C   UNL     1       8.600  -0.936  37.986  1.00  0.00     0.000 C 
BRANCH   6   7
ATOM      7  C   UNL     1       7.832  -0.091  36.955  1.00  0.00     0.000 C 
BRANCH   7   8
ATOM      8  C   UNL     1       7.563  -0.851  35.645  1.00  0.00    -0.000 C 
BRANCH   8   9
ATOM      9  C   UNL     1       8.631  -1.919  35.351  1.00  0.00    -0.000 C 
BRANCH   9  10
ATOM     10  C   UNL     1       9.686  -1.505  34.310  1.00  0.00    -0.000 C 
BRANCH  10  11
ATOM     11  C   UNL     1       9.564  -2.271  32.974  1.00  0.00    -0.000 C 
BRANCH  11  12
ATOM     12  C   UNL     1       9.307  -1.327  31.785  1.00  0.00    -0.000 C 
BRANCH  12  13
ATOM     13  C   UNL     1      10.210  -0.083  31.804  1.00  0.00    -0.000 C 
BRANCH  13  14
ATOM     14  C   UNL     1      10.592   0.396  30.391  1.00  0.00    -0.000 C 
BRANCH  14  15
ATOM     15  C   UNL     1      11.163   1.823  30.387  1.00  0.00    -0.003 C 
ATOM     16  C   UNL     1      10.635   2.669  31.546  1.00  0.00     0.004 C 
ENDBRANCH  14  15
ENDBRANCH  13  14
ENDBRANCH  12  13
ENDBRANCH  11  12
ENDBRANCH  10  11
ENDBRANCH   9  10
ENDBRANCH   8   9
ENDBRANCH   7   8
ENDBRANCH   6   7
ENDBRANCH   5   6
ENDBRANCH   4   5
ENDBRANCH   3   4
ENDBRANCH   2   3
ENDBRANCH   1   2
BRANCH   1  17
ATOM     17  C   UNL     1       2.740  -0.316  39.394  1.00  0.00     0.000 C 
BRANCH  17  18
ATOM     18  C   UNL     1       1.865  -1.195  38.482  1.00  0.00     0.000 C 
BRANCH  18  19
ATOM     19  C   UNL     1       0.382  -1.190  38.882  1.00  0.00     0.000 C 
BRANCH  19  20
ATOM     20  C   UNL     1      -0.288  -2.562  38.693  1.00  0.00     0.000 C 
BRANCH  20  21
ATOM     21  C   UNL     1       0.379  -3.404  37.589  1.00  0.00     0.000 C 
BRANCH  21  22
ATOM     22  C   UNL     1       0.961  -4.755  38.056  1.00  0.00     0.000 C 
BRANCH  22  23
ATOM     23  C   UNL     1       2.379  -4.696  38.660  1.00  0.00     0.000 C 
BRANCH  23  24
ATOM     24  C   UNL     1       2.454  -5.029  40.161  1.00  0.00     0.000 C 
BRANCH  24  25
ATOM     25  C   UNL     1       2.618  -3.772  41.031  1.00  0.00     0.000 C 
BRANCH  25  26
ATOM     26  C   UNL     1       3.504  -4.027  42.263  1.00  0.00     0.000 C 
BRANCH  26  27
ATOM     27  C   UNL     1       4.641  -3.000  42.458  1.00  0.00     0.002 C 
BRANCH  27  28
ATOM     28  C   UNL     1       6.068  -3.560  42.306  1.00  0.00     0.028 C 
BRANCH  28  29
ATOM     29  C   UNL     1       6.101  -5.063  42.011  1.00  0.00     0.156 C 
BRANCH  29  30
ATOM     30  O   UNL     1       6.742  -5.286  40.784  1.00  0.00    -0.396 OA
ATOM     31  H   UNL     1       6.031  -5.541  40.140  1.00  0.00     0.210 HD
ENDBRANCH  29  30
ENDBRANCH  28  29
ENDBRANCH  27  28
ENDBRANCH  26  27
ENDBRANCH  25  26
ENDBRANCH  24  25
ENDBRANCH  23  24
ENDBRANCH  22  23
ENDBRANCH  21  22
ENDBRANCH  20  21
ENDBRANCH  19  20
ENDBRANCH  18  19
ENDBRANCH  17  18
ENDBRANCH   1  17
TORSDOF 28
ENDMDL
MODEL 3
REMARK VINA RESULT:    -3.824      1.796      4.100
REMARK INTER + INTRA:         -14.331
REMARK INTER:                 -10.251
REMARK INTRA:                  -4.080
REMARK UNBOUND:                -4.360
REMARK SMILES CCCCCCCCCCCCCCCCCCCCCCCCCCCCCO
REMARK SMILES IDX 16 1 15 2 14 3 13 4 12 5 11 6 10 7 9 8 8 9 7 10 6 11 5 12
REMARK SMILES IDX 4 13 3 14 2 15 1 16 17 17 18 18 19 19 20 20 21 21 22 22
REMARK SMILES IDX 23 23 24 24 25 25 26 26 27 27 28 28 29 29 30 30
REMARK H PARENT 30 31
REMARK Flexibility Score: inf
ROOT
ATOM      1  C   UNL     1       6.056  -4.412  39.953  1.00  0.00     0.000 C 
ENDROOT
BRANCH   1   2
ATOM      2  C   UNL     1       5.120  -5.418  40.650  1.00  0.00     0.000 C 
BRANCH   2   3
ATOM      3  C   UNL     1       3.718  -5.452  40.022  1.00  0.00     0.000 C 
BRANCH   3   4
ATOM      4  C   UNL     1       3.097  -4.055  39.868  1.00  0.00     0.000 C 
BRANCH   4   5
ATOM      5  C   UNL     1       2.753  -3.778  38.399  1.00  0.00     0.000 C 
BRANCH   5   6
ATOM      6  C   UNL     1       3.501  -2.544  37.869  1.00  0.00     0.000 C 
BRANCH   6   7
ATOM      7  C   UNL     1       3.769  -1.494  38.962  1.00  0.00     0.000 C 
BRANCH   7   8
ATOM      8  C   UNL     1       5.073  -0.712  38.729  1.00  0.00    -0.000 C 
BRANCH   8   9
ATOM      9  C   UNL     1       6.008  -1.407  37.724  1.00  0.00    -0.000 C 
BRANCH   9  10
ATOM     10  C   UNL     1       6.547  -0.493  36.609  1.00  0.00    -0.000 C 
BRANCH  10  11
ATOM     11  C   UNL     1       6.493  -1.138  35.206  1.00  0.00    -0.000 C 
BRANCH  11  12
ATOM     12  C   UNL     1       7.739  -1.995  34.914  1.00  0.00    -0.000 C 
BRANCH  12  13
ATOM     13  C   UNL     1       9.054  -1.262  35.229  1.00  0.00    -0.000 C 
BRANCH  13  14
ATOM     14  C   UNL     1       9.863  -0.922  33.963  1.00  0.00    -0.000 C 
BRANCH  14  15
ATOM     15  C   UNL     1       8.986  -0.867  32.702  1.00  0.00    -0.003 C 
ATOM     16  C   UNL     1       9.593   0.005  31.603  1.00  0.00     0.004 C 
ENDBRANCH  14  15
ENDBRANCH  13  14
ENDBRANCH  12  13
ENDBRANCH  11  12
ENDBRANCH  10  11
ENDBRANCH   9  10
ENDBRANCH   8   9
ENDBRANCH   7   8
ENDBRANCH   6   7
ENDBRANCH   5   6
ENDBRANCH   4   5
ENDBRANCH   3   4
ENDBRANCH   2   3
ENDBRANCH   1   2
BRANCH   1  17
ATOM     17  C   UNL     1       6.687  -3.411  40.935  1.00  0.00     0.000 C 
BRANCH  17  18
ATOM     18  C   UNL     1       5.887  -3.277  42.243  1.00  0.00     0.000 C 
BRANCH  18  19
ATOM     19  C   UNL     1       6.156  -1.958  42.981  1.00  0.00     0.000 C 
BRANCH  19  20
ATOM     20  C   UNL     1       4.900  -1.397  43.671  1.00  0.00     0.000 C 
BRANCH  20  21
ATOM     21  C   UNL     1       3.609  -1.680  42.880  1.00  0.00     0.000 C 
BRANCH  21  22
ATOM     22  C   UNL     1       2.844  -0.427  42.404  1.00  0.00     0.000 C 
BRANCH  22  23
ATOM     23  C   UNL     1       1.306  -0.543  42.412  1.00  0.00     0.000 C 
BRANCH  23  24
ATOM     24  C   UNL     1       0.705  -1.220  41.167  1.00  0.00     0.000 C 
BRANCH  24  25
ATOM     25  C   UNL     1       0.763  -0.317  39.925  1.00  0.00     0.000 C 
BRANCH  25  26
ATOM     26  C   UNL     1       0.074  -0.956  38.706  1.00  0.00     0.000 C 
BRANCH  26  27
ATOM     27  C   UNL     1      -1.459  -1.089  38.834  1.00  0.00     0.002 C 
BRANCH  27  28
ATOM     28  C   UNL     1      -2.035  -2.467  38.456  1.00  0.00     0.028 C 
BRANCH  28  29
ATOM     29  C   UNL     1      -0.982  -3.580  38.441  1.00  0.00     0.156 C 
BRANCH  29  30
ATOM     30  O   UNL     1      -0.649  -3.891  37.114  1.00  0.00    -0.396 OA
ATOM     31  H   UNL     1      -0.608  -4.881  37.062  1.00  0.00     0.210 HD
ENDBRANCH  29  30
ENDBRANCH  28  29
ENDBRANCH  27  28
ENDBRANCH  26  27
ENDBRANCH  25  26
ENDBRANCH  24  25
ENDBRANCH  23  24
ENDBRANCH  22  23
ENDBRANCH  21  22
ENDBRANCH  20  21
ENDBRANCH  19  20
ENDBRANCH  18  19
ENDBRANCH  17  18
ENDBRANCH   1  17
TORSDOF 28
ENDMDL
MODEL 4
REMARK VINA RESULT:    -3.820      2.922      9.729
REMARK INTER + INTRA:         -14.322
REMARK INTER:                 -10.473
REMARK INTRA:                  -3.848
REMARK UNBOUND:                -4.360
REMARK SMILES CCCCCCCCCCCCCCCCCCCCCCCCCCCCCO
REMARK SMILES IDX 16 1 15 2 14 3 13 4 12 5 11 6 10 7 9 8 8 9 7 10 6 11 5 12
REMARK SMILES IDX 4 13 3 14 2 15 1 16 17 17 18 18 19 19 20 20 21 21 22 22
REMARK SMILES IDX 23 23 24 24 25 25 26 26 27 27 28 28 29 29 30 30
REMARK H PARENT 30 31
REMARK Flexibility Score: inf
ROOT
ATOM      1  C   UNL     1       5.913  -2.656  38.757  1.00  0.00     0.000 C 
ENDROOT
BRANCH   1   2
ATOM      2  C   UNL     1       5.026  -1.727  37.906  1.00  0.00     0.000 C 
BRANCH   2   3
ATOM      3  C   UNL     1       4.816  -0.352  38.560  1.00  0.00     0.000 C 
BRANCH   3   4
ATOM      4  C   UNL     1       3.380  -0.143  39.066  1.00  0.00     0.000 C 
BRANCH   4   5
ATOM      5  C   UNL     1       2.476  -1.295  38.609  1.00  0.00     0.000 C 
BRANCH   5   6
ATOM      6  C   UNL     1       1.109  -1.250  39.311  1.00  0.00     0.000 C 
BRANCH   6   7
ATOM      7  C   UNL     1       0.098  -2.243  38.713  1.00  0.00     0.000 C 
BRANCH   7   8
ATOM      8  C   UNL     1       0.737  -3.202  37.694  1.00  0.00    -0.000 C 
BRANCH   8   9
ATOM      9  C   UNL     1       1.015  -4.595  38.288  1.00  0.00    -0.000 C 
BRANCH   9  10
ATOM     10  C   UNL     1       2.503  -4.905  38.529  1.00  0.00    -0.000 C 
BRANCH  10  11
ATOM     11  C   UNL     1       2.803  -5.396  39.963  1.00  0.00    -0.000 C 
BRANCH  11  12
ATOM     12  C   UNL     1       3.162  -4.237  40.911  1.00  0.00    -0.000 C 
BRANCH  12  13
ATOM     13  C   UNL     1       4.459  -4.491  41.698  1.00  0.00    -0.000 C 
BRANCH  13  14
ATOM     14  C   UNL     1       4.955  -3.238  42.445  1.00  0.00    -0.000 C 
BRANCH  14  15
ATOM     15  C   UNL     1       4.213  -1.963  42.012  1.00  0.00    -0.003 C 
ATOM     16  C   UNL     1       3.743  -1.127  43.202  1.00  0.00     0.004 C 
ENDBRANCH  14  15
ENDBRANCH  13  14
ENDBRANCH  12  13
ENDBRANCH  11  12
ENDBRANCH  10  11
ENDBRANCH   9  10
ENDBRANCH   8   9
ENDBRANCH   7   8
ENDBRANCH   6   7
ENDBRANCH   5   6
ENDBRANCH   4   5
ENDBRANCH   3   4
ENDBRANCH   2   3
ENDBRANCH   1   2
BRANCH   1  17
ATOM     17  C   UNL     1       7.045  -1.902  39.474  1.00  0.00     0.000 C 
BRANCH  17  18
ATOM     18  C   UNL     1       8.302  -1.748  38.599  1.00  0.00     0.000 C 
BRANCH  18  19
ATOM     19  C   UNL     1       8.450  -0.342  38.000  1.00  0.00     0.000 C 
BRANCH  19  20
ATOM     20  C   UNL     1       8.446  -0.349  36.461  1.00  0.00     0.000 C 
BRANCH  20  21
ATOM     21  C   UNL     1       8.335  -1.768  35.872  1.00  0.00     0.000 C 
BRANCH  21  22
ATOM     22  C   UNL     1       9.405  -2.125  34.818  1.00  0.00     0.000 C 
BRANCH  22  23
ATOM     23  C   UNL     1       9.739  -1.012  33.805  1.00  0.00     0.000 C 
BRANCH  23  24
ATOM     24  C   UNL     1       9.267  -1.288  32.366  1.00  0.00     0.000 C 
BRANCH  24  25
ATOM     25  C   UNL     1       9.985  -0.402  31.335  1.00  0.00     0.000 C 
BRANCH  25  26
ATOM     26  C   UNL     1       9.498   1.057  31.380  1.00  0.00     0.000 C 
BRANCH  26  27
ATOM     27  C   UNL     1      10.615   2.098  31.612  1.00  0.00     0.002 C 
BRANCH  27  28
ATOM     28  C   UNL     1      11.583   2.301  30.431  1.00  0.00     0.028 C 
BRANCH  28  29
ATOM     29  C   UNL     1      13.039   1.975  30.778  1.00  0.00     0.156 C 
BRANCH  29  30
ATOM     30  O   UNL     1      13.264   0.601  30.612  1.00  0.00    -0.396 OA
ATOM     31  H   UNL     1      13.696   0.494  29.724  1.00  0.00     0.210 HD
ENDBRANCH  29  30
ENDBRANCH  28  29
ENDBRANCH  27  28
ENDBRANCH  26  27
ENDBRANCH  25  26
ENDBRANCH  24  25
ENDBRANCH  23  24
ENDBRANCH  22  23
ENDBRANCH  21  22
ENDBRANCH  20  21
ENDBRANCH  19  20
ENDBRANCH  18  19
ENDBRANCH  17  18
ENDBRANCH   1  17
TORSDOF 28
ENDMDL
MODEL 5
REMARK VINA RESULT:    -3.697      2.126      4.569
REMARK INTER + INTRA:         -13.999
REMARK INTER:                 -10.869
REMARK INTRA:                  -3.130
REMARK UNBOUND:                -4.360
REMARK SMILES CCCCCCCCCCCCCCCCCCCCCCCCCCCCCO
REMARK SMILES IDX 16 1 15 2 14 3 13 4 12 5 11 6 10 7 9 8 8 9 7 10 6 11 5 12
REMARK SMILES IDX 4 13 3 14 2 15 1 16 17 17 18 18 19 19 20 20 21 21 22 22
REMARK SMILES IDX 23 23 24 24 25 25 26 26 27 27 28 28 29 29 30 30
REMARK H PARENT 30 31
REMARK Flexibility Score: inf
ROOT
ATOM      1  C   UNL     1       3.628   0.045  38.864  1.00  0.00     0.000 C 
ENDROOT
BRANCH   1   2
ATOM      2  C   UNL     1       3.874  -1.475  38.920  1.00  0.00     0.000 C 
BRANCH   2   3
ATOM      3  C   UNL     1       4.641  -1.993  37.692  1.00  0.00     0.000 C 
BRANCH   3   4
ATOM      4  C   UNL     1       6.093  -1.494  37.639  1.00  0.00     0.000 C 
BRANCH   4   5
ATOM      5  C   UNL     1       6.306  -0.585  36.423  1.00  0.00     0.000 C 
BRANCH   5   6
ATOM      6  C   UNL     1       7.229  -1.242  35.384  1.00  0.00     0.000 C 
BRANCH   6   7
ATOM      7  C   UNL     1       8.719  -0.967  35.652  1.00  0.00     0.000 C 
BRANCH   7   8
ATOM      8  C   UNL     1       9.599  -1.202  34.412  1.00  0.00    -0.000 C 
BRANCH   8   9
ATOM      9  C   UNL     1       8.801  -1.745  33.214  1.00  0.00    -0.000 C 
BRANCH   9  10
ATOM     10  C   UNL     1       9.406  -1.419  31.837  1.00  0.00    -0.000 C 
BRANCH  10  11
ATOM     11  C   UNL     1       9.516   0.096  31.558  1.00  0.00    -0.000 C 
BRANCH  11  12
ATOM     12  C   UNL     1      10.668   0.426  30.590  1.00  0.00    -0.000 C 
BRANCH  12  13
ATOM     13  C   UNL     1      11.038   1.919  30.590  1.00  0.00    -0.000 C 
BRANCH  13  14
ATOM     14  C   UNL     1      12.347   2.206  31.348  1.00  0.00    -0.000 C 
BRANCH  14  15
ATOM     15  C   UNL     1      12.124   2.390  32.858  1.00  0.00    -0.003 C 
ATOM     16  C   UNL     1      12.558   1.168  33.668  1.00  0.00     0.004 C 
ENDBRANCH  14  15
ENDBRANCH  13  14
ENDBRANCH  12  13
ENDBRANCH  11  12
ENDBRANCH  10  11
ENDBRANCH   9  10
ENDBRANCH   8   9
ENDBRANCH   7   8
ENDBRANCH   6   7
ENDBRANCH   5   6
ENDBRANCH   4   5
ENDBRANCH   3   4
ENDBRANCH   2   3
ENDBRANCH   1   2
BRANCH   1  17
ATOM     17  C   UNL     1       2.210   0.433  39.313  1.00  0.00     0.000 C 
BRANCH  17  18
ATOM     18  C   UNL     1       1.387  -0.776  39.791  1.00  0.00     0.000 C 
BRANCH  18  19
ATOM     19  C   UNL     1       0.240  -1.139  38.838  1.00  0.00     0.000 C 
BRANCH  19  20
ATOM     20  C   UNL     1       0.037  -2.658  38.703  1.00  0.00     0.000 C 
BRANCH  20  21
ATOM     21  C   UNL     1       0.993  -3.298  37.680  1.00  0.00     0.000 C 
BRANCH  21  22
ATOM     22  C   UNL     1       1.879  -4.436  38.232  1.00  0.00     0.000 C 
BRANCH  22  23
ATOM     23  C   UNL     1       1.571  -4.877  39.678  1.00  0.00     0.000 C 
BRANCH  23  24
ATOM     24  C   UNL     1       2.797  -5.342  40.484  1.00  0.00     0.000 C 
BRANCH  24  25
ATOM     25  C   UNL     1       2.862  -4.694  41.876  1.00  0.00     0.000 C 
BRANCH  25  26
ATOM     26  C   UNL     1       3.643  -3.368  41.866  1.00  0.00     0.000 C 
BRANCH  26  27
ATOM     27  C   UNL     1       5.157  -3.518  41.604  1.00  0.00     0.002 C 
BRANCH  27  28
ATOM     28  C   UNL     1       5.984  -2.226  41.758  1.00  0.00     0.028 C 
BRANCH  28  29
ATOM     29  C   UNL     1       6.589  -2.058  43.155  1.00  0.00     0.156 C 
BRANCH  29  30
ATOM     30  O   UNL     1       7.943  -1.709  43.041  1.00  0.00    -0.396 OA
ATOM     31  H   UNL     1       8.333  -1.804  43.949  1.00  0.00     0.210 HD
ENDBRANCH  29  30
ENDBRANCH  28  29
ENDBRANCH  27  28
ENDBRANCH  26  27
ENDBRANCH  25  26
ENDBRANCH  24  25
ENDBRANCH  23  24
ENDBRANCH  22  23
ENDBRANCH  21  22
ENDBRANCH  20  21
ENDBRANCH  19  20
ENDBRANCH  18  19
ENDBRANCH  17  18
ENDBRANCH   1  17
TORSDOF 28
ENDMDL
MODEL 6
REMARK VINA RESULT:    -3.687      3.834      8.942
REMARK INTER + INTRA:         -13.973
REMARK INTER:                  -7.668
REMARK INTRA:                  -6.305
REMARK UNBOUND:                -4.360
REMARK SMILES CCCCCCCCCCCCCCCCCCCCCCCCCCCCCO
REMARK SMILES IDX 16 1 15 2 14 3 13 4 12 5 11 6 10 7 9 8 8 9 7 10 6 11 5 12
REMARK SMILES IDX 4 13 3 14 2 15 1 16 17 17 18 18 19 19 20 20 21 21 22 22
REMARK SMILES IDX 23 23 24 24 25 25 26 26 27 27 28 28 29 29 30 30
REMARK H PARENT 30 31
REMARK Flexibility Score: inf
ROOT
ATOM      1  C   UNL     1       1.163  -2.051  38.501  1.00  0.00     0.000 C 
ENDROOT
BRANCH   1   2
ATOM      2  C   UNL     1      -0.114  -2.830  38.128  1.00  0.00     0.000 C 
BRANCH   2   3
ATOM      3  C   UNL     1       0.177  -4.288  37.739  1.00  0.00     0.000 C 
BRANCH   3   4
ATOM      4  C   UNL     1      -1.074  -5.179  37.777  1.00  0.00     0.000 C 
BRANCH   4   5
ATOM      5  C   UNL     1      -0.794  -6.466  38.562  1.00  0.00     0.000 C 
BRANCH   5   6
ATOM      6  C   UNL     1       0.545  -7.097  38.149  1.00  0.00     0.000 C 
BRANCH   6   7
ATOM      7  C   UNL     1       1.409  -7.505  39.355  1.00  0.00     0.000 C 
BRANCH   7   8
ATOM      8  C   UNL     1       2.763  -6.775  39.393  1.00  0.00    -0.000 C 
BRANCH   8   9
ATOM      9  C   UNL     1       3.005  -6.048  40.728  1.00  0.00    -0.000 C 
BRANCH   9  10
ATOM     10  C   UNL     1       2.370  -4.650  40.823  1.00  0.00    -0.000 C 
BRANCH  10  11
ATOM     11  C   UNL     1       1.357  -4.513  41.981  1.00  0.00    -0.000 C 
BRANCH  11  12
ATOM     12  C   UNL     1      -0.078  -4.275  41.472  1.00  0.00    -0.000 C 
BRANCH  12  13
ATOM     13  C   UNL     1      -0.632  -2.897  41.874  1.00  0.00    -0.000 C 
BRANCH  13  14
ATOM     14  C   UNL     1      -0.072  -2.402  43.221  1.00  0.00    -0.000 C 
BRANCH  14  15
ATOM     15  C   UNL     1      -0.160  -0.874  43.368  1.00  0.00    -0.003 C 
ATOM     16  C   UNL     1      -1.408  -0.292  42.704  1.00  0.00     0.004 C 
ENDBRANCH  14  15
ENDBRANCH  13  14
ENDBRANCH  12  13
ENDBRANCH  11  12
ENDBRANCH  10  11
ENDBRANCH   9  10
ENDBRANCH   8   9
ENDBRANCH   7   8
ENDBRANCH   6   7
ENDBRANCH   5   6
ENDBRANCH   4   5
ENDBRANCH   3   4
ENDBRANCH   2   3
ENDBRANCH   1   2
BRANCH   1  17
ATOM     17  C   UNL     1       0.867  -0.615  38.962  1.00  0.00     0.000 C 
BRANCH  17  18
ATOM     18  C   UNL     1       1.941  -0.066  39.919  1.00  0.00     0.000 C 
BRANCH  18  19
ATOM     19  C   UNL     1       2.457  -1.117  40.912  1.00  0.00     0.000 C 
BRANCH  19  20
ATOM     20  C   UNL     1       3.574  -0.576  41.822  1.00  0.00     0.000 C 
BRANCH  20  21
ATOM     21  C   UNL     1       3.588  -1.246  43.209  1.00  0.00     0.000 C 
BRANCH  21  22
ATOM     22  C   UNL     1       4.317  -2.605  43.273  1.00  0.00     0.000 C 
BRANCH  22  23
ATOM     23  C   UNL     1       5.560  -2.737  42.369  1.00  0.00     0.000 C 
BRANCH  23  24
ATOM     24  C   UNL     1       5.898  -4.178  41.946  1.00  0.00     0.000 C 
BRANCH  24  25
ATOM     25  C   UNL     1       6.231  -4.285  40.449  1.00  0.00     0.000 C 
BRANCH  25  26
ATOM     26  C   UNL     1       6.187  -2.919  39.742  1.00  0.00     0.000 C 
BRANCH  26  27
ATOM     27  C   UNL     1       4.978  -2.722  38.802  1.00  0.00     0.002 C 
BRANCH  27  28
ATOM     28  C   UNL     1       4.951  -1.388  38.032  1.00  0.00     0.028 C 
BRANCH  28  29
ATOM     29  C   UNL     1       5.855  -1.385  36.795  1.00  0.00     0.156 C 
BRANCH  29  30
ATOM     30  O   UNL     1       6.231  -0.068  36.493  1.00  0.00    -0.396 OA
ATOM     31  H   UNL     1       6.656  -0.098  35.596  1.00  0.00     0.210 HD
ENDBRANCH  29  30
ENDBRANCH  28  29
ENDBRANCH  27  28
ENDBRANCH  26  27
ENDBRANCH  25  26
ENDBRANCH  24  25
ENDBRANCH  23  24
ENDBRANCH  22  23
ENDBRANCH  21  22
ENDBRANCH  20  21
ENDBRANCH  19  20
ENDBRANCH  18  19
ENDBRANCH  17  18
ENDBRANCH   1  17
TORSDOF 28
ENDMDL
MODEL 7
REMARK VINA RESULT:    -3.684      2.787      9.962
REMARK INTER + INTRA:         -13.967
REMARK INTER:                 -10.856
REMARK INTRA:                  -3.111
REMARK UNBOUND:                -4.360
REMARK SMILES CCCCCCCCCCCCCCCCCCCCCCCCCCCCCO
REMARK SMILES IDX 16 1 15 2 14 3 13 4 12 5 11 6 10 7 9 8 8 9 7 10 6 11 5 12
REMARK SMILES IDX 4 13 3 14 2 15 1 16 17 17 18 18 19 19 20 20 21 21 22 22
REMARK SMILES IDX 23 23 24 24 25 25 26 26 27 27 28 28 29 29 30 30
REMARK H PARENT 30 31
REMARK Flexibility Score: inf
ROOT
ATOM      1  C   UNL     1       5.011  -1.761  37.644  1.00  0.00     0.000 C 
ENDROOT
BRANCH   1   2
ATOM      2  C   UNL     1       4.146  -1.019  38.681  1.00  0.00     0.000 C 
BRANCH   2   3
ATOM      3  C   UNL     1       2.653  -1.360  38.555  1.00  0.00     0.000 C 
BRANCH   3   4
ATOM      4  C   UNL     1       1.752  -0.412  39.362  1.00  0.00     0.000 C 
BRANCH   4   5
ATOM      5  C   UNL     1       0.284  -0.588  38.955  1.00  0.00     0.000 C 
BRANCH   5   6
ATOM      6  C   UNL     1      -0.295  -1.907  39.492  1.00  0.00     0.000 C 
BRANCH   6   7
ATOM      7  C   UNL     1      -1.177  -2.634  38.463  1.00  0.00     0.000 C 
BRANCH   7   8
ATOM      8  C   UNL     1      -0.683  -4.057  38.155  1.00  0.00    -0.000 C 
BRANCH   8   9
ATOM      9  C   UNL     1       0.763  -4.080  37.628  1.00  0.00    -0.000 C 
BRANCH   9  10
ATOM     10  C   UNL     1       1.663  -5.152  38.267  1.00  0.00    -0.000 C 
BRANCH  10  11
ATOM     11  C   UNL     1       1.575  -5.190  39.808  1.00  0.00    -0.000 C 
BRANCH  11  12
ATOM     12  C   UNL     1       2.678  -4.346  40.474  1.00  0.00    -0.000 C 
BRANCH  12  13
ATOM     13  C   UNL     1       4.076  -4.630  39.898  1.00  0.00    -0.000 C 
BRANCH  13  14
ATOM     14  C   UNL     1       5.185  -4.549  40.964  1.00  0.00    -0.000 C 
BRANCH  14  15
ATOM     15  C   UNL     1       6.277  -3.530  40.600  1.00  0.00    -0.003 C 
ATOM     16  C   UNL     1       6.812  -2.783  41.821  1.00  0.00     0.004 C 
ENDBRANCH  14  15
ENDBRANCH  13  14
ENDBRANCH  12  13
ENDBRANCH  11  12
ENDBRANCH  10  11
ENDBRANCH   9  10
ENDBRANCH   8   9
ENDBRANCH   7   8
ENDBRANCH   6   7
ENDBRANCH   5   6
ENDBRANCH   4   5
ENDBRANCH   3   4
ENDBRANCH   2   3
ENDBRANCH   1   2
BRANCH   1  17
ATOM     17  C   UNL     1       6.339  -1.041  37.356  1.00  0.00     0.000 C 
BRANCH  17  18
ATOM     18  C   UNL     1       6.502  -0.667  35.872  1.00  0.00     0.000 C 
BRANCH  18  19
ATOM     19  C   UNL     1       7.256  -1.730  35.062  1.00  0.00     0.000 C 
BRANCH  19  20
ATOM     20  C   UNL     1       8.558  -2.185  35.745  1.00  0.00     0.000 C 
BRANCH  20  21
ATOM     21  C   UNL     1       9.633  -2.636  34.739  1.00  0.00     0.000 C 
BRANCH  21  22
ATOM     22  C   UNL     1       9.410  -2.164  33.286  1.00  0.00     0.000 C 
BRANCH  22  23
ATOM     23  C   UNL     1      10.292  -0.985  32.827  1.00  0.00     0.000 C 
BRANCH  23  24
ATOM     24  C   UNL     1       9.650  -0.078  31.761  1.00  0.00     0.000 C 
BRANCH  24  25
ATOM     25  C   UNL     1      10.576   0.155  30.557  1.00  0.00     0.000 C 
BRANCH  25  26
ATOM     26  C   UNL     1      10.925   1.642  30.368  1.00  0.00     0.000 C 
BRANCH  26  27
ATOM     27  C   UNL     1      10.804   2.496  31.649  1.00  0.00     0.002 C 
BRANCH  27  28
ATOM     28  C   UNL     1      12.138   3.001  32.234  1.00  0.00     0.028 C 
BRANCH  28  29
ATOM     29  C   UNL     1      12.872   1.945  33.067  1.00  0.00     0.156 C 
BRANCH  29  30
ATOM     30  O   UNL     1      12.298   1.873  34.344  1.00  0.00    -0.396 OA
ATOM     31  H   UNL     1      12.225   0.908  34.563  1.00  0.00     0.210 HD
ENDBRANCH  29  30
ENDBRANCH  28  29
ENDBRANCH  27  28
ENDBRANCH  26  27
ENDBRANCH  25  26
ENDBRANCH  24  25
ENDBRANCH  23  24
ENDBRANCH  22  23
ENDBRANCH  21  22
ENDBRANCH  20  21
ENDBRANCH  19  20
ENDBRANCH  18  19
ENDBRANCH  17  18
ENDBRANCH   1  17
TORSDOF 28
ENDMDL
MODEL 8
REMARK VINA RESULT:    -3.678      2.215      8.796
REMARK INTER + INTRA:         -13.951
REMARK INTER:                  -9.800
REMARK INTRA:                  -4.151
REMARK UNBOUND:                -4.360
REMARK SMILES CCCCCCCCCCCCCCCCCCCCCCCCCCCCCO
REMARK SMILES IDX 16 1 15 2 14 3 13 4 12 5 11 6 10 7 9 8 8 9 7 10 6 11 5 12
REMARK SMILES IDX 4 13 3 14 2 15 1 16 17 17 18 18 19 19 20 20 21 21 22 22
REMARK SMILES IDX 23 23 24 24 25 25 26 26 27 27 28 28 29 29 30 30
REMARK H PARENT 30 31
REMARK Flexibility Score: inf
ROOT
ATOM      1  C   UNL     1       2.698  -0.859  38.881  1.00  0.00     0.000 C 
ENDROOT
BRANCH   1   2
ATOM      2  C   UNL     1       1.257  -1.116  39.359  1.00  0.00     0.000 C 
BRANCH   2   3
ATOM      3  C   UNL     1       0.491  -2.075  38.433  1.00  0.00     0.000 C 
BRANCH   3   4
ATOM      4  C   UNL     1      -1.009  -2.148  38.757  1.00  0.00     0.000 C 
BRANCH   4   5
ATOM      5  C   UNL     1      -1.670  -3.299  37.988  1.00  0.00     0.000 C 
BRANCH   5   6
ATOM      6  C   UNL     1      -0.647  -4.381  37.607  1.00  0.00     0.000 C 
BRANCH   6   7
ATOM      7  C   UNL     1      -0.861  -5.699  38.373  1.00  0.00     0.000 C 
BRANCH   7   8
ATOM      8  C   UNL     1       0.451  -6.465  38.617  1.00  0.00    -0.000 C 
BRANCH   8   9
ATOM      9  C   UNL     1       1.695  -5.642  38.239  1.00  0.00    -0.000 C 
BRANCH   9  10
ATOM     10  C   UNL     1       2.704  -5.441  39.384  1.00  0.00    -0.000 C 
BRANCH  10  11
ATOM     11  C   UNL     1       2.137  -4.625  40.566  1.00  0.00    -0.000 C 
BRANCH  11  12
ATOM     12  C   UNL     1       2.816  -4.987  41.900  1.00  0.00    -0.000 C 
BRANCH  12  13
ATOM     13  C   UNL     1       3.934  -4.004  42.286  1.00  0.00    -0.000 C 
BRANCH  13  14
ATOM     14  C   UNL     1       5.329  -4.490  41.853  1.00  0.00    -0.000 C 
BRANCH  14  15
ATOM     15  C   UNL     1       6.415  -3.421  42.055  1.00  0.00    -0.003 C 
ATOM     16  C   UNL     1       5.847  -2.101  42.578  1.00  0.00     0.004 C 
ENDBRANCH  14  15
ENDBRANCH  13  14
ENDBRANCH  12  13
ENDBRANCH  11  12
ENDBRANCH  10  11
ENDBRANCH   9  10
ENDBRANCH   8   9
ENDBRANCH   7   8
ENDBRANCH   6   7
ENDBRANCH   5   6
ENDBRANCH   4   5
ENDBRANCH   3   4
ENDBRANCH   2   3
ENDBRANCH   1   2
BRANCH   1  17
ATOM     17  C   UNL     1       3.297  -2.059  38.129  1.00  0.00     0.000 C 
BRANCH  17  18
ATOM     18  C   UNL     1       4.666  -2.487  38.687  1.00  0.00     0.000 C 
BRANCH  18  19
ATOM     19  C   UNL     1       5.621  -1.305  38.909  1.00  0.00     0.000 C 
BRANCH  19  20
ATOM     20  C   UNL     1       7.096  -1.683  38.680  1.00  0.00     0.000 C 
BRANCH  20  21
ATOM     21  C   UNL     1       7.800  -0.751  37.676  1.00  0.00     0.000 C 
BRANCH  21  22
ATOM     22  C   UNL     1       6.891  -0.173  36.569  1.00  0.00     0.000 C 
BRANCH  22  23
ATOM     23  C   UNL     1       6.370  -1.194  35.537  1.00  0.00     0.000 C 
BRANCH  23  24
ATOM     24  C   UNL     1       7.469  -1.943  34.761  1.00  0.00     0.000 C 
BRANCH  24  25
ATOM     25  C   UNL     1       8.567  -0.999  34.245  1.00  0.00     0.000 C 
BRANCH  25  26
ATOM     26  C   UNL     1       9.979  -1.564  34.479  1.00  0.00     0.000 C 
BRANCH  26  27
ATOM     27  C   UNL     1      10.136  -3.061  34.130  1.00  0.00     0.002 C 
BRANCH  27  28
ATOM     28  C   UNL     1      10.703  -3.944  35.258  1.00  0.00     0.028 C 
BRANCH  28  29
ATOM     29  C   UNL     1       9.644  -4.828  35.925  1.00  0.00     0.156 C 
BRANCH  29  30
ATOM     30  O   UNL     1       8.995  -4.102  36.934  1.00  0.00    -0.396 OA
ATOM     31  H   UNL     1       9.657  -3.989  37.665  1.00  0.00     0.210 HD
ENDBRANCH  29  30
ENDBRANCH  28  29
ENDBRANCH  27  28
ENDBRANCH  26  27
ENDBRANCH  25  26
ENDBRANCH  24  25
ENDBRANCH  23  24
ENDBRANCH  22  23
ENDBRANCH  21  22
ENDBRANCH  20  21
ENDBRANCH  19  20
ENDBRANCH  18  19
ENDBRANCH  17  18
ENDBRANCH   1  17
TORSDOF 28
ENDMDL
MODEL 9
REMARK VINA RESULT:    -3.664      3.771      8.440
REMARK INTER + INTRA:         -13.914
REMARK INTER:                  -8.148
REMARK INTRA:                  -5.766
REMARK UNBOUND:                -4.360
REMARK SMILES CCCCCCCCCCCCCCCCCCCCCCCCCCCCCO
REMARK SMILES IDX 16 1 15 2 14 3 13 4 12 5 11 6 10 7 9 8 8 9 7 10 6 11 5 12
REMARK SMILES IDX 4 13 3 14 2 15 1 16 17 17 18 18 19 19 20 20 21 21 22 22
REMARK SMILES IDX 23 23 24 24 25 25 26 26 27 27 28 28 29 29 30 30
REMARK H PARENT 30 31
REMARK Flexibility Score: inf
ROOT
ATOM      1  C   UNL     1       1.061  -0.610  38.876  1.00  0.00     0.000 C 
ENDROOT
BRANCH   1   2
ATOM      2  C   UNL     1       0.507  -2.020  39.158  1.00  0.00     0.000 C 
BRANCH   2   3
ATOM      3  C   UNL     1       0.735  -2.988  37.986  1.00  0.00     0.000 C 
BRANCH   3   4
ATOM      4  C   UNL     1      -0.269  -4.150  37.966  1.00  0.00     0.000 C 
BRANCH   4   5
ATOM      5  C   UNL     1      -1.044  -4.215  39.288  1.00  0.00     0.000 C 
BRANCH   5   6
ATOM      6  C   UNL     1      -0.933  -5.604  39.938  1.00  0.00     0.000 C 
BRANCH   6   7
ATOM      7  C   UNL     1      -0.314  -5.556  41.345  1.00  0.00     0.000 C 
BRANCH   7   8
ATOM      8  C   UNL     1      -0.349  -4.148  41.964  1.00  0.00    -0.000 C 
BRANCH   8   9
ATOM      9  C   UNL     1       1.031  -3.692  42.470  1.00  0.00    -0.000 C 
BRANCH   9  10
ATOM     10  C   UNL     1       1.985  -4.836  42.856  1.00  0.00    -0.000 C 
BRANCH  10  11
ATOM     11  C   UNL     1       3.291  -4.852  42.031  1.00  0.00    -0.000 C 
BRANCH  11  12
ATOM     12  C   UNL     1       3.091  -4.278  40.616  1.00  0.00    -0.000 C 
BRANCH  12  13
ATOM     13  C   UNL     1       3.197  -5.349  39.518  1.00  0.00    -0.000 C 
BRANCH  13  14
ATOM     14  C   UNL     1       3.318  -6.775  40.088  1.00  0.00    -0.000 C 
BRANCH  14  15
ATOM     15  C   UNL     1       2.212  -7.710  39.574  1.00  0.00    -0.003 C 
ATOM     16  C   UNL     1       1.709  -7.315  38.185  1.00  0.00     0.004 C 
ENDBRANCH  14  15
ENDBRANCH  13  14
ENDBRANCH  12  13
ENDBRANCH  11  12
ENDBRANCH  10  11
ENDBRANCH   9  10
ENDBRANCH   8   9
ENDBRANCH   7   8
ENDBRANCH   6   7
ENDBRANCH   5   6
ENDBRANCH   4   5
ENDBRANCH   3   4
ENDBRANCH   2   3
ENDBRANCH   1   2
BRANCH   1  17
ATOM     17  C   UNL     1       2.598  -0.561  38.903  1.00  0.00     0.000 C 
BRANCH  17  18
ATOM     18  C   UNL     1       3.141   0.541  39.832  1.00  0.00     0.000 C 
BRANCH  18  19
ATOM     19  C   UNL     1       2.812   0.297  41.311  1.00  0.00     0.000 C 
BRANCH  19  20
ATOM     20  C   UNL     1       3.477  -0.976  41.865  1.00  0.00     0.000 C 
BRANCH  20  21
ATOM     21  C   UNL     1       3.757  -0.891  43.378  1.00  0.00     0.000 C 
BRANCH  21  22
ATOM     22  C   UNL     1       5.125  -1.450  43.824  1.00  0.00     0.000 C 
BRANCH  22  23
ATOM     23  C   UNL     1       5.664  -2.633  42.993  1.00  0.00     0.000 C 
BRANCH  23  24
ATOM     24  C   UNL     1       7.161  -2.546  42.645  1.00  0.00     0.000 C 
BRANCH  24  25
ATOM     25  C   UNL     1       7.399  -2.070  41.203  1.00  0.00     0.000 C 
BRANCH  25  26
ATOM     26  C   UNL     1       6.632  -2.919  40.174  1.00  0.00     0.000 C 
BRANCH  26  27
ATOM     27  C   UNL     1       5.757  -2.104  39.196  1.00  0.00     0.002 C 
BRANCH  27  28
ATOM     28  C   UNL     1       6.380  -1.849  37.810  1.00  0.00     0.028 C 
BRANCH  28  29
ATOM     29  C   UNL     1       6.695  -0.372  37.549  1.00  0.00     0.156 C 
BRANCH  29  30
ATOM     30  O   UNL     1       6.191   0.001  36.295  1.00  0.00    -0.396 OA
ATOM     31  H   UNL     1       5.924   0.954  36.374  1.00  0.00     0.210 HD
ENDBRANCH  29  30
ENDBRANCH  28  29
ENDBRANCH  27  28
ENDBRANCH  26  27
ENDBRANCH  25  26
ENDBRANCH  24  25
ENDBRANCH  23  24
ENDBRANCH  22  23
ENDBRANCH  21  22
ENDBRANCH  20  21
ENDBRANCH  19  20
ENDBRANCH  18  19
ENDBRANCH  17  18
ENDBRANCH   1  17
TORSDOF 28
ENDMDL
