MODEL 1
REMARK VINA RESULT:    -4.214      0.000      0.000
REMARK INTER + INTRA:          -3.247
REMARK INTER:                  -4.460
REMARK INTRA:                   1.214
REMARK UNBOUND:                 1.214
REMARK SMILES CC(C)[C@@H]1CC[C@@H](C)CC1=O
REMARK SMILES IDX 8 1 7 2 6 3 5 4 4 5 10 6 11 7 9 8 2 9 1 10 3 11
REMARK H PARENT
REMARK Flexibility Score: inf
ROOT
ATOM      1  C   UNL     1       7.567   7.853  17.964  1.00  0.00     0.008 C 
ATOM      2  C   UNL     1       7.531   6.324  17.876  1.00  0.00    -0.007 C 
ATOM      3  C   UNL     1       6.405   5.757  18.762  1.00  0.00     0.004 C 
ATOM      4  C   UNL     1       6.335   4.227  18.641  1.00  0.00     0.012 C 
ATOM      5  C   UNL     1       7.669   3.565  19.061  1.00  0.00     0.058 C 
ATOM      6  C   UNL     1       8.823   4.226  18.326  1.00  0.00     0.136 C 
ATOM      7  O   UNL     1       9.749   3.567  17.875  1.00  0.00    -0.299 OA
ATOM      8  C   UNL     1       8.893   5.729  18.277  1.00  0.00     0.079 C 
ENDROOT
BRANCH   5   9
ATOM      9  C   UNL     1       7.659   2.009  18.918  1.00  0.00    -0.007 C 
ATOM     10  C   UNL     1       8.914   1.445  18.230  1.00  0.00     0.008 C 
ATOM     11  C   UNL     1       6.395   1.509  18.202  1.00  0.00     0.008 C 
ENDBRANCH   5   9
TORSDOF 1
ENDMDL
MODEL 2
REMARK VINA RESULT:    -2.241      1.098      4.303
REMARK INTER + INTRA:          -1.158
REMARK INTER:                  -1.907
REMARK INTRA:                   0.748
REMARK UNBOUND:                 1.214
REMARK SMILES CC(C)[C@@H]1CC[C@@H](C)CC1=O
REMARK SMILES IDX 8 1 7 2 6 3 5 4 4 5 10 6 11 7 9 8 2 9 1 10 3 11
REMARK H PARENT
REMARK Flexibility Score: inf
ROOT
ATOM      1  C   UNL     1       7.768   1.349  18.221  1.00  0.00     0.008 C 
ATOM      2  C   UNL     1       7.873   2.827  18.607  1.00  0.00    -0.007 C 
ATOM      3  C   UNL     1       6.559   3.566  18.285  1.00  0.00     0.004 C 
ATOM      4  C   UNL     1       6.642   5.038  18.713  1.00  0.00     0.012 C 
ATOM      5  C   UNL     1       7.803   5.771  17.997  1.00  0.00     0.058 C 
ATOM      6  C   UNL     1       9.086   4.972  18.154  1.00  0.00     0.136 C 
ATOM      7  O   UNL     1      10.154   5.523  18.378  1.00  0.00    -0.299 OA
ATOM      8  C   UNL     1       9.061   3.490  17.887  1.00  0.00     0.079 C 
ENDROOT
BRANCH   5   9
ATOM      9  C   UNL     1       7.951   7.265  18.430  1.00  0.00    -0.007 C 
ATOM     10  C   UNL     1       6.737   8.136  18.064  1.00  0.00     0.008 C 
ATOM     11  C   UNL     1       9.238   7.894  17.875  1.00  0.00     0.008 C 
ENDBRANCH   5   9
TORSDOF 1
ENDMDL
MODEL 3
REMARK VINA RESULT:    -1.657      1.008      3.913
REMARK INTER + INTRA:          -0.540
REMARK INTER:                  -1.150
REMARK INTRA:                   0.611
REMARK UNBOUND:                 1.214
REMARK SMILES CC(C)[C@@H]1CC[C@@H](C)CC1=O
REMARK SMILES IDX 8 1 7 2 6 3 5 4 4 5 10 6 11 7 9 8 2 9 1 10 3 11
REMARK H PARENT
REMARK Flexibility Score: inf
ROOT
ATOM      1  C   UNL     1       5.555   1.004  19.367  1.00  0.00     0.008 C 
ATOM      2  C   UNL     1       6.469   2.231  19.297  1.00  0.00    -0.007 C 
ATOM      3  C   UNL     1       5.643   3.508  19.046  1.00  0.00     0.004 C 
ATOM      4  C   UNL     1       6.549   4.748  19.021  1.00  0.00     0.012 C 
ATOM      5  C   UNL     1       7.628   4.638  17.917  1.00  0.00     0.058 C 
ATOM      6  C   UNL     1       8.348   3.304  18.035  1.00  0.00     0.136 C 
ATOM      7  O   UNL     1       9.558   3.220  17.883  1.00  0.00    -0.299 OA
ATOM      8  C   UNL     1       7.535   2.048  18.202  1.00  0.00     0.079 C 
ENDROOT
BRANCH   5   9
ATOM      9  C   UNL     1       8.600   5.860  17.877  1.00  0.00    -0.007 C 
ATOM     10  C   UNL     1       9.839   5.691  18.775  1.00  0.00     0.008 C 
ATOM     11  C   UNL     1       7.880   7.174  18.216  1.00  0.00     0.008 C 
ENDBRANCH   5   9
TORSDOF 1
ENDMDL
