MODEL 1
REMARK VINA RESULT:    -6.301      0.000      0.000
REMARK INTER + INTRA:         -11.581
REMARK INTER:                 -10.721
REMARK INTRA:                  -0.860
REMARK UNBOUND:                -0.860
REMARK SMILES CCCCCCCCCCCCCC(=O)[O-]
REMARK SMILES IDX 8 1 9 2 10 3 11 4 12 5 13 6 14 7 15 8 16 9 7 10 6 11 5 12
REMARK SMILES IDX 4 13 3 14 2 15 1 16
REMARK H PARENT
REMARK Flexibility Score: inf
ROOT
ATOM      1  C   UNL     1      -3.566   2.081   4.589  1.00  0.00     0.000 C 
ENDROOT
BRANCH   1   2
ATOM      2  C   UNL     1      -4.466   2.008   3.340  1.00  0.00     0.000 C 
BRANCH   2   3
ATOM      3  C   UNL     1      -4.681   0.591   2.775  1.00  0.00     0.000 C 
BRANCH   3   4
ATOM      4  C   UNL     1      -5.928  -0.142   3.310  1.00  0.00     0.000 C 
BRANCH   4   5
ATOM      5  C   UNL     1      -5.638  -1.279   4.311  1.00  0.00     0.006 C 
BRANCH   5   6
ATOM      6  C   UNL     1      -4.151  -1.649   4.438  1.00  0.00     0.053 C 
BRANCH   6   7
ATOM      7  C   UNL     1      -3.776  -1.982   5.849  1.00  0.00     0.041 C 
ATOM      8  O   UNL     1      -3.500  -1.064   6.666  1.00  0.00    -0.550 OA
ATOM      9  O   UNL     1      -3.764  -3.306   6.271  1.00  0.00    -0.550 OA
ENDBRANCH   6   7
ENDBRANCH   5   6
ENDBRANCH   4   5
ENDBRANCH   3   4
ENDBRANCH   2   3
ENDBRANCH   1   2
BRANCH   1  10
ATOM     10  C   UNL     1      -3.148   3.505   5.005  1.00  0.00     0.000 C 
BRANCH  10  11
ATOM     11  C   UNL     1      -4.314   4.488   5.231  1.00  0.00    -0.000 C 
BRANCH  11  12
ATOM     12  C   UNL     1      -4.220   5.818   4.452  1.00  0.00    -0.000 C 
BRANCH  12  13
ATOM     13  C   UNL     1      -5.577   6.471   4.121  1.00  0.00    -0.000 C 
BRANCH  13  14
ATOM     14  C   UNL     1      -6.479   5.602   3.214  1.00  0.00    -0.000 C 
BRANCH  14  15
ATOM     15  C   UNL     1      -6.863   6.288   1.894  1.00  0.00    -0.003 C 
ATOM     16  C   UNL     1      -5.711   7.079   1.279  1.00  0.00     0.004 C 
ENDBRANCH  14  15
ENDBRANCH  13  14
ENDBRANCH  12  13
ENDBRANCH  11  12
ENDBRANCH  10  11
ENDBRANCH   1  10
TORSDOF 12
ENDMDL
MODEL 2
REMARK VINA RESULT:    -6.298      1.960      3.039
REMARK INTER + INTRA:         -11.577
REMARK INTER:                 -10.885
REMARK INTRA:                  -0.691
REMARK UNBOUND:                -0.860
REMARK SMILES CCCCCCCCCCCCCC(=O)[O-]
REMARK SMILES IDX 8 1 9 2 10 3 11 4 12 5 13 6 14 7 15 8 16 9 7 10 6 11 5 12
REMARK SMILES IDX 4 13 3 14 2 15 1 16
REMARK H PARENT
REMARK Flexibility Score: inf
ROOT
ATOM      1  C   UNL     1      -4.346   4.690   5.358  1.00  0.00     0.000 C 
ENDROOT
BRANCH   1   2
ATOM      2  C   UNL     1      -3.198   3.833   4.788  1.00  0.00     0.000 C 
BRANCH   2   3
ATOM      3  C   UNL     1      -3.531   2.340   4.606  1.00  0.00     0.000 C 
BRANCH   3   4
ATOM      4  C   UNL     1      -4.335   2.000   3.335  1.00  0.00     0.000 C 
BRANCH   4   5
ATOM      5  C   UNL     1      -4.268   0.523   2.895  1.00  0.00     0.006 C 
BRANCH   5   6
ATOM      6  C   UNL     1      -4.293  -0.486   4.054  1.00  0.00     0.053 C 
BRANCH   6   7
ATOM      7  C   UNL     1      -5.638  -1.127   4.208  1.00  0.00     0.041 C 
ATOM      8  O   UNL     1      -6.507  -1.003   3.306  1.00  0.00    -0.550 OA
ATOM      9  O   UNL     1      -5.919  -1.890   5.335  1.00  0.00    -0.550 OA
ENDBRANCH   6   7
ENDBRANCH   5   6
ENDBRANCH   4   5
ENDBRANCH   3   4
ENDBRANCH   2   3
ENDBRANCH   1   2
BRANCH   1  10
ATOM     10  C   UNL     1      -4.826   5.827   4.435  1.00  0.00     0.000 C 
BRANCH  10  11
ATOM     11  C   UNL     1      -6.147   5.550   3.691  1.00  0.00    -0.000 C 
BRANCH  11  12
ATOM     12  C   UNL     1      -6.374   6.381   2.409  1.00  0.00    -0.000 C 
BRANCH  12  13
ATOM     13  C   UNL     1      -7.699   6.093   1.676  1.00  0.00    -0.000 C 
BRANCH  13  14
ATOM     14  C   UNL     1      -8.860   5.707   2.621  1.00  0.00    -0.000 C 
BRANCH  14  15
ATOM     15  C   UNL     1     -10.225   5.639   1.919  1.00  0.00    -0.003 C 
ATOM     16  C   UNL     1     -10.145   5.974   0.431  1.00  0.00     0.004 C 
ENDBRANCH  14  15
ENDBRANCH  13  14
ENDBRANCH  12  13
ENDBRANCH  11  12
ENDBRANCH  10  11
ENDBRANCH   1  10
TORSDOF 12
ENDMDL
MODEL 3
REMARK VINA RESULT:    -6.288      3.521      4.637
REMARK INTER + INTRA:         -11.560
REMARK INTER:                 -11.072
REMARK INTRA:                  -0.488
REMARK UNBOUND:                -0.860
REMARK SMILES CCCCCCCCCCCCCC(=O)[O-]
REMARK SMILES IDX 8 1 9 2 10 3 11 4 12 5 13 6 14 7 15 8 16 9 7 10 6 11 5 12
REMARK SMILES IDX 4 13 3 14 2 15 1 16
REMARK H PARENT
REMARK Flexibility Score: inf
ROOT
ATOM      1  C   UNL     1      -3.932   5.616   4.593  1.00  0.00     0.000 C 
ENDROOT
BRANCH   1   2
ATOM      2  C   UNL     1      -4.097   4.474   5.616  1.00  0.00     0.000 C 
BRANCH   2   3
ATOM      3  C   UNL     1      -3.001   3.391   5.563  1.00  0.00     0.000 C 
BRANCH   3   4
ATOM      4  C   UNL     1      -3.088   2.321   6.670  1.00  0.00     0.000 C 
BRANCH   4   5
ATOM      5  C   UNL     1      -2.868   2.845   8.104  1.00  0.00     0.006 C 
BRANCH   5   6
ATOM      6  C   UNL     1      -2.560   1.752   9.139  1.00  0.00     0.053 C 
BRANCH   6   7
ATOM      7  C   UNL     1      -1.151   1.836   9.639  1.00  0.00     0.041 C 
ATOM      8  O   UNL     1      -0.916   1.841  10.876  1.00  0.00    -0.550 OA
ATOM      9  O   UNL     1      -0.095   1.875   8.737  1.00  0.00    -0.550 OA
ENDBRANCH   6   7
ENDBRANCH   5   6
ENDBRANCH   4   5
ENDBRANCH   3   4
ENDBRANCH   2   3
ENDBRANCH   1   2
BRANCH   1  10
ATOM     10  C   UNL     1      -5.228   6.385   4.267  1.00  0.00     0.000 C 
BRANCH  10  11
ATOM     11  C   UNL     1      -5.433   6.719   2.776  1.00  0.00    -0.000 C 
BRANCH  11  12
ATOM     12  C   UNL     1      -6.784   6.273   2.176  1.00  0.00    -0.000 C 
BRANCH  12  13
ATOM     13  C   UNL     1      -7.829   5.808   3.209  1.00  0.00    -0.000 C 
BRANCH  13  14
ATOM     14  C   UNL     1      -9.252   5.649   2.623  1.00  0.00    -0.000 C 
BRANCH  14  15
ATOM     15  C   UNL     1      -9.335   5.967   1.122  1.00  0.00    -0.003 C 
ATOM     16  C   UNL     1     -10.771   6.010   0.603  1.00  0.00     0.004 C 
ENDBRANCH  14  15
ENDBRANCH  13  14
ENDBRANCH  12  13
ENDBRANCH  11  12
ENDBRANCH  10  11
ENDBRANCH   1  10
TORSDOF 12
ENDMDL
MODEL 4
REMARK VINA RESULT:    -6.049      3.172      6.379
REMARK INTER + INTRA:         -11.152
REMARK INTER:                 -10.026
REMARK INTRA:                  -1.126
REMARK UNBOUND:                -0.860
REMARK SMILES CCCCCCCCCCCCCC(=O)[O-]
REMARK SMILES IDX 8 1 9 2 10 3 11 4 12 5 13 6 14 7 15 8 16 9 7 10 6 11 5 12
REMARK SMILES IDX 4 13 3 14 2 15 1 16
REMARK H PARENT
REMARK Flexibility Score: inf
ROOT
ATOM      1  C   UNL     1      -3.939   1.045   2.904  1.00  0.00     0.000 C 
ENDROOT
BRANCH   1   2
ATOM      2  C   UNL     1      -4.321   2.021   4.034  1.00  0.00     0.000 C 
BRANCH   2   3
ATOM      3  C   UNL     1      -3.201   2.989   4.464  1.00  0.00     0.000 C 
BRANCH   3   4
ATOM      4  C   UNL     1      -3.222   3.391   5.952  1.00  0.00     0.000 C 
BRANCH   4   5
ATOM      5  C   UNL     1      -2.881   2.256   6.940  1.00  0.00     0.006 C 
BRANCH   5   6
ATOM      6  C   UNL     1      -2.719   2.712   8.399  1.00  0.00     0.053 C 
BRANCH   6   7
ATOM      7  C   UNL     1      -1.778   1.830   9.159  1.00  0.00     0.041 C 
ATOM      8  O   UNL     1      -2.203   0.791   9.730  1.00  0.00    -0.550 OA
ATOM      9  O   UNL     1      -0.424   2.137   9.209  1.00  0.00    -0.550 OA
ENDBRANCH   6   7
ENDBRANCH   5   6
ENDBRANCH   4   5
ENDBRANCH   3   4
ENDBRANCH   2   3
ENDBRANCH   1   2
BRANCH   1  10
ATOM     10  C   UNL     1      -5.127   0.310   2.253  1.00  0.00     0.000 C 
BRANCH  10  11
ATOM     11  C   UNL     1      -6.352   0.111   3.167  1.00  0.00    -0.000 C 
BRANCH  11  12
ATOM     12  C   UNL     1      -6.559  -1.325   3.697  1.00  0.00    -0.000 C 
BRANCH  12  13
ATOM     13  C   UNL     1      -5.998  -1.581   5.110  1.00  0.00    -0.000 C 
BRANCH  13  14
ATOM     14  C   UNL     1      -4.525  -2.051   5.117  1.00  0.00    -0.000 C 
BRANCH  14  15
ATOM     15  C   UNL     1      -3.658  -1.332   6.163  1.00  0.00    -0.003 C 
ATOM     16  C   UNL     1      -2.600  -2.242   6.783  1.00  0.00     0.004 C 
ENDBRANCH  14  15
ENDBRANCH  13  14
ENDBRANCH  12  13
ENDBRANCH  11  12
ENDBRANCH  10  11
ENDBRANCH   1  10
TORSDOF 12
ENDMDL
MODEL 5
REMARK VINA RESULT:    -5.990      4.432      5.322
REMARK INTER + INTRA:         -11.053
REMARK INTER:                 -10.533
REMARK INTRA:                  -0.519
REMARK UNBOUND:                -0.860
REMARK SMILES CCCCCCCCCCCCCC(=O)[O-]
REMARK SMILES IDX 8 1 9 2 10 3 11 4 12 5 13 6 14 7 15 8 16 9 7 10 6 11 5 12
REMARK SMILES IDX 4 13 3 14 2 15 1 16
REMARK H PARENT
REMARK Flexibility Score: inf
ROOT
ATOM      1  C   UNL     1      -4.161   0.601   2.578  1.00  0.00     0.000 C 
ENDROOT
BRANCH   1   2
ATOM      2  C   UNL     1      -5.025   0.413   1.316  1.00  0.00     0.000 C 
BRANCH   2   3
ATOM      3  C   UNL     1      -4.241   0.057   0.038  1.00  0.00     0.000 C 
BRANCH   3   4
ATOM      4  C   UNL     1      -4.965   0.383  -1.284  1.00  0.00     0.000 C 
BRANCH   4   5
ATOM      5  C   UNL     1      -4.217  -0.050  -2.562  1.00  0.00     0.006 C 
BRANCH   5   6
ATOM      6  C   UNL     1      -4.287  -1.556  -2.859  1.00  0.00     0.053 C 
BRANCH   6   7
ATOM      7  C   UNL     1      -2.927  -2.184  -2.890  1.00  0.00     0.041 C 
ATOM      8  O   UNL     1      -2.620  -2.988  -3.809  1.00  0.00    -0.550 OA
ATOM      9  O   UNL     1      -1.988  -1.854  -1.921  1.00  0.00    -0.550 OA
ENDBRANCH   6   7
ENDBRANCH   5   6
ENDBRANCH   4   5
ENDBRANCH   3   4
ENDBRANCH   2   3
ENDBRANCH   1   2
BRANCH   1  10
ATOM     10  C   UNL     1      -4.453   1.886   3.378  1.00  0.00     0.000 C 
BRANCH  10  11
ATOM     11  C   UNL     1      -3.250   2.463   4.150  1.00  0.00    -0.000 C 
BRANCH  11  12
ATOM     12  C   UNL     1      -3.603   3.420   5.310  1.00  0.00    -0.000 C 
BRANCH  12  13
ATOM     13  C   UNL     1      -3.791   4.894   4.900  1.00  0.00    -0.000 C 
BRANCH  13  14
ATOM     14  C   UNL     1      -5.263   5.365   4.934  1.00  0.00    -0.000 C 
BRANCH  14  15
ATOM     15  C   UNL     1      -5.613   6.362   3.817  1.00  0.00    -0.003 C 
ATOM     16  C   UNL     1      -6.784   5.898   2.954  1.00  0.00     0.004 C 
ENDBRANCH  14  15
ENDBRANCH  13  14
ENDBRANCH  12  13
ENDBRANCH  11  12
ENDBRANCH  10  11
ENDBRANCH   1  10
TORSDOF 12
ENDMDL
MODEL 6
REMARK VINA RESULT:    -5.958      3.631      7.252
REMARK INTER + INTRA:         -10.997
REMARK INTER:                 -10.029
REMARK INTRA:                  -0.968
REMARK UNBOUND:                -0.860
REMARK SMILES CCCCCCCCCCCCCC(=O)[O-]
REMARK SMILES IDX 8 1 9 2 10 3 11 4 12 5 13 6 14 7 15 8 16 9 7 10 6 11 5 12
REMARK SMILES IDX 4 13 3 14 2 15 1 16
REMARK H PARENT
REMARK Flexibility Score: inf
ROOT
ATOM      1  C   UNL     1      -3.080   3.327   4.789  1.00  0.00     0.000 C 
ENDROOT
BRANCH   1   2
ATOM      2  C   UNL     1      -3.985   4.476   5.277  1.00  0.00     0.000 C 
BRANCH   2   3
ATOM      3  C   UNL     1      -3.811   5.807   4.519  1.00  0.00     0.000 C 
BRANCH   3   4
ATOM      4  C   UNL     1      -5.123   6.477   4.068  1.00  0.00     0.000 C 
BRANCH   4   5
ATOM      5  C   UNL     1      -6.223   5.506   3.593  1.00  0.00     0.006 C 
BRANCH   5   6
ATOM      6  C   UNL     1      -7.110   6.055   2.464  1.00  0.00     0.053 C 
BRANCH   6   7
ATOM      7  C   UNL     1      -8.568   5.896   2.770  1.00  0.00     0.041 C 
ATOM      8  O   UNL     1      -9.390   5.677   1.842  1.00  0.00    -0.550 OA
ATOM      9  O   UNL     1      -9.012   5.958   4.084  1.00  0.00    -0.550 OA
ENDBRANCH   6   7
ENDBRANCH   5   6
ENDBRANCH   4   5
ENDBRANCH   3   4
ENDBRANCH   2   3
ENDBRANCH   1   2
BRANCH   1  10
ATOM     10  C   UNL     1      -3.813   2.000   4.510  1.00  0.00     0.000 C 
BRANCH  10  11
ATOM     11  C   UNL     1      -4.178   1.753   3.033  1.00  0.00    -0.000 C 
BRANCH  11  12
ATOM     12  C   UNL     1      -4.644   0.320   2.695  1.00  0.00    -0.000 C 
BRANCH  12  13
ATOM     13  C   UNL     1      -5.960  -0.110   3.373  1.00  0.00    -0.000 C 
BRANCH  13  14
ATOM     14  C   UNL     1      -5.808  -1.336   4.302  1.00  0.00    -0.000 C 
BRANCH  14  15
ATOM     15  C   UNL     1      -4.345  -1.732   4.560  1.00  0.00    -0.003 C 
ATOM     16  C   UNL     1      -3.898  -1.449   5.992  1.00  0.00     0.004 C 
ENDBRANCH  14  15
ENDBRANCH  13  14
ENDBRANCH  12  13
ENDBRANCH  11  12
ENDBRANCH  10  11
ENDBRANCH   1  10
TORSDOF 12
ENDMDL
MODEL 7
REMARK VINA RESULT:    -5.948      3.850      7.151
REMARK INTER + INTRA:         -10.980
REMARK INTER:                 -10.272
REMARK INTRA:                  -0.709
REMARK UNBOUND:                -0.860
REMARK SMILES CCCCCCCCCCCCCC(=O)[O-]
REMARK SMILES IDX 8 1 9 2 10 3 11 4 12 5 13 6 14 7 15 8 16 9 7 10 6 11 5 12
REMARK SMILES IDX 4 13 3 14 2 15 1 16
REMARK H PARENT
REMARK Flexibility Score: inf
ROOT
ATOM      1  C   UNL     1      -4.751   4.881   5.037  1.00  0.00     0.000 C 
ENDROOT
BRANCH   1   2
ATOM      2  C   UNL     1      -5.503   6.178   4.680  1.00  0.00     0.000 C 
BRANCH   2   3
ATOM      3  C   UNL     1      -5.285   6.682   3.241  1.00  0.00     0.000 C 
BRANCH   3   4
ATOM      4  C   UNL     1      -6.425   6.357   2.255  1.00  0.00     0.000 C 
BRANCH   4   5
ATOM      5  C   UNL     1      -7.627   5.611   2.870  1.00  0.00     0.006 C 
BRANCH   5   6
ATOM      6  C   UNL     1      -8.971   5.894   2.180  1.00  0.00     0.053 C 
BRANCH   6   7
ATOM      7  C   UNL     1     -10.133   5.623   3.085  1.00  0.00     0.041 C 
ATOM      8  O   UNL     1     -10.497   4.439   3.312  1.00  0.00    -0.550 OA
ATOM      9  O   UNL     1     -10.792   6.676   3.705  1.00  0.00    -0.550 OA
ENDBRANCH   6   7
ENDBRANCH   5   6
ENDBRANCH   4   5
ENDBRANCH   3   4
ENDBRANCH   2   3
ENDBRANCH   1   2
BRANCH   1  10
ATOM     10  C   UNL     1      -3.255   4.878   4.667  1.00  0.00     0.000 C 
BRANCH  10  11
ATOM     11  C   UNL     1      -2.641   3.483   4.436  1.00  0.00    -0.000 C 
BRANCH  11  12
ATOM     12  C   UNL     1      -3.623   2.297   4.555  1.00  0.00    -0.000 C 
BRANCH  12  13
ATOM     13  C   UNL     1      -4.244   1.834   3.222  1.00  0.00    -0.000 C 
BRANCH  13  14
ATOM     14  C   UNL     1      -4.305   0.297   3.066  1.00  0.00    -0.000 C 
BRANCH  14  15
ATOM     15  C   UNL     1      -4.414  -0.450   4.405  1.00  0.00    -0.003 C 
ATOM     16  C   UNL     1      -5.575  -1.442   4.438  1.00  0.00     0.004 C 
ENDBRANCH  14  15
ENDBRANCH  13  14
ENDBRANCH  12  13
ENDBRANCH  11  12
ENDBRANCH  10  11
ENDBRANCH   1  10
TORSDOF 12
ENDMDL
MODEL 8
REMARK VINA RESULT:    -5.899      3.598      7.501
REMARK INTER + INTRA:         -10.897
REMARK INTER:                  -9.980
REMARK INTRA:                  -0.917
REMARK UNBOUND:                -0.860
REMARK SMILES CCCCCCCCCCCCCC(=O)[O-]
REMARK SMILES IDX 8 1 9 2 10 3 11 4 12 5 13 6 14 7 15 8 16 9 7 10 6 11 5 12
REMARK SMILES IDX 4 13 3 14 2 15 1 16
REMARK H PARENT
REMARK Flexibility Score: inf
ROOT
ATOM      1  C   UNL     1      -3.594   1.698   3.648  1.00  0.00     0.000 C 
ENDROOT
BRANCH   1   2
ATOM      2  C   UNL     1      -3.571   2.564   4.923  1.00  0.00     0.000 C 
BRANCH   2   3
ATOM      3  C   UNL     1      -3.629   4.084   4.678  1.00  0.00     0.000 C 
BRANCH   3   4
ATOM      4  C   UNL     1      -4.693   4.838   5.501  1.00  0.00     0.000 C 
BRANCH   4   5
ATOM      5  C   UNL     1      -5.787   5.537   4.670  1.00  0.00     0.006 C 
BRANCH   5   6
ATOM      6  C   UNL     1      -5.252   6.506   3.603  1.00  0.00     0.053 C 
BRANCH   6   7
ATOM      7  C   UNL     1      -6.150   6.570   2.405  1.00  0.00     0.041 C 
ATOM      8  O   UNL     1      -5.773   7.164   1.361  1.00  0.00    -0.550 OA
ATOM      9  O   UNL     1      -7.390   5.944   2.432  1.00  0.00    -0.550 OA
ENDBRANCH   6   7
ENDBRANCH   5   6
ENDBRANCH   4   5
ENDBRANCH   3   4
ENDBRANCH   2   3
ENDBRANCH   1   2
BRANCH   1  10
ATOM     10  C   UNL     1      -5.000   1.415   3.083  1.00  0.00     0.000 C 
BRANCH  10  11
ATOM     11  C   UNL     1      -5.298  -0.068   2.784  1.00  0.00    -0.000 C 
BRANCH  11  12
ATOM     12  C   UNL     1      -6.439  -0.696   3.614  1.00  0.00    -0.000 C 
BRANCH  12  13
ATOM     13  C   UNL     1      -5.975  -1.532   4.823  1.00  0.00    -0.000 C 
BRANCH  13  14
ATOM     14  C   UNL     1      -4.455  -1.813   4.837  1.00  0.00    -0.000 C 
BRANCH  14  15
ATOM     15  C   UNL     1      -3.788  -1.505   6.187  1.00  0.00    -0.003 C 
ATOM     16  C   UNL     1      -2.520  -2.322   6.423  1.00  0.00     0.004 C 
ENDBRANCH  14  15
ENDBRANCH  13  14
ENDBRANCH  12  13
ENDBRANCH  11  12
ENDBRANCH  10  11
ENDBRANCH   1  10
TORSDOF 12
ENDMDL
MODEL 9
REMARK VINA RESULT:    -5.897      1.849      2.978
REMARK INTER + INTRA:         -10.895
REMARK INTER:                 -10.118
REMARK INTRA:                  -0.777
REMARK UNBOUND:                -0.860
REMARK SMILES CCCCCCCCCCCCCC(=O)[O-]
REMARK SMILES IDX 8 1 9 2 10 3 11 4 12 5 13 6 14 7 15 8 16 9 7 10 6 11 5 12
REMARK SMILES IDX 4 13 3 14 2 15 1 16
REMARK H PARENT
REMARK Flexibility Score: inf
ROOT
ATOM      1  C   UNL     1      -4.034   0.736   3.152  1.00  0.00     0.000 C 
ENDROOT
BRANCH   1   2
ATOM      2  C   UNL     1      -4.818  -0.393   3.849  1.00  0.00     0.000 C 
BRANCH   2   3
ATOM      3  C   UNL     1      -3.955  -1.566   4.356  1.00  0.00     0.000 C 
BRANCH   3   4
ATOM      4  C   UNL     1      -3.972  -1.775   5.883  1.00  0.00     0.000 C 
BRANCH   4   5
ATOM      5  C   UNL     1      -3.258  -0.680   6.701  1.00  0.00     0.006 C 
BRANCH   5   6
ATOM      6  C   UNL     1      -2.097  -1.191   7.569  1.00  0.00     0.053 C 
BRANCH   6   7
ATOM      7  C   UNL     1      -1.644  -0.162   8.559  1.00  0.00     0.041 C 
ATOM      8  O   UNL     1      -0.967  -0.505   9.565  1.00  0.00    -0.550 OA
ATOM      9  O   UNL     1      -1.940   1.179   8.353  1.00  0.00    -0.550 OA
ENDBRANCH   6   7
ENDBRANCH   5   6
ENDBRANCH   4   5
ENDBRANCH   3   4
ENDBRANCH   2   3
ENDBRANCH   1   2
BRANCH   1  10
ATOM     10  C   UNL     1      -4.354   2.156   3.660  1.00  0.00     0.000 C 
BRANCH  10  11
ATOM     11  C   UNL     1      -3.407   2.688   4.754  1.00  0.00    -0.000 C 
BRANCH  11  12
ATOM     12  C   UNL     1      -3.368   4.224   4.909  1.00  0.00    -0.000 C 
BRANCH  12  13
ATOM     13  C   UNL     1      -4.703   4.866   5.332  1.00  0.00    -0.000 C 
BRANCH  13  14
ATOM     14  C   UNL     1      -5.109   6.081   4.466  1.00  0.00    -0.000 C 
BRANCH  14  15
ATOM     15  C   UNL     1      -6.420   5.871   3.692  1.00  0.00    -0.003 C 
ATOM     16  C   UNL     1      -6.353   6.392   2.258  1.00  0.00     0.004 C 
ENDBRANCH  14  15
ENDBRANCH  13  14
ENDBRANCH  12  13
ENDBRANCH  11  12
ENDBRANCH  10  11
ENDBRANCH   1  10
TORSDOF 12
ENDMDL
