MODEL 1
REMARK VINA RESULT:    -5.805      0.000      0.000
REMARK INTER + INTRA:         -12.348
REMARK INTER:                 -10.895
REMARK INTRA:                  -1.453
REMARK UNBOUND:                -1.453
REMARK SMILES O=C([O-])CCCCCCCCCCCCCCC(=O)[O-]
REMARK SMILES IDX 10 1 9 2 8 3 7 4 6 5 5 6 4 7 2 8 1 9 3 10 11 11 12 12 13 13
REMARK SMILES IDX 14 14 15 15 16 16 17 17 18 18 19 19 20 20
REMARK H PARENT
REMARK Flexibility Score: inf
ROOT
ATOM      1  C   UNL     1      -5.887 -14.188  28.311  1.00  0.00     0.000 C 
ENDROOT
BRANCH   1   2
ATOM      2  C   UNL     1      -7.048 -14.475  29.279  1.00  0.00     0.000 C 
BRANCH   2   3
ATOM      3  C   UNL     1      -6.842 -13.837  30.660  1.00  0.00     0.000 C 
BRANCH   3   4
ATOM      4  C   UNL     1      -7.694 -14.547  31.725  1.00  0.00     0.000 C 
BRANCH   4   5
ATOM      5  C   UNL     1      -7.195 -15.967  32.035  1.00  0.00     0.000 C 
BRANCH   5   6
ATOM      6  C   UNL     1      -8.319 -17.016  31.975  1.00  0.00     0.006 C 
BRANCH   6   7
ATOM      7  C   UNL     1      -9.700 -16.377  31.783  1.00  0.00     0.053 C 
BRANCH   7   8
ATOM      8  C   UNL     1     -10.783 -17.197  32.413  1.00  0.00     0.041 C 
ATOM      9  O   UNL     1     -11.664 -16.645  33.124  1.00  0.00    -0.550 OA
ATOM     10  O   UNL     1     -10.842 -18.564  32.184  1.00  0.00    -0.550 OA
ENDBRANCH   7   8
ENDBRANCH   6   7
ENDBRANCH   5   6
ENDBRANCH   4   5
ENDBRANCH   3   4
ENDBRANCH   2   3
ENDBRANCH   1   2
BRANCH   1  11
ATOM     11  C   UNL     1      -6.248 -14.494  26.848  1.00  0.00     0.000 C 
BRANCH  11  12
ATOM     12  C   UNL     1      -7.668 -15.067  26.686  1.00  0.00     0.000 C 
BRANCH  12  13
ATOM     13  C   UNL     1      -8.683 -14.136  25.999  1.00  0.00     0.000 C 
BRANCH  13  14
ATOM     14  C   UNL     1     -10.096 -14.741  25.921  1.00  0.00     0.000 C 
BRANCH  14  15
ATOM     15  C   UNL     1     -10.375 -15.763  27.038  1.00  0.00     0.000 C 
BRANCH  15  16
ATOM     16  C   UNL     1     -11.862 -16.084  27.278  1.00  0.00     0.006 C 
BRANCH  16  17
ATOM     17  C   UNL     1     -12.232 -16.136  28.766  1.00  0.00     0.053 C 
BRANCH  17  18
ATOM     18  C   UNL     1     -12.525 -17.543  29.181  1.00  0.00     0.041 C 
ATOM     19  O   UNL     1     -13.537 -17.799  29.887  1.00  0.00    -0.550 OA
ATOM     20  O   UNL     1     -11.708 -18.580  28.749  1.00  0.00    -0.550 OA
ENDBRANCH  17  18
ENDBRANCH  16  17
ENDBRANCH  15  16
ENDBRANCH  14  15
ENDBRANCH  13  14
ENDBRANCH  12  13
ENDBRANCH  11  12
ENDBRANCH   1  11
TORSDOF 15
ENDMDL
MODEL 2
REMARK VINA RESULT:    -5.696      0.916      4.511
REMARK INTER + INTRA:         -12.144
REMARK INTER:                 -10.664
REMARK INTRA:                  -1.480
REMARK UNBOUND:                -1.453
REMARK SMILES O=C([O-])CCCCCCCCCCCCCCC(=O)[O-]
REMARK SMILES IDX 10 1 9 2 8 3 7 4 6 5 5 6 4 7 2 8 1 9 3 10 11 11 12 12 13 13
REMARK SMILES IDX 14 14 15 15 16 16 17 17 18 18 19 19 20 20
REMARK H PARENT
REMARK Flexibility Score: inf
ROOT
ATOM      1  C   UNL     1      -6.890 -14.756  26.405  1.00  0.00     0.000 C 
ENDROOT
BRANCH   1   2
ATOM      2  C   UNL     1      -8.308 -14.161  26.437  1.00  0.00     0.000 C 
BRANCH   2   3
ATOM      3  C   UNL     1      -9.323 -14.999  25.646  1.00  0.00     0.000 C 
BRANCH   3   4
ATOM      4  C   UNL     1     -10.641 -15.142  26.422  1.00  0.00     0.000 C 
BRANCH   4   5
ATOM      5  C   UNL     1     -10.515 -16.069  27.641  1.00  0.00     0.000 C 
BRANCH   5   6
ATOM      6  C   UNL     1     -11.692 -17.051  27.765  1.00  0.00     0.006 C 
BRANCH   6   7
ATOM      7  C   UNL     1     -12.796 -16.519  28.687  1.00  0.00     0.053 C 
BRANCH   7   8
ATOM      8  C   UNL     1     -13.133 -17.497  29.771  1.00  0.00     0.041 C 
ATOM      9  O   UNL     1     -13.719 -17.108  30.816  1.00  0.00    -0.550 OA
ATOM     10  O   UNL     1     -12.834 -18.843  29.610  1.00  0.00    -0.550 OA
ENDBRANCH   7   8
ENDBRANCH   6   7
ENDBRANCH   5   6
ENDBRANCH   4   5
ENDBRANCH   3   4
ENDBRANCH   2   3
ENDBRANCH   1   2
BRANCH   1  11
ATOM     11  C   UNL     1      -6.123 -14.526  27.718  1.00  0.00     0.000 C 
BRANCH  11  12
ATOM     12  C   UNL     1      -7.040 -14.499  28.954  1.00  0.00     0.000 C 
BRANCH  12  13
ATOM     13  C   UNL     1      -6.319 -14.536  30.314  1.00  0.00     0.000 C 
BRANCH  13  14
ATOM     14  C   UNL     1      -7.280 -14.734  31.499  1.00  0.00     0.000 C 
BRANCH  14  15
ATOM     15  C   UNL     1      -7.105 -16.098  32.192  1.00  0.00     0.000 C 
BRANCH  15  16
ATOM     16  C   UNL     1      -8.269 -17.088  31.999  1.00  0.00     0.006 C 
BRANCH  16  17
ATOM     17  C   UNL     1      -9.415 -16.509  31.159  1.00  0.00     0.053 C 
BRANCH  17  18
ATOM     18  C   UNL     1     -10.546 -16.085  32.042  1.00  0.00     0.041 C 
ATOM     19  O   UNL     1     -10.919 -14.883  32.061  1.00  0.00    -0.550 OA
ATOM     20  O   UNL     1     -11.220 -17.027  32.810  1.00  0.00    -0.550 OA
ENDBRANCH  17  18
ENDBRANCH  16  17
ENDBRANCH  15  16
ENDBRANCH  14  15
ENDBRANCH  13  14
ENDBRANCH  12  13
ENDBRANCH  11  12
ENDBRANCH   1  11
TORSDOF 15
ENDMDL
MODEL 3
REMARK VINA RESULT:    -5.678      2.061      5.000
REMARK INTER + INTRA:         -12.109
REMARK INTER:                 -10.898
REMARK INTRA:                  -1.212
REMARK UNBOUND:                -1.453
REMARK SMILES O=C([O-])CCCCCCCCCCCCCCC(=O)[O-]
REMARK SMILES IDX 10 1 9 2 8 3 7 4 6 5 5 6 4 7 2 8 1 9 3 10 11 11 12 12 13 13
REMARK SMILES IDX 14 14 15 15 16 16 17 17 18 18 19 19 20 20
REMARK H PARENT
REMARK Flexibility Score: inf
ROOT
ATOM      1  C   UNL     1     -10.726 -15.690  27.118  1.00  0.00     0.000 C 
ENDROOT
BRANCH   1   2
ATOM      2  C   UNL     1     -12.081 -16.411  27.019  1.00  0.00     0.000 C 
BRANCH   2   3
ATOM      3  C   UNL     1     -12.954 -16.211  28.267  1.00  0.00     0.000 C 
BRANCH   3   4
ATOM      4  C   UNL     1     -12.263 -16.781  29.516  1.00  0.00     0.000 C 
BRANCH   4   5
ATOM      5  C   UNL     1     -11.919 -18.272  29.376  1.00  0.00     0.000 C 
BRANCH   5   6
ATOM      6  C   UNL     1     -10.479 -18.592  29.812  1.00  0.00     0.006 C 
BRANCH   6   7
ATOM      7  C   UNL     1     -10.356 -18.754  31.333  1.00  0.00     0.053 C 
BRANCH   7   8
ATOM      8  C   UNL     1      -9.817 -17.515  31.980  1.00  0.00     0.041 C 
ATOM      9  O   UNL     1      -8.586 -17.254  31.924  1.00  0.00    -0.550 OA
ATOM     10  O   UNL     1     -10.679 -16.630  32.612  1.00  0.00    -0.550 OA
ENDBRANCH   7   8
ENDBRANCH   6   7
ENDBRANCH   5   6
ENDBRANCH   4   5
ENDBRANCH   3   4
ENDBRANCH   2   3
ENDBRANCH   1   2
BRANCH   1  11
ATOM     11  C   UNL     1     -10.424 -14.827  25.882  1.00  0.00     0.000 C 
BRANCH  11  12
ATOM     12  C   UNL     1      -9.012 -14.215  25.906  1.00  0.00     0.000 C 
BRANCH  12  13
ATOM     13  C   UNL     1      -7.898 -15.142  26.425  1.00  0.00     0.000 C 
BRANCH  13  14
ATOM     14  C   UNL     1      -6.583 -14.397  26.715  1.00  0.00     0.000 C 
BRANCH  14  15
ATOM     15  C   UNL     1      -6.080 -14.604  28.155  1.00  0.00     0.000 C 
BRANCH  15  16
ATOM     16  C   UNL     1      -7.149 -14.455  29.253  1.00  0.00     0.006 C 
BRANCH  16  17
ATOM     17  C   UNL     1      -6.568 -14.523  30.671  1.00  0.00     0.053 C 
BRANCH  17  18
ATOM     18  C   UNL     1      -7.341 -13.635  31.594  1.00  0.00     0.041 C 
ATOM     19  O   UNL     1      -8.523 -13.928  31.914  1.00  0.00    -0.550 OA
ATOM     20  O   UNL     1      -6.741 -12.507  32.141  1.00  0.00    -0.550 OA
ENDBRANCH  17  18
ENDBRANCH  16  17
ENDBRANCH  15  16
ENDBRANCH  14  15
ENDBRANCH  13  14
ENDBRANCH  12  13
ENDBRANCH  11  12
ENDBRANCH   1  11
TORSDOF 15
ENDMDL
MODEL 4
REMARK VINA RESULT:    -5.667      2.194      4.983
REMARK INTER + INTRA:         -12.089
REMARK INTER:                 -10.632
REMARK INTRA:                  -1.457
REMARK UNBOUND:                -1.453
REMARK SMILES O=C([O-])CCCCCCCCCCCCCCC(=O)[O-]
REMARK SMILES IDX 10 1 9 2 8 3 7 4 6 5 5 6 4 7 2 8 1 9 3 10 11 11 12 12 13 13
REMARK SMILES IDX 14 14 15 15 16 16 17 17 18 18 19 19 20 20
REMARK H PARENT
REMARK Flexibility Score: inf
ROOT
ATOM      1  C   UNL     1      -7.158 -15.238  31.444  1.00  0.00     0.000 C 
ENDROOT
BRANCH   1   2
ATOM      2  C   UNL     1      -7.059 -13.703  31.413  1.00  0.00     0.000 C 
BRANCH   2   3
ATOM      3  C   UNL     1      -6.325 -13.180  30.170  1.00  0.00     0.000 C 
BRANCH   3   4
ATOM      4  C   UNL     1      -5.774 -14.342  29.328  1.00  0.00     0.000 C 
BRANCH   4   5
ATOM      5  C   UNL     1      -6.206 -14.265  27.855  1.00  0.00     0.000 C 
BRANCH   5   6
ATOM      6  C   UNL     1      -7.610 -14.849  27.618  1.00  0.00     0.006 C 
BRANCH   6   7
ATOM      7  C   UNL     1      -7.936 -14.982  26.125  1.00  0.00     0.053 C 
BRANCH   7   8
ATOM      8  C   UNL     1      -9.341 -14.557  25.825  1.00  0.00     0.041 C 
ATOM      9  O   UNL     1      -9.564 -13.671  24.958  1.00  0.00    -0.550 OA
ATOM     10  O   UNL     1     -10.405 -15.167  26.475  1.00  0.00    -0.550 OA
ENDBRANCH   7   8
ENDBRANCH   6   7
ENDBRANCH   5   6
ENDBRANCH   4   5
ENDBRANCH   3   4
ENDBRANCH   2   3
ENDBRANCH   1   2
BRANCH   1  11
ATOM     11  C   UNL     1      -8.608 -15.739  31.334  1.00  0.00     0.000 C 
BRANCH  11  12
ATOM     12  C   UNL     1      -8.783 -17.185  31.832  1.00  0.00     0.000 C 
BRANCH  12  13
ATOM     13  C   UNL     1     -10.214 -17.574  32.247  1.00  0.00     0.000 C 
BRANCH  13  14
ATOM     14  C   UNL     1     -10.757 -18.787  31.471  1.00  0.00     0.000 C 
BRANCH  14  15
ATOM     15  C   UNL     1     -10.340 -18.788  29.989  1.00  0.00     0.000 C 
BRANCH  15  16
ATOM     16  C   UNL     1     -11.500 -18.710  28.980  1.00  0.00     0.006 C 
BRANCH  16  17
ATOM     17  C   UNL     1     -12.741 -18.005  29.545  1.00  0.00     0.053 C 
BRANCH  17  18
ATOM     18  C   UNL     1     -12.747 -16.563  29.147  1.00  0.00     0.041 C 
ATOM     19  O   UNL     1     -13.411 -16.184  28.147  1.00  0.00    -0.550 OA
ATOM     20  O   UNL     1     -12.057 -15.628  29.909  1.00  0.00    -0.550 OA
ENDBRANCH  17  18
ENDBRANCH  16  17
ENDBRANCH  15  16
ENDBRANCH  14  15
ENDBRANCH  13  14
ENDBRANCH  12  13
ENDBRANCH  11  12
ENDBRANCH   1  11
TORSDOF 15
ENDMDL
MODEL 5
REMARK VINA RESULT:    -5.664      1.535      4.705
REMARK INTER + INTRA:         -12.083
REMARK INTER:                 -10.885
REMARK INTRA:                  -1.198
REMARK UNBOUND:                -1.453
REMARK SMILES O=C([O-])CCCCCCCCCCCCCCC(=O)[O-]
REMARK SMILES IDX 10 1 9 2 8 3 7 4 6 5 5 6 4 7 2 8 1 9 3 10 11 11 12 12 13 13
REMARK SMILES IDX 14 14 15 15 16 16 17 17 18 18 19 19 20 20
REMARK H PARENT
REMARK Flexibility Score: inf
ROOT
ATOM      1  C   UNL     1     -10.434 -15.018  26.056  1.00  0.00     0.000 C 
ENDROOT
BRANCH   1   2
ATOM      2  C   UNL     1     -10.510 -15.795  27.381  1.00  0.00     0.000 C 
BRANCH   2   3
ATOM      3  C   UNL     1     -11.926 -16.303  27.692  1.00  0.00     0.000 C 
BRANCH   3   4
ATOM      4  C   UNL     1     -12.192 -16.293  29.205  1.00  0.00     0.000 C 
BRANCH   4   5
ATOM      5  C   UNL     1     -13.406 -17.150  29.600  1.00  0.00     0.000 C 
BRANCH   5   6
ATOM      6  C   UNL     1     -13.004 -18.469  30.282  1.00  0.00     0.006 C 
BRANCH   6   7
ATOM      7  C   UNL     1     -11.570 -18.427  30.825  1.00  0.00     0.053 C 
BRANCH   7   8
ATOM      8  C   UNL     1     -11.544 -18.382  32.322  1.00  0.00     0.041 C 
ATOM      9  O   UNL     1     -11.477 -19.449  32.988  1.00  0.00    -0.550 OA
ATOM     10  O   UNL     1     -11.555 -17.160  32.980  1.00  0.00    -0.550 OA
ENDBRANCH   7   8
ENDBRANCH   6   7
ENDBRANCH   5   6
ENDBRANCH   4   5
ENDBRANCH   3   4
ENDBRANCH   2   3
ENDBRANCH   1   2
BRANCH   1  11
ATOM     11  C   UNL     1      -9.015 -14.511  25.749  1.00  0.00     0.000 C 
BRANCH  11  12
ATOM     12  C   UNL     1      -7.930 -15.222  26.579  1.00  0.00     0.000 C 
BRANCH  12  13
ATOM     13  C   UNL     1      -6.545 -14.549  26.574  1.00  0.00     0.000 C 
BRANCH  13  14
ATOM     14  C   UNL     1      -6.028 -14.226  27.986  1.00  0.00     0.000 C 
BRANCH  14  15
ATOM     15  C   UNL     1      -7.079 -14.478  29.083  1.00  0.00     0.000 C 
BRANCH  15  16
ATOM     16  C   UNL     1      -6.653 -14.075  30.506  1.00  0.00     0.006 C 
BRANCH  16  17
ATOM     17  C   UNL     1      -7.670 -14.490  31.578  1.00  0.00     0.053 C 
BRANCH  17  18
ATOM     18  C   UNL     1      -7.563 -15.956  31.858  1.00  0.00     0.041 C 
ATOM     19  O   UNL     1      -8.530 -16.721  31.607  1.00  0.00    -0.550 OA
ATOM     20  O   UNL     1      -6.377 -16.485  32.351  1.00  0.00    -0.550 OA
ENDBRANCH  17  18
ENDBRANCH  16  17
ENDBRANCH  15  16
ENDBRANCH  14  15
ENDBRANCH  13  14
ENDBRANCH  12  13
ENDBRANCH  11  12
ENDBRANCH   1  11
TORSDOF 15
ENDMDL
MODEL 6
REMARK VINA RESULT:    -5.624      3.015      5.562
REMARK INTER + INTRA:         -12.008
REMARK INTER:                 -10.655
REMARK INTRA:                  -1.353
REMARK UNBOUND:                -1.453
REMARK SMILES O=C([O-])CCCCCCCCCCCCCCC(=O)[O-]
REMARK SMILES IDX 10 1 9 2 8 3 7 4 6 5 5 6 4 7 2 8 1 9 3 10 11 11 12 12 13 13
REMARK SMILES IDX 14 14 15 15 16 16 17 17 18 18 19 19 20 20
REMARK H PARENT
REMARK Flexibility Score: inf
ROOT
ATOM      1  C   UNL     1     -13.351 -17.003  29.829  1.00  0.00     0.000 C 
ENDROOT
BRANCH   1   2
ATOM      2  C   UNL     1     -13.022 -17.446  31.264  1.00  0.00     0.000 C 
BRANCH   2   3
ATOM      3  C   UNL     1     -12.510 -18.892  31.338  1.00  0.00     0.000 C 
BRANCH   3   4
ATOM      4  C   UNL     1     -11.156 -18.958  32.063  1.00  0.00     0.000 C 
BRANCH   4   5
ATOM      5  C   UNL     1      -9.986 -18.503  31.177  1.00  0.00     0.000 C 
BRANCH   5   6
ATOM      6  C   UNL     1      -9.033 -17.537  31.902  1.00  0.00     0.006 C 
BRANCH   6   7
ATOM      7  C   UNL     1      -9.294 -16.073  31.525  1.00  0.00     0.053 C 
BRANCH   7   8
ATOM      8  C   UNL     1      -8.056 -15.239  31.648  1.00  0.00     0.041 C 
ATOM      9  O   UNL     1      -6.920 -15.779  31.599  1.00  0.00    -0.550 OA
ATOM     10  O   UNL     1      -8.157 -13.861  31.780  1.00  0.00    -0.550 OA
ENDBRANCH   7   8
ENDBRANCH   6   7
ENDBRANCH   5   6
ENDBRANCH   4   5
ENDBRANCH   3   4
ENDBRANCH   2   3
ENDBRANCH   1   2
BRANCH   1  11
ATOM     11  C   UNL     1     -12.298 -16.043  29.251  1.00  0.00     0.000 C 
BRANCH  11  12
ATOM     12  C   UNL     1     -12.118 -16.194  27.729  1.00  0.00     0.000 C 
BRANCH  12  13
ATOM     13  C   UNL     1     -10.675 -16.041  27.215  1.00  0.00     0.000 C 
BRANCH  13  14
ATOM     14  C   UNL     1     -10.563 -15.089  26.011  1.00  0.00     0.000 C 
BRANCH  14  15
ATOM     15  C   UNL     1      -9.205 -14.367  25.940  1.00  0.00     0.000 C 
BRANCH  15  16
ATOM     16  C   UNL     1      -8.044 -15.079  26.659  1.00  0.00     0.006 C 
BRANCH  16  17
ATOM     17  C   UNL     1      -6.699 -14.361  26.484  1.00  0.00     0.053 C 
BRANCH  17  18
ATOM     18  C   UNL     1      -5.886 -14.464  27.736  1.00  0.00     0.041 C 
ATOM     19  O   UNL     1      -4.773 -15.052  27.723  1.00  0.00    -0.550 OA
ATOM     20  O   UNL     1      -6.336 -13.868  28.907  1.00  0.00    -0.550 OA
ENDBRANCH  17  18
ENDBRANCH  16  17
ENDBRANCH  15  16
ENDBRANCH  14  15
ENDBRANCH  13  14
ENDBRANCH  12  13
ENDBRANCH  11  12
ENDBRANCH   1  11
TORSDOF 15
ENDMDL
MODEL 7
REMARK VINA RESULT:    -5.577      3.241      5.409
REMARK INTER + INTRA:         -11.921
REMARK INTER:                 -10.424
REMARK INTRA:                  -1.497
REMARK UNBOUND:                -1.453
REMARK SMILES O=C([O-])CCCCCCCCCCCCCCC(=O)[O-]
REMARK SMILES IDX 10 1 9 2 8 3 7 4 6 5 5 6 4 7 2 8 1 9 3 10 11 11 12 12 13 13
REMARK SMILES IDX 14 14 15 15 16 16 17 17 18 18 19 19 20 20
REMARK H PARENT
REMARK Flexibility Score: inf
ROOT
ATOM      1  C   UNL     1     -10.997 -18.605  30.039  1.00  0.00     0.000 C 
ENDROOT
BRANCH   1   2
ATOM      2  C   UNL     1     -10.147 -19.006  31.256  1.00  0.00     0.000 C 
BRANCH   2   3
ATOM      3  C   UNL     1      -9.829 -17.819  32.177  1.00  0.00     0.000 C 
BRANCH   3   4
ATOM      4  C   UNL     1      -8.993 -16.761  31.439  1.00  0.00     0.000 C 
BRANCH   4   5
ATOM      5  C   UNL     1      -9.310 -15.329  31.897  1.00  0.00     0.000 C 
BRANCH   5   6
ATOM      6  C   UNL     1      -8.214 -14.323  31.502  1.00  0.00     0.006 C 
BRANCH   6   7
ATOM      7  C   UNL     1      -7.279 -14.880  30.422  1.00  0.00     0.053 C 
BRANCH   7   8
ATOM      8  C   UNL     1      -6.168 -13.927  30.104  1.00  0.00     0.041 C 
ATOM      9  O   UNL     1      -6.270 -12.709  30.409  1.00  0.00    -0.550 OA
ATOM     10  O   UNL     1      -5.004 -14.390  29.506  1.00  0.00    -0.550 OA
ENDBRANCH   7   8
ENDBRANCH   6   7
ENDBRANCH   5   6
ENDBRANCH   4   5
ENDBRANCH   3   4
ENDBRANCH   2   3
ENDBRANCH   1   2
BRANCH   1  11
ATOM     11  C   UNL     1     -12.456 -18.295  30.413  1.00  0.00     0.000 C 
BRANCH  11  12
ATOM     12  C   UNL     1     -12.729 -16.788  30.569  1.00  0.00     0.000 C 
BRANCH  12  13
ATOM     13  C   UNL     1     -12.298 -15.911  29.379  1.00  0.00     0.000 C 
BRANCH  13  14
ATOM     14  C   UNL     1     -13.158 -16.134  28.124  1.00  0.00     0.000 C 
BRANCH  14  15
ATOM     15  C   UNL     1     -12.349 -16.045  26.817  1.00  0.00     0.000 C 
BRANCH  15  16
ATOM     16  C   UNL     1     -10.853 -15.724  26.991  1.00  0.00     0.006 C 
BRANCH  16  17
ATOM     17  C   UNL     1     -10.263 -14.952  25.803  1.00  0.00     0.053 C 
BRANCH  17  18
ATOM     18  C   UNL     1      -8.890 -14.458  26.134  1.00  0.00     0.041 C 
ATOM     19  O   UNL     1      -8.176 -15.077  26.965  1.00  0.00    -0.550 OA
ATOM     20  O   UNL     1      -8.380 -13.338  25.488  1.00  0.00    -0.550 OA
ENDBRANCH  17  18
ENDBRANCH  16  17
ENDBRANCH  15  16
ENDBRANCH  14  15
ENDBRANCH  13  14
ENDBRANCH  12  13
ENDBRANCH  11  12
ENDBRANCH   1  11
TORSDOF 15
ENDMDL
MODEL 8
REMARK VINA RESULT:    -5.569      2.935      6.326
REMARK INTER + INTRA:         -11.905
REMARK INTER:                 -10.360
REMARK INTRA:                  -1.545
REMARK UNBOUND:                -1.453
REMARK SMILES O=C([O-])CCCCCCCCCCCCCCC(=O)[O-]
REMARK SMILES IDX 10 1 9 2 8 3 7 4 6 5 5 6 4 7 2 8 1 9 3 10 11 11 12 12 13 13
REMARK SMILES IDX 14 14 15 15 16 16 17 17 18 18 19 19 20 20
REMARK H PARENT
REMARK Flexibility Score: inf
ROOT
ATOM      1  C   UNL     1     -12.913 -16.139  28.150  1.00  0.00     0.000 C 
ENDROOT
BRANCH   1   2
ATOM      2  C   UNL     1     -11.740 -16.672  27.310  1.00  0.00     0.000 C 
BRANCH   2   3
ATOM      3  C   UNL     1     -11.069 -15.580  26.464  1.00  0.00     0.000 C 
BRANCH   3   4
ATOM      4  C   UNL     1      -9.680 -15.230  27.022  1.00  0.00     0.000 C 
BRANCH   4   5
ATOM      5  C   UNL     1      -8.744 -14.642  25.955  1.00  0.00     0.000 C 
BRANCH   5   6
ATOM      6  C   UNL     1      -7.321 -14.394  26.486  1.00  0.00     0.006 C 
BRANCH   6   7
ATOM      7  C   UNL     1      -7.231 -14.575  28.006  1.00  0.00     0.053 C 
BRANCH   7   8
ATOM      8  C   UNL     1      -5.839 -14.343  28.511  1.00  0.00     0.041 C 
ATOM      9  O   UNL     1      -5.653 -13.804  29.634  1.00  0.00    -0.550 OA
ATOM     10  O   UNL     1      -4.749 -14.758  27.758  1.00  0.00    -0.550 OA
ENDBRANCH   7   8
ENDBRANCH   6   7
ENDBRANCH   5   6
ENDBRANCH   4   5
ENDBRANCH   3   4
ENDBRANCH   2   3
ENDBRANCH   1   2
BRANCH   1  11
ATOM     11  C   UNL     1     -12.604 -16.129  29.656  1.00  0.00     0.000 C 
BRANCH  11  12
ATOM     12  C   UNL     1     -13.252 -17.304  30.411  1.00  0.00     0.000 C 
BRANCH  12  13
ATOM     13  C   UNL     1     -12.275 -18.224  31.166  1.00  0.00     0.000 C 
BRANCH  13  14
ATOM     14  C   UNL     1     -10.826 -18.107  30.661  1.00  0.00     0.000 C 
BRANCH  14  15
ATOM     15  C   UNL     1      -9.784 -18.244  31.787  1.00  0.00     0.000 C 
BRANCH  15  16
ATOM     16  C   UNL     1      -8.740 -17.115  31.857  1.00  0.00     0.006 C 
BRANCH  16  17
ATOM     17  C   UNL     1      -9.068 -15.935  30.932  1.00  0.00     0.053 C 
BRANCH  17  18
ATOM     18  C   UNL     1      -9.175 -14.669  31.721  1.00  0.00     0.041 C 
ATOM     19  O   UNL     1      -8.156 -13.954  31.914  1.00  0.00    -0.550 OA
ATOM     20  O   UNL     1     -10.409 -14.252  32.204  1.00  0.00    -0.550 OA
ENDBRANCH  17  18
ENDBRANCH  16  17
ENDBRANCH  15  16
ENDBRANCH  14  15
ENDBRANCH  13  14
ENDBRANCH  12  13
ENDBRANCH  11  12
ENDBRANCH   1  11
TORSDOF 15
ENDMDL
MODEL 9
REMARK VINA RESULT:    -5.569      2.156      4.793
REMARK INTER + INTRA:         -11.904
REMARK INTER:                 -10.810
REMARK INTRA:                  -1.094
REMARK UNBOUND:                -1.453
REMARK SMILES O=C([O-])CCCCCCCCCCCCCCC(=O)[O-]
REMARK SMILES IDX 10 1 9 2 8 3 7 4 6 5 5 6 4 7 2 8 1 9 3 10 11 11 12 12 13 13
REMARK SMILES IDX 14 14 15 15 16 16 17 17 18 18 19 19 20 20
REMARK H PARENT
REMARK Flexibility Score: inf
ROOT
ATOM      1  C   UNL     1     -10.620 -15.224  26.284  1.00  0.00     0.000 C 
ENDROOT
BRANCH   1   2
ATOM      2  C   UNL     1      -9.302 -14.559  25.853  1.00  0.00     0.000 C 
BRANCH   2   3
ATOM      3  C   UNL     1      -8.065 -15.251  26.445  1.00  0.00     0.000 C 
BRANCH   3   4
ATOM      4  C   UNL     1      -6.945 -14.235  26.718  1.00  0.00     0.000 C 
BRANCH   4   5
ATOM      5  C   UNL     1      -6.060 -14.633  27.909  1.00  0.00     0.000 C 
BRANCH   5   6
ATOM      6  C   UNL     1      -6.382 -13.829  29.182  1.00  0.00     0.006 C 
BRANCH   6   7
ATOM      7  C   UNL     1      -7.097 -14.680  30.238  1.00  0.00     0.053 C 
BRANCH   7   8
ATOM      8  C   UNL     1      -6.927 -14.114  31.615  1.00  0.00     0.041 C 
ATOM      9  O   UNL     1      -6.799 -14.882  32.605  1.00  0.00    -0.550 OA
ATOM     10  O   UNL     1      -6.872 -12.739  31.799  1.00  0.00    -0.550 OA
ENDBRANCH   7   8
ENDBRANCH   6   7
ENDBRANCH   5   6
ENDBRANCH   4   5
ENDBRANCH   3   4
ENDBRANCH   2   3
ENDBRANCH   1   2
BRANCH   1  11
ATOM     11  C   UNL     1     -10.475 -16.035  27.583  1.00  0.00     0.000 C 
BRANCH  11  12
ATOM     12  C   UNL     1     -11.678 -16.958  27.852  1.00  0.00     0.000 C 
BRANCH  12  13
ATOM     13  C   UNL     1     -12.854 -16.310  28.606  1.00  0.00     0.000 C 
BRANCH  13  14
ATOM     14  C   UNL     1     -12.985 -16.807  30.056  1.00  0.00     0.000 C 
BRANCH  14  15
ATOM     15  C   UNL     1     -11.810 -16.368  30.950  1.00  0.00     0.000 C 
BRANCH  15  16
ATOM     16  C   UNL     1     -11.848 -16.903  32.393  1.00  0.00     0.006 C 
BRANCH  16  17
ATOM     17  C   UNL     1     -11.179 -18.275  32.543  1.00  0.00     0.053 C 
BRANCH  17  18
ATOM     18  C   UNL     1      -9.974 -18.367  31.659  1.00  0.00     0.041 C 
ATOM     19  O   UNL     1     -10.005 -19.071  30.616  1.00  0.00    -0.550 OA
ATOM     20  O   UNL     1      -8.832 -17.636  31.963  1.00  0.00    -0.550 OA
ENDBRANCH  17  18
ENDBRANCH  16  17
ENDBRANCH  15  16
ENDBRANCH  14  15
ENDBRANCH  13  14
ENDBRANCH  12  13
ENDBRANCH  11  12
ENDBRANCH   1  11
TORSDOF 15
ENDMDL
