MODEL 1
REMARK VINA RESULT:    -3.168      0.000      0.000
REMARK INTER + INTRA:          -4.850
REMARK INTER:                  -4.465
REMARK INTRA:                  -0.385
REMARK UNBOUND:                -0.385
REMARK SMILES CCCCCCCCC(=O)[O-]
REMARK SMILES IDX 6 1 7 2 8 3 9 4 10 5 11 6 5 7 4 8 3 9 2 10 1 11
REMARK H PARENT
REMARK Flexibility Score: inf
ROOT
ATOM      1  C   UNL     1     -17.978   3.240 -17.500  1.00  0.00     0.000 C 
ENDROOT
BRANCH   1   2
ATOM      2  C   UNL     1     -16.539   3.026 -18.001  1.00  0.00     0.006 C 
BRANCH   2   3
ATOM      3  C   UNL     1     -16.134   4.065 -19.056  1.00  0.00     0.053 C 
BRANCH   3   4
ATOM      4  C   UNL     1     -14.652   4.285 -19.083  1.00  0.00     0.041 C 
ATOM      5  O   UNL     1     -13.878   3.341 -19.391  1.00  0.00    -0.550 OA
ATOM      6  O   UNL     1     -14.128   5.540 -18.799  1.00  0.00    -0.550 OA
ENDBRANCH   3   4
ENDBRANCH   2   3
ENDBRANCH   1   2
BRANCH   1   7
ATOM      7  C   UNL     1     -19.032   2.875 -18.559  1.00  0.00     0.000 C 
BRANCH   7   8
ATOM      8  C   UNL     1     -20.469   2.966 -18.016  1.00  0.00    -0.000 C 
BRANCH   8   9
ATOM      9  C   UNL     1     -21.331   3.992 -18.774  1.00  0.00    -0.000 C 
BRANCH   9  10
ATOM     10  C   UNL     1     -20.604   4.740 -19.906  1.00  0.00    -0.003 C 
ATOM     11  C   UNL     1     -20.331   6.207 -19.575  1.00  0.00     0.004 C 
ENDBRANCH   9  10
ENDBRANCH   8   9
ENDBRANCH   7   8
ENDBRANCH   1   7
TORSDOF 7
ENDMDL
MODEL 2
REMARK VINA RESULT:    -2.751      1.139      2.103
REMARK INTER + INTRA:          -4.261
REMARK INTER:                  -4.247
REMARK INTRA:                  -0.014
REMARK UNBOUND:                -0.385
REMARK SMILES CCCCCCCCC(=O)[O-]
REMARK SMILES IDX 6 1 7 2 8 3 9 4 10 5 11 6 5 7 4 8 3 9 2 10 1 11
REMARK H PARENT
REMARK Flexibility Score: inf
ROOT
ATOM      1  C   UNL     1     -16.751   3.872 -18.769  1.00  0.00     0.000 C 
ENDROOT
BRANCH   1   2
ATOM      2  C   UNL     1     -15.912   3.516 -20.008  1.00  0.00     0.006 C 
BRANCH   2   3
ATOM      3  C   UNL     1     -14.418   3.395 -19.679  1.00  0.00     0.053 C 
BRANCH   3   4
ATOM      4  C   UNL     1     -14.032   4.252 -18.512  1.00  0.00     0.041 C 
ATOM      5  O   UNL     1     -13.875   5.492 -18.662  1.00  0.00    -0.550 OA
ATOM      6  O   UNL     1     -13.875   3.686 -17.254  1.00  0.00    -0.550 OA
ENDBRANCH   3   4
ENDBRANCH   2   3
ENDBRANCH   1   2
BRANCH   1   7
ATOM      7  C   UNL     1     -18.038   3.036 -18.667  1.00  0.00     0.000 C 
BRANCH   7   8
ATOM      8  C   UNL     1     -19.028   3.337 -19.805  1.00  0.00    -0.000 C 
BRANCH   8   9
ATOM      9  C   UNL     1     -19.993   4.490 -19.469  1.00  0.00    -0.000 C 
BRANCH   9  10
ATOM     10  C   UNL     1     -21.380   4.050 -18.966  1.00  0.00    -0.003 C 
ATOM     11  C   UNL     1     -21.310   3.062 -17.802  1.00  0.00     0.004 C 
ENDBRANCH   9  10
ENDBRANCH   8   9
ENDBRANCH   7   8
ENDBRANCH   1   7
TORSDOF 7
ENDMDL
MODEL 3
REMARK VINA RESULT:    -2.513      1.392      2.113
REMARK INTER + INTRA:          -3.926
REMARK INTER:                  -3.676
REMARK INTRA:                  -0.250
REMARK UNBOUND:                -0.385
REMARK SMILES CCCCCCCCC(=O)[O-]
REMARK SMILES IDX 6 1 7 2 8 3 9 4 10 5 11 6 5 7 4 8 3 9 2 10 1 11
REMARK H PARENT
REMARK Flexibility Score: inf
ROOT
ATOM      1  C   UNL     1     -18.302   3.158 -20.079  1.00  0.00     0.000 C 
ENDROOT
BRANCH   1   2
ATOM      2  C   UNL     1     -16.774   2.995 -20.023  1.00  0.00     0.006 C 
BRANCH   2   3
ATOM      3  C   UNL     1     -16.052   4.343 -19.896  1.00  0.00     0.053 C 
BRANCH   3   4
ATOM      4  C   UNL     1     -15.118   4.369 -18.725  1.00  0.00     0.041 C 
ATOM      5  O   UNL     1     -15.006   3.359 -17.982  1.00  0.00    -0.550 OA
ATOM      6  O   UNL     1     -14.348   5.497 -18.474  1.00  0.00    -0.550 OA
ENDBRANCH   3   4
ENDBRANCH   2   3
ENDBRANCH   1   2
BRANCH   1   7
ATOM      7  C   UNL     1     -18.773   4.510 -19.517  1.00  0.00     0.000 C 
BRANCH   7   8
ATOM      8  C   UNL     1     -20.158   4.920 -20.046  1.00  0.00    -0.000 C 
BRANCH   8   9
ATOM      9  C   UNL     1     -21.282   4.691 -19.018  1.00  0.00    -0.000 C 
BRANCH   9  10
ATOM     10  C   UNL     1     -21.488   3.224 -18.597  1.00  0.00    -0.003 C 
ATOM     11  C   UNL     1     -20.800   2.878 -17.277  1.00  0.00     0.004 C 
ENDBRANCH   9  10
ENDBRANCH   8   9
ENDBRANCH   7   8
ENDBRANCH   1   7
TORSDOF 7
ENDMDL
MODEL 4
REMARK VINA RESULT:    -2.145      3.620      5.808
REMARK INTER + INTRA:          -3.408
REMARK INTER:                  -3.136
REMARK INTRA:                  -0.272
REMARK UNBOUND:                -0.385
REMARK SMILES CCCCCCCCC(=O)[O-]
REMARK SMILES IDX 6 1 7 2 8 3 9 4 10 5 11 6 5 7 4 8 3 9 2 10 1 11
REMARK H PARENT
REMARK Flexibility Score: inf
ROOT
ATOM      1  C   UNL     1     -18.295   4.752 -19.225  1.00  0.00     0.000 C 
ENDROOT
BRANCH   1   2
ATOM      2  C   UNL     1     -19.518   4.009 -19.791  1.00  0.00     0.006 C 
BRANCH   2   3
ATOM      3  C   UNL     1     -19.983   2.875 -18.867  1.00  0.00     0.053 C 
BRANCH   3   4
ATOM      4  C   UNL     1     -21.208   3.254 -18.091  1.00  0.00     0.041 C 
ATOM      5  O   UNL     1     -22.146   3.878 -18.653  1.00  0.00    -0.550 OA
ATOM      6  O   UNL     1     -21.327   2.889 -16.756  1.00  0.00    -0.550 OA
ENDBRANCH   3   4
ENDBRANCH   2   3
ENDBRANCH   1   2
BRANCH   1   7
ATOM      7  C   UNL     1     -16.968   4.234 -19.806  1.00  0.00     0.000 C 
BRANCH   7   8
ATOM      8  C   UNL     1     -16.087   3.552 -18.746  1.00  0.00    -0.000 C 
BRANCH   8   9
ATOM      9  C   UNL     1     -14.629   3.368 -19.209  1.00  0.00    -0.000 C 
BRANCH   9  10
ATOM     10  C   UNL     1     -14.000   4.603 -19.878  1.00  0.00    -0.003 C 
ATOM     11  C   UNL     1     -13.875   5.798 -18.934  1.00  0.00     0.004 C 
ENDBRANCH   9  10
ENDBRANCH   8   9
ENDBRANCH   7   8
ENDBRANCH   1   7
TORSDOF 7
ENDMDL
MODEL 5
REMARK VINA RESULT:    -1.589      1.381      2.522
REMARK INTER + INTRA:          -2.624
REMARK INTER:                  -2.646
REMARK INTRA:                   0.022
REMARK UNBOUND:                -0.385
REMARK SMILES CCCCCCCCC(=O)[O-]
REMARK SMILES IDX 6 1 7 2 8 3 9 4 10 5 11 6 5 7 4 8 3 9 2 10 1 11
REMARK H PARENT
REMARK Flexibility Score: inf
ROOT
ATOM      1  C   UNL     1     -18.418   3.827 -18.967  1.00  0.00     0.000 C 
ENDROOT
BRANCH   1   2
ATOM      2  C   UNL     1     -17.385   3.509 -20.062  1.00  0.00     0.006 C 
BRANCH   2   3
ATOM      3  C   UNL     1     -16.236   4.526 -20.086  1.00  0.00     0.053 C 
BRANCH   3   4
ATOM      4  C   UNL     1     -15.270   4.304 -18.963  1.00  0.00     0.041 C 
ATOM      5  O   UNL     1     -14.336   5.123 -18.760  1.00  0.00    -0.550 OA
ATOM      6  O   UNL     1     -15.419   3.209 -18.122  1.00  0.00    -0.550 OA
ENDBRANCH   3   4
ENDBRANCH   2   3
ENDBRANCH   1   2
BRANCH   1   7
ATOM      7  C   UNL     1     -19.617   4.628 -19.502  1.00  0.00     0.000 C 
BRANCH   7   8
ATOM      8  C   UNL     1     -20.917   4.325 -18.737  1.00  0.00    -0.000 C 
BRANCH   8   9
ATOM      9  C   UNL     1     -20.927   2.919 -18.109  1.00  0.00    -0.000 C 
BRANCH   9  10
ATOM     10  C   UNL     1     -20.581   2.876 -16.609  1.00  0.00    -0.003 C 
ATOM     11  C   UNL     1     -21.774   3.195 -15.710  1.00  0.00     0.004 C 
ENDBRANCH   9  10
ENDBRANCH   8   9
ENDBRANCH   7   8
ENDBRANCH   1   7
TORSDOF 7
ENDMDL
MODEL 6
REMARK VINA RESULT:    -1.038      3.200      5.248
REMARK INTER + INTRA:          -1.847
REMARK INTER:                  -1.891
REMARK INTRA:                   0.044
REMARK UNBOUND:                -0.385
REMARK SMILES CCCCCCCCC(=O)[O-]
REMARK SMILES IDX 6 1 7 2 8 3 9 4 10 5 11 6 5 7 4 8 3 9 2 10 1 11
REMARK H PARENT
REMARK Flexibility Score: inf
ROOT
ATOM      1  C   UNL     1     -20.051   5.285 -19.004  1.00  0.00     0.000 C 
ENDROOT
BRANCH   1   2
ATOM      2  C   UNL     1     -21.188   4.248 -19.005  1.00  0.00     0.006 C 
BRANCH   2   3
ATOM      3  C   UNL     1     -20.721   2.877 -18.497  1.00  0.00     0.053 C 
BRANCH   3   4
ATOM      4  C   UNL     1     -20.424   2.896 -17.029  1.00  0.00     0.041 C 
ATOM      5  O   UNL     1     -21.365   2.904 -16.192  1.00  0.00    -0.550 OA
ATOM      6  O   UNL     1     -19.108   2.875 -16.584  1.00  0.00    -0.550 OA
ENDBRANCH   3   4
ENDBRANCH   2   3
ENDBRANCH   1   2
BRANCH   1   7
ATOM      7  C   UNL     1     -19.027   5.038 -20.125  1.00  0.00     0.000 C 
BRANCH   7   8
ATOM      8  C   UNL     1     -18.119   3.830 -19.840  1.00  0.00    -0.000 C 
BRANCH   8   9
ATOM      9  C   UNL     1     -17.028   4.135 -18.796  1.00  0.00    -0.000 C 
BRANCH   9  10
ATOM     10  C   UNL     1     -15.584   3.949 -19.293  1.00  0.00    -0.003 C 
ATOM     11  C   UNL     1     -14.580   3.750 -18.157  1.00  0.00     0.004 C 
ENDBRANCH   9  10
ENDBRANCH   8   9
ENDBRANCH   7   8
ENDBRANCH   1   7
TORSDOF 7
ENDMDL
MODEL 7
REMARK VINA RESULT:    -0.501     19.908     21.908
REMARK INTER + INTRA:          -1.090
REMARK INTER:                  -1.054
REMARK INTRA:                  -0.036
REMARK UNBOUND:                -0.385
REMARK SMILES CCCCCCCCC(=O)[O-]
REMARK SMILES IDX 6 1 7 2 8 3 9 4 10 5 11 6 5 7 4 8 3 9 2 10 1 11
REMARK H PARENT
REMARK Flexibility Score: inf
ROOT
ATOM      1  C   UNL     1     -31.574  18.319 -10.372  1.00  0.00     0.000 C 
ENDROOT
BRANCH   1   2
ATOM      2  C   UNL     1     -31.463  16.831 -10.746  1.00  0.00     0.006 C 
BRANCH   2   3
ATOM      3  C   UNL     1     -30.028  16.433 -11.117  1.00  0.00     0.053 C 
BRANCH   3   4
ATOM      4  C   UNL     1     -29.563  17.119 -12.366  1.00  0.00     0.041 C 
ATOM      5  O   UNL     1     -29.189  18.320 -12.327  1.00  0.00    -0.550 OA
ATOM      6  O   UNL     1     -29.516  16.422 -13.567  1.00  0.00    -0.550 OA
ENDBRANCH   3   4
ENDBRANCH   2   3
ENDBRANCH   1   2
BRANCH   1   7
ATOM      7  C   UNL     1     -32.933  18.925 -10.758  1.00  0.00     0.000 C 
BRANCH   7   8
ATOM      8  C   UNL     1     -33.104  20.365 -10.245  1.00  0.00    -0.000 C 
BRANCH   8   9
ATOM      9  C   UNL     1     -31.976  21.304 -10.713  1.00  0.00    -0.000 C 
BRANCH   9  10
ATOM     10  C   UNL     1     -32.176  22.788 -10.354  1.00  0.00    -0.003 C 
ATOM     11  C   UNL     1     -33.619  23.125  -9.981  1.00  0.00     0.004 C 
ENDBRANCH   9  10
ENDBRANCH   8   9
ENDBRANCH   7   8
ENDBRANCH   1   7
TORSDOF 7
ENDMDL
MODEL 8
REMARK VINA RESULT:    -0.246     20.349     22.506
REMARK INTER + INTRA:          -0.732
REMARK INTER:                  -0.436
REMARK INTRA:                  -0.296
REMARK UNBOUND:                -0.385
REMARK SMILES CCCCCCCCC(=O)[O-]
REMARK SMILES IDX 6 1 7 2 8 3 9 4 10 5 11 6 5 7 4 8 3 9 2 10 1 11
REMARK H PARENT
REMARK Flexibility Score: inf
ROOT
ATOM      1  C   UNL     1     -33.003  18.328 -10.393  1.00  0.00     0.000 C 
ENDROOT
BRANCH   1   2
ATOM      2  C   UNL     1     -32.460  19.728 -10.726  1.00  0.00     0.006 C 
BRANCH   2   3
ATOM      3  C   UNL     1     -33.126  20.822  -9.881  1.00  0.00     0.053 C 
BRANCH   3   4
ATOM      4  C   UNL     1     -32.738  22.196 -10.338  1.00  0.00     0.041 C 
ATOM      5  O   UNL     1     -33.587  23.125 -10.342  1.00  0.00    -0.550 OA
ATOM      6  O   UNL     1     -31.431  22.456 -10.730  1.00  0.00    -0.550 OA
ENDBRANCH   3   4
ENDBRANCH   2   3
ENDBRANCH   1   2
BRANCH   1   7
ATOM      7  C   UNL     1     -31.910  17.246 -10.431  1.00  0.00     0.000 C 
BRANCH   7   8
ATOM      8  C   UNL     1     -30.520  17.823 -10.750  1.00  0.00    -0.000 C 
BRANCH   8   9
ATOM      9  C   UNL     1     -29.613  16.823 -11.491  1.00  0.00    -0.000 C 
BRANCH   9  10
ATOM     10  C   UNL     1     -29.253  17.219 -12.934  1.00  0.00    -0.003 C 
ATOM     11  C   UNL     1     -29.489  16.093 -13.940  1.00  0.00     0.004 C 
ENDBRANCH   9  10
ENDBRANCH   8   9
ENDBRANCH   7   8
ENDBRANCH   1   7
TORSDOF 7
ENDMDL
