MODEL 1
REMARK VINA RESULT:    -2.036      0.000      0.000
REMARK INTER + INTRA:          -2.036
REMARK INTER:                  -2.036
REMARK INTRA:                   0.000
REMARK UNBOUND:                 0.000
REMARK SMILES CC(=O)[O-]
REMARK SMILES IDX 1 1 2 2 3 3 4 4
REMARK H PARENT
REMARK Flexibility Score: inf
ROOT
ATOM      1  C   UNL     1       7.941 -44.951  21.125  1.00  0.00     0.063 C 
ATOM      2  C   UNL     1       7.254 -44.068  20.140  1.00  0.00     0.038 C 
ATOM      3  O   UNL     1       6.274 -44.501  19.478  1.00  0.00    -0.550 OA
ATOM      4  O   UNL     1       7.658 -42.747  19.989  1.00  0.00    -0.550 OA
ENDROOT
TORSDOF 0
ENDMDL
MODEL 2
REMARK VINA RESULT:    -1.918     10.202     10.701
REMARK INTER + INTRA:          -1.918
REMARK INTER:                  -1.918
REMARK INTRA:                   0.000
REMARK UNBOUND:                 0.000
REMARK SMILES CC(=O)[O-]
REMARK SMILES IDX 1 1 2 2 3 3 4 4
REMARK H PARENT
REMARK Flexibility Score: inf
ROOT
ATOM      1  C   UNL     1      -1.745 -47.007  18.160  1.00  0.00     0.063 C 
ATOM      2  C   UNL     1      -2.102 -48.443  17.972  1.00  0.00     0.038 C 
ATOM      3  O   UNL     1      -3.152 -48.906  18.489  1.00  0.00    -0.550 OA
ATOM      4  O   UNL     1      -1.305 -49.260  17.180  1.00  0.00    -0.550 OA
ENDROOT
TORSDOF 0
ENDMDL
MODEL 3
REMARK VINA RESULT:    -1.918     11.932     12.542
REMARK INTER + INTRA:          -1.918
REMARK INTER:                  -1.918
REMARK INTRA:                   0.000
REMARK UNBOUND:                 0.000
REMARK SMILES CC(=O)[O-]
REMARK SMILES IDX 1 1 2 2 3 3 4 4
REMARK H PARENT
REMARK Flexibility Score: inf
ROOT
ATOM      1  C   UNL     1      -5.139 -48.906  17.633  1.00  0.00     0.063 C 
ATOM      2  C   UNL     1      -4.140 -48.556  18.684  1.00  0.00     0.038 C 
ATOM      3  O   UNL     1      -4.512 -47.982  19.742  1.00  0.00    -0.550 OA
ATOM      4  O   UNL     1      -2.807 -48.909  18.522  1.00  0.00    -0.550 OA
ENDROOT
TORSDOF 0
ENDMDL
MODEL 4
REMARK VINA RESULT:    -1.913      9.737      9.985
REMARK INTER + INTRA:          -1.913
REMARK INTER:                  -1.913
REMARK INTRA:                   0.000
REMARK UNBOUND:                 0.000
REMARK SMILES CC(=O)[O-]
REMARK SMILES IDX 1 1 2 2 3 3 4 4
REMARK H PARENT
REMARK Flexibility Score: inf
ROOT
ATOM      1  C   UNL     1      -1.788 -45.176  16.448  1.00  0.00     0.063 C 
ATOM      2  C   UNL     1      -2.074 -45.574  17.856  1.00  0.00     0.038 C 
ATOM      3  O   UNL     1      -2.781 -44.835  18.590  1.00  0.00    -0.550 OA
ATOM      4  O   UNL     1      -1.605 -46.786  18.346  1.00  0.00    -0.550 OA
ENDROOT
TORSDOF 0
ENDMDL
MODEL 5
REMARK VINA RESULT:    -1.901     10.278     10.828
REMARK INTER + INTRA:          -1.901
REMARK INTER:                  -1.901
REMARK INTRA:                   0.000
REMARK UNBOUND:                 0.000
REMARK SMILES CC(=O)[O-]
REMARK SMILES IDX 1 1 2 2 3 3 4 4
REMARK H PARENT
REMARK Flexibility Score: inf
ROOT
ATOM      1  C   UNL     1      -1.671 -47.081  18.134  1.00  0.00     0.063 C 
ATOM      2  C   UNL     1      -2.186 -48.466  17.934  1.00  0.00     0.038 C 
ATOM      3  O   UNL     1      -1.540 -49.284  17.227  1.00  0.00    -0.550 OA
ATOM      4  O   UNL     1      -3.352 -48.873  18.569  1.00  0.00    -0.550 OA
ENDROOT
TORSDOF 0
ENDMDL
MODEL 6
REMARK VINA RESULT:    -1.897     11.984     12.467
REMARK INTER + INTRA:          -1.897
REMARK INTER:                  -1.897
REMARK INTRA:                   0.000
REMARK UNBOUND:                 0.000
REMARK SMILES CC(=O)[O-]
REMARK SMILES IDX 1 1 2 2 3 3 4 4
REMARK H PARENT
REMARK Flexibility Score: inf
ROOT
ATOM      1  C   UNL     1      -2.679 -48.806  18.138  1.00  0.00     0.063 C 
ATOM      2  C   UNL     1      -4.143 -48.669  18.388  1.00  0.00     0.038 C 
ATOM      3  O   UNL     1      -4.969 -48.985  17.492  1.00  0.00    -0.550 OA
ATOM      4  O   UNL     1      -4.599 -48.242  19.629  1.00  0.00    -0.550 OA
ENDROOT
TORSDOF 0
ENDMDL
MODEL 7
REMARK VINA RESULT:    -1.893     10.709     11.299
REMARK INTER + INTRA:          -1.893
REMARK INTER:                  -1.893
REMARK INTRA:                   0.000
REMARK UNBOUND:                 0.000
REMARK SMILES CC(=O)[O-]
REMARK SMILES IDX 1 1 2 2 3 3 4 4
REMARK H PARENT
REMARK Flexibility Score: inf
ROOT
ATOM      1  C   UNL     1      -4.122 -48.701  18.748  1.00  0.00     0.063 C 
ATOM      2  C   UNL     1      -2.772 -48.552  18.132  1.00  0.00     0.038 C 
ATOM      3  O   UNL     1      -2.370 -49.389  17.282  1.00  0.00    -0.550 OA
ATOM      4  O   UNL     1      -1.977 -47.460  18.456  1.00  0.00    -0.550 OA
ENDROOT
TORSDOF 0
ENDMDL
MODEL 8
REMARK VINA RESULT:    -1.887      1.670      2.211
REMARK INTER + INTRA:          -1.887
REMARK INTER:                  -1.887
REMARK INTRA:                   0.000
REMARK UNBOUND:                 0.000
REMARK SMILES CC(=O)[O-]
REMARK SMILES IDX 1 1 2 2 3 3 4 4
REMARK H PARENT
REMARK Flexibility Score: inf
ROOT
ATOM      1  C   UNL     1       6.566 -44.474  19.885  1.00  0.00     0.063 C 
ATOM      2  C   UNL     1       7.983 -44.217  20.272  1.00  0.00     0.038 C 
ATOM      3  O   UNL     1       8.283 -43.182  20.924  1.00  0.00    -0.550 OA
ATOM      4  O   UNL     1       8.969 -45.145  19.961  1.00  0.00    -0.550 OA
ENDROOT
TORSDOF 0
ENDMDL
MODEL 9
REMARK VINA RESULT:    -1.794      9.674      9.800
REMARK INTER + INTRA:          -1.794
REMARK INTER:                  -1.794
REMARK INTRA:                   0.000
REMARK UNBOUND:                 0.000
REMARK SMILES CC(=O)[O-]
REMARK SMILES IDX 1 1 2 2 3 3 4 4
REMARK H PARENT
REMARK Flexibility Score: inf
ROOT
ATOM      1  C   UNL     1      -2.752 -44.888  19.147  1.00  0.00     0.063 C 
ATOM      2  C   UNL     1      -2.006 -45.686  18.132  1.00  0.00     0.038 C 
ATOM      3  O   UNL     1      -1.646 -46.864  18.394  1.00  0.00    -0.550 OA
ATOM      4  O   UNL     1      -1.753 -45.151  16.875  1.00  0.00    -0.550 OA
ENDROOT
TORSDOF 0
ENDMDL
