MODEL 1
REMARK VINA RESULT:    -6.445      0.000      0.000
REMARK INTER + INTRA:          -6.948
REMARK INTER:                  -6.822
REMARK INTRA:                  -0.126
REMARK UNBOUND:                -0.126
REMARK SMILES C=C(C)[C@H]1CC=C(C)CC1
REMARK SMILES IDX 8 1 7 2 6 3 5 4 4 5 10 6 9 7 2 8 1 9 3 10
REMARK H PARENT
REMARK Flexibility Score: inf
ROOT
ATOM      1  C   UNL     1       3.024  11.325  11.582  1.00  0.00     0.039 C 
ATOM      2  C   UNL     1       3.629  10.002  11.965  1.00  0.00    -0.077 C 
ATOM      3  C   UNL     1       4.145   9.213  10.998  1.00  0.00    -0.027 C 
ATOM      4  C   UNL     1       4.724   7.847  11.274  1.00  0.00     0.035 C 
ATOM      5  C   UNL     1       5.170   7.690  12.738  1.00  0.00     0.018 C 
ATOM      6  C   UNL     1       4.055   8.170  13.678  1.00  0.00     0.013 C 
ATOM      7  C   UNL     1       3.760   9.656  13.436  1.00  0.00     0.031 C 
ENDROOT
BRANCH   5   8
ATOM      8  C   UNL     1       5.590   6.258  13.046  1.00  0.00    -0.077 C 
ATOM      9  C   UNL     1       4.857   5.210  12.631  1.00  0.00     0.008 C 
ATOM     10  C   UNL     1       6.847   5.991  13.833  1.00  0.00     0.039 C 
ENDBRANCH   5   8
TORSDOF 1
ENDMDL
MODEL 2
REMARK VINA RESULT:    -6.166      0.471      1.950
REMARK INTER + INTRA:          -6.652
REMARK INTER:                  -6.525
REMARK INTRA:                  -0.127
REMARK UNBOUND:                -0.126
REMARK SMILES C=C(C)[C@H]1CC=C(C)CC1
REMARK SMILES IDX 8 1 7 2 6 3 5 4 4 5 10 6 9 7 2 8 1 9 3 10
REMARK H PARENT
REMARK Flexibility Score: inf
ROOT
ATOM      1  C   UNL     1       2.662  11.086  11.683  1.00  0.00     0.039 C 
ATOM      2  C   UNL     1       3.503   9.893  12.046  1.00  0.00    -0.077 C 
ATOM      3  C   UNL     1       3.682   9.590  13.350  1.00  0.00    -0.027 C 
ATOM      4  C   UNL     1       4.550   8.448  13.817  1.00  0.00     0.035 C 
ATOM      5  C   UNL     1       4.735   7.376  12.728  1.00  0.00     0.018 C 
ATOM      6  C   UNL     1       5.124   8.042  11.400  1.00  0.00     0.013 C 
ATOM      7  C   UNL     1       4.012   8.992  10.937  1.00  0.00     0.031 C 
ENDROOT
BRANCH   5   8
ATOM      8  C   UNL     1       5.749   6.319  13.148  1.00  0.00    -0.077 C 
ATOM      9  C   UNL     1       6.849   6.645  13.850  1.00  0.00     0.008 C 
ATOM     10  C   UNL     1       5.534   4.875  12.775  1.00  0.00     0.039 C 
ENDBRANCH   5   8
TORSDOF 1
ENDMDL
MODEL 3
REMARK VINA RESULT:    -6.154      0.778      4.532
REMARK INTER + INTRA:          -6.640
REMARK INTER:                  -6.515
REMARK INTRA:                  -0.125
REMARK UNBOUND:                -0.126
REMARK SMILES C=C(C)[C@H]1CC=C(C)CC1
REMARK SMILES IDX 8 1 7 2 6 3 5 4 4 5 10 6 9 7 2 8 1 9 3 10
REMARK H PARENT
REMARK Flexibility Score: inf
ROOT
ATOM      1  C   UNL     1       5.850   6.304  13.511  1.00  0.00     0.039 C 
ATOM      2  C   UNL     1       5.115   7.494  12.958  1.00  0.00    -0.077 C 
ATOM      3  C   UNL     1       5.037   7.652  11.620  1.00  0.00    -0.027 C 
ATOM      4  C   UNL     1       4.369   8.838  10.969  1.00  0.00     0.035 C 
ATOM      5  C   UNL     1       3.348   9.513  11.901  1.00  0.00     0.018 C 
ATOM      6  C   UNL     1       3.976   9.745  13.284  1.00  0.00     0.013 C 
ATOM      7  C   UNL     1       4.374   8.406  13.917  1.00  0.00     0.031 C 
ENDROOT
BRANCH   5   8
ATOM      8  C   UNL     1       2.810  10.807  11.302  1.00  0.00    -0.077 C 
ATOM      9  C   UNL     1       3.638  11.777  10.875  1.00  0.00     0.008 C 
ATOM     10  C   UNL     1       1.324  11.023  11.180  1.00  0.00     0.039 C 
ENDBRANCH   5   8
TORSDOF 1
ENDMDL
MODEL 4
REMARK VINA RESULT:    -5.925      1.132      2.049
REMARK INTER + INTRA:          -6.397
REMARK INTER:                  -6.274
REMARK INTRA:                  -0.123
REMARK UNBOUND:                -0.126
REMARK SMILES C=C(C)[C@H]1CC=C(C)CC1
REMARK SMILES IDX 8 1 7 2 6 3 5 4 4 5 10 6 9 7 2 8 1 9 3 10
REMARK H PARENT
REMARK Flexibility Score: inf
ROOT
ATOM      1  C   UNL     1       2.861  10.513  12.840  1.00  0.00     0.039 C 
ATOM      2  C   UNL     1       3.834   9.365  12.851  1.00  0.00    -0.077 C 
ATOM      3  C   UNL     1       4.360   8.963  14.028  1.00  0.00    -0.027 C 
ATOM      4  C   UNL     1       5.382   7.859  14.137  1.00  0.00     0.035 C 
ATOM      5  C   UNL     1       5.342   6.908  12.928  1.00  0.00     0.018 C 
ATOM      6  C   UNL     1       5.338   7.720  11.624  1.00  0.00     0.013 C 
ATOM      7  C   UNL     1       4.091   8.613  11.559  1.00  0.00     0.031 C 
ENDROOT
BRANCH   5   8
ATOM      8  C   UNL     1       6.488   5.905  12.964  1.00  0.00    -0.077 C 
ATOM      9  C   UNL     1       6.489   4.875  13.828  1.00  0.00     0.008 C 
ATOM     10  C   UNL     1       7.655   6.056  12.022  1.00  0.00     0.039 C 
ENDBRANCH   5   8
TORSDOF 1
ENDMDL
MODEL 5
REMARK VINA RESULT:    -5.694      0.428      1.644
REMARK INTER + INTRA:          -6.153
REMARK INTER:                  -6.028
REMARK INTRA:                  -0.124
REMARK UNBOUND:                -0.126
REMARK SMILES C=C(C)[C@H]1CC=C(C)CC1
REMARK SMILES IDX 8 1 7 2 6 3 5 4 4 5 10 6 9 7 2 8 1 9 3 10
REMARK H PARENT
REMARK Flexibility Score: inf
ROOT
ATOM      1  C   UNL     1       2.861  11.119  11.732  1.00  0.00     0.039 C 
ATOM      2  C   UNL     1       3.636   9.872  12.063  1.00  0.00    -0.077 C 
ATOM      3  C   UNL     1       3.804   9.530  13.359  1.00  0.00    -0.027 C 
ATOM      4  C   UNL     1       4.609   8.331  13.794  1.00  0.00     0.035 C 
ATOM      5  C   UNL     1       4.729   7.276  12.681  1.00  0.00     0.018 C 
ATOM      6  C   UNL     1       5.148   7.949  11.366  1.00  0.00     0.013 C 
ATOM      7  C   UNL     1       4.089   8.970  10.931  1.00  0.00     0.031 C 
ENDROOT
BRANCH   5   8
ATOM      8  C   UNL     1       5.684   6.155  13.070  1.00  0.00    -0.077 C 
ATOM      9  C   UNL     1       5.431   4.875  12.744  1.00  0.00     0.008 C 
ATOM     10  C   UNL     1       6.942   6.466  13.839  1.00  0.00     0.039 C 
ENDBRANCH   5   8
TORSDOF 1
ENDMDL
MODEL 6
REMARK VINA RESULT:    -5.603      1.063      4.340
REMARK INTER + INTRA:          -6.057
REMARK INTER:                  -5.930
REMARK INTRA:                  -0.127
REMARK UNBOUND:                -0.126
REMARK SMILES C=C(C)[C@H]1CC=C(C)CC1
REMARK SMILES IDX 8 1 7 2 6 3 5 4 4 5 10 6 9 7 2 8 1 9 3 10
REMARK H PARENT
REMARK Flexibility Score: inf
ROOT
ATOM      1  C   UNL     1       7.341   5.182  12.835  1.00  0.00     0.039 C 
ATOM      2  C   UNL     1       6.418   6.364  12.945  1.00  0.00    -0.077 C 
ATOM      3  C   UNL     1       5.634   6.684  11.893  1.00  0.00    -0.027 C 
ATOM      4  C   UNL     1       4.715   7.881  11.885  1.00  0.00     0.035 C 
ATOM      5  C   UNL     1       4.348   8.340  13.307  1.00  0.00     0.018 C 
ATOM      6  C   UNL     1       5.617   8.448  14.166  1.00  0.00     0.013 C 
ATOM      7  C   UNL     1       6.300   7.079  14.278  1.00  0.00     0.031 C 
ENDROOT
BRANCH   5   8
ATOM      8  C   UNL     1       3.566   9.648  13.290  1.00  0.00    -0.077 C 
ATOM      9  C   UNL     1       2.892  10.074  14.373  1.00  0.00     0.008 C 
ATOM     10  C   UNL     1       3.532  10.492  12.042  1.00  0.00     0.039 C 
ENDBRANCH   5   8
TORSDOF 1
ENDMDL
MODEL 7
REMARK VINA RESULT:    -5.596      1.023      4.601
REMARK INTER + INTRA:          -6.049
REMARK INTER:                  -5.921
REMARK INTRA:                  -0.128
REMARK UNBOUND:                -0.126
REMARK SMILES C=C(C)[C@H]1CC=C(C)CC1
REMARK SMILES IDX 8 1 7 2 6 3 5 4 4 5 10 6 9 7 2 8 1 9 3 10
REMARK H PARENT
REMARK Flexibility Score: inf
ROOT
ATOM      1  C   UNL     1       6.418   5.970  13.867  1.00  0.00     0.039 C 
ATOM      2  C   UNL     1       5.560   7.092  13.352  1.00  0.00    -0.077 C 
ATOM      3  C   UNL     1       4.930   7.895  14.236  1.00  0.00    -0.027 C 
ATOM      4  C   UNL     1       4.005   9.012  13.819  1.00  0.00     0.035 C 
ATOM      5  C   UNL     1       4.282   9.489  12.383  1.00  0.00     0.018 C 
ATOM      6  C   UNL     1       4.376   8.281  11.439  1.00  0.00     0.013 C 
ATOM      7  C   UNL     1       5.534   7.368  11.860  1.00  0.00     0.031 C 
ENDROOT
BRANCH   5   8
ATOM      8  C   UNL     1       3.235  10.492  11.913  1.00  0.00    -0.077 C 
ATOM      9  C   UNL     1       1.984  10.478  12.405  1.00  0.00     0.008 C 
ATOM     10  C   UNL     1       3.590  11.525  10.875  1.00  0.00     0.039 C 
ENDBRANCH   5   8
TORSDOF 1
ENDMDL
