MODEL 1
REMARK VINA RESULT:     4.953      0.000      0.000
REMARK INTER + INTRA:           5.894
REMARK INTER:                   5.822
REMARK INTRA:                   0.073
REMARK UNBOUND:                 0.073
REMARK SMILES O=c1c(O)c(-c2ccc(O)cc2)oc2cc(O)cc(O)c12
REMARK SMILES IDX 5 1 3 2 2 3 1 4 21 5 19 6 18 7 16 8 15 9 14 10 13 11 6 12
REMARK SMILES IDX 7 13 8 14 9 15 12 16 11 17 10 18 4 20 20 22 17 24
REMARK H PARENT 10 19 4 21 20 23 17 25
REMARK Flexibility Score: inf
ROOT
ATOM      1  C   UNL     1      20.453  25.028  13.849  1.00  0.00     0.180 A 
ATOM      2  C   UNL     1      20.544  24.859  12.454  1.00  0.00     0.208 A 
ATOM      3  C   UNL     1      20.717  23.565  11.938  1.00  0.00     0.238 A 
ATOM      4  O   UNL     1      20.810  23.402  10.691  1.00  0.00    -0.285 OA
ATOM      5  C   UNL     1      20.776  22.466  12.819  1.00  0.00     0.111 A 
ATOM      6  C   UNL     1      20.946  21.130  12.380  1.00  0.00     0.134 A 
ATOM      7  C   UNL     1      20.985  20.089  13.319  1.00  0.00     0.093 A 
ATOM      8  C   UNL     1      20.860  20.358  14.687  1.00  0.00     0.123 A 
ATOM      9  C   UNL     1      20.694  21.673  15.124  1.00  0.00     0.094 A 
ATOM     10  C   UNL     1      20.652  22.725  14.204  1.00  0.00     0.146 A 
ATOM     11  O   UNL     1      20.499  23.966  14.649  1.00  0.00    -0.452 OA
ENDROOT
BRANCH   1  12
ATOM     12  C   UNL     1      20.289  26.363  14.471  1.00  0.00     0.021 A 
ATOM     13  C   UNL     1      21.123  27.419  14.069  1.00  0.00     0.016 A 
ATOM     14  C   UNL     1      20.971  28.693  14.626  1.00  0.00     0.047 A 
ATOM     15  C   UNL     1      19.976  28.930  15.578  1.00  0.00     0.115 A 
ATOM     16  C   UNL     1      19.277  26.612  15.415  1.00  0.00     0.016 A 
ATOM     17  C   UNL     1      19.127  27.888  15.969  1.00  0.00     0.047 A 
BRANCH  15  18
ATOM     18  O   UNL     1      19.836  30.203  16.125  1.00  0.00    -0.508 OA
ATOM     19  H   UNL     1      20.642  30.785  16.324  1.00  0.00     0.293 HD
ENDBRANCH  15  18
ENDBRANCH   1  12
BRANCH   2  20
ATOM     20  O   UNL     1      20.432  25.959  11.601  1.00  0.00    -0.502 OA
ATOM     21  H   UNL     1      19.535  26.348  11.332  1.00  0.00     0.293 HD
ENDBRANCH   2  20
BRANCH   6  22
ATOM     22  O   UNL     1      21.072  20.831  11.023  1.00  0.00    -0.507 OA
ATOM     23  H   UNL     1      21.572  21.441  10.386  1.00  0.00     0.293 HD
ENDBRANCH   6  22
BRANCH   8  24
ATOM     24  O   UNL     1      20.899  19.324  15.620  1.00  0.00    -0.508 OA
ATOM     25  H   UNL     1      21.398  19.419  16.496  1.00  0.00     0.293 HD
ENDBRANCH   8  24
TORSDOF 5
ENDMDL
MODEL 2
REMARK VINA RESULT:     5.276     14.410     16.499
REMARK INTER + INTRA:           6.274
REMARK INTER:                   6.020
REMARK INTRA:                   0.254
REMARK UNBOUND:                 0.073
REMARK SMILES O=c1c(O)c(-c2ccc(O)cc2)oc2cc(O)cc(O)c12
REMARK SMILES IDX 5 1 3 2 2 3 1 4 21 5 19 6 18 7 16 8 15 9 14 10 13 11 6 12
REMARK SMILES IDX 7 13 8 14 9 15 12 16 11 17 10 18 4 20 20 22 17 24
REMARK H PARENT 10 19 4 21 20 23 17 25
REMARK Flexibility Score: inf
ROOT
ATOM      1  C   UNL     1      13.272  21.289   0.775  1.00  0.00     0.180 A 
ATOM      2  C   UNL     1      14.089  22.270   0.180  1.00  0.00     0.208 A 
ATOM      3  C   UNL     1      14.112  22.376  -1.219  1.00  0.00     0.238 A 
ATOM      4  O   UNL     1      14.848  23.244  -1.764  1.00  0.00    -0.285 OA
ATOM      5  C   UNL     1      13.308  21.517  -1.996  1.00  0.00     0.111 A 
ATOM      6  C   UNL     1      13.272  21.560  -3.411  1.00  0.00     0.134 A 
ATOM      7  C   UNL     1      12.438  20.677  -4.113  1.00  0.00     0.093 A 
ATOM      8  C   UNL     1      11.642  19.752  -3.428  1.00  0.00     0.123 A 
ATOM      9  C   UNL     1      11.676  19.706  -2.034  1.00  0.00     0.094 A 
ATOM     10  C   UNL     1      12.501  20.576  -1.315  1.00  0.00     0.146 A 
ATOM     11  O   UNL     1      12.517  20.506   0.010  1.00  0.00    -0.452 OA
ENDROOT
BRANCH   1  12
ATOM     12  C   UNL     1      13.208  21.103   2.243  1.00  0.00     0.021 A 
ATOM     13  C   UNL     1      13.239  22.228   3.083  1.00  0.00     0.016 A 
ATOM     14  C   UNL     1      13.157  22.077   4.471  1.00  0.00     0.047 A 
ATOM     15  C   UNL     1      13.027  20.804   5.035  1.00  0.00     0.115 A 
ATOM     16  C   UNL     1      13.057  19.826   2.814  1.00  0.00     0.016 A 
ATOM     17  C   UNL     1      12.974  19.679   4.203  1.00  0.00     0.047 A 
BRANCH  15  18
ATOM     18  O   UNL     1      12.947  20.669   6.418  1.00  0.00    -0.508 OA
ATOM     19  H   UNL     1      12.591  19.823   6.848  1.00  0.00     0.293 HD
ENDBRANCH  15  18
ENDBRANCH   1  12
BRANCH   2  20
ATOM     20  O   UNL     1      14.837  23.142   0.975  1.00  0.00    -0.502 OA
ATOM     21  H   UNL     1      15.557  22.815   1.609  1.00  0.00     0.293 HD
ENDBRANCH   2  20
BRANCH   6  22
ATOM     22  O   UNL     1      14.054  22.472  -4.122  1.00  0.00    -0.507 OA
ATOM     23  H   UNL     1      14.881  22.895  -3.718  1.00  0.00     0.293 HD
ENDBRANCH   6  22
BRANCH   8  24
ATOM     24  O   UNL     1      10.814  18.875  -4.125  1.00  0.00    -0.508 OA
ATOM     25  H   UNL     1      10.867  17.873  -3.986  1.00  0.00     0.293 HD
ENDBRANCH   8  24
TORSDOF 5
ENDMDL
MODEL 3
REMARK VINA RESULT:     5.491      1.371      3.186
REMARK INTER + INTRA:           6.527
REMARK INTER:                   6.468
REMARK INTRA:                   0.059
REMARK UNBOUND:                 0.073
REMARK SMILES O=c1c(O)c(-c2ccc(O)cc2)oc2cc(O)cc(O)c12
REMARK SMILES IDX 5 1 3 2 2 3 1 4 21 5 19 6 18 7 16 8 15 9 14 10 13 11 6 12
REMARK SMILES IDX 7 13 8 14 9 15 12 16 11 17 10 18 4 20 20 22 17 24
REMARK H PARENT 10 19 4 21 20 23 17 25
REMARK Flexibility Score: inf
ROOT
ATOM      1  C   UNL     1      20.574  25.332  13.693  1.00  0.00     0.180 A 
ATOM      2  C   UNL     1      20.702  24.138  14.428  1.00  0.00     0.208 A 
ATOM      3  C   UNL     1      20.842  22.926  13.734  1.00  0.00     0.238 A 
ATOM      4  O   UNL     1      20.947  21.848  14.382  1.00  0.00    -0.285 OA
ATOM      5  C   UNL     1      20.871  22.930  12.324  1.00  0.00     0.111 A 
ATOM      6  C   UNL     1      21.012  21.753  11.550  1.00  0.00     0.134 A 
ATOM      7  C   UNL     1      21.042  21.841  10.150  1.00  0.00     0.093 A 
ATOM      8  C   UNL     1      20.932  23.081   9.511  1.00  0.00     0.123 A 
ATOM      9  C   UNL     1      20.792  24.243  10.271  1.00  0.00     0.094 A 
ATOM     10  C   UNL     1      20.760  24.178  11.667  1.00  0.00     0.146 A 
ATOM     11  O   UNL     1      20.620  25.299  12.364  1.00  0.00    -0.452 OA
ENDROOT
BRANCH   1  12
ATOM     12  C   UNL     1      20.403  26.648  14.352  1.00  0.00     0.021 A 
ATOM     13  C   UNL     1      21.125  27.756  13.879  1.00  0.00     0.016 A 
ATOM     14  C   UNL     1      20.963  29.012  14.472  1.00  0.00     0.047 A 
ATOM     15  C   UNL     1      20.068  29.180  15.533  1.00  0.00     0.115 A 
ATOM     16  C   UNL     1      19.490  26.827  15.407  1.00  0.00     0.016 A 
ATOM     17  C   UNL     1      19.329  28.084  15.997  1.00  0.00     0.047 A 
BRANCH  15  18
ATOM     18  O   UNL     1      19.918  30.436  16.114  1.00  0.00    -0.508 OA
ATOM     19  H   UNL     1      19.126  30.653  16.709  1.00  0.00     0.293 HD
ENDBRANCH  15  18
ENDBRANCH   1  12
BRANCH   2  20
ATOM     20  O   UNL     1      20.720  24.168  15.825  1.00  0.00    -0.502 OA
ATOM     21  H   UNL     1      20.101  23.596  16.388  1.00  0.00     0.293 HD
ENDBRANCH   2  20
BRANCH   6  22
ATOM     22  O   UNL     1      21.124  20.502  12.158  1.00  0.00    -0.507 OA
ATOM     23  H   UNL     1      20.933  20.369  13.145  1.00  0.00     0.293 HD
ENDBRANCH   6  22
BRANCH   8  24
ATOM     24  O   UNL     1      20.962  23.168   8.121  1.00  0.00    -0.508 OA
ATOM     25  H   UNL     1      20.142  23.436   7.589  1.00  0.00     0.293 HD
ENDBRANCH   8  24
TORSDOF 5
ENDMDL
MODEL 4
REMARK VINA RESULT:     7.004     15.072     17.843
REMARK INTER + INTRA:           8.305
REMARK INTER:                   8.542
REMARK INTRA:                  -0.237
REMARK UNBOUND:                 0.073
REMARK SMILES O=c1c(O)c(-c2ccc(O)cc2)oc2cc(O)cc(O)c12
REMARK SMILES IDX 5 1 3 2 2 3 1 4 21 5 19 6 18 7 16 8 15 9 14 10 13 11 6 12
REMARK SMILES IDX 7 13 8 14 9 15 12 16 11 17 10 18 4 20 20 22 17 24
REMARK H PARENT 10 19 4 21 20 23 17 25
REMARK Flexibility Score: inf
ROOT
ATOM      1  C   UNL     1      13.384  21.565  -1.353  1.00  0.00     0.180 A 
ATOM      2  C   UNL     1      14.182  20.932  -0.380  1.00  0.00     0.208 A 
ATOM      3  C   UNL     1      15.185  21.675   0.262  1.00  0.00     0.238 A 
ATOM      4  O   UNL     1      15.913  21.116   1.128  1.00  0.00    -0.285 OA
ATOM      5  C   UNL     1      15.361  23.035  -0.064  1.00  0.00     0.111 A 
ATOM      6  C   UNL     1      16.347  23.854   0.538  1.00  0.00     0.134 A 
ATOM      7  C   UNL     1      16.453  25.203   0.167  1.00  0.00     0.093 A 
ATOM      8  C   UNL     1      15.593  25.746  -0.795  1.00  0.00     0.123 A 
ATOM      9  C   UNL     1      14.621  24.942  -1.391  1.00  0.00     0.094 A 
ATOM     10  C   UNL     1      14.500  23.596  -1.036  1.00  0.00     0.146 A 
ATOM     11  O   UNL     1      13.570  22.854  -1.624  1.00  0.00    -0.452 OA
ENDROOT
BRANCH   1  12
ATOM     12  C   UNL     1      12.318  20.843  -2.087  1.00  0.00     0.021 A 
ATOM     13  C   UNL     1      11.093  20.589  -1.450  1.00  0.00     0.016 A 
ATOM     14  C   UNL     1      10.064  19.930  -2.132  1.00  0.00     0.047 A 
ATOM     15  C   UNL     1      10.242  19.531  -3.460  1.00  0.00     0.115 A 
ATOM     16  C   UNL     1      12.485  20.458  -3.429  1.00  0.00     0.016 A 
ATOM     17  C   UNL     1      11.454  19.800  -4.108  1.00  0.00     0.047 A 
BRANCH  15  18
ATOM     18  O   UNL     1       9.210  18.875  -4.125  1.00  0.00    -0.508 OA
ATOM     19  H   UNL     1       8.328  18.675  -3.668  1.00  0.00     0.293 HD
ENDBRANCH  15  18
ENDBRANCH   1  12
BRANCH   2  20
ATOM     20  O   UNL     1      13.954  19.596  -0.040  1.00  0.00    -0.502 OA
ATOM     21  H   UNL     1      14.482  18.834  -0.449  1.00  0.00     0.293 HD
ENDBRANCH   2  20
BRANCH   6  22
ATOM     22  O   UNL     1      17.217  23.341   1.501  1.00  0.00    -0.507 OA
ATOM     23  H   UNL     1      17.288  23.747   2.427  1.00  0.00     0.293 HD
ENDBRANCH   6  22
BRANCH   8  24
ATOM     24  O   UNL     1      15.698  27.086  -1.164  1.00  0.00    -0.508 OA
ATOM     25  H   UNL     1      15.565  27.833  -0.492  1.00  0.00     0.293 HD
ENDBRANCH   8  24
TORSDOF 5
ENDMDL
