MODEL 1
REMARK VINA RESULT:    24.513      0.000      0.000
REMARK INTER + INTRA:          38.970
REMARK INTER:                  40.277
REMARK INTRA:                  -1.307
REMARK UNBOUND:                -1.307
REMARK SMILES COc1ccc([C@H]2CC(=O)c3c(O)cc(O[C@H]4O[C@H](CO[C@H]5O[C@H](C)[C@H](O)[C@@H](O)[C@H]5O)[C@H](O)[C@H](O)[C@H]4O)cc3O2)cc1O
REMARK SMILES IDX 19 1 32 2 34 3 36 4 17 5 18 6 20 7 21 8 22 9 25 10 24 11
REMARK SMILES IDX 26 12 23 13 28 14 30 15 27 16 29 18 31 20 33 22 35 24 16 26
REMARK SMILES IDX 15 27 14 28 38 29 12 30 39 31 11 32 40 33 9 34 7 35 10 36
REMARK SMILES IDX 8 37 13 38 6 40 41 41 5 42 42 43 4 44 3 45 43 46 2 48 1 49
REMARK SMILES IDX 37 50
REMARK H PARENT 27 17 29 19 31 21 33 23 35 25 13 39 43 47 37 51
REMARK Flexibility Score: inf
ROOT
ATOM      1  C   UNL     1      74.201  40.725  23.376  1.00  0.00     0.180 C 
ATOM      2  C   UNL     1      75.376  41.124  22.447  1.00  0.00     0.177 C 
ATOM      3  C   UNL     1      76.719  40.953  23.183  1.00  0.00     0.180 C 
ATOM      4  C   UNL     1      76.793  39.562  23.850  1.00  0.00     0.214 C 
ATOM      5  C   UNL     1      75.518  39.275  24.679  1.00  0.00     0.339 C 
ATOM      6  O   UNL     1      74.361  39.401  23.868  1.00  0.00    -0.332 OA
ENDROOT
BRANCH   1   7
ATOM      7  C   UNL     1      72.858  40.821  22.636  1.00  0.00     0.198 C 
BRANCH   7   8
ATOM      8  O   UNL     1      72.312  39.522  22.460  1.00  0.00    -0.347 OA
BRANCH   8   9
ATOM      9  C   UNL     1      72.107  39.182  21.097  1.00  0.00     0.281 C 
ATOM     10  C   UNL     1      70.463  40.063  18.650  1.00  0.00     0.041 C 
ATOM     11  C   UNL     1      71.982  40.069  18.901  1.00  0.00     0.150 C 
ATOM     12  C   UNL     1      72.743  38.839  18.305  1.00  0.00     0.174 C 
ATOM     13  O   UNL     1      72.286  40.325  20.268  1.00  0.00    -0.344 OA
ATOM     14  C   UNL     1      73.728  38.253  19.333  1.00  0.00     0.179 C 
ATOM     15  C   UNL     1      72.966  37.956  20.649  1.00  0.00     0.202 C 
BRANCH  12  16
ATOM     16  O   UNL     1      71.848  37.839  17.881  1.00  0.00    -0.388 OA
ATOM     17  H   UNL     1      70.933  38.222  17.946  1.00  0.00     0.211 HD
ENDBRANCH  12  16
BRANCH  14  18
ATOM     18  O   UNL     1      74.773  39.164  19.566  1.00  0.00    -0.387 OA
ATOM     19  H   UNL     1      74.381  39.927  20.063  1.00  0.00     0.211 HD
ENDBRANCH  14  18
BRANCH  15  20
ATOM     20  O   UNL     1      73.794  37.492  21.694  1.00  0.00    -0.385 OA
ATOM     21  H   UNL     1      73.536  36.566  21.946  1.00  0.00     0.211 HD
ENDBRANCH  15  20
ENDBRANCH   8   9
ENDBRANCH   7   8
ENDBRANCH   1   7
BRANCH   2  22
ATOM     22  O   UNL     1      75.368  40.406  21.237  1.00  0.00    -0.387 OA
ATOM     23  H   UNL     1      74.577  39.810  21.232  1.00  0.00     0.211 HD
ENDBRANCH   2  22
BRANCH   3  24
ATOM     24  O   UNL     1      77.778  41.117  22.278  1.00  0.00    -0.387 OA
ATOM     25  H   UNL     1      78.619  40.955  22.781  1.00  0.00     0.211 HD
ENDBRANCH   3  24
BRANCH   5  26
ATOM     26  O   UNL     1      75.412  40.129  25.830  1.00  0.00    -0.462 OA
BRANCH  26  27
ATOM     27  C   UNL     1      75.393  39.727  27.177  1.00  0.00     0.130 A 
ATOM     28  C   UNL     1      75.503  40.632  28.250  1.00  0.00     0.093 A 
ATOM     29  C   UNL     1      75.244  38.363  27.450  1.00  0.00     0.094 A 
ATOM     30  C   UNL     1      75.409  40.184  29.575  1.00  0.00     0.133 A 
ATOM     31  C   UNL     1      75.152  37.904  28.767  1.00  0.00     0.138 A 
ATOM     32  C   UNL     1      75.208  38.812  29.837  1.00  0.00     0.102 A 
ATOM     33  O   UNL     1      74.974  36.533  29.003  1.00  0.00    -0.484 OA
ATOM     34  C   UNL     1      74.994  38.286  31.202  1.00  0.00     0.174 C 
ATOM     35  C   UNL     1      75.058  35.937  30.302  1.00  0.00     0.211 C 
ATOM     36  O   UNL     1      75.175  39.011  32.218  1.00  0.00    -0.294 OA
ATOM     37  C   UNL     1      74.492  36.883  31.384  1.00  0.00     0.131 C 
BRANCH  30  38
ATOM     38  O   UNL     1      75.495  41.103  30.620  1.00  0.00    -0.507 OA
ATOM     39  H   UNL     1      76.023  40.905  31.461  1.00  0.00     0.293 HD
ENDBRANCH  30  38
BRANCH  35  40
ATOM     40  C   UNL     1      76.472  35.425  30.548  1.00  0.00    -0.003 A 
ATOM     41  C   UNL     1      77.518  35.973  29.788  1.00  0.00     0.057 A 
ATOM     42  C   UNL     1      76.781  34.430  31.498  1.00  0.00     0.011 A 
ATOM     43  C   UNL     1      78.835  35.519  29.935  1.00  0.00     0.158 A 
ATOM     44  C   UNL     1      78.093  33.973  31.647  1.00  0.00     0.051 A 
ATOM     45  C   UNL     1      79.130  34.502  30.860  1.00  0.00     0.160 A 
BRANCH  43  46
ATOM     46  O   UNL     1      79.835  36.084  29.144  1.00  0.00    -0.504 OA
ATOM     47  H   UNL     1      79.816  36.034  28.133  1.00  0.00     0.293 HD
ENDBRANCH  43  46
BRANCH  45  48
ATOM     48  O   UNL     1      80.453  34.043  30.965  1.00  0.00    -0.493 OA
ATOM     49  C   UNL     1      81.512  34.774  31.575  1.00  0.00     0.278 C 
ENDBRANCH  45  48
ENDBRANCH  35  40
ENDBRANCH  26  27
ENDBRANCH   5  26
BRANCH   4  50
ATOM     50  O   UNL     1      77.960  39.414  24.621  1.00  0.00    -0.384 OA
ATOM     51  H   UNL     1      78.740  39.429  24.008  1.00  0.00     0.211 HD
ENDBRANCH   4  50
TORSDOF 15
ENDMDL
MODEL 2
REMARK VINA RESULT:    24.599      2.443      6.653
REMARK INTER + INTRA:          39.111
REMARK INTER:                  34.020
REMARK INTRA:                   5.092
REMARK UNBOUND:                -1.307
REMARK SMILES COc1ccc([C@H]2CC(=O)c3c(O)cc(O[C@H]4O[C@H](CO[C@H]5O[C@H](C)[C@H](O)[C@@H](O)[C@H]5O)[C@H](O)[C@H](O)[C@H]4O)cc3O2)cc1O
REMARK SMILES IDX 19 1 32 2 34 3 36 4 17 5 18 6 20 7 21 8 22 9 25 10 24 11
REMARK SMILES IDX 26 12 23 13 28 14 30 15 27 16 29 18 31 20 33 22 35 24 16 26
REMARK SMILES IDX 15 27 14 28 38 29 12 30 39 31 11 32 40 33 9 34 7 35 10 36
REMARK SMILES IDX 8 37 13 38 6 40 41 41 5 42 42 43 4 44 3 45 43 46 2 48 1 49
REMARK SMILES IDX 37 50
REMARK H PARENT 27 17 29 19 31 21 33 23 35 25 13 39 43 47 37 51
REMARK Flexibility Score: inf
ROOT
ATOM      1  C   UNL     1      70.377  39.904  19.488  1.00  0.00     0.180 C 
ATOM      2  C   UNL     1      68.918  39.681  19.016  1.00  0.00     0.177 C 
ATOM      3  C   UNL     1      67.954  39.730  20.217  1.00  0.00     0.180 C 
ATOM      4  C   UNL     1      68.229  40.984  21.074  1.00  0.00     0.214 C 
ATOM      5  C   UNL     1      69.736  41.114  21.403  1.00  0.00     0.339 C 
ATOM      6  O   UNL     1      70.503  41.124  20.209  1.00  0.00    -0.332 OA
ENDROOT
BRANCH   1   7
ATOM      7  C   UNL     1      71.345  39.930  18.296  1.00  0.00     0.198 C 
BRANCH   7   8
ATOM      8  O   UNL     1      71.959  38.659  18.148  1.00  0.00    -0.347 OA
BRANCH   8   9
ATOM      9  C   UNL     1      73.376  38.723  18.110  1.00  0.00     0.281 C 
ATOM     10  C   UNL     1      75.657  40.782  17.941  1.00  0.00     0.041 C 
ATOM     11  C   UNL     1      75.269  39.795  19.057  1.00  0.00     0.150 C 
ATOM     12  C   UNL     1      76.087  38.462  19.058  1.00  0.00     0.174 C 
ATOM     13  O   UNL     1      73.859  39.603  19.120  1.00  0.00    -0.344 OA
ATOM     14  C   UNL     1      75.158  37.247  19.227  1.00  0.00     0.179 C 
ATOM     15  C   UNL     1      74.043  37.311  18.154  1.00  0.00     0.202 C 
BRANCH  12  16
ATOM     16  O   UNL     1      76.840  38.322  17.877  1.00  0.00    -0.388 OA
ATOM     17  H   UNL     1      77.792  38.481  18.118  1.00  0.00     0.211 HD
ENDBRANCH  12  16
BRANCH  14  18
ATOM     18  O   UNL     1      74.597  37.251  20.517  1.00  0.00    -0.387 OA
ATOM     19  H   UNL     1      74.063  38.083  20.594  1.00  0.00     0.211 HD
ENDBRANCH  14  18
BRANCH  15  20
ATOM     20  O   UNL     1      73.080  36.285  18.271  1.00  0.00    -0.385 OA
ATOM     21  H   UNL     1      72.166  36.675  18.267  1.00  0.00     0.211 HD
ENDBRANCH  15  20
ENDBRANCH   8   9
ENDBRANCH   7   8
ENDBRANCH   1   7
BRANCH   2  22
ATOM     22  O   UNL     1      68.533  40.598  18.020  1.00  0.00    -0.387 OA
ATOM     23  H   UNL     1      67.908  40.144  17.401  1.00  0.00     0.211 HD
ENDBRANCH   2  22
BRANCH   3  24
ATOM     24  O   UNL     1      66.628  39.733  19.759  1.00  0.00    -0.387 OA
ATOM     25  H   UNL     1      66.406  40.670  19.516  1.00  0.00     0.211 HD
ENDBRANCH   3  24
BRANCH   5  26
ATOM     26  O   UNL     1      70.196  40.072  22.278  1.00  0.00    -0.462 OA
BRANCH  26  27
ATOM     27  C   UNL     1      71.529  39.676  22.488  1.00  0.00     0.130 A 
ATOM     28  C   UNL     1      72.092  38.532  21.893  1.00  0.00     0.093 A 
ATOM     29  C   UNL     1      72.324  40.473  23.318  1.00  0.00     0.094 A 
ATOM     30  C   UNL     1      73.447  38.222  22.082  1.00  0.00     0.133 A 
ATOM     31  C   UNL     1      73.674  40.173  23.517  1.00  0.00     0.138 A 
ATOM     32  C   UNL     1      74.251  39.061  22.880  1.00  0.00     0.102 A 
ATOM     33  O   UNL     1      74.450  41.011  24.331  1.00  0.00    -0.484 OA
ATOM     34  C   UNL     1      75.707  38.855  23.036  1.00  0.00     0.174 C 
ATOM     35  C   UNL     1      75.781  40.693  24.753  1.00  0.00     0.211 C 
ATOM     36  O   UNL     1      76.266  37.804  22.619  1.00  0.00    -0.294 OA
ATOM     37  C   UNL     1      76.548  39.939  23.643  1.00  0.00     0.131 C 
BRANCH  30  38
ATOM     38  O   UNL     1      73.988  37.097  21.461  1.00  0.00    -0.507 OA
ATOM     39  H   UNL     1      73.414  36.303  21.203  1.00  0.00     0.293 HD
ENDBRANCH  30  38
BRANCH  35  40
ATOM     40  C   UNL     1      75.746  40.008  26.113  1.00  0.00    -0.003 A 
ATOM     41  C   UNL     1      75.676  40.814  27.260  1.00  0.00     0.057 A 
ATOM     42  C   UNL     1      75.779  38.608  26.276  1.00  0.00     0.011 A 
ATOM     43  C   UNL     1      75.681  40.250  28.543  1.00  0.00     0.158 A 
ATOM     44  C   UNL     1      75.787  38.041  27.553  1.00  0.00     0.051 A 
ATOM     45  C   UNL     1      75.751  38.855  28.698  1.00  0.00     0.160 A 
BRANCH  43  46
ATOM     46  O   UNL     1      75.628  41.095  29.651  1.00  0.00    -0.504 OA
ATOM     47  H   UNL     1      75.973  40.814  30.561  1.00  0.00     0.293 HD
ENDBRANCH  43  46
BRANCH  45  48
ATOM     48  O   UNL     1      75.787  38.317  29.995  1.00  0.00    -0.493 OA
ATOM     49  C   UNL     1      75.642  36.933  30.296  1.00  0.00     0.278 C 
ENDBRANCH  45  48
ENDBRANCH  35  40
ENDBRANCH  26  27
ENDBRANCH   5  26
BRANCH   4  50
ATOM     50  O   UNL     1      67.439  41.003  22.239  1.00  0.00    -0.384 OA
ATOM     51  H   UNL     1      67.947  40.557  22.965  1.00  0.00     0.211 HD
ENDBRANCH   4  50
TORSDOF 15
ENDMDL
