MODEL 1
REMARK VINA RESULT:    -5.371      0.000      0.000
REMARK INTER + INTRA:          -8.769
REMARK INTER:                  -8.198
REMARK INTRA:                  -0.572
REMARK UNBOUND:                -0.572
REMARK SMILES CCCCCCCCCCC(=O)[O-]
REMARK SMILES IDX 7 1 8 2 9 3 10 4 11 5 12 6 13 7 6 8 5 9 4 10 3 11 2 12 1 13
REMARK H PARENT
REMARK Flexibility Score: inf
ROOT
ATOM      1  C   UNL     1      24.482 -12.964  17.643  1.00  0.00     0.000 C 
ENDROOT
BRANCH   1   2
ATOM      2  C   UNL     1      23.474 -13.384  18.736  1.00  0.00     0.000 C 
BRANCH   2   3
ATOM      3  C   UNL     1      22.595 -12.222  19.238  1.00  0.00     0.006 C 
BRANCH   3   4
ATOM      4  C   UNL     1      22.602 -12.049  20.764  1.00  0.00     0.053 C 
BRANCH   4   5
ATOM      5  C   UNL     1      23.272 -10.774  21.178  1.00  0.00     0.041 C 
ATOM      6  O   UNL     1      23.834 -10.047  20.318  1.00  0.00    -0.550 OA
ATOM      7  O   UNL     1      23.294 -10.398  22.515  1.00  0.00    -0.550 OA
ENDBRANCH   4   5
ENDBRANCH   3   4
ENDBRANCH   2   3
ENDBRANCH   1   2
BRANCH   1   8
ATOM      8  C   UNL     1      23.793 -12.669  16.300  1.00  0.00     0.000 C 
BRANCH   8   9
ATOM      9  C   UNL     1      24.412 -11.470  15.565  1.00  0.00    -0.000 C 
BRANCH   9  10
ATOM     10  C   UNL     1      25.795 -11.084  16.119  1.00  0.00    -0.000 C 
BRANCH  10  11
ATOM     11  C   UNL     1      26.810 -10.788  14.994  1.00  0.00    -0.000 C 
BRANCH  11  12
ATOM     12  C   UNL     1      28.275 -10.970  15.425  1.00  0.00    -0.003 C 
ATOM     13  C   UNL     1      28.419 -11.467  16.862  1.00  0.00     0.004 C 
ENDBRANCH  11  12
ENDBRANCH  10  11
ENDBRANCH   9  10
ENDBRANCH   8   9
ENDBRANCH   1   8
TORSDOF 9
ENDMDL
MODEL 2
REMARK VINA RESULT:    -5.318      2.569      5.865
REMARK INTER + INTRA:          -8.687
REMARK INTER:                  -8.123
REMARK INTRA:                  -0.564
REMARK UNBOUND:                -0.572
REMARK SMILES CCCCCCCCCCC(=O)[O-]
REMARK SMILES IDX 7 1 8 2 9 3 10 4 11 5 12 6 13 7 6 8 5 9 4 10 3 11 2 12 1 13
REMARK H PARENT
REMARK Flexibility Score: inf
ROOT
ATOM      1  C   UNL     1      23.712 -12.509  16.421  1.00  0.00     0.000 C 
ENDROOT
BRANCH   1   2
ATOM      2  C   UNL     1      24.454 -11.544  15.471  1.00  0.00     0.000 C 
BRANCH   2   3
ATOM      3  C   UNL     1      25.661 -10.845  16.128  1.00  0.00     0.006 C 
BRANCH   3   4
ATOM      4  C   UNL     1      26.928 -10.845  15.261  1.00  0.00     0.053 C 
BRANCH   4   5
ATOM      5  C   UNL     1      28.146 -11.215  16.052  1.00  0.00     0.041 C 
ATOM      6  O   UNL     1      29.293 -10.933  15.616  1.00  0.00    -0.550 OA
ATOM      7  O   UNL     1      28.017 -11.888  17.260  1.00  0.00    -0.550 OA
ENDBRANCH   4   5
ENDBRANCH   3   4
ENDBRANCH   2   3
ENDBRANCH   1   2
BRANCH   1   8
ATOM      8  C   UNL     1      24.327 -12.525  17.830  1.00  0.00     0.000 C 
BRANCH   8   9
ATOM      9  C   UNL     1      23.389 -13.137  18.883  1.00  0.00    -0.000 C 
BRANCH   9  10
ATOM     10  C   UNL     1      22.500 -12.084  19.569  1.00  0.00    -0.000 C 
BRANCH  10  11
ATOM     11  C   UNL     1      22.601 -12.151  21.107  1.00  0.00    -0.000 C 
BRANCH  11  12
ATOM     12  C   UNL     1      23.052 -10.830  21.751  1.00  0.00    -0.003 C 
ATOM     13  C   UNL     1      23.959 -10.000  20.844  1.00  0.00     0.004 C 
ENDBRANCH  11  12
ENDBRANCH  10  11
ENDBRANCH   9  10
ENDBRANCH   8   9
ENDBRANCH   1   8
TORSDOF 9
ENDMDL
MODEL 3
REMARK VINA RESULT:    -5.194      1.054      1.282
REMARK INTER + INTRA:          -8.498
REMARK INTER:                  -7.988
REMARK INTRA:                  -0.510
REMARK UNBOUND:                -0.572
REMARK SMILES CCCCCCCCCCC(=O)[O-]
REMARK SMILES IDX 7 1 8 2 9 3 10 4 11 5 12 6 13 7 6 8 5 9 4 10 3 11 2 12 1 13
REMARK H PARENT
REMARK Flexibility Score: inf
ROOT
ATOM      1  C   UNL     1      23.807 -12.591  16.891  1.00  0.00     0.000 C 
ENDROOT
BRANCH   1   2
ATOM      2  C   UNL     1      23.701 -13.075  18.354  1.00  0.00     0.000 C 
BRANCH   2   3
ATOM      3  C   UNL     1      22.512 -12.459  19.118  1.00  0.00     0.006 C 
BRANCH   3   4
ATOM      4  C   UNL     1      22.685 -12.461  20.644  1.00  0.00     0.053 C 
BRANCH   4   5
ATOM      5  C   UNL     1      23.119 -11.122  21.158  1.00  0.00     0.041 C 
ATOM      6  O   UNL     1      23.503 -10.231  20.356  1.00  0.00    -0.550 OA
ATOM      7  O   UNL     1      23.119 -10.864  22.523  1.00  0.00    -0.550 OA
ENDBRANCH   4   5
ENDBRANCH   3   4
ENDBRANCH   2   3
ENDBRANCH   1   2
BRANCH   1   8
ATOM      8  C   UNL     1      24.875 -11.499  16.716  1.00  0.00     0.000 C 
BRANCH   8   9
ATOM      9  C   UNL     1      25.356 -11.365  15.263  1.00  0.00    -0.000 C 
BRANCH   9  10
ATOM     10  C   UNL     1      26.737 -10.692  15.154  1.00  0.00    -0.000 C 
BRANCH  10  11
ATOM     11  C   UNL     1      27.653 -11.049  16.344  1.00  0.00    -0.000 C 
BRANCH  11  12
ATOM     12  C   UNL     1      28.187  -9.819  17.098  1.00  0.00    -0.003 C 
ATOM     13  C   UNL     1      27.545  -9.635  18.472  1.00  0.00     0.004 C 
ENDBRANCH  11  12
ENDBRANCH  10  11
ENDBRANCH   9  10
ENDBRANCH   8   9
ENDBRANCH   1   8
TORSDOF 9
ENDMDL
MODEL 4
REMARK VINA RESULT:    -5.171      2.703      5.542
REMARK INTER + INTRA:          -8.464
REMARK INTER:                  -7.989
REMARK INTRA:                  -0.475
REMARK UNBOUND:                -0.572
REMARK SMILES CCCCCCCCCCC(=O)[O-]
REMARK SMILES IDX 7 1 8 2 9 3 10 4 11 5 12 6 13 7 6 8 5 9 4 10 3 11 2 12 1 13
REMARK H PARENT
REMARK Flexibility Score: inf
ROOT
ATOM      1  C   UNL     1      24.871 -11.531  16.066  1.00  0.00     0.000 C 
ENDROOT
BRANCH   1   2
ATOM      2  C   UNL     1      26.013 -11.508  17.106  1.00  0.00     0.000 C 
BRANCH   2   3
ATOM      3  C   UNL     1      26.954 -10.297  16.955  1.00  0.00     0.006 C 
BRANCH   3   4
ATOM      4  C   UNL     1      27.267  -9.582  18.277  1.00  0.00     0.053 C 
BRANCH   4   5
ATOM      5  C   UNL     1      28.271  -8.485  18.095  1.00  0.00     0.041 C 
ATOM      6  O   UNL     1      29.436  -8.753  17.700  1.00  0.00    -0.550 OA
ATOM      7  O   UNL     1      27.928  -7.169  18.378  1.00  0.00    -0.550 OA
ENDBRANCH   4   5
ENDBRANCH   3   4
ENDBRANCH   2   3
ENDBRANCH   1   2
BRANCH   1   8
ATOM      8  C   UNL     1      23.718 -12.457  16.489  1.00  0.00     0.000 C 
BRANCH   8   9
ATOM      9  C   UNL     1      23.846 -12.939  17.943  1.00  0.00    -0.000 C 
BRANCH   9  10
ATOM     10  C   UNL     1      22.634 -12.546  18.807  1.00  0.00    -0.000 C 
BRANCH  10  11
ATOM     11  C   UNL     1      22.982 -11.447  19.833  1.00  0.00    -0.000 C 
BRANCH  11  12
ATOM     12  C   UNL     1      22.647 -11.833  21.283  1.00  0.00    -0.003 C 
ATOM     13  C   UNL     1      23.082 -10.778  22.299  1.00  0.00     0.004 C 
ENDBRANCH  11  12
ENDBRANCH  10  11
ENDBRANCH   9  10
ENDBRANCH   8   9
ENDBRANCH   1   8
TORSDOF 9
ENDMDL
MODEL 5
REMARK VINA RESULT:    -4.913      1.147      1.868
REMARK INTER + INTRA:          -8.069
REMARK INTER:                  -7.647
REMARK INTRA:                  -0.422
REMARK UNBOUND:                -0.572
REMARK SMILES CCCCCCCCCCC(=O)[O-]
REMARK SMILES IDX 7 1 8 2 9 3 10 4 11 5 12 6 13 7 6 8 5 9 4 10 3 11 2 12 1 13
REMARK H PARENT
REMARK Flexibility Score: inf
ROOT
ATOM      1  C   UNL     1      23.556 -12.470  16.243  1.00  0.00     0.000 C 
ENDROOT
BRANCH   1   2
ATOM      2  C   UNL     1      23.792 -12.705  17.752  1.00  0.00     0.000 C 
BRANCH   2   3
ATOM      3  C   UNL     1      22.541 -12.448  18.614  1.00  0.00     0.006 C 
BRANCH   3   4
ATOM      4  C   UNL     1      22.737 -12.758  20.105  1.00  0.00     0.053 C 
BRANCH   4   5
ATOM      5  C   UNL     1      23.004 -11.519  20.903  1.00  0.00     0.041 C 
ATOM      6  O   UNL     1      22.664 -11.460  22.114  1.00  0.00    -0.550 OA
ATOM      7  O   UNL     1      23.610 -10.420  20.307  1.00  0.00    -0.550 OA
ENDBRANCH   4   5
ENDBRANCH   3   4
ENDBRANCH   2   3
ENDBRANCH   1   2
BRANCH   1   8
ATOM      8  C   UNL     1      24.652 -11.595  15.613  1.00  0.00     0.000 C 
BRANCH   8   9
ATOM      9  C   UNL     1      25.776 -11.245  16.602  1.00  0.00    -0.000 C 
BRANCH   9  10
ATOM     10  C   UNL     1      27.131 -11.021  15.906  1.00  0.00    -0.000 C 
BRANCH  10  11
ATOM     11  C   UNL     1      28.285 -10.860  16.918  1.00  0.00    -0.000 C 
BRANCH  11  12
ATOM     12  C   UNL     1      29.117  -9.585  16.702  1.00  0.00    -0.003 C 
ATOM     13  C   UNL     1      28.302  -8.428  16.128  1.00  0.00     0.004 C 
ENDBRANCH  11  12
ENDBRANCH  10  11
ENDBRANCH   9  10
ENDBRANCH   8   9
ENDBRANCH   1   8
TORSDOF 9
ENDMDL
MODEL 6
REMARK VINA RESULT:    -4.882      2.263      5.652
REMARK INTER + INTRA:          -8.022
REMARK INTER:                  -7.617
REMARK INTRA:                  -0.405
REMARK UNBOUND:                -0.572
REMARK SMILES CCCCCCCCCCC(=O)[O-]
REMARK SMILES IDX 7 1 8 2 9 3 10 4 11 5 12 6 13 7 6 8 5 9 4 10 3 11 2 12 1 13
REMARK H PARENT
REMARK Flexibility Score: inf
ROOT
ATOM      1  C   UNL     1      25.333 -11.305  16.388  1.00  0.00     0.000 C 
ENDROOT
BRANCH   1   2
ATOM      2  C   UNL     1      26.194 -10.873  15.181  1.00  0.00     0.000 C 
BRANCH   2   3
ATOM      3  C   UNL     1      27.702 -10.812  15.495  1.00  0.00     0.006 C 
BRANCH   3   4
ATOM      4  C   UNL     1      28.039 -11.033  16.977  1.00  0.00     0.053 C 
BRANCH   4   5
ATOM      5  C   UNL     1      28.275  -9.739  17.695  1.00  0.00     0.041 C 
ATOM      6  O   UNL     1      27.637  -9.474  18.748  1.00  0.00    -0.550 OA
ATOM      7  O   UNL     1      29.184  -8.816  17.193  1.00  0.00    -0.550 OA
ENDBRANCH   4   5
ENDBRANCH   3   4
ENDBRANCH   2   3
ENDBRANCH   1   2
BRANCH   1   8
ATOM      8  C   UNL     1      24.128 -12.162  15.965  1.00  0.00     0.000 C 
BRANCH   8   9
ATOM      9  C   UNL     1      23.471 -12.890  17.148  1.00  0.00    -0.000 C 
BRANCH   9  10
ATOM     10  C   UNL     1      23.668 -12.151  18.484  1.00  0.00    -0.000 C 
BRANCH  10  11
ATOM     11  C   UNL     1      22.412 -12.217  19.377  1.00  0.00    -0.000 C 
BRANCH  11  12
ATOM     12  C   UNL     1      22.714 -12.596  20.836  1.00  0.00    -0.003 C 
ATOM     13  C   UNL     1      22.820 -11.383  21.759  1.00  0.00     0.004 C 
ENDBRANCH  11  12
ENDBRANCH  10  11
ENDBRANCH   9  10
ENDBRANCH   8   9
ENDBRANCH   1   8
TORSDOF 9
ENDMDL
MODEL 7
REMARK VINA RESULT:    -4.872      1.733      3.249
REMARK INTER + INTRA:          -8.007
REMARK INTER:                  -7.187
REMARK INTRA:                  -0.820
REMARK UNBOUND:                -0.572
REMARK SMILES CCCCCCCCCCC(=O)[O-]
REMARK SMILES IDX 7 1 8 2 9 3 10 4 11 5 12 6 13 7 6 8 5 9 4 10 3 11 2 12 1 13
REMARK H PARENT
REMARK Flexibility Score: inf
ROOT
ATOM      1  C   UNL     1      27.322  -9.674  18.214  1.00  0.00     0.000 C 
ENDROOT
BRANCH   1   2
ATOM      2  C   UNL     1      26.507  -9.682  19.527  1.00  0.00     0.000 C 
BRANCH   2   3
ATOM      3  C   UNL     1      25.034 -10.092  19.330  1.00  0.00     0.006 C 
BRANCH   3   4
ATOM      4  C   UNL     1      24.128  -9.752  20.522  1.00  0.00     0.053 C 
BRANCH   4   5
ATOM      5  C   UNL     1      23.358 -10.946  20.997  1.00  0.00     0.041 C 
ATOM      6  O   UNL     1      22.933 -11.794  20.170  1.00  0.00    -0.550 OA
ATOM      7  O   UNL     1      23.091 -11.113  22.350  1.00  0.00    -0.550 OA
ENDBRANCH   4   5
ENDBRANCH   3   4
ENDBRANCH   2   3
ENDBRANCH   1   2
BRANCH   1   8
ATOM      8  C   UNL     1      27.085 -10.941  17.376  1.00  0.00     0.000 C 
BRANCH   8   9
ATOM      9  C   UNL     1      27.339 -10.717  15.876  1.00  0.00    -0.000 C 
BRANCH   9  10
ATOM     10  C   UNL     1      26.128 -11.097  15.006  1.00  0.00    -0.000 C 
BRANCH  10  11
ATOM     11  C   UNL     1      24.799 -11.000  15.784  1.00  0.00    -0.000 C 
BRANCH  11  12
ATOM     12  C   UNL     1      24.012 -12.321  15.824  1.00  0.00    -0.003 C 
ATOM     13  C   UNL     1      24.072 -13.012  17.185  1.00  0.00     0.004 C 
ENDBRANCH  11  12
ENDBRANCH  10  11
ENDBRANCH   9  10
ENDBRANCH   8   9
ENDBRANCH   1   8
TORSDOF 9
ENDMDL
MODEL 8
REMARK VINA RESULT:    -4.794      2.981      5.580
REMARK INTER + INTRA:          -7.889
REMARK INTER:                  -7.543
REMARK INTRA:                  -0.345
REMARK UNBOUND:                -0.572
REMARK SMILES CCCCCCCCCCC(=O)[O-]
REMARK SMILES IDX 7 1 8 2 9 3 10 4 11 5 12 6 13 7 6 8 5 9 4 10 3 11 2 12 1 13
REMARK H PARENT
REMARK Flexibility Score: inf
ROOT
ATOM      1  C   UNL     1      26.019 -11.251  17.128  1.00  0.00     0.000 C 
ENDROOT
BRANCH   1   2
ATOM      2  C   UNL     1      25.808 -10.026  18.046  1.00  0.00     0.000 C 
BRANCH   2   3
ATOM      3  C   UNL     1      27.079  -9.607  18.809  1.00  0.00     0.006 C 
BRANCH   3   4
ATOM      4  C   UNL     1      28.308  -9.404  17.910  1.00  0.00     0.053 C 
BRANCH   4   5
ATOM      5  C   UNL     1      28.518  -7.961  17.568  1.00  0.00     0.041 C 
ATOM      6  O   UNL     1      29.055  -7.641  16.475  1.00  0.00    -0.550 OA
ATOM      7  O   UNL     1      28.139  -6.968  18.463  1.00  0.00    -0.550 OA
ENDBRANCH   4   5
ENDBRANCH   3   4
ENDBRANCH   2   3
ENDBRANCH   1   2
BRANCH   1   8
ATOM      8  C   UNL     1      24.914 -11.379  16.067  1.00  0.00     0.000 C 
BRANCH   8   9
ATOM      9  C   UNL     1      23.804 -12.358  16.480  1.00  0.00    -0.000 C 
BRANCH   9  10
ATOM     10  C   UNL     1      23.918 -12.799  17.951  1.00  0.00    -0.000 C 
BRANCH  10  11
ATOM     11  C   UNL     1      22.593 -12.609  18.720  1.00  0.00    -0.000 C 
BRANCH  11  12
ATOM     12  C   UNL     1      22.657 -13.088  20.180  1.00  0.00    -0.003 C 
ATOM     13  C   UNL     1      22.763 -11.940  21.182  1.00  0.00     0.004 C 
ENDBRANCH  11  12
ENDBRANCH  10  11
ENDBRANCH   9  10
ENDBRANCH   8   9
ENDBRANCH   1   8
TORSDOF 9
ENDMDL
MODEL 9
REMARK VINA RESULT:    -4.620      3.765      6.716
REMARK INTER + INTRA:          -7.623
REMARK INTER:                  -7.146
REMARK INTRA:                  -0.477
REMARK UNBOUND:                -0.572
REMARK SMILES CCCCCCCCCCC(=O)[O-]
REMARK SMILES IDX 7 1 8 2 9 3 10 4 11 5 12 6 13 7 6 8 5 9 4 10 3 11 2 12 1 13
REMARK H PARENT
REMARK Flexibility Score: inf
ROOT
ATOM      1  C   UNL     1      27.141 -10.997  16.538  1.00  0.00     0.000 C 
ENDROOT
BRANCH   1   2
ATOM      2  C   UNL     1      27.611 -10.708  15.095  1.00  0.00     0.000 C 
BRANCH   2   3
ATOM      3  C   UNL     1      29.106 -11.006  14.867  1.00  0.00     0.006 C 
BRANCH   3   4
ATOM      4  C   UNL     1      29.985 -10.764  16.102  1.00  0.00     0.053 C 
BRANCH   4   5
ATOM      5  C   UNL     1      30.835  -9.539  15.952  1.00  0.00     0.041 C 
ATOM      6  O   UNL     1      30.305  -8.433  15.669  1.00  0.00    -0.550 OA
ATOM      7  O   UNL     1      32.213  -9.621  16.105  1.00  0.00    -0.550 OA
ENDBRANCH   4   5
ENDBRANCH   3   4
ENDBRANCH   2   3
ENDBRANCH   1   2
BRANCH   1   8
ATOM      8  C   UNL     1      25.617 -10.860  16.691  1.00  0.00     0.000 C 
BRANCH   8   9
ATOM      9  C   UNL     1      24.840 -11.653  15.629  1.00  0.00    -0.000 C 
BRANCH   9  10
ATOM     10  C   UNL     1      23.714 -12.511  16.235  1.00  0.00    -0.000 C 
BRANCH  10  11
ATOM     11  C   UNL     1      23.960 -12.826  17.725  1.00  0.00    -0.000 C 
BRANCH  11  12
ATOM     12  C   UNL     1      22.734 -12.572  18.618  1.00  0.00    -0.003 C 
ATOM     13  C   UNL     1      22.687 -13.484  19.843  1.00  0.00     0.004 C 
ENDBRANCH  11  12
ENDBRANCH  10  11
ENDBRANCH   9  10
ENDBRANCH   8   9
ENDBRANCH   1   8
TORSDOF 9
ENDMDL
