MODEL 1
REMARK VINA RESULT:    -3.821      0.000      0.000
REMARK INTER + INTRA:         -12.344
REMARK INTER:                  -8.736
REMARK INTRA:                  -3.607
REMARK UNBOUND:                -3.607
REMARK SMILES CCCCCCCCCCCCCCCCCCCCCCCC(=O)[O-]
REMARK SMILES IDX 13 1 14 2 15 3 16 4 17 5 18 6 19 7 20 8 21 9 22 10 23 11
REMARK SMILES IDX 24 12 25 13 26 14 12 15 11 16 10 17 9 18 8 19 7 20 6 21 5 22
REMARK SMILES IDX 4 23 3 24 2 25 1 26
REMARK H PARENT
REMARK Flexibility Score: inf
ROOT
ATOM      1  C   UNL     1      -4.101  -7.347 -45.932  1.00  0.00     0.000 C 
ENDROOT
BRANCH   1   2
ATOM      2  C   UNL     1      -5.064  -7.176 -44.741  1.00  0.00     0.000 C 
BRANCH   2   3
ATOM      3  C   UNL     1      -4.464  -7.523 -43.362  1.00  0.00     0.000 C 
BRANCH   3   4
ATOM      4  C   UNL     1      -3.398  -8.633 -43.372  1.00  0.00     0.000 C 
BRANCH   4   5
ATOM      5  C   UNL     1      -2.330  -8.446 -42.284  1.00  0.00     0.000 C 
BRANCH   5   6
ATOM      6  C   UNL     1      -2.884  -8.819 -40.900  1.00  0.00     0.000 C 
BRANCH   6   7
ATOM      7  C   UNL     1      -2.039  -8.239 -39.751  1.00  0.00     0.000 C 
BRANCH   7   8
ATOM      8  C   UNL     1      -0.611  -8.808 -39.670  1.00  0.00     0.000 C 
BRANCH   8   9
ATOM      9  C   UNL     1      -0.590 -10.347 -39.732  1.00  0.00     0.000 C 
BRANCH   9  10
ATOM     10  C   UNL     1       0.181 -10.884 -40.948  1.00  0.00     0.006 C 
BRANCH  10  11
ATOM     11  C   UNL     1       1.135  -9.848 -41.555  1.00  0.00     0.053 C 
BRANCH  11  12
ATOM     12  C   UNL     1       2.049 -10.495 -42.547  1.00  0.00     0.041 C 
ATOM     13  O   UNL     1       1.900 -10.279 -43.780  1.00  0.00    -0.550 OA
ATOM     14  O   UNL     1       3.044 -11.363 -42.113  1.00  0.00    -0.550 OA
ENDBRANCH  11  12
ENDBRANCH  10  11
ENDBRANCH   9  10
ENDBRANCH   8   9
ENDBRANCH   7   8
ENDBRANCH   6   7
ENDBRANCH   5   6
ENDBRANCH   4   5
ENDBRANCH   3   4
ENDBRANCH   2   3
ENDBRANCH   1   2
BRANCH   1  15
ATOM     15  C   UNL     1      -4.551  -8.380 -46.984  1.00  0.00     0.000 C 
BRANCH  15  16
ATOM     16  C   UNL     1      -5.466  -9.486 -46.414  1.00  0.00     0.000 C 
BRANCH  16  17
ATOM     17  C   UNL     1      -6.607  -9.858 -47.377  1.00  0.00     0.000 C 
BRANCH  17  18
ATOM     18  C   UNL     1      -7.489 -11.008 -46.856  1.00  0.00    -0.000 C 
BRANCH  18  19
ATOM     19  C   UNL     1      -8.854 -10.587 -46.275  1.00  0.00    -0.000 C 
BRANCH  19  20
ATOM     20  C   UNL     1      -8.926 -10.718 -44.745  1.00  0.00    -0.000 C 
BRANCH  20  21
ATOM     21  C   UNL     1      -8.234  -9.554 -44.009  1.00  0.00    -0.000 C 
BRANCH  21  22
ATOM     22  C   UNL     1      -7.099  -9.986 -43.056  1.00  0.00    -0.000 C 
BRANCH  22  23
ATOM     23  C   UNL     1      -6.748 -11.480 -43.164  1.00  0.00    -0.000 C 
BRANCH  23  24
ATOM     24  C   UNL     1      -5.248 -11.726 -43.414  1.00  0.00    -0.000 C 
BRANCH  24  25
ATOM     25  C   UNL     1      -4.436 -11.992 -42.128  1.00  0.00    -0.003 C 
ATOM     26  C   UNL     1      -2.950 -12.214 -42.405  1.00  0.00     0.004 C 
ENDBRANCH  24  25
ENDBRANCH  23  24
ENDBRANCH  22  23
ENDBRANCH  21  22
ENDBRANCH  20  21
ENDBRANCH  19  20
ENDBRANCH  18  19
ENDBRANCH  17  18
ENDBRANCH  16  17
ENDBRANCH  15  16
ENDBRANCH   1  15
TORSDOF 22
ENDMDL
MODEL 2
REMARK VINA RESULT:    -3.780      2.389      3.052
REMARK INTER + INTRA:         -12.248
REMARK INTER:                  -8.636
REMARK INTRA:                  -3.612
REMARK UNBOUND:                -3.607
REMARK SMILES CCCCCCCCCCCCCCCCCCCCCCCC(=O)[O-]
REMARK SMILES IDX 13 1 14 2 15 3 16 4 17 5 18 6 19 7 20 8 21 9 22 10 23 11
REMARK SMILES IDX 24 12 25 13 26 14 12 15 11 16 10 17 9 18 8 19 7 20 6 21 5 22
REMARK SMILES IDX 4 23 3 24 2 25 1 26
REMARK H PARENT
REMARK Flexibility Score: inf
ROOT
ATOM      1  C   UNL     1      -3.058  -7.037 -46.277  1.00  0.00     0.000 C 
ENDROOT
BRANCH   1   2
ATOM      2  C   UNL     1      -4.092  -7.216 -45.148  1.00  0.00     0.000 C 
BRANCH   2   3
ATOM      3  C   UNL     1      -3.809  -8.386 -44.182  1.00  0.00     0.000 C 
BRANCH   3   4
ATOM      4  C   UNL     1      -3.921  -8.042 -42.686  1.00  0.00     0.000 C 
BRANCH   4   5
ATOM      5  C   UNL     1      -2.655  -8.401 -41.894  1.00  0.00     0.000 C 
BRANCH   5   6
ATOM      6  C   UNL     1      -1.501  -8.770 -42.840  1.00  0.00     0.000 C 
BRANCH   6   7
ATOM      7  C   UNL     1      -0.736 -10.023 -42.376  1.00  0.00     0.000 C 
BRANCH   7   8
ATOM      8  C   UNL     1      -0.143  -9.909 -40.959  1.00  0.00     0.000 C 
BRANCH   8   9
ATOM      9  C   UNL     1      -0.453 -11.145 -40.094  1.00  0.00     0.000 C 
BRANCH   9  10
ATOM     10  C   UNL     1      -1.182 -10.790 -38.788  1.00  0.00     0.006 C 
BRANCH  10  11
ATOM     11  C   UNL     1      -1.233  -9.280 -38.524  1.00  0.00     0.053 C 
BRANCH  11  12
ATOM     12  C   UNL     1      -0.740  -8.972 -37.147  1.00  0.00     0.041 C 
ATOM     13  O   UNL     1      -0.819  -9.840 -36.237  1.00  0.00    -0.550 OA
ATOM     14  O   UNL     1      -0.221  -7.714 -36.859  1.00  0.00    -0.550 OA
ENDBRANCH  11  12
ENDBRANCH  10  11
ENDBRANCH   9  10
ENDBRANCH   8   9
ENDBRANCH   7   8
ENDBRANCH   6   7
ENDBRANCH   5   6
ENDBRANCH   4   5
ENDBRANCH   3   4
ENDBRANCH   2   3
ENDBRANCH   1   2
BRANCH   1  15
ATOM     15  C   UNL     1      -3.629  -7.169 -47.702  1.00  0.00     0.000 C 
BRANCH  15  16
ATOM     16  C   UNL     1      -3.602  -8.612 -48.250  1.00  0.00     0.000 C 
BRANCH  16  17
ATOM     17  C   UNL     1      -5.012  -9.174 -48.497  1.00  0.00     0.000 C 
BRANCH  17  18
ATOM     18  C   UNL     1      -5.691  -9.694 -47.216  1.00  0.00    -0.000 C 
BRANCH  18  19
ATOM     19  C   UNL     1      -6.961  -8.935 -46.783  1.00  0.00    -0.000 C 
BRANCH  19  20
ATOM     20  C   UNL     1      -7.899  -9.776 -45.901  1.00  0.00    -0.000 C 
BRANCH  20  21
ATOM     21  C   UNL     1      -7.543  -9.700 -44.403  1.00  0.00    -0.000 C 
BRANCH  21  22
ATOM     22  C   UNL     1      -7.211 -11.062 -43.755  1.00  0.00    -0.000 C 
BRANCH  22  23
ATOM     23  C   UNL     1      -6.032 -10.995 -42.769  1.00  0.00    -0.000 C 
BRANCH  23  24
ATOM     24  C   UNL     1      -4.855 -11.898 -43.182  1.00  0.00    -0.000 C 
BRANCH  24  25
ATOM     25  C   UNL     1      -3.706 -11.936 -42.151  1.00  0.00    -0.003 C 
ATOM     26  C   UNL     1      -4.194 -11.731 -40.717  1.00  0.00     0.004 C 
ENDBRANCH  24  25
ENDBRANCH  23  24
ENDBRANCH  22  23
ENDBRANCH  21  22
ENDBRANCH  20  21
ENDBRANCH  19  20
ENDBRANCH  18  19
ENDBRANCH  17  18
ENDBRANCH  16  17
ENDBRANCH  15  16
ENDBRANCH   1  15
TORSDOF 22
ENDMDL
MODEL 3
REMARK VINA RESULT:    -3.715      1.576      2.548
REMARK INTER + INTRA:         -12.101
REMARK INTER:                  -8.961
REMARK INTRA:                  -3.139
REMARK UNBOUND:                -3.607
REMARK SMILES CCCCCCCCCCCCCCCCCCCCCCCC(=O)[O-]
REMARK SMILES IDX 13 1 14 2 15 3 16 4 17 5 18 6 19 7 20 8 21 9 22 10 23 11
REMARK SMILES IDX 24 12 25 13 26 14 12 15 11 16 10 17 9 18 8 19 7 20 6 21 5 22
REMARK SMILES IDX 4 23 3 24 2 25 1 26
REMARK H PARENT
REMARK Flexibility Score: inf
ROOT
ATOM      1  C   UNL     1      -3.074  -8.211 -48.613  1.00  0.00     0.000 C 
ENDROOT
BRANCH   1   2
ATOM      2  C   UNL     1      -3.521  -6.957 -47.837  1.00  0.00     0.000 C 
BRANCH   2   3
ATOM      3  C   UNL     1      -3.021  -6.880 -46.379  1.00  0.00     0.000 C 
BRANCH   3   4
ATOM      4  C   UNL     1      -4.105  -7.084 -45.305  1.00  0.00     0.000 C 
BRANCH   4   5
ATOM      5  C   UNL     1      -3.827  -8.292 -44.397  1.00  0.00     0.000 C 
BRANCH   5   6
ATOM      6  C   UNL     1      -3.981  -7.912 -42.916  1.00  0.00     0.000 C 
BRANCH   6   7
ATOM      7  C   UNL     1      -2.965  -8.636 -42.013  1.00  0.00     0.000 C 
BRANCH   7   8
ATOM      8  C   UNL     1      -1.788  -9.272 -42.774  1.00  0.00     0.000 C 
BRANCH   8   9
ATOM      9  C   UNL     1      -1.531 -10.729 -42.344  1.00  0.00     0.000 C 
BRANCH   9  10
ATOM     10  C   UNL     1      -0.179 -10.912 -41.637  1.00  0.00     0.006 C 
BRANCH  10  11
ATOM     11  C   UNL     1       0.911 -11.463 -42.566  1.00  0.00     0.053 C 
BRANCH  11  12
ATOM     12  C   UNL     1       1.596 -10.347 -43.289  1.00  0.00     0.041 C 
ATOM     13  O   UNL     1       2.236 -10.579 -44.349  1.00  0.00    -0.550 OA
ATOM     14  O   UNL     1       1.554  -9.056 -42.775  1.00  0.00    -0.550 OA
ENDBRANCH  11  12
ENDBRANCH  10  11
ENDBRANCH   9  10
ENDBRANCH   8   9
ENDBRANCH   7   8
ENDBRANCH   6   7
ENDBRANCH   5   6
ENDBRANCH   4   5
ENDBRANCH   3   4
ENDBRANCH   2   3
ENDBRANCH   1   2
BRANCH   1  15
ATOM     15  C   UNL     1      -4.126  -9.334 -48.688  1.00  0.00     0.000 C 
BRANCH  15  16
ATOM     16  C   UNL     1      -5.524  -8.908 -48.189  1.00  0.00     0.000 C 
BRANCH  16  17
ATOM     17  C   UNL     1      -6.130  -9.921 -47.203  1.00  0.00     0.000 C 
BRANCH  17  18
ATOM     18  C   UNL     1      -7.084  -9.277 -46.179  1.00  0.00    -0.000 C 
BRANCH  18  19
ATOM     19  C   UNL     1      -6.973  -9.816 -44.739  1.00  0.00    -0.000 C 
BRANCH  19  20
ATOM     20  C   UNL     1      -6.052 -11.042 -44.621  1.00  0.00    -0.000 C 
BRANCH  20  21
ATOM     21  C   UNL     1      -5.586 -11.306 -43.175  1.00  0.00    -0.000 C 
BRANCH  21  22
ATOM     22  C   UNL     1      -6.541 -12.194 -42.348  1.00  0.00    -0.000 C 
BRANCH  22  23
ATOM     23  C   UNL     1      -5.988 -12.552 -40.957  1.00  0.00    -0.000 C 
BRANCH  23  24
ATOM     24  C   UNL     1      -4.540 -12.072 -40.748  1.00  0.00    -0.000 C 
BRANCH  24  25
ATOM     25  C   UNL     1      -4.133 -11.945 -39.264  1.00  0.00    -0.003 C 
ATOM     26  C   UNL     1      -2.951 -10.999 -39.056  1.00  0.00     0.004 C 
ENDBRANCH  24  25
ENDBRANCH  23  24
ENDBRANCH  22  23
ENDBRANCH  21  22
ENDBRANCH  20  21
ENDBRANCH  19  20
ENDBRANCH  18  19
ENDBRANCH  17  18
ENDBRANCH  16  17
ENDBRANCH  15  16
ENDBRANCH   1  15
TORSDOF 22
ENDMDL
MODEL 4
REMARK VINA RESULT:    -3.697      3.119      7.248
REMARK INTER + INTRA:         -12.060
REMARK INTER:                  -8.640
REMARK INTRA:                  -3.419
REMARK UNBOUND:                -3.607
REMARK SMILES CCCCCCCCCCCCCCCCCCCCCCCC(=O)[O-]
REMARK SMILES IDX 13 1 14 2 15 3 16 4 17 5 18 6 19 7 20 8 21 9 22 10 23 11
REMARK SMILES IDX 24 12 25 13 26 14 12 15 11 16 10 17 9 18 8 19 7 20 6 21 5 22
REMARK SMILES IDX 4 23 3 24 2 25 1 26
REMARK H PARENT
REMARK Flexibility Score: inf
ROOT
ATOM      1  C   UNL     1      -3.784  -7.772 -45.419  1.00  0.00     0.000 C 
ENDROOT
BRANCH   1   2
ATOM      2  C   UNL     1      -3.031  -6.892 -46.435  1.00  0.00     0.000 C 
BRANCH   2   3
ATOM      3  C   UNL     1      -3.368  -7.170 -47.915  1.00  0.00     0.000 C 
BRANCH   3   4
ATOM      4  C   UNL     1      -3.103  -8.610 -48.387  1.00  0.00     0.000 C 
BRANCH   4   5
ATOM      5  C   UNL     1      -4.394  -9.403 -48.640  1.00  0.00     0.000 C 
BRANCH   5   6
ATOM      6  C   UNL     1      -5.606  -8.462 -48.736  1.00  0.00     0.000 C 
BRANCH   6   7
ATOM      7  C   UNL     1      -6.804  -8.957 -47.904  1.00  0.00     0.000 C 
BRANCH   7   8
ATOM      8  C   UNL     1      -6.484 -10.155 -46.991  1.00  0.00     0.000 C 
BRANCH   8   9
ATOM      9  C   UNL     1      -6.781  -9.857 -45.509  1.00  0.00     0.000 C 
BRANCH   9  10
ATOM     10  C   UNL     1      -6.096 -10.845 -44.553  1.00  0.00     0.006 C 
BRANCH  10  11
ATOM     11  C   UNL     1      -6.734 -10.867 -43.158  1.00  0.00     0.053 C 
BRANCH  11  12
ATOM     12  C   UNL     1      -7.570 -12.095 -42.984  1.00  0.00     0.041 C 
ATOM     13  O   UNL     1      -8.582 -12.279 -43.711  1.00  0.00    -0.550 OA
ATOM     14  O   UNL     1      -7.250 -13.020 -41.997  1.00  0.00    -0.550 OA
ENDBRANCH  11  12
ENDBRANCH  10  11
ENDBRANCH   9  10
ENDBRANCH   8   9
ENDBRANCH   7   8
ENDBRANCH   6   7
ENDBRANCH   5   6
ENDBRANCH   4   5
ENDBRANCH   3   4
ENDBRANCH   2   3
ENDBRANCH   1   2
BRANCH   1  15
ATOM     15  C   UNL     1      -4.685  -6.999 -44.437  1.00  0.00     0.000 C 
BRANCH  15  16
ATOM     16  C   UNL     1      -4.701  -7.593 -43.011  1.00  0.00     0.000 C 
BRANCH  16  17
ATOM     17  C   UNL     1      -3.683  -8.733 -42.838  1.00  0.00     0.000 C 
BRANCH  17  18
ATOM     18  C   UNL     1      -2.501  -8.357 -41.925  1.00  0.00    -0.000 C 
BRANCH  18  19
ATOM     19  C   UNL     1      -1.186  -9.117 -42.197  1.00  0.00    -0.000 C 
BRANCH  19  20
ATOM     20  C   UNL     1      -0.432  -9.498 -40.912  1.00  0.00    -0.000 C 
BRANCH  20  21
ATOM     21  C   UNL     1       0.729 -10.480 -41.168  1.00  0.00    -0.000 C 
BRANCH  21  22
ATOM     22  C   UNL     1       0.383 -11.961 -40.906  1.00  0.00    -0.000 C 
BRANCH  22  23
ATOM     23  C   UNL     1      -0.662 -12.155 -39.793  1.00  0.00    -0.000 C 
BRANCH  23  24
ATOM     24  C   UNL     1      -1.842 -13.043 -40.228  1.00  0.00    -0.000 C 
BRANCH  24  25
ATOM     25  C   UNL     1      -2.472 -12.629 -41.576  1.00  0.00    -0.003 C 
ATOM     26  C   UNL     1      -3.870 -12.034 -41.415  1.00  0.00     0.004 C 
ENDBRANCH  24  25
ENDBRANCH  23  24
ENDBRANCH  22  23
ENDBRANCH  21  22
ENDBRANCH  20  21
ENDBRANCH  19  20
ENDBRANCH  18  19
ENDBRANCH  17  18
ENDBRANCH  16  17
ENDBRANCH  15  16
ENDBRANCH   1  15
TORSDOF 22
ENDMDL
MODEL 5
REMARK VINA RESULT:    -3.685      1.466      3.965
REMARK INTER + INTRA:         -12.031
REMARK INTER:                  -7.704
REMARK INTRA:                  -4.326
REMARK UNBOUND:                -3.607
REMARK SMILES CCCCCCCCCCCCCCCCCCCCCCCC(=O)[O-]
REMARK SMILES IDX 13 1 14 2 15 3 16 4 17 5 18 6 19 7 20 8 21 9 22 10 23 11
REMARK SMILES IDX 24 12 25 13 26 14 12 15 11 16 10 17 9 18 8 19 7 20 6 21 5 22
REMARK SMILES IDX 4 23 3 24 2 25 1 26
REMARK H PARENT
REMARK Flexibility Score: inf
ROOT
ATOM      1  C   UNL     1      -5.603  -9.315 -46.565  1.00  0.00     0.000 C 
ENDROOT
BRANCH   1   2
ATOM      2  C   UNL     1      -5.751  -7.780 -46.558  1.00  0.00     0.000 C 
BRANCH   2   3
ATOM      3  C   UNL     1      -5.149  -7.072 -45.326  1.00  0.00     0.000 C 
BRANCH   3   4
ATOM      4  C   UNL     1      -6.089  -6.961 -44.112  1.00  0.00     0.000 C 
BRANCH   4   5
ATOM      5  C   UNL     1      -5.480  -7.548 -42.829  1.00  0.00     0.000 C 
BRANCH   5   6
ATOM      6  C   UNL     1      -3.979  -7.828 -43.012  1.00  0.00     0.000 C 
BRANCH   6   7
ATOM      7  C   UNL     1      -3.320  -8.367 -41.729  1.00  0.00     0.000 C 
BRANCH   7   8
ATOM      8  C   UNL     1      -1.842  -8.763 -41.900  1.00  0.00     0.000 C 
BRANCH   8   9
ATOM      9  C   UNL     1      -1.679 -10.160 -42.529  1.00  0.00     0.000 C 
BRANCH   9  10
ATOM     10  C   UNL     1      -0.398 -10.875 -42.070  1.00  0.00     0.006 C 
BRANCH  10  11
ATOM     11  C   UNL     1       0.796  -9.924 -41.921  1.00  0.00     0.053 C 
BRANCH  11  12
ATOM     12  C   UNL     1       1.440  -9.680 -43.248  1.00  0.00     0.041 C 
ATOM     13  O   UNL     1       2.122 -10.587 -43.797  1.00  0.00    -0.550 OA
ATOM     14  O   UNL     1       1.315  -8.441 -43.865  1.00  0.00    -0.550 OA
ENDBRANCH  11  12
ENDBRANCH  10  11
ENDBRANCH   9  10
ENDBRANCH   8   9
ENDBRANCH   7   8
ENDBRANCH   6   7
ENDBRANCH   5   6
ENDBRANCH   4   5
ENDBRANCH   3   4
ENDBRANCH   2   3
ENDBRANCH   1   2
BRANCH   1  15
ATOM     15  C   UNL     1      -6.891 -10.090 -46.227  1.00  0.00     0.000 C 
BRANCH  15  16
ATOM     16  C   UNL     1      -6.900 -10.686 -44.802  1.00  0.00     0.000 C 
BRANCH  16  17
ATOM     17  C   UNL     1      -5.482 -10.925 -44.256  1.00  0.00     0.000 C 
BRANCH  17  18
ATOM     18  C   UNL     1      -5.461 -11.770 -42.969  1.00  0.00    -0.000 C 
BRANCH  18  19
ATOM     19  C   UNL     1      -6.020 -11.077 -41.711  1.00  0.00    -0.000 C 
BRANCH  19  20
ATOM     20  C   UNL     1      -5.105 -11.219 -40.484  1.00  0.00    -0.000 C 
BRANCH  20  21
ATOM     21  C   UNL     1      -4.029 -12.308 -40.660  1.00  0.00    -0.000 C 
BRANCH  21  22
ATOM     22  C   UNL     1      -2.858 -12.219 -39.658  1.00  0.00    -0.000 C 
BRANCH  22  23
ATOM     23  C   UNL     1      -2.894 -10.947 -38.792  1.00  0.00    -0.000 C 
BRANCH  23  24
ATOM     24  C   UNL     1      -1.594 -10.728 -37.996  1.00  0.00    -0.000 C 
BRANCH  24  25
ATOM     25  C   UNL     1      -0.668  -9.649 -38.598  1.00  0.00    -0.003 C 
ATOM     26  C   UNL     1      -1.152  -8.229 -38.307  1.00  0.00     0.004 C 
ENDBRANCH  24  25
ENDBRANCH  23  24
ENDBRANCH  22  23
ENDBRANCH  21  22
ENDBRANCH  20  21
ENDBRANCH  19  20
ENDBRANCH  18  19
ENDBRANCH  17  18
ENDBRANCH  16  17
ENDBRANCH  15  16
ENDBRANCH   1  15
TORSDOF 22
ENDMDL
MODEL 6
REMARK VINA RESULT:    -3.671      4.287      6.820
REMARK INTER + INTRA:         -12.001
REMARK INTER:                  -8.973
REMARK INTRA:                  -3.028
REMARK UNBOUND:                -3.607
REMARK SMILES CCCCCCCCCCCCCCCCCCCCCCCC(=O)[O-]
REMARK SMILES IDX 13 1 14 2 15 3 16 4 17 5 18 6 19 7 20 8 21 9 22 10 23 11
REMARK SMILES IDX 24 12 25 13 26 14 12 15 11 16 10 17 9 18 8 19 7 20 6 21 5 22
REMARK SMILES IDX 4 23 3 24 2 25 1 26
REMARK H PARENT
REMARK Flexibility Score: inf
ROOT
ATOM      1  C   UNL     1      -2.588  -8.345 -42.133  1.00  0.00     0.000 C 
ENDROOT
BRANCH   1   2
ATOM      2  C   UNL     1      -2.879  -8.691 -40.660  1.00  0.00     0.000 C 
BRANCH   2   3
ATOM      3  C   UNL     1      -2.242  -7.738 -39.627  1.00  0.00     0.000 C 
BRANCH   3   4
ATOM      4  C   UNL     1      -1.059  -8.325 -38.838  1.00  0.00     0.000 C 
BRANCH   4   5
ATOM      5  C   UNL     1      -0.838  -7.629 -37.486  1.00  0.00     0.000 C 
BRANCH   5   6
ATOM      6  C   UNL     1      -0.161  -8.578 -36.484  1.00  0.00     0.000 C 
BRANCH   6   7
ATOM      7  C   UNL     1      -1.176  -9.313 -35.590  1.00  0.00     0.000 C 
BRANCH   7   8
ATOM      8  C   UNL     1      -1.301 -10.819 -35.886  1.00  0.00     0.000 C 
BRANCH   8   9
ATOM      9  C   UNL     1      -1.442 -11.658 -34.602  1.00  0.00     0.000 C 
BRANCH   9  10
ATOM     10  C   UNL     1      -1.039 -10.884 -33.337  1.00  0.00     0.006 C 
BRANCH  10  11
ATOM     11  C   UNL     1      -0.998 -11.768 -32.084  1.00  0.00     0.053 C 
BRANCH  11  12
ATOM     12  C   UNL     1      -0.259 -13.037 -32.362  1.00  0.00     0.041 C 
ATOM     13  O   UNL     1      -0.845 -14.148 -32.258  1.00  0.00    -0.550 OA
ATOM     14  O   UNL     1       1.088 -12.996 -32.705  1.00  0.00    -0.550 OA
ENDBRANCH  11  12
ENDBRANCH  10  11
ENDBRANCH   9  10
ENDBRANCH   8   9
ENDBRANCH   7   8
ENDBRANCH   6   7
ENDBRANCH   5   6
ENDBRANCH   4   5
ENDBRANCH   3   4
ENDBRANCH   2   3
ENDBRANCH   1   2
BRANCH   1  15
ATOM     15  C   UNL     1      -3.246  -9.287 -43.160  1.00  0.00     0.000 C 
BRANCH  15  16
ATOM     16  C   UNL     1      -4.689  -9.696 -42.790  1.00  0.00     0.000 C 
BRANCH  16  17
ATOM     17  C   UNL     1      -4.998 -11.157 -43.159  1.00  0.00     0.000 C 
BRANCH  17  18
ATOM     18  C   UNL     1      -3.925 -12.147 -42.667  1.00  0.00    -0.000 C 
BRANCH  18  19
ATOM     19  C   UNL     1      -3.870 -12.360 -41.141  1.00  0.00    -0.000 C 
BRANCH  19  20
ATOM     20  C   UNL     1      -2.536 -12.956 -40.661  1.00  0.00    -0.000 C 
BRANCH  20  21
ATOM     21  C   UNL     1      -1.703 -11.966 -39.823  1.00  0.00    -0.000 C 
BRANCH  21  22
ATOM     22  C   UNL     1      -0.334 -11.602 -40.437  1.00  0.00    -0.000 C 
BRANCH  22  23
ATOM     23  C   UNL     1      -0.373 -11.458 -41.969  1.00  0.00    -0.000 C 
BRANCH  23  24
ATOM     24  C   UNL     1       0.487 -10.288 -42.481  1.00  0.00    -0.000 C 
BRANCH  24  25
ATOM     25  C   UNL     1       1.700  -9.964 -41.582  1.00  0.00    -0.003 C 
ATOM     26  C   UNL     1       2.969 -10.695 -42.020  1.00  0.00     0.004 C 
ENDBRANCH  24  25
ENDBRANCH  23  24
ENDBRANCH  22  23
ENDBRANCH  21  22
ENDBRANCH  20  21
ENDBRANCH  19  20
ENDBRANCH  18  19
ENDBRANCH  17  18
ENDBRANCH  16  17
ENDBRANCH  15  16
ENDBRANCH   1  15
TORSDOF 22
ENDMDL
MODEL 7
REMARK VINA RESULT:    -3.669      1.480      4.139
REMARK INTER + INTRA:         -11.996
REMARK INTER:                  -8.015
REMARK INTRA:                  -3.980
REMARK UNBOUND:                -3.607
REMARK SMILES CCCCCCCCCCCCCCCCCCCCCCCC(=O)[O-]
REMARK SMILES IDX 13 1 14 2 15 3 16 4 17 5 18 6 19 7 20 8 21 9 22 10 23 11
REMARK SMILES IDX 24 12 25 13 26 14 12 15 11 16 10 17 9 18 8 19 7 20 6 21 5 22
REMARK SMILES IDX 4 23 3 24 2 25 1 26
REMARK H PARENT
REMARK Flexibility Score: inf
ROOT
ATOM      1  C   UNL     1      -5.721 -11.242 -44.116  1.00  0.00     0.000 C 
ENDROOT
BRANCH   1   2
ATOM      2  C   UNL     1      -5.188 -11.724 -42.752  1.00  0.00     0.000 C 
BRANCH   2   3
ATOM      3  C   UNL     1      -6.050 -11.322 -41.536  1.00  0.00     0.000 C 
BRANCH   3   4
ATOM      4  C   UNL     1      -5.261 -10.841 -40.306  1.00  0.00     0.000 C 
BRANCH   4   5
ATOM      5  C   UNL     1      -4.465 -11.967 -39.628  1.00  0.00     0.000 C 
BRANCH   5   6
ATOM      6  C   UNL     1      -3.021 -11.525 -39.346  1.00  0.00     0.000 C 
BRANCH   6   7
ATOM      7  C   UNL     1      -2.030 -12.035 -40.409  1.00  0.00     0.000 C 
BRANCH   7   8
ATOM      8  C   UNL     1      -0.878 -12.885 -39.841  1.00  0.00     0.000 C 
BRANCH   8   9
ATOM      9  C   UNL     1       0.449 -12.643 -40.585  1.00  0.00     0.000 C 
BRANCH   9  10
ATOM     10  C   UNL     1       0.477 -11.301 -41.333  1.00  0.00     0.006 C 
BRANCH  10  11
ATOM     11  C   UNL     1       0.679 -11.465 -42.845  1.00  0.00     0.053 C 
BRANCH  11  12
ATOM     12  C   UNL     1       1.498 -10.338 -43.389  1.00  0.00     0.041 C 
ATOM     13  O   UNL     1       2.201 -10.507 -44.421  1.00  0.00    -0.550 OA
ATOM     14  O   UNL     1       1.510  -9.110 -42.738  1.00  0.00    -0.550 OA
ENDBRANCH  11  12
ENDBRANCH  10  11
ENDBRANCH   9  10
ENDBRANCH   8   9
ENDBRANCH   7   8
ENDBRANCH   6   7
ENDBRANCH   5   6
ENDBRANCH   4   5
ENDBRANCH   3   4
ENDBRANCH   2   3
ENDBRANCH   1   2
BRANCH   1  15
ATOM     15  C   UNL     1      -6.884 -10.235 -44.036  1.00  0.00     0.000 C 
BRANCH  15  16
ATOM     16  C   UNL     1      -7.043  -9.370 -45.306  1.00  0.00     0.000 C 
BRANCH  16  17
ATOM     17  C   UNL     1      -5.814  -9.449 -46.228  1.00  0.00     0.000 C 
BRANCH  17  18
ATOM     18  C   UNL     1      -4.981  -8.153 -46.242  1.00  0.00    -0.000 C 
BRANCH  18  19
ATOM     19  C   UNL     1      -3.943  -8.020 -45.109  1.00  0.00    -0.000 C 
BRANCH  19  20
ATOM     20  C   UNL     1      -4.515  -7.377 -43.835  1.00  0.00    -0.000 C 
BRANCH  20  21
ATOM     21  C   UNL     1      -4.071  -8.097 -42.547  1.00  0.00    -0.000 C 
BRANCH  21  22
ATOM     22  C   UNL     1      -2.731  -8.856 -42.669  1.00  0.00    -0.000 C 
BRANCH  22  23
ATOM     23  C   UNL     1      -1.830  -8.703 -41.431  1.00  0.00    -0.000 C 
BRANCH  23  24
ATOM     24  C   UNL     1      -2.537  -7.995 -40.260  1.00  0.00    -0.000 C 
BRANCH  24  25
ATOM     25  C   UNL     1      -1.630  -7.760 -39.033  1.00  0.00    -0.003 C 
ATOM     26  C   UNL     1      -0.562  -8.842 -38.875  1.00  0.00     0.004 C 
ENDBRANCH  24  25
ENDBRANCH  23  24
ENDBRANCH  22  23
ENDBRANCH  21  22
ENDBRANCH  20  21
ENDBRANCH  19  20
ENDBRANCH  18  19
ENDBRANCH  17  18
ENDBRANCH  16  17
ENDBRANCH  15  16
ENDBRANCH   1  15
TORSDOF 22
ENDMDL
MODEL 8
REMARK VINA RESULT:    -3.651      1.449      3.789
REMARK INTER + INTRA:         -11.955
REMARK INTER:                  -8.225
REMARK INTRA:                  -3.730
REMARK UNBOUND:                -3.607
REMARK SMILES CCCCCCCCCCCCCCCCCCCCCCCC(=O)[O-]
REMARK SMILES IDX 13 1 14 2 15 3 16 4 17 5 18 6 19 7 20 8 21 9 22 10 23 11
REMARK SMILES IDX 24 12 25 13 26 14 12 15 11 16 10 17 9 18 8 19 7 20 6 21 5 22
REMARK SMILES IDX 4 23 3 24 2 25 1 26
REMARK H PARENT
REMARK Flexibility Score: inf
ROOT
ATOM      1  C   UNL     1      -2.709  -8.543 -43.133  1.00  0.00     0.000 C 
ENDROOT
BRANCH   1   2
ATOM      2  C   UNL     1      -3.164  -8.732 -41.673  1.00  0.00     0.000 C 
BRANCH   2   3
ATOM      3  C   UNL     1      -4.692  -8.704 -41.457  1.00  0.00     0.000 C 
BRANCH   3   4
ATOM      4  C   UNL     1      -5.318 -10.045 -41.035  1.00  0.00     0.000 C 
BRANCH   4   5
ATOM      5  C   UNL     1      -4.729 -11.244 -41.794  1.00  0.00     0.000 C 
BRANCH   5   6
ATOM      6  C   UNL     1      -4.745 -12.508 -40.920  1.00  0.00     0.000 C 
BRANCH   6   7
ATOM      7  C   UNL     1      -3.328 -13.016 -40.592  1.00  0.00     0.000 C 
BRANCH   7   8
ATOM      8  C   UNL     1      -2.209 -12.306 -41.376  1.00  0.00     0.000 C 
BRANCH   8   9
ATOM      9  C   UNL     1      -1.150 -11.681 -40.448  1.00  0.00     0.000 C 
BRANCH   9  10
ATOM     10  C   UNL     1      -0.085 -10.879 -41.212  1.00  0.00     0.006 C 
BRANCH  10  11
ATOM     11  C   UNL     1       0.010 -11.272 -42.692  1.00  0.00     0.053 C 
BRANCH  11  12
ATOM     12  C   UNL     1       1.431 -11.230 -43.155  1.00  0.00     0.041 C 
ATOM     13  O   UNL     1       1.860 -12.100 -43.959  1.00  0.00    -0.550 OA
ATOM     14  O   UNL     1       2.290 -10.249 -42.674  1.00  0.00    -0.550 OA
ENDBRANCH  11  12
ENDBRANCH  10  11
ENDBRANCH   9  10
ENDBRANCH   8   9
ENDBRANCH   7   8
ENDBRANCH   6   7
ENDBRANCH   5   6
ENDBRANCH   4   5
ENDBRANCH   3   4
ENDBRANCH   2   3
ENDBRANCH   1   2
BRANCH   1  15
ATOM     15  C   UNL     1      -3.836  -8.643 -44.180  1.00  0.00     0.000 C 
BRANCH  15  16
ATOM     16  C   UNL     1      -4.027  -7.355 -45.010  1.00  0.00     0.000 C 
BRANCH  16  17
ATOM     17  C   UNL     1      -3.002  -7.234 -46.150  1.00  0.00     0.000 C 
BRANCH  17  18
ATOM     18  C   UNL     1      -3.646  -7.233 -47.549  1.00  0.00    -0.000 C 
BRANCH  18  19
ATOM     19  C   UNL     1      -3.575  -8.570 -48.313  1.00  0.00    -0.000 C 
BRANCH  19  20
ATOM     20  C   UNL     1      -4.928  -9.295 -48.393  1.00  0.00    -0.000 C 
BRANCH  20  21
ATOM     21  C   UNL     1      -6.112  -8.406 -47.964  1.00  0.00    -0.000 C 
BRANCH  21  22
ATOM     22  C   UNL     1      -6.993  -9.009 -46.848  1.00  0.00    -0.000 C 
BRANCH  22  23
ATOM     23  C   UNL     1      -6.652 -10.476 -46.530  1.00  0.00    -0.000 C 
BRANCH  23  24
ATOM     24  C   UNL     1      -6.576 -10.757 -45.017  1.00  0.00    -0.000 C 
BRANCH  24  25
ATOM     25  C   UNL     1      -7.357  -9.743 -44.154  1.00  0.00    -0.003 C 
ATOM     26  C   UNL     1      -8.507 -10.389 -43.381  1.00  0.00     0.004 C 
ENDBRANCH  24  25
ENDBRANCH  23  24
ENDBRANCH  22  23
ENDBRANCH  21  22
ENDBRANCH  20  21
ENDBRANCH  19  20
ENDBRANCH  18  19
ENDBRANCH  17  18
ENDBRANCH  16  17
ENDBRANCH  15  16
ENDBRANCH   1  15
TORSDOF 22
ENDMDL
MODEL 9
REMARK VINA RESULT:    -3.651      2.682      7.150
REMARK INTER + INTRA:         -11.955
REMARK INTER:                  -8.730
REMARK INTRA:                  -3.225
REMARK UNBOUND:                -3.607
REMARK SMILES CCCCCCCCCCCCCCCCCCCCCCCC(=O)[O-]
REMARK SMILES IDX 13 1 14 2 15 3 16 4 17 5 18 6 19 7 20 8 21 9 22 10 23 11
REMARK SMILES IDX 24 12 25 13 26 14 12 15 11 16 10 17 9 18 8 19 7 20 6 21 5 22
REMARK SMILES IDX 4 23 3 24 2 25 1 26
REMARK H PARENT
REMARK Flexibility Score: inf
ROOT
ATOM      1  C   UNL     1      -3.735  -8.001 -45.289  1.00  0.00     0.000 C 
ENDROOT
BRANCH   1   2
ATOM      2  C   UNL     1      -3.431  -7.237 -46.593  1.00  0.00     0.000 C 
BRANCH   2   3
ATOM      3  C   UNL     1      -3.149  -8.128 -47.821  1.00  0.00     0.000 C 
BRANCH   3   4
ATOM      4  C   UNL     1      -4.398  -8.658 -48.546  1.00  0.00     0.000 C 
BRANCH   4   5
ATOM      5  C   UNL     1      -5.619  -7.740 -48.383  1.00  0.00     0.000 C 
BRANCH   5   6
ATOM      6  C   UNL     1      -6.730  -8.440 -47.585  1.00  0.00     0.000 C 
BRANCH   6   7
ATOM      7  C   UNL     1      -6.555  -9.969 -47.549  1.00  0.00     0.000 C 
BRANCH   7   8
ATOM      8  C   UNL     1      -6.754 -10.593 -46.155  1.00  0.00     0.000 C 
BRANCH   8   9
ATOM      9  C   UNL     1      -7.124  -9.543 -45.091  1.00  0.00     0.000 C 
BRANCH   9  10
ATOM     10  C   UNL     1      -6.770  -9.990 -43.664  1.00  0.00     0.006 C 
BRANCH  10  11
ATOM     11  C   UNL     1      -5.780 -11.161 -43.633  1.00  0.00     0.053 C 
BRANCH  11  12
ATOM     12  C   UNL     1      -6.171 -12.150 -42.583  1.00  0.00     0.041 C 
ATOM     13  O   UNL     1      -7.202 -12.859 -42.733  1.00  0.00    -0.550 OA
ATOM     14  O   UNL     1      -5.415 -12.268 -41.422  1.00  0.00    -0.550 OA
ENDBRANCH  11  12
ENDBRANCH  10  11
ENDBRANCH   9  10
ENDBRANCH   8   9
ENDBRANCH   7   8
ENDBRANCH   6   7
ENDBRANCH   5   6
ENDBRANCH   4   5
ENDBRANCH   3   4
ENDBRANCH   2   3
ENDBRANCH   1   2
BRANCH   1  15
ATOM     15  C   UNL     1      -4.407  -7.158 -44.189  1.00  0.00     0.000 C 
BRANCH  15  16
ATOM     16  C   UNL     1      -4.111  -7.658 -42.758  1.00  0.00     0.000 C 
BRANCH  16  17
ATOM     17  C   UNL     1      -2.942  -8.656 -42.714  1.00  0.00     0.000 C 
BRANCH  17  18
ATOM     18  C   UNL     1      -3.064  -9.686 -41.576  1.00  0.00    -0.000 C 
BRANCH  18  19
ATOM     19  C   UNL     1      -2.921  -9.119 -40.150  1.00  0.00    -0.000 C 
BRANCH  19  20
ATOM     20  C   UNL     1      -1.596  -8.370 -39.927  1.00  0.00    -0.000 C 
BRANCH  20  21
ATOM     21  C   UNL     1      -0.410  -9.315 -39.652  1.00  0.00    -0.000 C 
BRANCH  21  22
ATOM     22  C   UNL     1       0.464  -9.618 -40.888  1.00  0.00    -0.000 C 
BRANCH  22  23
ATOM     23  C   UNL     1       0.464 -11.106 -41.284  1.00  0.00    -0.000 C 
BRANCH  23  24
ATOM     24  C   UNL     1       0.566 -11.320 -42.805  1.00  0.00    -0.000 C 
BRANCH  24  25
ATOM     25  C   UNL     1       1.928 -11.880 -43.268  1.00  0.00    -0.003 C 
ATOM     26  C   UNL     1       2.577 -11.026 -44.357  1.00  0.00     0.004 C 
ENDBRANCH  24  25
ENDBRANCH  23  24
ENDBRANCH  22  23
ENDBRANCH  21  22
ENDBRANCH  20  21
ENDBRANCH  19  20
ENDBRANCH  18  19
ENDBRANCH  17  18
ENDBRANCH  16  17
ENDBRANCH  15  16
ENDBRANCH   1  15
TORSDOF 22
ENDMDL
