MODEL 1
REMARK VINA RESULT:    -4.681      0.000      0.000
REMARK INTER + INTRA:          -6.381
REMARK INTER:                  -6.049
REMARK INTRA:                  -0.332
REMARK UNBOUND:                -0.332
REMARK SMILES CCCCCCC(=O)[O-]
REMARK SMILES IDX 5 1 6 2 7 3 8 4 9 5 4 6 3 7 2 8 1 9
REMARK H PARENT
REMARK Flexibility Score: inf
ROOT
ATOM      1  C   UNL     1      21.222  58.602  34.654  1.00  0.00     0.006 C 
ENDROOT
BRANCH   1   2
ATOM      2  C   UNL     1      22.458  58.231  35.485  1.00  0.00     0.053 C 
BRANCH   2   3
ATOM      3  C   UNL     1      23.330  59.422  35.744  1.00  0.00     0.041 C 
ATOM      4  O   UNL     1      24.335  59.639  35.017  1.00  0.00    -0.550 OA
ATOM      5  O   UNL     1      23.053  60.269  36.808  1.00  0.00    -0.550 OA
ENDBRANCH   2   3
ENDBRANCH   1   2
BRANCH   1   6
ATOM      6  C   UNL     1      21.149  57.810  33.337  1.00  0.00     0.000 C 
BRANCH   6   7
ATOM      7  C   UNL     1      22.291  56.788  33.191  1.00  0.00    -0.000 C 
BRANCH   7   8
ATOM      8  C   UNL     1      23.159  56.966  31.932  1.00  0.00    -0.003 C 
ATOM      9  C   UNL     1      24.483  57.673  32.213  1.00  0.00     0.004 C 
ENDBRANCH   7   8
ENDBRANCH   6   7
ENDBRANCH   1   6
TORSDOF 5
ENDMDL
MODEL 2
REMARK VINA RESULT:    -4.666      1.356      2.335
REMARK INTER + INTRA:          -6.362
REMARK INTER:                  -6.010
REMARK INTRA:                  -0.352
REMARK UNBOUND:                -0.332
REMARK SMILES CCCCCCC(=O)[O-]
REMARK SMILES IDX 5 1 6 2 7 3 8 4 9 5 4 6 3 7 2 8 1 9
REMARK H PARENT
REMARK Flexibility Score: inf
ROOT
ATOM      1  C   UNL     1      24.089  58.896  33.524  1.00  0.00     0.006 C 
ENDROOT
BRANCH   1   2
ATOM      2  C   UNL     1      23.865  58.105  34.820  1.00  0.00     0.053 C 
BRANCH   2   3
ATOM      3  C   UNL     1      22.858  58.769  35.708  1.00  0.00     0.041 C 
ATOM      4  O   UNL     1      21.732  58.238  35.896  1.00  0.00    -0.550 OA
ATOM      5  O   UNL     1      23.149  59.992  36.299  1.00  0.00    -0.550 OA
ENDBRANCH   2   3
ENDBRANCH   1   2
BRANCH   1   6
ATOM      6  C   UNL     1      24.120  57.983  32.286  1.00  0.00     0.000 C 
BRANCH   6   7
ATOM      7  C   UNL     1      23.378  56.652  32.505  1.00  0.00    -0.000 C 
BRANCH   7   8
ATOM      8  C   UNL     1      22.009  56.554  31.809  1.00  0.00    -0.003 C 
ATOM      9  C   UNL     1      20.879  57.190  32.616  1.00  0.00     0.004 C 
ENDBRANCH   7   8
ENDBRANCH   6   7
ENDBRANCH   1   6
TORSDOF 5
ENDMDL
MODEL 3
REMARK VINA RESULT:    -4.620      1.693      2.820
REMARK INTER + INTRA:          -6.303
REMARK INTER:                  -6.051
REMARK INTRA:                  -0.251
REMARK UNBOUND:                -0.332
REMARK SMILES CCCCCCC(=O)[O-]
REMARK SMILES IDX 5 1 6 2 7 3 8 4 9 5 4 6 3 7 2 8 1 9
REMARK H PARENT
REMARK Flexibility Score: inf
ROOT
ATOM      1  C   UNL     1      23.115  58.743  35.113  1.00  0.00     0.006 C 
ENDROOT
BRANCH   1   2
ATOM      2  C   UNL     1      24.124  58.199  34.093  1.00  0.00     0.053 C 
BRANCH   2   3
ATOM      3  C   UNL     1      24.744  59.298  33.286  1.00  0.00     0.041 C 
ATOM      4  O   UNL     1      24.955  60.425  33.807  1.00  0.00    -0.550 OA
ATOM      5  O   UNL     1      25.054  59.089  31.948  1.00  0.00    -0.550 OA
ENDBRANCH   2   3
ENDBRANCH   1   2
BRANCH   1   6
ATOM      6  C   UNL     1      21.719  58.118  34.938  1.00  0.00     0.000 C 
BRANCH   6   7
ATOM      7  C   UNL     1      21.048  58.516  33.612  1.00  0.00    -0.000 C 
BRANCH   7   8
ATOM      8  C   UNL     1      20.600  57.333  32.735  1.00  0.00    -0.003 C 
ATOM      9  C   UNL     1      21.745  56.713  31.936  1.00  0.00     0.004 C 
ENDBRANCH   7   8
ENDBRANCH   6   7
ENDBRANCH   1   6
TORSDOF 5
ENDMDL
MODEL 4
REMARK VINA RESULT:    -4.574      1.712      3.320
REMARK INTER + INTRA:          -6.242
REMARK INTER:                  -5.937
REMARK INTRA:                  -0.306
REMARK UNBOUND:                -0.332
REMARK SMILES CCCCCCC(=O)[O-]
REMARK SMILES IDX 5 1 6 2 7 3 8 4 9 5 4 6 3 7 2 8 1 9
REMARK H PARENT
REMARK Flexibility Score: inf
ROOT
ATOM      1  C   UNL     1      23.314  56.447  32.331  1.00  0.00     0.006 C 
ENDROOT
BRANCH   1   2
ATOM      2  C   UNL     1      24.333  57.501  31.878  1.00  0.00     0.053 C 
BRANCH   2   3
ATOM      3  C   UNL     1      24.578  58.528  32.941  1.00  0.00     0.041 C 
ATOM      4  O   UNL     1      24.522  58.206  34.157  1.00  0.00    -0.550 OA
ATOM      5  O   UNL     1      24.833  59.847  32.589  1.00  0.00    -0.550 OA
ENDBRANCH   2   3
ENDBRANCH   1   2
BRANCH   1   6
ATOM      6  C   UNL     1      21.905  56.726  31.780  1.00  0.00     0.000 C 
BRANCH   6   7
ATOM      7  C   UNL     1      20.879  57.029  32.887  1.00  0.00    -0.000 C 
BRANCH   7   8
ATOM      8  C   UNL     1      20.929  58.466  33.437  1.00  0.00    -0.003 C 
ATOM      9  C   UNL     1      21.362  58.532  34.901  1.00  0.00     0.004 C 
ENDBRANCH   7   8
ENDBRANCH   6   7
ENDBRANCH   1   6
TORSDOF 5
ENDMDL
MODEL 5
REMARK VINA RESULT:    -4.535      2.922      3.688
REMARK INTER + INTRA:          -6.193
REMARK INTER:                  -5.932
REMARK INTRA:                  -0.261
REMARK UNBOUND:                -0.332
REMARK SMILES CCCCCCC(=O)[O-]
REMARK SMILES IDX 5 1 6 2 7 3 8 4 9 5 4 6 3 7 2 8 1 9
REMARK H PARENT
REMARK Flexibility Score: inf
ROOT
ATOM      1  C   UNL     1      21.657  58.243  34.433  1.00  0.00     0.006 C 
ENDROOT
BRANCH   1   2
ATOM      2  C   UNL     1      20.932  57.862  33.135  1.00  0.00     0.053 C 
BRANCH   2   3
ATOM      3  C   UNL     1      21.466  56.588  32.555  1.00  0.00     0.041 C 
ATOM      4  O   UNL     1      21.970  56.580  31.402  1.00  0.00    -0.550 OA
ATOM      5  O   UNL     1      21.373  55.403  33.274  1.00  0.00    -0.550 OA
ENDBRANCH   2   3
ENDBRANCH   1   2
BRANCH   1   6
ATOM      6  C   UNL     1      23.165  57.940  34.365  1.00  0.00     0.000 C 
BRANCH   6   7
ATOM      7  C   UNL     1      24.028  59.213  34.296  1.00  0.00    -0.000 C 
BRANCH   7   8
ATOM      8  C   UNL     1      24.726  59.447  32.945  1.00  0.00    -0.003 C 
ATOM      9  C   UNL     1      24.967  58.156  32.164  1.00  0.00     0.004 C 
ENDBRANCH   7   8
ENDBRANCH   6   7
ENDBRANCH   1   6
TORSDOF 5
ENDMDL
MODEL 6
REMARK VINA RESULT:    -4.485      1.203      1.558
REMARK INTER + INTRA:          -6.128
REMARK INTER:                  -5.874
REMARK INTRA:                  -0.255
REMARK UNBOUND:                -0.332
REMARK SMILES CCCCCCC(=O)[O-]
REMARK SMILES IDX 5 1 6 2 7 3 8 4 9 5 4 6 3 7 2 8 1 9
REMARK H PARENT
REMARK Flexibility Score: inf
ROOT
ATOM      1  C   UNL     1      21.641  58.476  34.827  1.00  0.00     0.006 C 
ENDROOT
BRANCH   1   2
ATOM      2  C   UNL     1      22.781  58.626  35.843  1.00  0.00     0.053 C 
BRANCH   2   3
ATOM      3  C   UNL     1      22.479  59.677  36.866  1.00  0.00     0.041 C 
ATOM      4  O   UNL     1      23.232  60.679  36.986  1.00  0.00    -0.550 OA
ATOM      5  O   UNL     1      21.386  59.532  37.711  1.00  0.00    -0.550 OA
ENDBRANCH   2   3
ENDBRANCH   1   2
BRANCH   1   6
ATOM      6  C   UNL     1      22.160  58.366  33.383  1.00  0.00     0.000 C 
BRANCH   6   7
ATOM      7  C   UNL     1      23.316  57.360  33.239  1.00  0.00    -0.000 C 
BRANCH   7   8
ATOM      8  C   UNL     1      24.527  57.877  32.443  1.00  0.00    -0.003 C 
ATOM      9  C   UNL     1      24.856  59.340  32.737  1.00  0.00     0.004 C 
ENDBRANCH   7   8
ENDBRANCH   6   7
ENDBRANCH   1   6
TORSDOF 5
ENDMDL
MODEL 7
REMARK VINA RESULT:    -4.439      2.643      4.313
REMARK INTER + INTRA:          -6.068
REMARK INTER:                  -5.715
REMARK INTRA:                  -0.353
REMARK UNBOUND:                -0.332
REMARK SMILES CCCCCCC(=O)[O-]
REMARK SMILES IDX 5 1 6 2 7 3 8 4 9 5 4 6 3 7 2 8 1 9
REMARK H PARENT
REMARK Flexibility Score: inf
ROOT
ATOM      1  C   UNL     1      23.970  56.733  32.310  1.00  0.00     0.006 C 
ENDROOT
BRANCH   1   2
ATOM      2  C   UNL     1      22.550  56.875  31.747  1.00  0.00     0.053 C 
BRANCH   2   3
ATOM      3  C   UNL     1      21.517  56.398  32.720  1.00  0.00     0.041 C 
ATOM      4  O   UNL     1      20.555  57.145  33.040  1.00  0.00    -0.550 OA
ATOM      5  O   UNL     1      21.635  55.142  33.301  1.00  0.00    -0.550 OA
ENDBRANCH   2   3
ENDBRANCH   1   2
BRANCH   1   6
ATOM      6  C   UNL     1      24.715  58.079  32.352  1.00  0.00     0.000 C 
BRANCH   6   7
ATOM      7  C   UNL     1      23.947  59.163  33.130  1.00  0.00    -0.000 C 
BRANCH   7   8
ATOM      8  C   UNL     1      24.052  59.055  34.662  1.00  0.00    -0.003 C 
ATOM      9  C   UNL     1      22.735  58.658  35.326  1.00  0.00     0.004 C 
ENDBRANCH   7   8
ENDBRANCH   6   7
ENDBRANCH   1   6
TORSDOF 5
ENDMDL
MODEL 8
REMARK VINA RESULT:    -4.427      1.594      2.298
REMARK INTER + INTRA:          -6.053
REMARK INTER:                  -5.858
REMARK INTRA:                  -0.195
REMARK UNBOUND:                -0.332
REMARK SMILES CCCCCCC(=O)[O-]
REMARK SMILES IDX 5 1 6 2 7 3 8 4 9 5 4 6 3 7 2 8 1 9
REMARK H PARENT
REMARK Flexibility Score: inf
ROOT
ATOM      1  C   UNL     1      22.730  57.986  35.654  1.00  0.00     0.006 C 
ENDROOT
BRANCH   1   2
ATOM      2  C   UNL     1      21.772  58.855  36.480  1.00  0.00     0.053 C 
BRANCH   2   3
ATOM      3  C   UNL     1      22.501  59.648  37.522  1.00  0.00     0.041 C 
ATOM      4  O   UNL     1      22.546  59.239  38.711  1.00  0.00    -0.550 OA
ATOM      5  O   UNL     1      23.097  60.856  37.185  1.00  0.00    -0.550 OA
ENDBRANCH   2   3
ENDBRANCH   1   2
BRANCH   1   6
ATOM      6  C   UNL     1      22.614  58.267  34.146  1.00  0.00     0.000 C 
BRANCH   6   7
ATOM      7  C   UNL     1      21.155  58.336  33.661  1.00  0.00    -0.000 C 
BRANCH   7   8
ATOM      8  C   UNL     1      20.768  57.265  32.625  1.00  0.00    -0.003 C 
ATOM      9  C   UNL     1      21.976  56.631  31.940  1.00  0.00     0.004 C 
ENDBRANCH   7   8
ENDBRANCH   6   7
ENDBRANCH   1   6
TORSDOF 5
ENDMDL
MODEL 9
REMARK VINA RESULT:    -4.298      2.171      4.337
REMARK INTER + INTRA:          -5.886
REMARK INTER:                  -5.742
REMARK INTRA:                  -0.144
REMARK UNBOUND:                -0.332
REMARK SMILES CCCCCCC(=O)[O-]
REMARK SMILES IDX 5 1 6 2 7 3 8 4 9 5 4 6 3 7 2 8 1 9
REMARK H PARENT
REMARK Flexibility Score: inf
ROOT
ATOM      1  C   UNL     1      22.411  58.210  34.115  1.00  0.00     0.006 C 
ENDROOT
BRANCH   1   2
ATOM      2  C   UNL     1      23.944  58.197  34.194  1.00  0.00     0.053 C 
BRANCH   2   3
ATOM      3  C   UNL     1      24.568  58.750  32.950  1.00  0.00     0.041 C 
ATOM      4  O   UNL     1      25.226  59.822  32.995  1.00  0.00    -0.550 OA
ATOM      5  O   UNL     1      24.393  58.100  31.735  1.00  0.00    -0.550 OA
ENDBRANCH   2   3
ENDBRANCH   1   2
BRANCH   1   6
ATOM      6  C   UNL     1      21.763  58.557  35.467  1.00  0.00     0.000 C 
BRANCH   6   7
ATOM      7  C   UNL     1      22.724  59.292  36.419  1.00  0.00    -0.000 C 
BRANCH   7   8
ATOM      8  C   UNL     1      22.176  59.521  37.839  1.00  0.00    -0.003 C 
ATOM      9  C   UNL     1      22.923  60.615  38.600  1.00  0.00     0.004 C 
ENDBRANCH   7   8
ENDBRANCH   6   7
ENDBRANCH   1   6
TORSDOF 5
ENDMDL
