MODEL 1
REMARK VINA RESULT:    -3.964      0.000      0.000
REMARK INTER + INTRA:          -8.664
REMARK INTER:                  -6.744
REMARK INTRA:                  -1.920
REMARK UNBOUND:                -1.920
REMARK SMILES CCCCCCCCCCCCCC(=O)[O-]
REMARK SMILES IDX 8 1 9 2 10 3 11 4 12 5 13 6 14 7 15 8 16 9 7 10 6 11 5 12
REMARK SMILES IDX 4 13 3 14 2 15 1 16
REMARK H PARENT
REMARK Flexibility Score: inf
ROOT
ATOM      1  C   UNL     1      -5.118  -7.729 -16.152  1.00  0.00     0.000 C 
ENDROOT
BRANCH   1   2
ATOM      2  C   UNL     1      -4.162  -8.642 -15.369  1.00  0.00     0.000 C 
BRANCH   2   3
ATOM      3  C   UNL     1      -4.011 -10.034 -16.011  1.00  0.00     0.000 C 
BRANCH   3   4
ATOM      4  C   UNL     1      -5.254 -10.451 -16.816  1.00  0.00     0.000 C 
BRANCH   4   5
ATOM      5  C   UNL     1      -5.849 -11.785 -16.334  1.00  0.00     0.006 C 
BRANCH   5   6
ATOM      6  C   UNL     1      -5.690 -11.976 -14.820  1.00  0.00     0.053 C 
BRANCH   6   7
ATOM      7  C   UNL     1      -6.837 -11.382 -14.060  1.00  0.00     0.041 C 
ATOM      8  O   UNL     1      -7.975 -11.917 -14.111  1.00  0.00    -0.550 OA
ATOM      9  O   UNL     1      -6.654 -10.221 -13.319  1.00  0.00    -0.550 OA
ENDBRANCH   6   7
ENDBRANCH   5   6
ENDBRANCH   4   5
ENDBRANCH   3   4
ENDBRANCH   2   3
ENDBRANCH   1   2
BRANCH   1  10
ATOM     10  C   UNL     1      -4.375  -6.781 -17.110  1.00  0.00     0.000 C 
BRANCH  10  11
ATOM     11  C   UNL     1      -4.386  -7.281 -18.564  1.00  0.00    -0.000 C 
BRANCH  11  12
ATOM     12  C   UNL     1      -2.981  -7.629 -19.084  1.00  0.00    -0.000 C 
BRANCH  12  13
ATOM     13  C   UNL     1      -1.875  -7.243 -18.082  1.00  0.00    -0.000 C 
BRANCH  13  14
ATOM     14  C   UNL     1      -1.005  -8.427 -17.618  1.00  0.00    -0.000 C 
BRANCH  14  15
ATOM     15  C   UNL     1      -0.525  -8.323 -16.156  1.00  0.00    -0.003 C 
ATOM     16  C   UNL     1      -0.798  -6.951 -15.540  1.00  0.00     0.004 C 
ENDBRANCH  14  15
ENDBRANCH  13  14
ENDBRANCH  12  13
ENDBRANCH  11  12
ENDBRANCH  10  11
ENDBRANCH   1  10
TORSDOF 12
ENDMDL
MODEL 2
REMARK VINA RESULT:    -3.935      1.302      2.869
REMARK INTER + INTRA:          -8.615
REMARK INTER:                  -6.855
REMARK INTRA:                  -1.760
REMARK UNBOUND:                -1.920
REMARK SMILES CCCCCCCCCCCCCC(=O)[O-]
REMARK SMILES IDX 8 1 9 2 10 3 11 4 12 5 13 6 14 7 15 8 16 9 7 10 6 11 5 12
REMARK SMILES IDX 4 13 3 14 2 15 1 16
REMARK H PARENT
REMARK Flexibility Score: inf
ROOT
ATOM      1  C   UNL     1      -2.785  -9.431 -14.712  1.00  0.00     0.000 C 
ENDROOT
BRANCH   1   2
ATOM      2  C   UNL     1      -2.612 -10.727 -15.519  1.00  0.00     0.000 C 
BRANCH   2   3
ATOM      3  C   UNL     1      -3.194 -10.623 -16.941  1.00  0.00     0.000 C 
BRANCH   3   4
ATOM      4  C   UNL     1      -4.490 -11.434 -17.110  1.00  0.00     0.000 C 
BRANCH   4   5
ATOM      5  C   UNL     1      -5.745 -10.627 -16.740  1.00  0.00     0.006 C 
BRANCH   5   6
ATOM      6  C   UNL     1      -6.510 -11.251 -15.565  1.00  0.00     0.053 C 
BRANCH   6   7
ATOM      7  C   UNL     1      -7.019 -10.210 -14.615  1.00  0.00     0.041 C 
ATOM      8  O   UNL     1      -8.112 -10.382 -14.015  1.00  0.00    -0.550 OA
ATOM      9  O   UNL     1      -6.299  -9.039 -14.415  1.00  0.00    -0.550 OA
ENDBRANCH   6   7
ENDBRANCH   5   6
ENDBRANCH   4   5
ENDBRANCH   3   4
ENDBRANCH   2   3
ENDBRANCH   1   2
BRANCH   1  10
ATOM     10  C   UNL     1      -1.451  -8.900 -14.157  1.00  0.00     0.000 C 
BRANCH  10  11
ATOM     11  C   UNL     1      -1.061  -7.540 -14.757  1.00  0.00    -0.000 C 
BRANCH  11  12
ATOM     12  C   UNL     1      -0.953  -7.575 -16.292  1.00  0.00    -0.000 C 
BRANCH  12  13
ATOM     13  C   UNL     1      -1.967  -6.633 -16.971  1.00  0.00    -0.000 C 
BRANCH  13  14
ATOM     14  C   UNL     1      -2.582  -7.200 -18.265  1.00  0.00    -0.000 C 
BRANCH  14  15
ATOM     15  C   UNL     1      -4.123  -7.268 -18.255  1.00  0.00    -0.003 C 
ATOM     16  C   UNL     1      -4.714  -7.061 -16.860  1.00  0.00     0.004 C 
ENDBRANCH  14  15
ENDBRANCH  13  14
ENDBRANCH  12  13
ENDBRANCH  11  12
ENDBRANCH  10  11
ENDBRANCH   1  10
TORSDOF 12
ENDMDL
MODEL 3
REMARK VINA RESULT:    -3.931      2.421      5.204
REMARK INTER + INTRA:          -8.609
REMARK INTER:                  -6.870
REMARK INTRA:                  -1.739
REMARK UNBOUND:                -1.920
REMARK SMILES CCCCCCCCCCCCCC(=O)[O-]
REMARK SMILES IDX 8 1 9 2 10 3 11 4 12 5 13 6 14 7 15 8 16 9 7 10 6 11 5 12
REMARK SMILES IDX 4 13 3 14 2 15 1 16
REMARK H PARENT
REMARK Flexibility Score: inf
ROOT
ATOM      1  C   UNL     1      -4.386  -6.784 -17.111  1.00  0.00     0.000 C 
ENDROOT
BRANCH   1   2
ATOM      2  C   UNL     1      -3.487  -7.557 -18.088  1.00  0.00     0.000 C 
BRANCH   2   3
ATOM      3  C   UNL     1      -2.126  -7.931 -17.473  1.00  0.00     0.000 C 
BRANCH   3   4
ATOM      4  C   UNL     1      -1.574  -6.834 -16.547  1.00  0.00     0.000 C 
BRANCH   4   5
ATOM      5  C   UNL     1      -0.631  -7.392 -15.468  1.00  0.00     0.006 C 
BRANCH   5   6
ATOM      6  C   UNL     1      -1.390  -7.838 -14.211  1.00  0.00     0.053 C 
BRANCH   6   7
ATOM      7  C   UNL     1      -1.137  -9.280 -13.890  1.00  0.00     0.041 C 
ATOM      8  O   UNL     1      -1.365 -10.170 -14.750  1.00  0.00    -0.550 OA
ATOM      9  O   UNL     1      -0.676  -9.642 -12.630  1.00  0.00    -0.550 OA
ENDBRANCH   6   7
ENDBRANCH   5   6
ENDBRANCH   4   5
ENDBRANCH   3   4
ENDBRANCH   2   3
ENDBRANCH   1   2
BRANCH   1  10
ATOM     10  C   UNL     1      -5.385  -7.698 -16.380  1.00  0.00     0.000 C 
BRANCH  10  11
ATOM     11  C   UNL     1      -4.907  -8.087 -14.971  1.00  0.00    -0.000 C 
BRANCH  11  12
ATOM     12  C   UNL     1      -4.890  -9.609 -14.748  1.00  0.00    -0.000 C 
BRANCH  12  13
ATOM     13  C   UNL     1      -6.190 -10.285 -15.230  1.00  0.00    -0.000 C 
BRANCH  13  14
ATOM     14  C   UNL     1      -5.969 -11.416 -16.253  1.00  0.00    -0.000 C 
BRANCH  14  15
ATOM     15  C   UNL     1      -5.460 -10.934 -17.627  1.00  0.00    -0.003 C 
ATOM     16  C   UNL     1      -3.979 -11.242 -17.849  1.00  0.00     0.004 C 
ENDBRANCH  14  15
ENDBRANCH  13  14
ENDBRANCH  12  13
ENDBRANCH  11  12
ENDBRANCH  10  11
ENDBRANCH   1  10
TORSDOF 12
ENDMDL
MODEL 4
REMARK VINA RESULT:    -3.842      2.548      3.555
REMARK INTER + INTRA:          -8.458
REMARK INTER:                  -6.796
REMARK INTRA:                  -1.661
REMARK UNBOUND:                -1.920
REMARK SMILES CCCCCCCCCCCCCC(=O)[O-]
REMARK SMILES IDX 8 1 9 2 10 3 11 4 12 5 13 6 14 7 15 8 16 9 7 10 6 11 5 12
REMARK SMILES IDX 4 13 3 14 2 15 1 16
REMARK H PARENT
REMARK Flexibility Score: inf
ROOT
ATOM      1  C   UNL     1      -3.833  -6.995 -17.154  1.00  0.00     0.000 C 
ENDROOT
BRANCH   1   2
ATOM      2  C   UNL     1      -5.178  -7.274 -16.466  1.00  0.00     0.000 C 
BRANCH   2   3
ATOM      3  C   UNL     1      -5.022  -8.072 -15.159  1.00  0.00     0.000 C 
BRANCH   3   4
ATOM      4  C   UNL     1      -6.091  -9.167 -15.003  1.00  0.00     0.000 C 
BRANCH   4   5
ATOM      5  C   UNL     1      -5.513 -10.583 -15.157  1.00  0.00     0.006 C 
BRANCH   5   6
ATOM      6  C   UNL     1      -5.911 -11.230 -16.490  1.00  0.00     0.053 C 
BRANCH   6   7
ATOM      7  C   UNL     1      -4.966 -10.861 -17.593  1.00  0.00     0.041 C 
ATOM      8  O   UNL     1      -5.339 -10.090 -18.515  1.00  0.00    -0.550 OA
ATOM      9  O   UNL     1      -3.682 -11.393 -17.617  1.00  0.00    -0.550 OA
ENDBRANCH   6   7
ENDBRANCH   5   6
ENDBRANCH   4   5
ENDBRANCH   3   4
ENDBRANCH   2   3
ENDBRANCH   1   2
BRANCH   1  10
ATOM     10  C   UNL     1      -2.735  -7.983 -16.723  1.00  0.00     0.000 C 
BRANCH  10  11
ATOM     11  C   UNL     1      -1.341  -7.336 -16.681  1.00  0.00    -0.000 C 
BRANCH  11  12
ATOM     12  C   UNL     1      -0.781  -7.222 -15.252  1.00  0.00    -0.000 C 
BRANCH  12  13
ATOM     13  C   UNL     1      -1.537  -8.122 -14.255  1.00  0.00    -0.000 C 
BRANCH  13  14
ATOM     14  C   UNL     1      -0.644  -9.147 -13.531  1.00  0.00    -0.000 C 
BRANCH  14  15
ATOM     15  C   UNL     1      -1.319 -10.511 -13.285  1.00  0.00    -0.003 C 
ATOM     16  C   UNL     1      -1.972 -11.083 -14.543  1.00  0.00     0.004 C 
ENDBRANCH  14  15
ENDBRANCH  13  14
ENDBRANCH  12  13
ENDBRANCH  11  12
ENDBRANCH  10  11
ENDBRANCH   1  10
TORSDOF 12
ENDMDL
MODEL 5
REMARK VINA RESULT:    -3.838      2.871      4.900
REMARK INTER + INTRA:          -8.451
REMARK INTER:                  -6.689
REMARK INTRA:                  -1.761
REMARK UNBOUND:                -1.920
REMARK SMILES CCCCCCCCCCCCCC(=O)[O-]
REMARK SMILES IDX 8 1 9 2 10 3 11 4 12 5 13 6 14 7 15 8 16 9 7 10 6 11 5 12
REMARK SMILES IDX 4 13 3 14 2 15 1 16
REMARK H PARENT
REMARK Flexibility Score: inf
ROOT
ATOM      1  C   UNL     1      -6.045 -10.171 -14.315  1.00  0.00     0.000 C 
ENDROOT
BRANCH   1   2
ATOM      2  C   UNL     1      -6.060  -8.790 -14.990  1.00  0.00     0.000 C 
BRANCH   2   3
ATOM      3  C   UNL     1      -4.713  -8.055 -14.866  1.00  0.00     0.000 C 
BRANCH   3   4
ATOM      4  C   UNL     1      -3.513  -9.017 -14.855  1.00  0.00     0.000 C 
BRANCH   4   5
ATOM      5  C   UNL     1      -2.214  -8.347 -15.334  1.00  0.00     0.006 C 
BRANCH   5   6
ATOM      6  C   UNL     1      -1.269  -8.017 -14.171  1.00  0.00     0.053 C 
BRANCH   6   7
ATOM      7  C   UNL     1      -0.599  -9.245 -13.632  1.00  0.00     0.041 C 
ATOM      8  O   UNL     1      -0.012 -10.039 -14.412  1.00  0.00    -0.550 OA
ATOM      9  O   UNL     1      -0.650  -9.526 -12.273  1.00  0.00    -0.550 OA
ENDBRANCH   6   7
ENDBRANCH   5   6
ENDBRANCH   4   5
ENDBRANCH   3   4
ENDBRANCH   2   3
ENDBRANCH   1   2
BRANCH   1  10
ATOM     10  C   UNL     1      -6.601 -11.279 -15.228  1.00  0.00     0.000 C 
BRANCH  10  11
ATOM     11  C   UNL     1      -5.552 -11.806 -16.221  1.00  0.00    -0.000 C 
BRANCH  11  12
ATOM     12  C   UNL     1      -5.477 -10.967 -17.509  1.00  0.00    -0.000 C 
BRANCH  12  13
ATOM     13  C   UNL     1      -4.074 -10.999 -18.146  1.00  0.00    -0.000 C 
BRANCH  13  14
ATOM     14  C   UNL     1      -3.546  -9.617 -18.574  1.00  0.00    -0.000 C 
BRANCH  14  15
ATOM     15  C   UNL     1      -4.629  -8.522 -18.649  1.00  0.00    -0.003 C 
ATOM     16  C   UNL     1      -4.076  -7.125 -18.368  1.00  0.00     0.004 C 
ENDBRANCH  14  15
ENDBRANCH  13  14
ENDBRANCH  12  13
ENDBRANCH  11  12
ENDBRANCH  10  11
ENDBRANCH   1  10
TORSDOF 12
ENDMDL
MODEL 6
REMARK VINA RESULT:    -3.833      1.493      2.871
REMARK INTER + INTRA:          -8.442
REMARK INTER:                  -6.639
REMARK INTRA:                  -1.803
REMARK UNBOUND:                -1.920
REMARK SMILES CCCCCCCCCCCCCC(=O)[O-]
REMARK SMILES IDX 8 1 9 2 10 3 11 4 12 5 13 6 14 7 15 8 16 9 7 10 6 11 5 12
REMARK SMILES IDX 4 13 3 14 2 15 1 16
REMARK H PARENT
REMARK Flexibility Score: inf
ROOT
ATOM      1  C   UNL     1      -3.471  -7.233 -18.284  1.00  0.00     0.000 C 
ENDROOT
BRANCH   1   2
ATOM      2  C   UNL     1      -4.380  -8.221 -17.537  1.00  0.00     0.000 C 
BRANCH   2   3
ATOM      3  C   UNL     1      -5.164  -7.556 -16.391  1.00  0.00     0.000 C 
BRANCH   3   4
ATOM      4  C   UNL     1      -5.265  -8.452 -15.146  1.00  0.00     0.000 C 
BRANCH   4   5
ATOM      5  C   UNL     1      -5.780  -9.863 -15.473  1.00  0.00     0.006 C 
BRANCH   5   6
ATOM      6  C   UNL     1      -5.804 -10.772 -14.237  1.00  0.00     0.053 C 
BRANCH   6   7
ATOM      7  C   UNL     1      -7.077 -10.622 -13.460  1.00  0.00     0.041 C 
ATOM      8  O   UNL     1      -7.107 -10.911 -12.235  1.00  0.00    -0.550 OA
ATOM      9  O   UNL     1      -8.234 -10.192 -14.095  1.00  0.00    -0.550 OA
ENDBRANCH   6   7
ENDBRANCH   5   6
ENDBRANCH   4   5
ENDBRANCH   3   4
ENDBRANCH   2   3
ENDBRANCH   1   2
BRANCH   1  10
ATOM     10  C   UNL     1      -1.997  -7.349 -17.856  1.00  0.00     0.000 C 
BRANCH  10  11
ATOM     11  C   UNL     1      -1.678  -6.513 -16.606  1.00  0.00    -0.000 C 
BRANCH  11  12
ATOM     12  C   UNL     1      -0.820  -7.278 -15.582  1.00  0.00    -0.000 C 
BRANCH  12  13
ATOM     13  C   UNL     1      -1.666  -7.860 -14.431  1.00  0.00    -0.000 C 
BRANCH  13  14
ATOM     14  C   UNL     1      -1.195  -9.244 -13.943  1.00  0.00    -0.000 C 
BRANCH  14  15
ATOM     15  C   UNL     1      -2.143 -10.401 -14.317  1.00  0.00    -0.003 C 
ATOM     16  C   UNL     1      -2.176 -10.675 -15.820  1.00  0.00     0.004 C 
ENDBRANCH  14  15
ENDBRANCH  13  14
ENDBRANCH  12  13
ENDBRANCH  11  12
ENDBRANCH  10  11
ENDBRANCH   1  10
TORSDOF 12
ENDMDL
MODEL 7
REMARK VINA RESULT:    -3.735      2.836      6.021
REMARK INTER + INTRA:          -8.276
REMARK INTER:                  -6.765
REMARK INTRA:                  -1.511
REMARK UNBOUND:                -1.920
REMARK SMILES CCCCCCCCCCCCCC(=O)[O-]
REMARK SMILES IDX 8 1 9 2 10 3 11 4 12 5 13 6 14 7 15 8 16 9 7 10 6 11 5 12
REMARK SMILES IDX 4 13 3 14 2 15 1 16
REMARK H PARENT
REMARK Flexibility Score: inf
ROOT
ATOM      1  C   UNL     1      -1.871  -8.850 -14.272  1.00  0.00     0.000 C 
ENDROOT
BRANCH   1   2
ATOM      2  C   UNL     1      -0.408  -8.666 -14.705  1.00  0.00     0.000 C 
BRANCH   2   3
ATOM      3  C   UNL     1      -0.273  -7.866 -16.013  1.00  0.00     0.000 C 
BRANCH   3   4
ATOM      4  C   UNL     1      -1.081  -6.558 -15.994  1.00  0.00     0.000 C 
BRANCH   4   5
ATOM      5  C   UNL     1      -2.141  -6.503 -17.107  1.00  0.00     0.006 C 
BRANCH   5   6
ATOM      6  C   UNL     1      -1.996  -7.661 -18.104  1.00  0.00     0.053 C 
BRANCH   6   7
ATOM      7  C   UNL     1      -3.251  -7.876 -18.894  1.00  0.00     0.041 C 
ATOM      8  O   UNL     1      -3.269  -8.710 -19.837  1.00  0.00    -0.550 OA
ATOM      9  O   UNL     1      -4.391  -7.135 -18.607  1.00  0.00    -0.550 OA
ENDBRANCH   6   7
ENDBRANCH   5   6
ENDBRANCH   4   5
ENDBRANCH   3   4
ENDBRANCH   2   3
ENDBRANCH   1   2
BRANCH   1  10
ATOM     10  C   UNL     1      -2.513 -10.107 -14.885  1.00  0.00     0.000 C 
BRANCH  10  11
ATOM     11  C   UNL     1      -3.893  -9.825 -15.501  1.00  0.00    -0.000 C 
BRANCH  11  12
ATOM     12  C   UNL     1      -4.416  -8.416 -15.170  1.00  0.00    -0.000 C 
BRANCH  12  13
ATOM     13  C   UNL     1      -5.866  -8.439 -14.648  1.00  0.00    -0.000 C 
BRANCH  13  14
ATOM     14  C   UNL     1      -6.246  -9.733 -13.903  1.00  0.00    -0.000 C 
BRANCH  14  15
ATOM     15  C   UNL     1      -7.578 -10.359 -14.363  1.00  0.00    -0.003 C 
ATOM     16  C   UNL     1      -7.696 -11.837 -13.989  1.00  0.00     0.004 C 
ENDBRANCH  14  15
ENDBRANCH  13  14
ENDBRANCH  12  13
ENDBRANCH  11  12
ENDBRANCH  10  11
ENDBRANCH   1  10
TORSDOF 12
ENDMDL
MODEL 8
REMARK VINA RESULT:    -3.722      1.757      2.362
REMARK INTER + INTRA:          -8.253
REMARK INTER:                  -6.469
REMARK INTRA:                  -1.784
REMARK UNBOUND:                -1.920
REMARK SMILES CCCCCCCCCCCCCC(=O)[O-]
REMARK SMILES IDX 8 1 9 2 10 3 11 4 12 5 13 6 14 7 15 8 16 9 7 10 6 11 5 12
REMARK SMILES IDX 4 13 3 14 2 15 1 16
REMARK H PARENT
REMARK Flexibility Score: inf
ROOT
ATOM      1  C   UNL     1      -4.007  -8.611 -18.945  1.00  0.00     0.000 C 
ENDROOT
BRANCH   1   2
ATOM      2  C   UNL     1      -5.049  -9.718 -18.717  1.00  0.00     0.000 C 
BRANCH   2   3
ATOM      3  C   UNL     1      -4.484 -10.908 -17.921  1.00  0.00     0.000 C 
BRANCH   3   4
ATOM      4  C   UNL     1      -5.293 -11.205 -16.647  1.00  0.00     0.000 C 
BRANCH   4   5
ATOM      5  C   UNL     1      -5.880  -9.934 -16.011  1.00  0.00     0.006 C 
BRANCH   5   6
ATOM      6  C   UNL     1      -5.675  -9.900 -14.491  1.00  0.00     0.053 C 
BRANCH   6   7
ATOM      7  C   UNL     1      -6.875 -10.415 -13.755  1.00  0.00     0.041 C 
ATOM      8  O   UNL     1      -8.033 -10.155 -14.173  1.00  0.00    -0.550 OA
ATOM      9  O   UNL     1      -6.712 -11.157 -12.592  1.00  0.00    -0.550 OA
ENDBRANCH   6   7
ENDBRANCH   5   6
ENDBRANCH   4   5
ENDBRANCH   3   4
ENDBRANCH   2   3
ENDBRANCH   1   2
BRANCH   1  10
ATOM     10  C   UNL     1      -4.322  -7.333 -18.148  1.00  0.00     0.000 C 
BRANCH  10  11
ATOM     11  C   UNL     1      -3.128  -6.851 -17.308  1.00  0.00    -0.000 C 
BRANCH  11  12
ATOM     12  C   UNL     1      -2.164  -7.992 -16.936  1.00  0.00    -0.000 C 
BRANCH  12  13
ATOM     13  C   UNL     1      -2.446  -8.557 -15.529  1.00  0.00    -0.000 C 
BRANCH  13  14
ATOM     14  C   UNL     1      -2.002 -10.021 -15.339  1.00  0.00    -0.000 C 
BRANCH  14  15
ATOM     15  C   UNL     1      -1.488 -10.346 -13.923  1.00  0.00    -0.003 C 
ATOM     16  C   UNL     1      -0.821  -9.149 -13.247  1.00  0.00     0.004 C 
ENDBRANCH  14  15
ENDBRANCH  13  14
ENDBRANCH  12  13
ENDBRANCH  11  12
ENDBRANCH  10  11
ENDBRANCH   1  10
TORSDOF 12
ENDMDL
MODEL 9
REMARK VINA RESULT:    -3.688     14.919     16.788
REMARK INTER + INTRA:          -8.194
REMARK INTER:                  -6.332
REMARK INTRA:                  -1.863
REMARK UNBOUND:                -1.920
REMARK SMILES CCCCCCCCCCCCCC(=O)[O-]
REMARK SMILES IDX 8 1 9 2 10 3 11 4 12 5 13 6 14 7 15 8 16 9 7 10 6 11 5 12
REMARK SMILES IDX 4 13 3 14 2 15 1 16
REMARK H PARENT
REMARK Flexibility Score: inf
ROOT
ATOM      1  C   UNL     1     -15.244  -1.599 -18.423  1.00  0.00     0.000 C 
ENDROOT
BRANCH   1   2
ATOM      2  C   UNL     1     -16.506  -1.223 -19.216  1.00  0.00     0.000 C 
BRANCH   2   3
ATOM      3  C   UNL     1     -17.467  -2.412 -19.399  1.00  0.00     0.000 C 
BRANCH   3   4
ATOM      4  C   UNL     1     -18.899  -1.968 -19.742  1.00  0.00     0.000 C 
BRANCH   4   5
ATOM      5  C   UNL     1     -18.937  -0.893 -20.841  1.00  0.00     0.006 C 
BRANCH   5   6
ATOM      6  C   UNL     1     -19.675  -1.374 -22.097  1.00  0.00     0.053 C 
BRANCH   6   7
ATOM      7  C   UNL     1     -18.788  -1.364 -23.304  1.00  0.00     0.041 C 
ATOM      8  O   UNL     1     -17.537  -1.332 -23.169  1.00  0.00    -0.550 OA
ATOM      9  O   UNL     1     -19.343  -1.361 -24.577  1.00  0.00    -0.550 OA
ENDBRANCH   6   7
ENDBRANCH   5   6
ENDBRANCH   4   5
ENDBRANCH   3   4
ENDBRANCH   2   3
ENDBRANCH   1   2
BRANCH   1  10
ATOM     10  C   UNL     1     -15.543  -2.565 -17.263  1.00  0.00     0.000 C 
BRANCH  10  11
ATOM     11  C   UNL     1     -15.254  -1.942 -15.887  1.00  0.00    -0.000 C 
BRANCH  11  12
ATOM     12  C   UNL     1     -16.530  -1.720 -15.055  1.00  0.00    -0.000 C 
BRANCH  12  13
ATOM     13  C   UNL     1     -17.787  -2.275 -15.755  1.00  0.00    -0.000 C 
BRANCH  13  14
ATOM     14  C   UNL     1     -18.878  -1.218 -16.017  1.00  0.00    -0.000 C 
BRANCH  14  15
ATOM     15  C   UNL     1     -18.339   0.216 -16.190  1.00  0.00    -0.003 C 
ATOM     16  C   UNL     1     -18.928   0.925 -17.410  1.00  0.00     0.004 C 
ENDBRANCH  14  15
ENDBRANCH  13  14
ENDBRANCH  12  13
ENDBRANCH  11  12
ENDBRANCH  10  11
ENDBRANCH   1  10
TORSDOF 12
ENDMDL
