MODEL 1
REMARK VINA RESULT:     5.089      0.000      0.000
REMARK INTER + INTRA:          11.305
REMARK INTER:                  12.079
REMARK INTRA:                  -0.775
REMARK UNBOUND:                -0.775
REMARK SMILES O=C(OC[C@@H]1O[C@@H](OC(=O)c2cc(O)c(O)c(O)c2)[C@@H](OC(=O)c2cc(O)c(O)c(O)c2)[C@H](OC(=O)c2cc(O)c(O)c(O)c2)[C@@H]1OC(=O)c1cc(O)c(O)c(O)c1)c1cc(O)c(O)c(O)c1
REMARK SMILES IDX 5 1 46 2 33 3 20 4 7 5 6 6 4 7 3 8 2 9 1 10 59 11 60 12
REMARK SMILES IDX 61 13 67 14 63 15 65 16 62 17 64 19 66 21 47 23 48 24 49 25
REMARK SMILES IDX 50 26 58 27 51 28 56 29 52 30 54 31 57 32 53 34 55 36 34 38
REMARK SMILES IDX 35 39 36 40 37 41 45 42 38 43 43 44 39 45 41 46 44 47 40 49
REMARK SMILES IDX 42 51 8 53 9 54 10 55 11 56 19 57 12 58 17 59 13 60 15 61
REMARK SMILES IDX 18 62 14 64 16 66 21 68 22 69 23 70 24 71 32 72 25 73 30 74
REMARK SMILES IDX 26 75 28 76 31 77 27 79 29 81
REMARK H PARENT 62 18 64 20 66 22 57 33 53 35 55 37 44 48 40 50 42 52 18 63
REMARK H PARENT 14 65 16 67 31 78 27 80 29 82
REMARK Flexibility Score: inf
ROOT
ATOM      1  C   UNL     1     -21.358  14.885 -31.227  1.00  0.00     0.205 C 
ATOM      2  C   UNL     1     -22.348  13.731 -30.953  1.00  0.00     0.254 C 
ATOM      3  C   UNL     1     -23.767  14.174 -31.363  1.00  0.00     0.267 C 
ATOM      4  C   UNL     1     -24.117  15.514 -30.691  1.00  0.00     0.290 C 
ATOM      5  C   UNL     1     -22.996  16.540 -30.936  1.00  0.00     0.357 C 
ATOM      6  O   UNL     1     -21.738  16.046 -30.504  1.00  0.00    -0.329 OA
ENDROOT
BRANCH   1   7
ATOM      7  C   UNL     1     -19.925  14.490 -30.832  1.00  0.00     0.269 C 
BRANCH   7   8
ATOM      8  O   UNL     1     -19.202  14.016 -31.966  1.00  0.00    -0.459 OA
BRANCH   8   9
ATOM      9  C   UNL     1     -18.049  14.626 -32.475  1.00  0.00     0.338 C 
ATOM     10  O   UNL     1     -18.136  15.464 -33.412  1.00  0.00    -0.246 OA
BRANCH   9  11
ATOM     11  C   UNL     1     -16.732  14.307 -31.882  1.00  0.00     0.067 A 
ATOM     12  C   UNL     1     -15.609  14.147 -32.704  1.00  0.00     0.066 A 
ATOM     13  C   UNL     1     -14.363  13.830 -32.159  1.00  0.00     0.162 A 
ATOM     14  C   UNL     1     -16.589  14.153 -30.495  1.00  0.00     0.066 A 
ATOM     15  C   UNL     1     -14.222  13.664 -30.770  1.00  0.00     0.200 A 
ATOM     16  C   UNL     1     -15.350  13.837 -29.929  1.00  0.00     0.162 A 
BRANCH  13  17
ATOM     17  O   UNL     1     -13.275  13.663 -33.018  1.00  0.00    -0.504 OA
ATOM     18  H   UNL     1     -12.832  14.443 -33.489  1.00  0.00     0.293 HD
ENDBRANCH  13  17
BRANCH  15  19
ATOM     19  O   UNL     1     -12.962  13.326 -30.265  1.00  0.00    -0.502 OA
ATOM     20  H   UNL     1     -12.198  12.993 -30.832  1.00  0.00     0.293 HD
ENDBRANCH  15  19
BRANCH  16  21
ATOM     21  O   UNL     1     -15.282  13.713 -28.538  1.00  0.00    -0.504 OA
ATOM     22  H   UNL     1     -15.369  12.842 -28.040  1.00  0.00     0.293 HD
ENDBRANCH  16  21
ENDBRANCH   9  11
ENDBRANCH   8   9
ENDBRANCH   7   8
ENDBRANCH   1   7
BRANCH   2  23
ATOM     23  O   UNL     1     -22.325  13.405 -29.563  1.00  0.00    -0.452 OA
BRANCH  23  24
ATOM     24  C   UNL     1     -21.926  12.160 -29.057  1.00  0.00     0.338 C 
ATOM     25  O   UNL     1     -22.787  11.332 -28.652  1.00  0.00    -0.246 OA
BRANCH  24  26
ATOM     26  C   UNL     1     -20.490  11.822 -29.004  1.00  0.00     0.067 A 
ATOM     27  C   UNL     1     -19.745  11.667 -30.187  1.00  0.00     0.066 A 
ATOM     28  C   UNL     1     -19.849  11.661 -27.767  1.00  0.00     0.066 A 
ATOM     29  C   UNL     1     -18.384  11.356 -30.136  1.00  0.00     0.162 A 
ATOM     30  C   UNL     1     -18.490  11.343 -27.705  1.00  0.00     0.162 A 
ATOM     31  C   UNL     1     -17.751  11.188 -28.892  1.00  0.00     0.200 A 
BRANCH  29  32
ATOM     32  O   UNL     1     -17.670  11.238 -31.329  1.00  0.00    -0.504 OA
ATOM     33  H   UNL     1     -17.013  11.947 -31.632  1.00  0.00     0.293 HD
ENDBRANCH  29  32
BRANCH  30  34
ATOM     34  O   UNL     1     -17.866  11.174 -26.468  1.00  0.00    -0.504 OA
ATOM     35  H   UNL     1     -16.877  11.368 -26.347  1.00  0.00     0.293 HD
ENDBRANCH  30  34
BRANCH  31  36
ATOM     36  O   UNL     1     -16.391  10.876 -28.848  1.00  0.00    -0.502 OA
ATOM     37  H   UNL     1     -15.898  10.724 -27.972  1.00  0.00     0.293 HD
ENDBRANCH  31  36
ENDBRANCH  24  26
ENDBRANCH  23  24
ENDBRANCH   2  23
BRANCH   3  38
ATOM     38  O   UNL     1     -24.733  13.196 -30.981  1.00  0.00    -0.450 OA
BRANCH  38  39
ATOM     39  C   UNL     1     -26.039  13.134 -31.480  1.00  0.00     0.338 C 
ATOM     40  O   UNL     1     -26.271  13.437 -32.682  1.00  0.00    -0.246 OA
BRANCH  39  41
ATOM     41  C   UNL     1     -27.145  12.721 -30.585  1.00  0.00     0.067 A 
ATOM     42  C   UNL     1     -28.266  12.035 -31.082  1.00  0.00     0.066 A 
ATOM     43  C   UNL     1     -27.085  13.021 -29.215  1.00  0.00     0.066 A 
ATOM     44  C   UNL     1     -29.327  11.685 -30.234  1.00  0.00     0.162 A 
ATOM     45  C   UNL     1     -28.137  12.679 -28.362  1.00  0.00     0.162 A 
ATOM     46  C   UNL     1     -29.265  12.014 -28.868  1.00  0.00     0.200 A 
BRANCH  44  47
ATOM     47  O   UNL     1     -30.443  11.013 -30.741  1.00  0.00    -0.504 OA
ATOM     48  H   UNL     1     -31.247  10.797 -30.161  1.00  0.00     0.293 HD
ENDBRANCH  44  47
BRANCH  45  49
ATOM     49  O   UNL     1     -28.044  13.002 -27.007  1.00  0.00    -0.504 OA
ATOM     50  H   UNL     1     -27.781  12.319 -26.310  1.00  0.00     0.293 HD
ENDBRANCH  45  49
BRANCH  46  51
ATOM     51  O   UNL     1     -30.311  11.683 -28.008  1.00  0.00    -0.502 OA
ATOM     52  H   UNL     1     -30.570  12.262 -27.216  1.00  0.00     0.293 HD
ENDBRANCH  46  51
ENDBRANCH  39  41
ENDBRANCH  38  39
ENDBRANCH   3  38
BRANCH   5  53
ATOM     53  O   UNL     1     -22.944  16.916 -32.315  1.00  0.00    -0.428 OA
BRANCH  53  54
ATOM     54  C   UNL     1     -23.471  18.117 -32.807  1.00  0.00     0.340 C 
ATOM     55  O   UNL     1     -24.070  18.138 -33.917  1.00  0.00    -0.246 OA
BRANCH  54  56
ATOM     56  C   UNL     1     -23.293  19.363 -32.028  1.00  0.00     0.067 A 
ATOM     57  C   UNL     1     -23.535  20.609 -32.629  1.00  0.00     0.066 A 
ATOM     58  C   UNL     1     -22.894  19.314 -30.683  1.00  0.00     0.066 A 
ATOM     59  C   UNL     1     -23.372  21.795 -31.898  1.00  0.00     0.162 A 
ATOM     60  C   UNL     1     -22.736  20.495 -29.945  1.00  0.00     0.162 A 
ATOM     61  C   UNL     1     -22.967  21.740 -30.553  1.00  0.00     0.200 A 
BRANCH  59  62
ATOM     62  O   UNL     1     -23.609  23.028 -32.501  1.00  0.00    -0.504 OA
ATOM     63  H   UNL     1     -23.293  23.229 -33.443  1.00  0.00     0.293 HD
ENDBRANCH  59  62
BRANCH  60  64
ATOM     64  O   UNL     1     -22.335  20.422 -28.611  1.00  0.00    -0.504 OA
ATOM     65  H   UNL     1     -22.930  20.740 -27.855  1.00  0.00     0.293 HD
ENDBRANCH  60  64
BRANCH  61  66
ATOM     66  O   UNL     1     -22.794  22.909 -29.808  1.00  0.00    -0.502 OA
ATOM     67  H   UNL     1     -22.898  22.921 -28.794  1.00  0.00     0.293 HD
ENDBRANCH  61  66
ENDBRANCH  54  56
ENDBRANCH  53  54
ENDBRANCH   5  53
BRANCH   4  68
ATOM     68  O   UNL     1     -25.349  16.023 -31.212  1.00  0.00    -0.448 OA
BRANCH  68  69
ATOM     69  C   UNL     1     -26.009  17.144 -30.686  1.00  0.00     0.339 C 
ATOM     70  O   UNL     1     -25.822  17.480 -29.486  1.00  0.00    -0.246 OA
BRANCH  69  71
ATOM     71  C   UNL     1     -26.892  17.956 -31.550  1.00  0.00     0.067 A 
ATOM     72  C   UNL     1     -28.264  17.662 -31.647  1.00  0.00     0.066 A 
ATOM     73  C   UNL     1     -26.372  19.036 -32.281  1.00  0.00     0.066 A 
ATOM     74  C   UNL     1     -29.108  18.455 -32.437  1.00  0.00     0.162 A 
ATOM     75  C   UNL     1     -27.201  19.827 -33.087  1.00  0.00     0.162 A 
ATOM     76  C   UNL     1     -28.589  19.545 -33.150  1.00  0.00     0.200 A 
BRANCH  74  77
ATOM     77  O   UNL     1     -30.473  18.176 -32.509  1.00  0.00    -0.504 OA
ATOM     78  H   UNL     1     -31.110  18.785 -32.999  1.00  0.00     0.293 HD
ENDBRANCH  74  77
BRANCH  75  79
ATOM     79  O   UNL     1     -26.604  20.865 -33.808  1.00  0.00    -0.504 OA
ATOM     80  H   UNL     1     -25.966  21.536 -33.409  1.00  0.00     0.293 HD
ENDBRANCH  75  79
BRANCH  76  81
ATOM     81  O   UNL     1     -29.475  20.327 -33.895  1.00  0.00    -0.502 OA
ATOM     82  H   UNL     1     -29.653  20.183 -34.874  1.00  0.00     0.293 HD
ENDBRANCH  76  81
ENDBRANCH  69  71
ENDBRANCH  68  69
ENDBRANCH   4  68
TORSDOF 31
ENDMDL
MODEL 2
REMARK VINA RESULT:     5.312      0.253      1.802
REMARK INTER + INTRA:          11.835
REMARK INTER:                  11.729
REMARK INTRA:                   0.106
REMARK UNBOUND:                -0.775
REMARK SMILES O=C(OC[C@@H]1O[C@@H](OC(=O)c2cc(O)c(O)c(O)c2)[C@@H](OC(=O)c2cc(O)c(O)c(O)c2)[C@H](OC(=O)c2cc(O)c(O)c(O)c2)[C@@H]1OC(=O)c1cc(O)c(O)c(O)c1)c1cc(O)c(O)c(O)c1
REMARK SMILES IDX 5 1 46 2 33 3 20 4 7 5 6 6 4 7 3 8 2 9 1 10 59 11 60 12
REMARK SMILES IDX 61 13 67 14 63 15 65 16 62 17 64 19 66 21 47 23 48 24 49 25
REMARK SMILES IDX 50 26 58 27 51 28 56 29 52 30 54 31 57 32 53 34 55 36 34 38
REMARK SMILES IDX 35 39 36 40 37 41 45 42 38 43 43 44 39 45 41 46 44 47 40 49
REMARK SMILES IDX 42 51 8 53 9 54 10 55 11 56 19 57 12 58 17 59 13 60 15 61
REMARK SMILES IDX 18 62 14 64 16 66 21 68 22 69 23 70 24 71 32 72 25 73 30 74
REMARK SMILES IDX 26 75 28 76 31 77 27 79 29 81
REMARK H PARENT 62 18 64 20 66 22 57 33 53 35 55 37 44 48 40 50 42 52 18 63
REMARK H PARENT 14 65 16 67 31 78 27 80 29 82
REMARK Flexibility Score: inf
ROOT
ATOM      1  C   UNL     1     -21.287  14.702 -31.068  1.00  0.00     0.205 C 
ATOM      2  C   UNL     1     -22.289  13.535 -30.923  1.00  0.00     0.254 C 
ATOM      3  C   UNL     1     -23.683  14.006 -31.383  1.00  0.00     0.267 C 
ATOM      4  C   UNL     1     -24.072  15.302 -30.649  1.00  0.00     0.290 C 
ATOM      5  C   UNL     1     -22.941  16.339 -30.767  1.00  0.00     0.357 C 
ATOM      6  O   UNL     1     -21.708  15.817 -30.297  1.00  0.00    -0.329 OA
ENDROOT
BRANCH   1   7
ATOM      7  C   UNL     1     -19.878  14.280 -30.619  1.00  0.00     0.269 C 
BRANCH   7   8
ATOM      8  O   UNL     1     -19.118  13.801 -31.727  1.00  0.00    -0.459 OA
BRANCH   8   9
ATOM      9  C   UNL     1     -18.021  14.475 -32.277  1.00  0.00     0.338 C 
ATOM     10  O   UNL     1     -18.197  15.370 -33.148  1.00  0.00    -0.246 OA
BRANCH   9  11
ATOM     11  C   UNL     1     -16.656  14.156 -31.805  1.00  0.00     0.067 A 
ATOM     12  C   UNL     1     -16.402  14.001 -30.435  1.00  0.00     0.066 A 
ATOM     13  C   UNL     1     -15.115  13.716 -29.975  1.00  0.00     0.162 A 
ATOM     14  C   UNL     1     -15.599  14.010 -32.715  1.00  0.00     0.066 A 
ATOM     15  C   UNL     1     -14.052  13.581 -30.886  1.00  0.00     0.200 A 
ATOM     16  C   UNL     1     -14.303  13.722 -32.274  1.00  0.00     0.162 A 
BRANCH  13  17
ATOM     17  O   UNL     1     -14.905  13.587 -28.600  1.00  0.00    -0.504 OA
ATOM     18  H   UNL     1     -13.980  13.475 -28.201  1.00  0.00     0.293 HD
ENDBRANCH  13  17
BRANCH  15  19
ATOM     19  O   UNL     1     -12.775  13.316 -30.384  1.00  0.00    -0.502 OA
ATOM     20  H   UNL     1     -12.449  13.621 -29.480  1.00  0.00     0.293 HD
ENDBRANCH  15  19
BRANCH  16  21
ATOM     21  O   UNL     1     -13.304  13.578 -33.241  1.00  0.00    -0.504 OA
ATOM     22  H   UNL     1     -13.278  14.084 -34.111  1.00  0.00     0.293 HD
ENDBRANCH  16  21
ENDBRANCH   9  11
ENDBRANCH   8   9
ENDBRANCH   7   8
ENDBRANCH   1   7
BRANCH   2  23
ATOM     23  O   UNL     1     -22.344  13.123 -29.557  1.00  0.00    -0.452 OA
BRANCH  23  24
ATOM     24  C   UNL     1     -21.926  11.865 -29.101  1.00  0.00     0.338 C 
ATOM     25  O   UNL     1     -22.773  10.960 -28.863  1.00  0.00    -0.246 OA
BRANCH  24  26
ATOM     26  C   UNL     1     -20.486  11.603 -28.904  1.00  0.00     0.067 A 
ATOM     27  C   UNL     1     -19.619  11.498 -30.005  1.00  0.00     0.066 A 
ATOM     28  C   UNL     1     -19.967  11.465 -27.608  1.00  0.00     0.066 A 
ATOM     29  C   UNL     1     -18.255  11.260 -29.817  1.00  0.00     0.162 A 
ATOM     30  C   UNL     1     -18.605  11.219 -27.410  1.00  0.00     0.162 A 
ATOM     31  C   UNL     1     -17.743  11.114 -28.516  1.00  0.00     0.200 A 
BRANCH  29  32
ATOM     32  O   UNL     1     -17.418  11.191 -30.932  1.00  0.00    -0.504 OA
ATOM     33  H   UNL     1     -16.623  10.564 -30.966  1.00  0.00     0.293 HD
ENDBRANCH  29  32
BRANCH  30  34
ATOM     34  O   UNL     1     -18.102  11.072 -26.116  1.00  0.00    -0.504 OA
ATOM     35  H   UNL     1     -17.537  11.798 -25.687  1.00  0.00     0.293 HD
ENDBRANCH  30  34
BRANCH  31  36
ATOM     36  O   UNL     1     -16.379  10.875 -28.335  1.00  0.00    -0.502 OA
ATOM     37  H   UNL     1     -15.685  11.613 -28.414  1.00  0.00     0.293 HD
ENDBRANCH  31  36
ENDBRANCH  24  26
ENDBRANCH  23  24
ENDBRANCH   2  23
BRANCH   3  38
ATOM     38  O   UNL     1     -24.669  13.008 -31.118  1.00  0.00    -0.450 OA
BRANCH  38  39
ATOM     39  C   UNL     1     -25.999  13.074 -31.545  1.00  0.00     0.338 C 
ATOM     40  O   UNL     1     -26.269  13.455 -32.717  1.00  0.00    -0.246 OA
BRANCH  39  41
ATOM     41  C   UNL     1     -27.087  12.703 -30.610  1.00  0.00     0.067 A 
ATOM     42  C   UNL     1     -28.249  12.057 -31.065  1.00  0.00     0.066 A 
ATOM     43  C   UNL     1     -26.967  13.004 -29.244  1.00  0.00     0.066 A 
ATOM     44  C   UNL     1     -29.291  11.748 -30.178  1.00  0.00     0.162 A 
ATOM     45  C   UNL     1     -28.000  12.702 -28.353  1.00  0.00     0.162 A 
ATOM     46  C   UNL     1     -29.169  12.077 -28.817  1.00  0.00     0.200 A 
BRANCH  44  47
ATOM     47  O   UNL     1     -30.447  11.115 -30.643  1.00  0.00    -0.504 OA
ATOM     48  H   UNL     1     -31.208  10.864 -30.020  1.00  0.00     0.293 HD
ENDBRANCH  44  47
BRANCH  45  49
ATOM     49  O   UNL     1     -27.848  13.024 -27.004  1.00  0.00    -0.504 OA
ATOM     50  H   UNL     1     -27.913  12.327 -26.275  1.00  0.00     0.293 HD
ENDBRANCH  45  49
BRANCH  46  51
ATOM     51  O   UNL     1     -30.195  11.786 -27.919  1.00  0.00    -0.502 OA
ATOM     52  H   UNL     1     -30.820  10.996 -28.041  1.00  0.00     0.293 HD
ENDBRANCH  46  51
ENDBRANCH  39  41
ENDBRANCH  38  39
ENDBRANCH   3  38
BRANCH   5  53
ATOM     53  O   UNL     1     -22.812  16.800 -32.114  1.00  0.00    -0.428 OA
BRANCH  53  54
ATOM     54  C   UNL     1     -23.455  17.945 -32.602  1.00  0.00     0.340 C 
ATOM     55  O   UNL     1     -24.149  17.882 -33.653  1.00  0.00    -0.246 OA
BRANCH  54  56
ATOM     56  C   UNL     1     -23.290  19.232 -31.891  1.00  0.00     0.067 A 
ATOM     57  C   UNL     1     -22.800  19.252 -30.575  1.00  0.00     0.066 A 
ATOM     58  C   UNL     1     -23.607  20.444 -32.525  1.00  0.00     0.066 A 
ATOM     59  C   UNL     1     -22.637  20.467 -29.894  1.00  0.00     0.162 A 
ATOM     60  C   UNL     1     -23.439  21.663 -31.853  1.00  0.00     0.162 A 
ATOM     61  C   UNL     1     -22.961  21.677 -30.533  1.00  0.00     0.200 A 
BRANCH  59  62
ATOM     62  O   UNL     1     -22.155  20.480 -28.588  1.00  0.00    -0.504 OA
ATOM     63  H   UNL     1     -21.399  19.873 -28.294  1.00  0.00     0.293 HD
ENDBRANCH  59  62
BRANCH  60  64
ATOM     64  O   UNL     1     -23.764  22.853 -32.502  1.00  0.00    -0.504 OA
ATOM     65  H   UNL     1     -24.272  23.597 -32.035  1.00  0.00     0.293 HD
ENDBRANCH  60  64
BRANCH  61  66
ATOM     66  O   UNL     1     -22.810  22.899 -29.872  1.00  0.00    -0.502 OA
ATOM     67  H   UNL     1     -21.951  23.142 -29.379  1.00  0.00     0.293 HD
ENDBRANCH  61  66
ENDBRANCH  54  56
ENDBRANCH  53  54
ENDBRANCH   5  53
BRANCH   4  68
ATOM     68  O   UNL     1     -25.274  15.846 -31.206  1.00  0.00    -0.448 OA
BRANCH  68  69
ATOM     69  C   UNL     1     -25.990  16.901 -30.622  1.00  0.00     0.339 C 
ATOM     70  O   UNL     1     -25.883  17.130 -29.387  1.00  0.00    -0.246 OA
BRANCH  69  71
ATOM     71  C   UNL     1     -26.841  17.772 -31.460  1.00  0.00     0.067 A 
ATOM     72  C   UNL     1     -26.291  18.881 -32.128  1.00  0.00     0.066 A 
ATOM     73  C   UNL     1     -28.211  17.499 -31.605  1.00  0.00     0.066 A 
ATOM     74  C   UNL     1     -27.091  19.684 -32.953  1.00  0.00     0.162 A 
ATOM     75  C   UNL     1     -29.025  18.303 -32.414  1.00  0.00     0.162 A 
ATOM     76  C   UNL     1     -28.454  19.397 -33.111  1.00  0.00     0.200 A 
BRANCH  74  77
ATOM     77  O   UNL     1     -26.535  20.767 -33.634  1.00  0.00    -0.504 OA
ATOM     78  H   UNL     1     -25.892  21.400 -33.182  1.00  0.00     0.293 HD
ENDBRANCH  74  77
BRANCH  75  79
ATOM     79  O   UNL     1     -30.385  17.984 -32.483  1.00  0.00    -0.504 OA
ATOM     80  H   UNL     1     -30.833  17.593 -33.297  1.00  0.00     0.293 HD
ENDBRANCH  75  79
BRANCH  76  81
ATOM     81  O   UNL     1     -29.202  20.205 -33.970  1.00  0.00    -0.502 OA
ATOM     82  H   UNL     1     -29.775  19.843 -34.713  1.00  0.00     0.293 HD
ENDBRANCH  76  81
ENDBRANCH  69  71
ENDBRANCH  68  69
ENDBRANCH   4  68
TORSDOF 31
ENDMDL
MODEL 3
REMARK VINA RESULT:     6.975      1.227     11.238
REMARK INTER + INTRA:          15.783
REMARK INTER:                  17.757
REMARK INTRA:                  -1.974
REMARK UNBOUND:                -0.775
REMARK SMILES O=C(OC[C@@H]1O[C@@H](OC(=O)c2cc(O)c(O)c(O)c2)[C@@H](OC(=O)c2cc(O)c(O)c(O)c2)[C@H](OC(=O)c2cc(O)c(O)c(O)c2)[C@@H]1OC(=O)c1cc(O)c(O)c(O)c1)c1cc(O)c(O)c(O)c1
REMARK SMILES IDX 5 1 46 2 33 3 20 4 7 5 6 6 4 7 3 8 2 9 1 10 59 11 60 12
REMARK SMILES IDX 61 13 67 14 63 15 65 16 62 17 64 19 66 21 47 23 48 24 49 25
REMARK SMILES IDX 50 26 58 27 51 28 56 29 52 30 54 31 57 32 53 34 55 36 34 38
REMARK SMILES IDX 35 39 36 40 37 41 45 42 38 43 43 44 39 45 41 46 44 47 40 49
REMARK SMILES IDX 42 51 8 53 9 54 10 55 11 56 19 57 12 58 17 59 13 60 15 61
REMARK SMILES IDX 18 62 14 64 16 66 21 68 22 69 23 70 24 71 32 72 25 73 30 74
REMARK SMILES IDX 26 75 28 76 31 77 27 79 29 81
REMARK H PARENT 62 18 64 20 66 22 57 33 53 35 55 37 44 48 40 50 42 52 18 63
REMARK H PARENT 14 65 16 67 31 78 27 80 29 82
REMARK Flexibility Score: inf
ROOT
ATOM      1  C   UNL     1     -23.888  14.631 -31.293  1.00  0.00     0.205 C 
ATOM      2  C   UNL     1     -22.547  15.242 -31.754  1.00  0.00     0.254 C 
ATOM      3  C   UNL     1     -21.386  14.472 -31.093  1.00  0.00     0.267 C 
ATOM      4  C   UNL     1     -21.592  14.413 -29.568  1.00  0.00     0.290 C 
ATOM      5  C   UNL     1     -23.008  13.904 -29.243  1.00  0.00     0.357 C 
ATOM      6  O   UNL     1     -24.001  14.693 -29.879  1.00  0.00    -0.329 OA
ENDROOT
BRANCH   1   7
ATOM      7  C   UNL     1     -25.079  15.369 -31.927  1.00  0.00     0.269 C 
BRANCH   7   8
ATOM      8  O   UNL     1     -26.005  15.786 -30.925  1.00  0.00    -0.459 OA
BRANCH   8   9
ATOM      9  C   UNL     1     -26.267  17.124 -30.606  1.00  0.00     0.338 C 
ATOM     10  O   UNL     1     -25.889  17.599 -29.501  1.00  0.00    -0.246 OA
BRANCH   9  11
ATOM     11  C   UNL     1     -26.961  17.986 -31.588  1.00  0.00     0.067 A 
ATOM     12  C   UNL     1     -28.348  17.887 -31.758  1.00  0.00     0.066 A 
ATOM     13  C   UNL     1     -29.013  18.683 -32.693  1.00  0.00     0.162 A 
ATOM     14  C   UNL     1     -26.243  18.908 -32.365  1.00  0.00     0.066 A 
ATOM     15  C   UNL     1     -28.292  19.599 -33.479  1.00  0.00     0.200 A 
ATOM     16  C   UNL     1     -26.891  19.717 -33.305  1.00  0.00     0.162 A 
BRANCH  13  17
ATOM     17  O   UNL     1     -30.394  18.537 -32.840  1.00  0.00    -0.504 OA
ATOM     18  H   UNL     1     -30.880  17.686 -32.585  1.00  0.00     0.293 HD
ENDBRANCH  13  17
BRANCH  15  19
ATOM     19  O   UNL     1     -28.992  20.363 -34.419  1.00  0.00    -0.502 OA
ATOM     20  H   UNL     1     -29.467  21.225 -34.204  1.00  0.00     0.293 HD
ENDBRANCH  15  19
BRANCH  16  21
ATOM     21  O   UNL     1     -26.111  20.621 -34.032  1.00  0.00    -0.504 OA
ATOM     22  H   UNL     1     -26.456  21.482 -34.424  1.00  0.00     0.293 HD
ENDBRANCH  16  21
ENDBRANCH   9  11
ENDBRANCH   8   9
ENDBRANCH   7   8
ENDBRANCH   1   7
BRANCH   2  23
ATOM     23  O   UNL     1     -22.494  16.617 -31.374  1.00  0.00    -0.452 OA
BRANCH  23  24
ATOM     24  C   UNL     1     -23.088  17.655 -32.105  1.00  0.00     0.338 C 
ATOM     25  O   UNL     1     -23.620  17.423 -33.225  1.00  0.00    -0.246 OA
BRANCH  24  26
ATOM     26  C   UNL     1     -23.090  19.025 -31.553  1.00  0.00     0.067 A 
ATOM     27  C   UNL     1     -23.189  20.141 -32.403  1.00  0.00     0.066 A 
ATOM     28  C   UNL     1     -23.003  19.226 -30.168  1.00  0.00     0.066 A 
ATOM     29  C   UNL     1     -23.201  21.436 -31.879  1.00  0.00     0.162 A 
ATOM     30  C   UNL     1     -23.007  20.519 -29.635  1.00  0.00     0.162 A 
ATOM     31  C   UNL     1     -23.104  21.630 -30.490  1.00  0.00     0.200 A 
BRANCH  29  32
ATOM     32  O   UNL     1     -23.329  22.519 -32.751  1.00  0.00    -0.504 OA
ATOM     33  H   UNL     1     -22.526  22.935 -33.208  1.00  0.00     0.293 HD
ENDBRANCH  29  32
BRANCH  30  34
ATOM     34  O   UNL     1     -22.908  20.706 -28.255  1.00  0.00    -0.504 OA
ATOM     35  H   UNL     1     -23.376  20.083 -27.605  1.00  0.00     0.293 HD
ENDBRANCH  30  34
BRANCH  31  36
ATOM     36  O   UNL     1     -23.115  22.927 -29.974  1.00  0.00    -0.502 OA
ATOM     37  H   UNL     1     -22.475  23.645 -30.300  1.00  0.00     0.293 HD
ENDBRANCH  31  36
ENDBRANCH  24  26
ENDBRANCH  23  24
ENDBRANCH   2  23
BRANCH   3  38
ATOM     38  O   UNL     1     -20.136  15.103 -31.369  1.00  0.00    -0.450 OA
BRANCH  38  39
ATOM     39  C   UNL     1     -19.182  14.612 -32.267  1.00  0.00     0.338 C 
ATOM     40  O   UNL     1     -19.536  14.213 -33.411  1.00  0.00    -0.246 OA
BRANCH  39  41
ATOM     41  C   UNL     1     -17.758  14.557 -31.863  1.00  0.00     0.067 A 
ATOM     42  C   UNL     1     -16.740  14.342 -32.809  1.00  0.00     0.066 A 
ATOM     43  C   UNL     1     -17.408  14.712 -30.513  1.00  0.00     0.066 A 
ATOM     44  C   UNL     1     -15.399  14.251 -32.410  1.00  0.00     0.162 A 
ATOM     45  C   UNL     1     -16.075  14.621 -30.105  1.00  0.00     0.162 A 
ATOM     46  C   UNL     1     -15.065  14.384 -31.052  1.00  0.00     0.200 A 
BRANCH  44  47
ATOM     47  O   UNL     1     -14.396  14.026 -33.358  1.00  0.00    -0.504 OA
ATOM     48  H   UNL     1     -14.575  14.099 -34.354  1.00  0.00     0.293 HD
ENDBRANCH  44  47
BRANCH  45  49
ATOM     49  O   UNL     1     -15.767  14.772 -28.752  1.00  0.00    -0.504 OA
ATOM     50  H   UNL     1     -15.070  14.201 -28.294  1.00  0.00     0.293 HD
ENDBRANCH  45  49
BRANCH  46  51
ATOM     51  O   UNL     1     -13.738  14.287 -30.631  1.00  0.00    -0.502 OA
ATOM     52  H   UNL     1     -13.184  15.100 -30.383  1.00  0.00     0.293 HD
ENDBRANCH  46  51
ENDBRANCH  39  41
ENDBRANCH  38  39
ENDBRANCH   3  38
BRANCH   5  53
ATOM     53  O   UNL     1     -23.149  12.528 -29.604  1.00  0.00    -0.428 OA
BRANCH  53  54
ATOM     54  C   UNL     1     -23.979  11.633 -28.917  1.00  0.00     0.340 C 
ATOM     55  O   UNL     1     -23.498  10.875 -28.031  1.00  0.00    -0.246 OA
BRANCH  54  56
ATOM     56  C   UNL     1     -25.416  11.562 -29.262  1.00  0.00     0.067 A 
ATOM     57  C   UNL     1     -26.381  11.476 -28.245  1.00  0.00     0.066 A 
ATOM     58  C   UNL     1     -25.832  11.592 -30.603  1.00  0.00     0.066 A 
ATOM     59  C   UNL     1     -27.746  11.412 -28.563  1.00  0.00     0.162 A 
ATOM     60  C   UNL     1     -27.194  11.536 -30.927  1.00  0.00     0.162 A 
ATOM     61  C   UNL     1     -28.155  11.438 -29.907  1.00  0.00     0.200 A 
BRANCH  59  62
ATOM     62  O   UNL     1     -28.697  11.322 -27.550  1.00  0.00    -0.504 OA
ATOM     63  H   UNL     1     -28.912  10.441 -27.098  1.00  0.00     0.293 HD
ENDBRANCH  59  62
BRANCH  60  64
ATOM     64  O   UNL     1     -27.582  11.564 -32.266  1.00  0.00    -0.504 OA
ATOM     65  H   UNL     1     -27.335  10.822 -32.911  1.00  0.00     0.293 HD
ENDBRANCH  60  64
BRANCH  61  66
ATOM     66  O   UNL     1     -29.509  11.370 -30.246  1.00  0.00    -0.502 OA
ATOM     67  H   UNL     1     -29.915  11.974 -30.960  1.00  0.00     0.293 HD
ENDBRANCH  61  66
ENDBRANCH  54  56
ENDBRANCH  53  54
ENDBRANCH   5  53
BRANCH   4  68
ATOM     68  O   UNL     1     -20.626  13.543 -28.970  1.00  0.00    -0.448 OA
BRANCH  68  69
ATOM     69  C   UNL     1     -20.068  12.437 -29.628  1.00  0.00     0.339 C 
ATOM     70  O   UNL     1     -20.725  11.834 -30.519  1.00  0.00    -0.246 OA
BRANCH  69  71
ATOM     71  C   UNL     1     -18.693  12.000 -29.306  1.00  0.00     0.067 A 
ATOM     72  C   UNL     1     -17.807  11.612 -30.328  1.00  0.00     0.066 A 
ATOM     73  C   UNL     1     -18.251  11.971 -27.973  1.00  0.00     0.066 A 
ATOM     74  C   UNL     1     -16.492  11.234 -30.025  1.00  0.00     0.162 A 
ATOM     75  C   UNL     1     -16.944  11.579 -27.655  1.00  0.00     0.162 A 
ATOM     76  C   UNL     1     -16.048  11.225 -28.694  1.00  0.00     0.200 A 
BRANCH  74  77
ATOM     77  O   UNL     1     -15.609  10.876 -31.044  1.00  0.00    -0.504 OA
ATOM     78  H   UNL     1     -15.129   9.989 -31.038  1.00  0.00     0.293 HD
ENDBRANCH  74  77
BRANCH  75  79
ATOM     79  O   UNL     1     -16.589  11.548 -26.303  1.00  0.00    -0.504 OA
ATOM     80  H   UNL     1     -16.877  12.237 -25.627  1.00  0.00     0.293 HD
ENDBRANCH  75  79
BRANCH  76  81
ATOM     81  O   UNL     1     -14.719  10.875 -28.446  1.00  0.00    -0.502 OA
ATOM     82  H   UNL     1     -13.974  11.022 -29.104  1.00  0.00     0.293 HD
ENDBRANCH  76  81
ENDBRANCH  69  71
ENDBRANCH  68  69
ENDBRANCH   4  68
TORSDOF 31
ENDMDL
MODEL 4
REMARK VINA RESULT:     7.129      1.330     11.283
REMARK INTER + INTRA:          16.148
REMARK INTER:                  19.001
REMARK INTRA:                  -2.853
REMARK UNBOUND:                -0.775
REMARK SMILES O=C(OC[C@@H]1O[C@@H](OC(=O)c2cc(O)c(O)c(O)c2)[C@@H](OC(=O)c2cc(O)c(O)c(O)c2)[C@H](OC(=O)c2cc(O)c(O)c(O)c2)[C@@H]1OC(=O)c1cc(O)c(O)c(O)c1)c1cc(O)c(O)c(O)c1
REMARK SMILES IDX 5 1 46 2 33 3 20 4 7 5 6 6 4 7 3 8 2 9 1 10 59 11 60 12
REMARK SMILES IDX 61 13 67 14 63 15 65 16 62 17 64 19 66 21 47 23 48 24 49 25
REMARK SMILES IDX 50 26 58 27 51 28 56 29 52 30 54 31 57 32 53 34 55 36 34 38
REMARK SMILES IDX 35 39 36 40 37 41 45 42 38 43 43 44 39 45 41 46 44 47 40 49
REMARK SMILES IDX 42 51 8 53 9 54 10 55 11 56 19 57 12 58 17 59 13 60 15 61
REMARK SMILES IDX 18 62 14 64 16 66 21 68 22 69 23 70 24 71 32 72 25 73 30 74
REMARK SMILES IDX 26 75 28 76 31 77 27 79 29 81
REMARK H PARENT 62 18 64 20 66 22 57 33 53 35 55 37 44 48 40 50 42 52 18 63
REMARK H PARENT 14 65 16 67 31 78 27 80 29 82
REMARK Flexibility Score: inf
ROOT
ATOM      1  C   UNL     1     -23.975  14.678 -31.379  1.00  0.00     0.205 C 
ATOM      2  C   UNL     1     -22.606  15.245 -31.816  1.00  0.00     0.254 C 
ATOM      3  C   UNL     1     -21.483  14.437 -31.135  1.00  0.00     0.267 C 
ATOM      4  C   UNL     1     -21.718  14.383 -29.615  1.00  0.00     0.290 C 
ATOM      5  C   UNL     1     -23.155  13.921 -29.315  1.00  0.00     0.357 C 
ATOM      6  O   UNL     1     -24.110  14.742 -29.967  1.00  0.00    -0.329 OA
ENDROOT
BRANCH   1   7
ATOM      7  C   UNL     1     -25.130  15.455 -32.033  1.00  0.00     0.269 C 
BRANCH   7   8
ATOM      8  O   UNL     1     -26.074  15.875 -31.050  1.00  0.00    -0.459 OA
BRANCH   8   9
ATOM      9  C   UNL     1     -26.314  17.212 -30.711  1.00  0.00     0.338 C 
ATOM     10  O   UNL     1     -25.858  17.685 -29.635  1.00  0.00    -0.246 OA
BRANCH   9  11
ATOM     11  C   UNL     1     -27.076  18.076 -31.639  1.00  0.00     0.067 A 
ATOM     12  C   UNL     1     -26.401  18.914 -32.536  1.00  0.00     0.066 A 
ATOM     13  C   UNL     1     -27.108  19.747 -33.406  1.00  0.00     0.162 A 
ATOM     14  C   UNL     1     -28.478  18.074 -31.631  1.00  0.00     0.066 A 
ATOM     15  C   UNL     1     -28.514  19.754 -33.390  1.00  0.00     0.200 A 
ATOM     16  C   UNL     1     -29.205  18.899 -32.496  1.00  0.00     0.162 A 
BRANCH  13  17
ATOM     17  O   UNL     1     -26.393  20.579 -34.271  1.00  0.00    -0.504 OA
ATOM     18  H   UNL     1     -25.635  20.237 -34.850  1.00  0.00     0.293 HD
ENDBRANCH  13  17
BRANCH  15  19
ATOM     19  O   UNL     1     -29.184  20.618 -34.262  1.00  0.00    -0.502 OA
ATOM     20  H   UNL     1     -28.737  21.123 -35.011  1.00  0.00     0.293 HD
ENDBRANCH  15  19
BRANCH  16  21
ATOM     21  O   UNL     1     -30.600  18.833 -32.439  1.00  0.00    -0.504 OA
ATOM     22  H   UNL     1     -31.121  17.995 -32.237  1.00  0.00     0.293 HD
ENDBRANCH  16  21
ENDBRANCH   9  11
ENDBRANCH   8   9
ENDBRANCH   7   8
ENDBRANCH   1   7
BRANCH   2  23
ATOM     23  O   UNL     1     -22.515  16.617 -31.432  1.00  0.00    -0.452 OA
BRANCH  23  24
ATOM     24  C   UNL     1     -23.080  17.674 -32.161  1.00  0.00     0.338 C 
ATOM     25  O   UNL     1     -23.630  17.456 -33.275  1.00  0.00    -0.246 OA
BRANCH  24  26
ATOM     26  C   UNL     1     -23.029  19.044 -31.614  1.00  0.00     0.067 A 
ATOM     27  C   UNL     1     -22.647  19.271 -30.279  1.00  0.00     0.066 A 
ATOM     28  C   UNL     1     -23.353  20.140 -32.428  1.00  0.00     0.066 A 
ATOM     29  C   UNL     1     -22.590  20.569 -29.766  1.00  0.00     0.162 A 
ATOM     30  C   UNL     1     -23.306  21.441 -31.921  1.00  0.00     0.162 A 
ATOM     31  C   UNL     1     -22.925  21.661 -30.585  1.00  0.00     0.200 A 
BRANCH  29  32
ATOM     32  O   UNL     1     -22.180  20.758 -28.445  1.00  0.00    -0.504 OA
ATOM     33  H   UNL     1     -22.449  21.576 -27.913  1.00  0.00     0.293 HD
ENDBRANCH  29  32
BRANCH  30  34
ATOM     34  O   UNL     1     -23.642  22.523 -32.737  1.00  0.00    -0.504 OA
ATOM     35  H   UNL     1     -23.288  22.595 -33.685  1.00  0.00     0.293 HD
ENDBRANCH  30  34
BRANCH  31  36
ATOM     36  O   UNL     1     -22.867  22.955 -30.065  1.00  0.00    -0.502 OA
ATOM     37  H   UNL     1     -22.104  23.266 -29.471  1.00  0.00     0.293 HD
ENDBRANCH  31  36
ENDBRANCH  24  26
ENDBRANCH  23  24
ENDBRANCH   2  23
BRANCH   3  38
ATOM     38  O   UNL     1     -20.208  15.027 -31.389  1.00  0.00    -0.450 OA
BRANCH  38  39
ATOM     39  C   UNL     1     -19.318  14.595 -32.377  1.00  0.00     0.338 C 
ATOM     40  O   UNL     1     -19.749  14.251 -33.511  1.00  0.00    -0.246 OA
BRANCH  39  41
ATOM     41  C   UNL     1     -17.868  14.534 -32.078  1.00  0.00     0.067 A 
ATOM     42  C   UNL     1     -17.359  14.975 -30.844  1.00  0.00     0.066 A 
ATOM     43  C   UNL     1     -16.976  14.037 -33.040  1.00  0.00     0.066 A 
ATOM     44  C   UNL     1     -15.981  14.952 -30.587  1.00  0.00     0.162 A 
ATOM     45  C   UNL     1     -15.600  14.011 -32.795  1.00  0.00     0.162 A 
ATOM     46  C   UNL     1     -15.096  14.474 -31.569  1.00  0.00     0.200 A 
BRANCH  44  47
ATOM     47  O   UNL     1     -15.485  15.404 -29.360  1.00  0.00    -0.504 OA
ATOM     48  H   UNL     1     -16.101  15.641 -28.589  1.00  0.00     0.293 HD
ENDBRANCH  44  47
BRANCH  45  49
ATOM     49  O   UNL     1     -14.744  13.517 -33.780  1.00  0.00    -0.504 OA
ATOM     50  H   UNL     1     -13.941  14.039 -34.104  1.00  0.00     0.293 HD
ENDBRANCH  45  49
BRANCH  46  51
ATOM     51  O   UNL     1     -13.721  14.450 -31.338  1.00  0.00    -0.502 OA
ATOM     52  H   UNL     1     -13.162  15.295 -31.286  1.00  0.00     0.293 HD
ENDBRANCH  46  51
ENDBRANCH  39  41
ENDBRANCH  38  39
ENDBRANCH   3  38
BRANCH   5  53
ATOM     53  O   UNL     1     -23.335  12.550 -29.681  1.00  0.00    -0.428 OA
BRANCH  53  54
ATOM     54  C   UNL     1     -24.014  11.622 -28.882  1.00  0.00     0.340 C 
ATOM     55  O   UNL     1     -23.373  10.879 -28.089  1.00  0.00    -0.246 OA
BRANCH  54  56
ATOM     56  C   UNL     1     -25.484  11.500 -28.997  1.00  0.00     0.067 A 
ATOM     57  C   UNL     1     -26.105  11.624 -30.251  1.00  0.00     0.066 A 
ATOM     58  C   UNL     1     -26.272  11.248 -27.862  1.00  0.00     0.066 A 
ATOM     59  C   UNL     1     -27.498  11.507 -30.370  1.00  0.00     0.162 A 
ATOM     60  C   UNL     1     -27.663  11.122 -27.976  1.00  0.00     0.162 A 
ATOM     61  C   UNL     1     -28.281  11.259 -29.229  1.00  0.00     0.200 A 
BRANCH  59  62
ATOM     62  O   UNL     1     -28.107  11.636 -31.616  1.00  0.00    -0.504 OA
ATOM     63  H   UNL     1     -28.359  12.542 -31.994  1.00  0.00     0.293 HD
ENDBRANCH  59  62
BRANCH  60  64
ATOM     64  O   UNL     1     -28.424  10.875 -26.834  1.00  0.00    -0.504 OA
ATOM     65  H   UNL     1     -29.291  11.369 -26.651  1.00  0.00     0.293 HD
ENDBRANCH  60  64
BRANCH  61  66
ATOM     66  O   UNL     1     -29.670  11.144 -29.325  1.00  0.00    -0.502 OA
ATOM     67  H   UNL     1     -30.180  11.462 -30.148  1.00  0.00     0.293 HD
ENDBRANCH  61  66
ENDBRANCH  54  56
ENDBRANCH  53  54
ENDBRANCH   5  53
BRANCH   4  68
ATOM     68  O   UNL     1     -20.791  13.481 -29.002  1.00  0.00    -0.448 OA
BRANCH  68  69
ATOM     69  C   UNL     1     -20.081  12.500 -29.710  1.00  0.00     0.339 C 
ATOM     70  O   UNL     1     -20.629  11.892 -30.668  1.00  0.00    -0.246 OA
BRANCH  69  71
ATOM     71  C   UNL     1     -18.676  12.205 -29.359  1.00  0.00     0.067 A 
ATOM     72  C   UNL     1     -17.793  11.679 -30.320  1.00  0.00     0.066 A 
ATOM     73  C   UNL     1     -18.201  12.452 -28.060  1.00  0.00     0.066 A 
ATOM     74  C   UNL     1     -16.451  11.435 -29.997  1.00  0.00     0.162 A 
ATOM     75  C   UNL     1     -16.866  12.198 -27.719  1.00  0.00     0.162 A 
ATOM     76  C   UNL     1     -15.976  11.702 -28.704  1.00  0.00     0.200 A 
BRANCH  74  77
ATOM     77  O   UNL     1     -15.574  10.938 -30.960  1.00  0.00    -0.504 OA
ATOM     78  H   UNL     1     -15.844  10.862 -31.929  1.00  0.00     0.293 HD
ENDBRANCH  74  77
BRANCH  75  79
ATOM     79  O   UNL     1     -16.478  12.442 -26.398  1.00  0.00    -0.504 OA
ATOM     80  H   UNL     1     -16.196  11.724 -25.751  1.00  0.00     0.293 HD
ENDBRANCH  75  79
BRANCH  76  81
ATOM     81  O   UNL     1     -14.623  11.475 -28.440  1.00  0.00    -0.502 OA
ATOM     82  H   UNL     1     -14.184  11.700 -27.564  1.00  0.00     0.293 HD
ENDBRANCH  76  81
ENDBRANCH  69  71
ENDBRANCH  68  69
ENDBRANCH   4  68
TORSDOF 31
ENDMDL
MODEL 5
REMARK VINA RESULT:     7.694      1.251      9.756
REMARK INTER + INTRA:          17.490
REMARK INTER:                  16.606
REMARK INTRA:                   0.883
REMARK UNBOUND:                -0.775
REMARK SMILES O=C(OC[C@@H]1O[C@@H](OC(=O)c2cc(O)c(O)c(O)c2)[C@@H](OC(=O)c2cc(O)c(O)c(O)c2)[C@H](OC(=O)c2cc(O)c(O)c(O)c2)[C@@H]1OC(=O)c1cc(O)c(O)c(O)c1)c1cc(O)c(O)c(O)c1
REMARK SMILES IDX 5 1 46 2 33 3 20 4 7 5 6 6 4 7 3 8 2 9 1 10 59 11 60 12
REMARK SMILES IDX 61 13 67 14 63 15 65 16 62 17 64 19 66 21 47 23 48 24 49 25
REMARK SMILES IDX 50 26 58 27 51 28 56 29 52 30 54 31 57 32 53 34 55 36 34 38
REMARK SMILES IDX 35 39 36 40 37 41 45 42 38 43 43 44 39 45 41 46 44 47 40 49
REMARK SMILES IDX 42 51 8 53 9 54 10 55 11 56 19 57 12 58 17 59 13 60 15 61
REMARK SMILES IDX 18 62 14 64 16 66 21 68 22 69 23 70 24 71 32 72 25 73 30 74
REMARK SMILES IDX 26 75 28 76 31 77 27 79 29 81
REMARK H PARENT 62 18 64 20 66 22 57 33 53 35 55 37 44 48 40 50 42 52 18 63
REMARK H PARENT 14 65 16 67 31 78 27 80 29 82
REMARK Flexibility Score: inf
ROOT
ATOM      1  C   UNL     1     -24.481  15.216 -30.379  1.00  0.00     0.205 C 
ATOM      2  C   UNL     1     -23.746  14.208 -29.468  1.00  0.00     0.254 C 
ATOM      3  C   UNL     1     -22.229  14.302 -29.731  1.00  0.00     0.267 C 
ATOM      4  C   UNL     1     -21.944  14.156 -31.237  1.00  0.00     0.290 C 
ATOM      5  C   UNL     1     -22.826  15.128 -32.040  1.00  0.00     0.357 C 
ATOM      6  O   UNL     1     -24.201  14.945 -31.744  1.00  0.00    -0.329 OA
ENDROOT
BRANCH   1   7
ATOM      7  C   UNL     1     -26.001  15.159 -30.153  1.00  0.00     0.269 C 
BRANCH   7   8
ATOM      8  O   UNL     1     -26.592  16.438 -30.378  1.00  0.00    -0.459 OA
BRANCH   8   9
ATOM      9  C   UNL     1     -27.806  16.635 -31.046  1.00  0.00     0.338 C 
ATOM     10  O   UNL     1     -28.751  15.813 -30.902  1.00  0.00    -0.246 OA
BRANCH   9  11
ATOM     11  C   UNL     1     -27.987  17.834 -31.893  1.00  0.00     0.067 A 
ATOM     12  C   UNL     1     -29.275  18.265 -32.239  1.00  0.00     0.066 A 
ATOM     13  C   UNL     1     -29.460  19.385 -33.052  1.00  0.00     0.162 A 
ATOM     14  C   UNL     1     -26.878  18.550 -32.368  1.00  0.00     0.066 A 
ATOM     15  C   UNL     1     -28.348  20.097 -33.537  1.00  0.00     0.200 A 
ATOM     16  C   UNL     1     -27.042  19.676 -33.182  1.00  0.00     0.162 A 
BRANCH  13  17
ATOM     17  O   UNL     1     -30.760  19.768 -33.386  1.00  0.00    -0.504 OA
ATOM     18  H   UNL     1     -31.284  20.442 -32.840  1.00  0.00     0.293 HD
ENDBRANCH  13  17
BRANCH  15  19
ATOM     19  O   UNL     1     -28.574  21.200 -34.366  1.00  0.00    -0.502 OA
ATOM     20  H   UNL     1     -29.419  21.749 -34.357  1.00  0.00     0.293 HD
ENDBRANCH  15  19
BRANCH  16  21
ATOM     21  O   UNL     1     -25.890  20.346 -33.604  1.00  0.00    -0.504 OA
ATOM     22  H   UNL     1     -25.190  20.719 -32.984  1.00  0.00     0.293 HD
ENDBRANCH  16  21
ENDBRANCH   9  11
ENDBRANCH   8   9
ENDBRANCH   7   8
ENDBRANCH   1   7
BRANCH   2  23
ATOM     23  O   UNL     1     -24.206  12.887 -29.752  1.00  0.00    -0.452 OA
BRANCH  23  24
ATOM     24  C   UNL     1     -25.054  12.154 -28.910  1.00  0.00     0.338 C 
ATOM     25  O   UNL     1     -24.637  11.734 -27.795  1.00  0.00    -0.246 OA
BRANCH  24  26
ATOM     26  C   UNL     1     -26.441  11.879 -29.334  1.00  0.00     0.067 A 
ATOM     27  C   UNL     1     -26.730  11.540 -30.668  1.00  0.00     0.066 A 
ATOM     28  C   UNL     1     -27.488  11.944 -28.403  1.00  0.00     0.066 A 
ATOM     29  C   UNL     1     -28.042  11.271 -31.066  1.00  0.00     0.162 A 
ATOM     30  C   UNL     1     -28.804  11.683 -28.793  1.00  0.00     0.162 A 
ATOM     31  C   UNL     1     -29.087  11.347 -30.129  1.00  0.00     0.200 A 
BRANCH  29  32
ATOM     32  O   UNL     1     -28.287  10.909 -32.391  1.00  0.00    -0.504 OA
ATOM     33  H   UNL     1     -29.173  11.103 -32.843  1.00  0.00     0.293 HD
ENDBRANCH  29  32
BRANCH  30  34
ATOM     34  O   UNL     1     -29.840  11.763 -27.859  1.00  0.00    -0.504 OA
ATOM     35  H   UNL     1     -30.547  11.038 -27.796  1.00  0.00     0.293 HD
ENDBRANCH  30  34
BRANCH  31  36
ATOM     36  O   UNL     1     -30.396  11.077 -30.533  1.00  0.00    -0.502 OA
ATOM     37  H   UNL     1     -30.750  11.359 -31.443  1.00  0.00     0.293 HD
ENDBRANCH  31  36
ENDBRANCH  24  26
ENDBRANCH  23  24
ENDBRANCH   2  23
BRANCH   3  38
ATOM     38  O   UNL     1     -21.528  13.279 -29.024  1.00  0.00    -0.450 OA
BRANCH  38  39
ATOM     39  C   UNL     1     -20.945  12.157 -29.624  1.00  0.00     0.338 C 
ATOM     40  O   UNL     1     -21.611  11.455 -30.433  1.00  0.00    -0.246 OA
BRANCH  39  41
ATOM     41  C   UNL     1     -19.546  11.797 -29.296  1.00  0.00     0.067 A 
ATOM     42  C   UNL     1     -19.093  11.772 -27.965  1.00  0.00     0.066 A 
ATOM     43  C   UNL     1     -18.646  11.479 -30.325  1.00  0.00     0.066 A 
ATOM     44  C   UNL     1     -17.757  11.470 -27.668  1.00  0.00     0.162 A 
ATOM     45  C   UNL     1     -17.312  11.178 -30.040  1.00  0.00     0.162 A 
ATOM     46  C   UNL     1     -16.860  11.177 -28.710  1.00  0.00     0.200 A 
BRANCH  44  47
ATOM     47  O   UNL     1     -17.314  11.460 -26.342  1.00  0.00    -0.504 OA
ATOM     48  H   UNL     1     -17.935  11.229 -25.573  1.00  0.00     0.293 HD
ENDBRANCH  44  47
BRANCH  45  49
ATOM     49  O   UNL     1     -16.446  10.875 -31.091  1.00  0.00    -0.504 OA
ATOM     50  H   UNL     1     -15.579  10.375 -30.945  1.00  0.00     0.293 HD
ENDBRANCH  45  49
BRANCH  46  51
ATOM     51  O   UNL     1     -15.524  10.882 -28.439  1.00  0.00    -0.502 OA
ATOM     52  H   UNL     1     -15.073  11.146 -27.570  1.00  0.00     0.293 HD
ENDBRANCH  46  51
ENDBRANCH  39  41
ENDBRANCH  38  39
ENDBRANCH   3  38
BRANCH   5  53
ATOM     53  O   UNL     1     -22.435  16.483 -31.805  1.00  0.00    -0.428 OA
BRANCH  53  54
ATOM     54  C   UNL     1     -23.051  17.581 -32.419  1.00  0.00     0.340 C 
ATOM     55  O   UNL     1     -23.636  17.441 -33.527  1.00  0.00    -0.246 OA
BRANCH  54  56
ATOM     56  C   UNL     1     -22.983  18.910 -31.770  1.00  0.00     0.067 A 
ATOM     57  C   UNL     1     -22.483  19.031 -30.463  1.00  0.00     0.066 A 
ATOM     58  C   UNL     1     -23.405  20.061 -32.455  1.00  0.00     0.066 A 
ATOM     59  C   UNL     1     -22.413  20.287 -29.843  1.00  0.00     0.162 A 
ATOM     60  C   UNL     1     -23.330  21.319 -31.843  1.00  0.00     0.162 A 
ATOM     61  C   UNL     1     -22.841  21.435 -30.532  1.00  0.00     0.200 A 
BRANCH  59  62
ATOM     62  O   UNL     1     -21.921  20.400 -28.545  1.00  0.00    -0.504 OA
ATOM     63  H   UNL     1     -21.219  19.764 -28.185  1.00  0.00     0.293 HD
ENDBRANCH  59  62
BRANCH  60  64
ATOM     64  O   UNL     1     -23.758  22.448 -32.542  1.00  0.00    -0.504 OA
ATOM     65  H   UNL     1     -23.116  23.181 -32.820  1.00  0.00     0.293 HD
ENDBRANCH  60  64
BRANCH  61  66
ATOM     66  O   UNL     1     -22.784  22.695 -29.931  1.00  0.00    -0.502 OA
ATOM     67  H   UNL     1     -22.893  23.553 -30.469  1.00  0.00     0.293 HD
ENDBRANCH  61  66
ENDBRANCH  54  56
ENDBRANCH  53  54
ENDBRANCH   5  53
BRANCH   4  68
ATOM     68  O   UNL     1     -20.566  14.430 -31.509  1.00  0.00    -0.448 OA
BRANCH  68  69
ATOM     69  C   UNL     1     -19.619  14.707 -30.511  1.00  0.00     0.339 C 
ATOM     70  O   UNL     1     -19.998  15.049 -29.359  1.00  0.00    -0.246 OA
BRANCH  69  71
ATOM     71  C   UNL     1     -18.176  14.559 -30.798  1.00  0.00     0.067 A 
ATOM     72  C   UNL     1     -17.228  14.655 -29.764  1.00  0.00     0.066 A 
ATOM     73  C   UNL     1     -17.735  14.315 -32.108  1.00  0.00     0.066 A 
ATOM     74  C   UNL     1     -15.863  14.478 -30.031  1.00  0.00     0.162 A 
ATOM     75  C   UNL     1     -16.372  14.151 -32.392  1.00  0.00     0.162 A 
ATOM     76  C   UNL     1     -15.427  14.214 -31.337  1.00  0.00     0.200 A 
BRANCH  74  77
ATOM     77  O   UNL     1     -14.928  14.548 -28.998  1.00  0.00    -0.504 OA
ATOM     78  H   UNL     1     -13.938  14.491 -29.178  1.00  0.00     0.293 HD
ENDBRANCH  74  77
BRANCH  75  79
ATOM     79  O   UNL     1     -16.009  13.941 -33.726  1.00  0.00    -0.504 OA
ATOM     80  H   UNL     1     -15.210  14.367 -34.168  1.00  0.00     0.293 HD
ENDBRANCH  75  79
BRANCH  76  81
ATOM     81  O   UNL     1     -14.061  14.010 -31.548  1.00  0.00    -0.502 OA
ATOM     82  H   UNL     1     -13.667  13.776 -32.442  1.00  0.00     0.293 HD
ENDBRANCH  76  81
ENDBRANCH  69  71
ENDBRANCH  68  69
ENDBRANCH   4  68
TORSDOF 31
ENDMDL
