MODEL 1
REMARK VINA RESULT:    -7.661      0.000      0.000
REMARK INTER + INTRA:          -8.841
REMARK INTER:                  -9.005
REMARK INTRA:                   0.163
REMARK UNBOUND:                 0.163
REMARK SMILES O=c1c(O)c(-c2ccc(O)cc2)oc2cc(O)cc(O)c12
REMARK SMILES IDX 5 1 3 2 2 3 1 4 21 5 19 6 18 7 16 8 15 9 14 10 13 11 6 12
REMARK SMILES IDX 7 13 8 14 9 15 12 16 11 17 10 18 4 20 20 22 17 24
REMARK H PARENT 10 19 4 21 20 23 17 25
REMARK Flexibility Score: inf
ROOT
ATOM      1  C   UNL     1      29.149  23.486  48.737  1.00  0.00     0.180 A 
ATOM      2  C   UNL     1      30.471  23.017  48.803  1.00  0.00     0.208 A 
ATOM      3  C   UNL     1      30.965  22.541  50.028  1.00  0.00     0.238 A 
ATOM      4  O   UNL     1      32.125  22.054  50.064  1.00  0.00    -0.285 OA
ATOM      5  C   UNL     1      30.149  22.591  51.184  1.00  0.00     0.111 A 
ATOM      6  C   UNL     1      30.560  22.177  52.488  1.00  0.00     0.134 A 
ATOM      7  C   UNL     1      29.631  22.173  53.536  1.00  0.00     0.093 A 
ATOM      8  C   UNL     1      28.327  22.628  53.345  1.00  0.00     0.123 A 
ATOM      9  C   UNL     1      27.930  23.086  52.089  1.00  0.00     0.094 A 
ATOM     10  C   UNL     1      28.821  23.066  51.014  1.00  0.00     0.146 A 
ATOM     11  O   UNL     1      28.396  23.491  49.830  1.00  0.00    -0.452 OA
ENDROOT
BRANCH   1  12
ATOM     12  C   UNL     1      28.552  23.991  47.478  1.00  0.00     0.021 A 
ATOM     13  C   UNL     1      29.285  24.805  46.595  1.00  0.00     0.016 A 
ATOM     14  C   UNL     1      28.708  25.250  45.401  1.00  0.00     0.047 A 
ATOM     15  C   UNL     1      27.403  24.875  45.067  1.00  0.00     0.115 A 
ATOM     16  C   UNL     1      27.250  23.601  47.126  1.00  0.00     0.016 A 
ATOM     17  C   UNL     1      26.676  24.047  45.932  1.00  0.00     0.047 A 
BRANCH  15  18
ATOM     18  O   UNL     1      26.842  25.326  43.875  1.00  0.00    -0.508 OA
ATOM     19  H   UNL     1      27.152  26.186  43.437  1.00  0.00     0.293 HD
ENDBRANCH  15  18
ENDBRANCH   1  12
BRANCH   2  20
ATOM     20  O   UNL     1      31.286  23.047  47.667  1.00  0.00    -0.502 OA
ATOM     21  H   UNL     1      31.741  22.219  47.302  1.00  0.00     0.293 HD
ENDBRANCH   2  20
BRANCH   6  22
ATOM     22  O   UNL     1      31.863  21.789  52.811  1.00  0.00    -0.507 OA
ATOM     23  H   UNL     1      32.402  22.156  53.580  1.00  0.00     0.293 HD
ENDBRANCH   6  22
BRANCH   8  24
ATOM     24  O   UNL     1      27.435  22.625  54.415  1.00  0.00    -0.508 OA
ATOM     25  H   UNL     1      27.439  21.884  55.107  1.00  0.00     0.293 HD
ENDBRANCH   8  24
TORSDOF 5
ENDMDL
MODEL 2
REMARK VINA RESULT:    -7.005      1.728      7.030
REMARK INTER + INTRA:          -8.070
REMARK INTER:                  -7.855
REMARK INTRA:                  -0.215
REMARK UNBOUND:                 0.163
REMARK SMILES O=c1c(O)c(-c2ccc(O)cc2)oc2cc(O)cc(O)c12
REMARK SMILES IDX 5 1 3 2 2 3 1 4 21 5 19 6 18 7 16 8 15 9 14 10 13 11 6 12
REMARK SMILES IDX 7 13 8 14 9 15 12 16 11 17 10 18 4 20 20 22 17 24
REMARK H PARENT 10 19 4 21 20 23 17 25
REMARK Flexibility Score: inf
ROOT
ATOM      1  C   UNL     1      29.297  22.903  50.297  1.00  0.00     0.180 A 
ATOM      2  C   UNL     1      27.942  22.588  50.104  1.00  0.00     0.208 A 
ATOM      3  C   UNL     1      27.322  22.956  48.899  1.00  0.00     0.238 A 
ATOM      4  O   UNL     1      26.129  22.606  48.703  1.00  0.00    -0.285 OA
ATOM      5  C   UNL     1      28.048  23.683  47.926  1.00  0.00     0.111 A 
ATOM      6  C   UNL     1      27.508  24.148  46.687  1.00  0.00     0.134 A 
ATOM      7  C   UNL     1      28.352  24.765  45.755  1.00  0.00     0.093 A 
ATOM      8  C   UNL     1      29.697  24.993  46.040  1.00  0.00     0.123 A 
ATOM      9  C   UNL     1      30.223  24.593  47.268  1.00  0.00     0.094 A 
ATOM     10  C   UNL     1      29.417  23.940  48.204  1.00  0.00     0.146 A 
ATOM     11  O   UNL     1      29.962  23.557  49.352  1.00  0.00    -0.452 OA
ENDROOT
BRANCH   1  12
ATOM     12  C   UNL     1      30.025  22.535  51.534  1.00  0.00     0.021 A 
ATOM     13  C   UNL     1      30.990  21.511  51.540  1.00  0.00     0.016 A 
ATOM     14  C   UNL     1      31.681  21.199  52.715  1.00  0.00     0.047 A 
ATOM     15  C   UNL     1      31.430  21.912  53.890  1.00  0.00     0.115 A 
ATOM     16  C   UNL     1      29.793  23.262  52.713  1.00  0.00     0.016 A 
ATOM     17  C   UNL     1      30.486  22.947  53.886  1.00  0.00     0.047 A 
BRANCH  15  18
ATOM     18  O   UNL     1      32.125  21.589  55.053  1.00  0.00    -0.508 OA
ATOM     19  H   UNL     1      32.378  20.632  55.269  1.00  0.00     0.293 HD
ENDBRANCH  15  18
ENDBRANCH   1  12
BRANCH   2  20
ATOM     20  O   UNL     1      27.221  21.937  51.109  1.00  0.00    -0.502 OA
ATOM     21  H   UNL     1      26.433  21.333  50.909  1.00  0.00     0.293 HD
ENDBRANCH   2  20
BRANCH   6  22
ATOM     22  O   UNL     1      26.158  24.052  46.337  1.00  0.00    -0.507 OA
ATOM     23  H   UNL     1      25.571  23.251  46.511  1.00  0.00     0.293 HD
ENDBRANCH   6  22
BRANCH   8  24
ATOM     24  O   UNL     1      30.502  25.625  45.094  1.00  0.00    -0.508 OA
ATOM     25  H   UNL     1      31.513  25.587  45.148  1.00  0.00     0.293 HD
ENDBRANCH   8  24
TORSDOF 5
ENDMDL
MODEL 3
REMARK VINA RESULT:    -6.935      1.752      2.854
REMARK INTER + INTRA:          -7.987
REMARK INTER:                  -8.484
REMARK INTRA:                   0.497
REMARK UNBOUND:                 0.163
REMARK SMILES O=c1c(O)c(-c2ccc(O)cc2)oc2cc(O)cc(O)c12
REMARK SMILES IDX 5 1 3 2 2 3 1 4 21 5 19 6 18 7 16 8 15 9 14 10 13 11 6 12
REMARK SMILES IDX 7 13 8 14 9 15 12 16 11 17 10 18 4 20 20 22 17 24
REMARK H PARENT 10 19 4 21 20 23 17 25
REMARK Flexibility Score: inf
ROOT
ATOM      1  C   UNL     1      27.872  23.520  49.203  1.00  0.00     0.180 A 
ATOM      2  C   UNL     1      26.847  22.668  49.645  1.00  0.00     0.208 A 
ATOM      3  C   UNL     1      26.843  22.243  50.983  1.00  0.00     0.238 A 
ATOM      4  O   UNL     1      25.882  21.540  51.391  1.00  0.00    -0.285 OA
ATOM      5  C   UNL     1      27.895  22.630  51.848  1.00  0.00     0.111 A 
ATOM      6  C   UNL     1      28.018  22.222  53.212  1.00  0.00     0.134 A 
ATOM      7  C   UNL     1      29.045  22.753  54.001  1.00  0.00     0.093 A 
ATOM      8  C   UNL     1      29.990  23.626  53.464  1.00  0.00     0.123 A 
ATOM      9  C   UNL     1      29.912  23.988  52.119  1.00  0.00     0.094 A 
ATOM     10  C   UNL     1      28.877  23.505  51.314  1.00  0.00     0.146 A 
ATOM     11  O   UNL     1      28.828  23.893  50.046  1.00  0.00    -0.452 OA
ENDROOT
BRANCH   1  12
ATOM     12  C   UNL     1      27.936  24.022  47.811  1.00  0.00     0.021 A 
ATOM     13  C   UNL     1      29.133  24.525  47.268  1.00  0.00     0.016 A 
ATOM     14  C   UNL     1      29.174  24.972  45.943  1.00  0.00     0.047 A 
ATOM     15  C   UNL     1      28.031  24.906  45.142  1.00  0.00     0.115 A 
ATOM     16  C   UNL     1      26.797  23.940  46.993  1.00  0.00     0.016 A 
ATOM     17  C   UNL     1      26.842  24.387  45.670  1.00  0.00     0.047 A 
BRANCH  15  18
ATOM     18  O   UNL     1      28.087  25.355  43.824  1.00  0.00    -0.508 OA
ATOM     19  H   UNL     1      27.319  25.206  43.181  1.00  0.00     0.293 HD
ENDBRANCH  15  18
ENDBRANCH   1  12
BRANCH   2  20
ATOM     20  O   UNL     1      25.859  22.235  48.755  1.00  0.00    -0.502 OA
ATOM     21  H   UNL     1      24.952  21.907  49.066  1.00  0.00     0.293 HD
ENDBRANCH   2  20
BRANCH   6  22
ATOM     22  O   UNL     1      27.182  21.285  53.827  1.00  0.00    -0.507 OA
ATOM     23  H   UNL     1      27.385  20.808  54.691  1.00  0.00     0.293 HD
ENDBRANCH   6  22
BRANCH   8  24
ATOM     24  O   UNL     1      31.007  24.122  54.276  1.00  0.00    -0.508 OA
ATOM     25  H   UNL     1      31.898  23.646  54.359  1.00  0.00     0.293 HD
ENDBRANCH   8  24
TORSDOF 5
ENDMDL
MODEL 4
REMARK VINA RESULT:    -6.386     12.998     15.730
REMARK INTER + INTRA:          -7.342
REMARK INTER:                  -7.045
REMARK INTRA:                  -0.297
REMARK UNBOUND:                 0.163
REMARK SMILES O=c1c(O)c(-c2ccc(O)cc2)oc2cc(O)cc(O)c12
REMARK SMILES IDX 5 1 3 2 2 3 1 4 21 5 19 6 18 7 16 8 15 9 14 10 13 11 6 12
REMARK SMILES IDX 7 13 8 14 9 15 12 16 11 17 10 18 4 20 20 22 17 24
REMARK H PARENT 10 19 4 21 20 23 17 25
REMARK Flexibility Score: inf
ROOT
ATOM      1  C   UNL     1      16.374  28.913  52.102  1.00  0.00     0.180 A 
ATOM      2  C   UNL     1      15.059  29.021  52.586  1.00  0.00     0.208 A 
ATOM      3  C   UNL     1      13.996  28.609  51.766  1.00  0.00     0.238 A 
ATOM      4  O   UNL     1      12.828  28.639  52.233  1.00  0.00    -0.285 OA
ATOM      5  C   UNL     1      14.256  28.149  50.453  1.00  0.00     0.111 A 
ATOM      6  C   UNL     1      13.252  27.748  49.518  1.00  0.00     0.134 A 
ATOM      7  C   UNL     1      13.634  27.209  48.284  1.00  0.00     0.093 A 
ATOM      8  C   UNL     1      14.977  27.115  47.922  1.00  0.00     0.123 A 
ATOM      9  C   UNL     1      15.964  27.554  48.806  1.00  0.00     0.094 A 
ATOM     10  C   UNL     1      15.617  28.061  50.060  1.00  0.00     0.146 A 
ATOM     11  O   UNL     1      16.589  28.447  50.878  1.00  0.00    -0.452 OA
ENDROOT
BRANCH   1  12
ATOM     12  C   UNL     1      17.548  29.313  52.912  1.00  0.00     0.021 A 
ATOM     13  C   UNL     1      18.202  28.396  53.756  1.00  0.00     0.016 A 
ATOM     14  C   UNL     1      19.323  28.791  54.493  1.00  0.00     0.047 A 
ATOM     15  C   UNL     1      19.814  30.095  54.384  1.00  0.00     0.115 A 
ATOM     16  C   UNL     1      18.060  30.615  52.791  1.00  0.00     0.016 A 
ATOM     17  C   UNL     1      19.181  31.006  53.529  1.00  0.00     0.047 A 
BRANCH  15  18
ATOM     18  O   UNL     1      20.931  30.474  55.125  1.00  0.00    -0.508 OA
ATOM     19  H   UNL     1      21.311  31.411  55.068  1.00  0.00     0.293 HD
ENDBRANCH  15  18
ENDBRANCH   1  12
BRANCH   2  20
ATOM     20  O   UNL     1      14.818  29.550  53.857  1.00  0.00    -0.502 OA
ATOM     21  H   UNL     1      14.674  30.539  54.016  1.00  0.00     0.293 HD
ENDBRANCH   2  20
BRANCH   6  22
ATOM     22  O   UNL     1      11.878  27.882  49.740  1.00  0.00    -0.507 OA
ATOM     23  H   UNL     1      11.363  27.419  50.473  1.00  0.00     0.293 HD
ENDBRANCH   6  22
BRANCH   8  24
ATOM     24  O   UNL     1      15.319  26.588  46.679  1.00  0.00    -0.508 OA
ATOM     25  H   UNL     1      14.679  26.626  45.894  1.00  0.00     0.293 HD
ENDBRANCH   8  24
TORSDOF 5
ENDMDL
MODEL 5
REMARK VINA RESULT:    -6.298     11.576     13.252
REMARK INTER + INTRA:          -7.240
REMARK INTER:                  -7.014
REMARK INTRA:                  -0.226
REMARK UNBOUND:                 0.163
REMARK SMILES O=c1c(O)c(-c2ccc(O)cc2)oc2cc(O)cc(O)c12
REMARK SMILES IDX 5 1 3 2 2 3 1 4 21 5 19 6 18 7 16 8 15 9 14 10 13 11 6 12
REMARK SMILES IDX 7 13 8 14 9 15 12 16 11 17 10 18 4 20 20 22 17 24
REMARK H PARENT 10 19 4 21 20 23 17 25
REMARK Flexibility Score: inf
ROOT
ATOM      1  C   UNL     1      16.375  26.670  51.428  1.00  0.00     0.180 A 
ATOM      2  C   UNL     1      17.170  27.486  52.249  1.00  0.00     0.208 A 
ATOM      3  C   UNL     1      18.146  26.889  53.063  1.00  0.00     0.238 A 
ATOM      4  O   UNL     1      18.904  27.632  53.740  1.00  0.00    -0.285 OA
ATOM      5  C   UNL     1      18.277  25.480  53.088  1.00  0.00     0.111 A 
ATOM      6  C   UNL     1      19.202  24.764  53.909  1.00  0.00     0.134 A 
ATOM      7  C   UNL     1      19.315  23.375  53.771  1.00  0.00     0.093 A 
ATOM      8  C   UNL     1      18.495  22.668  52.891  1.00  0.00     0.123 A 
ATOM      9  C   UNL     1      17.551  23.351  52.125  1.00  0.00     0.094 A 
ATOM     10  C   UNL     1      17.440  24.741  52.211  1.00  0.00     0.146 A 
ATOM     11  O   UNL     1      16.543  25.353  51.448  1.00  0.00    -0.452 OA
ENDROOT
BRANCH   1  12
ATOM     12  C   UNL     1      15.335  27.226  50.531  1.00  0.00     0.021 A 
ATOM     13  C   UNL     1      14.113  27.707  51.036  1.00  0.00     0.016 A 
ATOM     14  C   UNL     1      13.156  28.250  50.173  1.00  0.00     0.047 A 
ATOM     15  C   UNL     1      13.413  28.333  48.801  1.00  0.00     0.115 A 
ATOM     16  C   UNL     1      15.594  27.332  49.155  1.00  0.00     0.016 A 
ATOM     17  C   UNL     1      14.636  27.875  48.294  1.00  0.00     0.047 A 
BRANCH  15  18
ATOM     18  O   UNL     1      12.450  28.875  47.953  1.00  0.00    -0.508 OA
ATOM     19  H   UNL     1      11.801  28.286  47.444  1.00  0.00     0.293 HD
ENDBRANCH  15  18
ENDBRANCH   1  12
BRANCH   2  20
ATOM     20  O   UNL     1      16.974  28.870  52.267  1.00  0.00    -0.502 OA
ATOM     21  H   UNL     1      16.298  29.316  52.876  1.00  0.00     0.293 HD
ENDBRANCH   2  20
BRANCH   6  22
ATOM     22  O   UNL     1      20.006  25.360  54.884  1.00  0.00    -0.507 OA
ATOM     23  H   UNL     1      20.029  26.346  55.092  1.00  0.00     0.293 HD
ENDBRANCH   6  22
BRANCH   8  24
ATOM     24  O   UNL     1      18.625  21.285  52.793  1.00  0.00    -0.508 OA
ATOM     25  H   UNL     1      18.098  20.659  53.391  1.00  0.00     0.293 HD
ENDBRANCH   8  24
TORSDOF 5
ENDMDL
MODEL 6
REMARK VINA RESULT:    -6.144     13.713     16.148
REMARK INTER + INTRA:          -7.057
REMARK INTER:                  -7.227
REMARK INTRA:                   0.170
REMARK UNBOUND:                 0.163
REMARK SMILES O=c1c(O)c(-c2ccc(O)cc2)oc2cc(O)cc(O)c12
REMARK SMILES IDX 5 1 3 2 2 3 1 4 21 5 19 6 18 7 16 8 15 9 14 10 13 11 6 12
REMARK SMILES IDX 7 13 8 14 9 15 12 16 11 17 10 18 4 20 20 22 17 24
REMARK H PARENT 10 19 4 21 20 23 17 25
REMARK Flexibility Score: inf
ROOT
ATOM      1  C   UNL     1      15.885  21.722  43.213  1.00  0.00     0.180 A 
ATOM      2  C   UNL     1      17.239  21.924  42.901  1.00  0.00     0.208 A 
ATOM      3  C   UNL     1      17.588  22.964  42.024  1.00  0.00     0.238 A 
ATOM      4  O   UNL     1      18.808  23.186  41.807  1.00  0.00    -0.285 OA
ATOM      5  C   UNL     1      16.575  23.753  41.428  1.00  0.00     0.111 A 
ATOM      6  C   UNL     1      16.810  24.805  40.490  1.00  0.00     0.134 A 
ATOM      7  C   UNL     1      15.737  25.587  40.047  1.00  0.00     0.093 A 
ATOM      8  C   UNL     1      14.431  25.318  40.455  1.00  0.00     0.123 A 
ATOM      9  C   UNL     1      14.183  24.258  41.328  1.00  0.00     0.094 A 
ATOM     10  C   UNL     1      15.237  23.483  41.818  1.00  0.00     0.146 A 
ATOM     11  O   UNL     1      14.959  22.498  42.664  1.00  0.00    -0.452 OA
ENDROOT
BRANCH   1  12
ATOM     12  C   UNL     1      15.439  20.655  44.140  1.00  0.00     0.021 A 
ATOM     13  C   UNL     1      16.023  19.375  44.119  1.00  0.00     0.016 A 
ATOM     14  C   UNL     1      15.602  18.392  45.020  1.00  0.00     0.047 A 
ATOM     15  C   UNL     1      14.608  18.678  45.960  1.00  0.00     0.115 A 
ATOM     16  C   UNL     1      14.457  20.942  45.102  1.00  0.00     0.016 A 
ATOM     17  C   UNL     1      14.038  19.957  46.001  1.00  0.00     0.047 A 
BRANCH  15  18
ATOM     18  O   UNL     1      14.198  17.688  46.850  1.00  0.00    -0.508 OA
ATOM     19  H   UNL     1      13.344  17.163  46.702  1.00  0.00     0.293 HD
ENDBRANCH  15  18
ENDBRANCH   1  12
BRANCH   2  20
ATOM     20  O   UNL     1      18.219  21.086  43.441  1.00  0.00    -0.502 OA
ATOM     21  H   UNL     1      18.637  21.251  44.348  1.00  0.00     0.293 HD
ENDBRANCH   2  20
BRANCH   6  22
ATOM     22  O   UNL     1      18.063  25.103  39.947  1.00  0.00    -0.507 OA
ATOM     23  H   UNL     1      18.281  25.105  38.962  1.00  0.00     0.293 HD
ENDBRANCH   6  22
BRANCH   8  24
ATOM     24  O   UNL     1      13.386  26.107  39.981  1.00  0.00    -0.508 OA
ATOM     25  H   UNL     1      13.554  27.020  39.575  1.00  0.00     0.293 HD
ENDBRANCH   8  24
TORSDOF 5
ENDMDL
MODEL 7
REMARK VINA RESULT:    -6.100     12.729     14.353
REMARK INTER + INTRA:          -7.006
REMARK INTER:                  -6.825
REMARK INTRA:                  -0.181
REMARK UNBOUND:                 0.163
REMARK SMILES O=c1c(O)c(-c2ccc(O)cc2)oc2cc(O)cc(O)c12
REMARK SMILES IDX 5 1 3 2 2 3 1 4 21 5 19 6 18 7 16 8 15 9 14 10 13 11 6 12
REMARK SMILES IDX 7 13 8 14 9 15 12 16 11 17 10 18 4 20 20 22 17 24
REMARK H PARENT 10 19 4 21 20 23 17 25
REMARK Flexibility Score: inf
ROOT
ATOM      1  C   UNL     1      15.679  27.890  51.181  1.00  0.00     0.180 A 
ATOM      2  C   UNL     1      16.292  26.678  51.541  1.00  0.00     0.208 A 
ATOM      3  C   UNL     1      17.226  26.672  52.589  1.00  0.00     0.238 A 
ATOM      4  O   UNL     1      17.716  25.571  52.954  1.00  0.00    -0.285 OA
ATOM      5  C   UNL     1      17.578  27.885  53.227  1.00  0.00     0.111 A 
ATOM      6  C   UNL     1      18.546  28.004  54.271  1.00  0.00     0.134 A 
ATOM      7  C   UNL     1      18.734  29.241  54.900  1.00  0.00     0.093 A 
ATOM      8  C   UNL     1      18.039  30.376  54.483  1.00  0.00     0.123 A 
ATOM      9  C   UNL     1      17.131  30.282  53.428  1.00  0.00     0.094 A 
ATOM     10  C   UNL     1      16.893  29.055  52.805  1.00  0.00     0.146 A 
ATOM     11  O   UNL     1      16.005  29.007  51.820  1.00  0.00    -0.452 OA
ENDROOT
BRANCH   1  12
ATOM     12  C   UNL     1      14.674  27.974  50.096  1.00  0.00     0.021 A 
ATOM     13  C   UNL     1      13.323  28.257  50.370  1.00  0.00     0.016 A 
ATOM     14  C   UNL     1      12.397  28.356  49.326  1.00  0.00     0.047 A 
ATOM     15  C   UNL     1      12.809  28.190  48.001  1.00  0.00     0.115 A 
ATOM     16  C   UNL     1      15.085  27.830  48.761  1.00  0.00     0.016 A 
ATOM     17  C   UNL     1      14.156  27.929  47.721  1.00  0.00     0.047 A 
BRANCH  15  18
ATOM     18  O   UNL     1      11.875  28.290  46.973  1.00  0.00    -0.508 OA
ATOM     19  H   UNL     1      11.005  27.771  46.996  1.00  0.00     0.293 HD
ENDBRANCH  15  18
ENDBRANCH   1  12
BRANCH   2  20
ATOM     20  O   UNL     1      15.988  25.502  50.847  1.00  0.00    -0.502 OA
ATOM     21  H   UNL     1      16.610  25.103  50.154  1.00  0.00     0.293 HD
ENDBRANCH   2  20
BRANCH   6  22
ATOM     22  O   UNL     1      19.361  26.955  54.706  1.00  0.00    -0.507 OA
ATOM     23  H   UNL     1      20.093  27.038  55.394  1.00  0.00     0.293 HD
ENDBRANCH   6  22
BRANCH   8  24
ATOM     24  O   UNL     1      18.264  31.593  55.122  1.00  0.00    -0.508 OA
ATOM     25  H   UNL     1      17.674  32.398  54.951  1.00  0.00     0.293 HD
ENDBRANCH   8  24
TORSDOF 5
ENDMDL
MODEL 8
REMARK VINA RESULT:    -5.954     12.404     15.734
REMARK INTER + INTRA:          -6.835
REMARK INTER:                  -6.683
REMARK INTRA:                  -0.152
REMARK UNBOUND:                 0.163
REMARK SMILES O=c1c(O)c(-c2ccc(O)cc2)oc2cc(O)cc(O)c12
REMARK SMILES IDX 5 1 3 2 2 3 1 4 21 5 19 6 18 7 16 8 15 9 14 10 13 11 6 12
REMARK SMILES IDX 7 13 8 14 9 15 12 16 11 17 10 18 4 20 20 22 17 24
REMARK H PARENT 10 19 4 21 20 23 17 25
REMARK Flexibility Score: inf
ROOT
ATOM      1  C   UNL     1      17.830  24.616  37.817  1.00  0.00     0.180 A 
ATOM      2  C   UNL     1      18.817  23.860  37.164  1.00  0.00     0.208 A 
ATOM      3  C   UNL     1      19.671  23.049  37.929  1.00  0.00     0.238 A 
ATOM      4  O   UNL     1      20.505  22.319  37.332  1.00  0.00    -0.285 OA
ATOM      5  C   UNL     1      19.564  23.048  39.341  1.00  0.00     0.111 A 
ATOM      6  C   UNL     1      20.406  22.299  40.219  1.00  0.00     0.134 A 
ATOM      7  C   UNL     1      20.137  22.292  41.593  1.00  0.00     0.093 A 
ATOM      8  C   UNL     1      19.101  23.056  42.129  1.00  0.00     0.123 A 
ATOM      9  C   UNL     1      18.307  23.833  41.287  1.00  0.00     0.094 A 
ATOM     10  C   UNL     1      18.524  23.831  39.907  1.00  0.00     0.146 A 
ATOM     11  O   UNL     1      17.731  24.569  39.140  1.00  0.00    -0.452 OA
ENDROOT
BRANCH   1  12
ATOM     12  C   UNL     1      16.883  25.484  37.078  1.00  0.00     0.021 A 
ATOM     13  C   UNL     1      17.324  26.624  36.382  1.00  0.00     0.016 A 
ATOM     14  C   UNL     1      16.414  27.414  35.672  1.00  0.00     0.047 A 
ATOM     15  C   UNL     1      15.060  27.068  35.635  1.00  0.00     0.115 A 
ATOM     16  C   UNL     1      15.525  25.130  37.018  1.00  0.00     0.016 A 
ATOM     17  C   UNL     1      14.618  25.922  36.308  1.00  0.00     0.047 A 
BRANCH  15  18
ATOM     18  O   UNL     1      14.166  27.865  34.924  1.00  0.00    -0.508 OA
ATOM     19  H   UNL     1      13.232  28.050  35.270  1.00  0.00     0.293 HD
ENDBRANCH  15  18
ENDBRANCH   1  12
BRANCH   2  20
ATOM     20  O   UNL     1      18.957  23.934  35.775  1.00  0.00    -0.502 OA
ATOM     21  H   UNL     1      18.324  23.466  35.138  1.00  0.00     0.293 HD
ENDBRANCH   2  20
BRANCH   6  22
ATOM     22  O   UNL     1      21.524  21.572  39.800  1.00  0.00    -0.507 OA
ATOM     23  H   UNL     1      21.685  21.250  38.858  1.00  0.00     0.293 HD
ENDBRANCH   6  22
BRANCH   8  24
ATOM     24  O   UNL     1      18.874  23.037  43.503  1.00  0.00    -0.508 OA
ATOM     25  H   UNL     1      18.106  23.550  43.921  1.00  0.00     0.293 HD
ENDBRANCH   8  24
TORSDOF 5
ENDMDL
MODEL 9
REMARK VINA RESULT:    -5.797     11.553     13.908
REMARK INTER + INTRA:          -6.650
REMARK INTER:                  -6.633
REMARK INTRA:                  -0.017
REMARK UNBOUND:                 0.163
REMARK SMILES O=c1c(O)c(-c2ccc(O)cc2)oc2cc(O)cc(O)c12
REMARK SMILES IDX 5 1 3 2 2 3 1 4 21 5 19 6 18 7 16 8 15 9 14 10 13 11 6 12
REMARK SMILES IDX 7 13 8 14 9 15 12 16 11 17 10 18 4 20 20 22 17 24
REMARK H PARENT 10 19 4 21 20 23 17 25
REMARK Flexibility Score: inf
ROOT
ATOM      1  C   UNL     1      17.358  25.963  53.264  1.00  0.00     0.180 A 
ATOM      2  C   UNL     1      16.026  26.299  53.557  1.00  0.00     0.208 A 
ATOM      3  C   UNL     1      15.719  27.623  53.907  1.00  0.00     0.238 A 
ATOM      4  O   UNL     1      14.514  27.933  54.097  1.00  0.00    -0.285 OA
ATOM      5  C   UNL     1      16.754  28.583  54.014  1.00  0.00     0.111 A 
ATOM      6  C   UNL     1      16.565  29.944  54.405  1.00  0.00     0.134 A 
ATOM      7  C   UNL     1      17.649  30.829  54.372  1.00  0.00     0.093 A 
ATOM      8  C   UNL     1      18.927  30.391  54.026  1.00  0.00     0.123 A 
ATOM      9  C   UNL     1      19.134  29.052  53.696  1.00  0.00     0.094 A 
ATOM     10  C   UNL     1      18.066  28.152  53.682  1.00  0.00     0.146 A 
ATOM     11  O   UNL     1      18.304  26.892  53.340  1.00  0.00    -0.452 OA
ENDROOT
BRANCH   1  12
ATOM     12  C   UNL     1      17.759  24.591  52.873  1.00  0.00     0.021 A 
ATOM     13  C   UNL     1      17.120  23.914  51.818  1.00  0.00     0.016 A 
ATOM     14  C   UNL     1      17.532  22.629  51.452  1.00  0.00     0.047 A 
ATOM     15  C   UNL     1      18.593  22.012  52.121  1.00  0.00     0.115 A 
ATOM     16  C   UNL     1      18.837  23.974  53.527  1.00  0.00     0.016 A 
ATOM     17  C   UNL     1      19.247  22.689  53.158  1.00  0.00     0.047 A 
BRANCH  15  18
ATOM     18  O   UNL     1      18.991  20.731  51.746  1.00  0.00    -0.508 OA
ATOM     19  H   UNL     1      18.486  19.908  52.054  1.00  0.00     0.293 HD
ENDBRANCH  15  18
ENDBRANCH   1  12
BRANCH   2  20
ATOM     20  O   UNL     1      15.029  25.320  53.521  1.00  0.00    -0.502 OA
ATOM     21  H   UNL     1      15.133  24.420  53.975  1.00  0.00     0.293 HD
ENDBRANCH   2  20
BRANCH   6  22
ATOM     22  O   UNL     1      15.349  30.467  54.854  1.00  0.00    -0.507 OA
ATOM     23  H   UNL     1      15.107  30.618  55.822  1.00  0.00     0.293 HD
ENDBRANCH   6  22
BRANCH   8  24
ATOM     24  O   UNL     1      19.985  31.297  54.021  1.00  0.00    -0.508 OA
ATOM     25  H   UNL     1      20.949  30.985  54.000  1.00  0.00     0.293 HD
ENDBRANCH   8  24
TORSDOF 5
ENDMDL
