MODEL 1
REMARK VINA RESULT:    -4.689      0.000      0.000
REMARK INTER + INTRA:          -7.596
REMARK INTER:                  -7.155
REMARK INTRA:                  -0.440
REMARK UNBOUND:                -0.440
REMARK SMILES CCCCCCCCCCC(=O)[O-]
REMARK SMILES IDX 7 1 8 2 9 3 10 4 11 5 12 6 13 7 6 8 5 9 4 10 3 11 2 12 1 13
REMARK H PARENT
REMARK Flexibility Score: inf
ROOT
ATOM      1  C   UNL     1      31.135  -5.294 -15.739  1.00  0.00     0.000 C 
ENDROOT
BRANCH   1   2
ATOM      2  C   UNL     1      30.147  -6.422 -15.395  1.00  0.00     0.000 C 
BRANCH   2   3
ATOM      3  C   UNL     1      29.534  -6.262 -13.994  1.00  0.00     0.006 C 
BRANCH   3   4
ATOM      4  C   UNL     1      30.243  -7.116 -12.935  1.00  0.00     0.053 C 
BRANCH   4   5
ATOM      5  C   UNL     1      31.324  -6.326 -12.267  1.00  0.00     0.041 C 
ATOM      6  O   UNL     1      31.126  -5.125 -11.948  1.00  0.00    -0.550 OA
ATOM      7  O   UNL     1      32.567  -6.903 -12.041  1.00  0.00    -0.550 OA
ENDBRANCH   4   5
ENDBRANCH   3   4
ENDBRANCH   2   3
ENDBRANCH   1   2
BRANCH   1   8
ATOM      8  C   UNL     1      32.529  -5.819 -16.128  1.00  0.00     0.000 C 
BRANCH   8   9
ATOM      9  C   UNL     1      33.251  -5.014 -17.228  1.00  0.00    -0.000 C 
BRANCH   9  10
ATOM     10  C   UNL     1      34.628  -5.564 -17.642  1.00  0.00    -0.000 C 
BRANCH  10  11
ATOM     11  C   UNL     1      35.744  -4.514 -17.549  1.00  0.00    -0.000 C 
BRANCH  11  12
ATOM     12  C   UNL     1      36.815  -4.941 -16.540  1.00  0.00    -0.003 C 
ATOM     13  C   UNL     1      37.361  -6.328 -16.869  1.00  0.00     0.004 C 
ENDBRANCH  11  12
ENDBRANCH  10  11
ENDBRANCH   9  10
ENDBRANCH   8   9
ENDBRANCH   1   8
TORSDOF 9
ENDMDL
MODEL 2
REMARK VINA RESULT:    -4.575      2.910      6.087
REMARK INTER + INTRA:          -7.422
REMARK INTER:                  -7.082
REMARK INTRA:                  -0.340
REMARK UNBOUND:                -0.440
REMARK SMILES CCCCCCCCCCC(=O)[O-]
REMARK SMILES IDX 7 1 8 2 9 3 10 4 11 5 12 6 13 7 6 8 5 9 4 10 3 11 2 12 1 13
REMARK H PARENT
REMARK Flexibility Score: inf
ROOT
ATOM      1  C   UNL     1      31.824  -5.134 -16.542  1.00  0.00     0.000 C 
ENDROOT
BRANCH   1   2
ATOM      2  C   UNL     1      33.309  -5.525 -16.450  1.00  0.00     0.000 C 
BRANCH   2   3
ATOM      3  C   UNL     1      34.067  -5.277 -17.764  1.00  0.00     0.006 C 
BRANCH   3   4
ATOM      4  C   UNL     1      35.483  -5.866 -17.752  1.00  0.00     0.053 C 
BRANCH   4   5
ATOM      5  C   UNL     1      36.445  -4.897 -17.140  1.00  0.00     0.041 C 
ATOM      6  O   UNL     1      36.431  -3.687 -17.485  1.00  0.00    -0.550 OA
ATOM      7  O   UNL     1      37.391  -5.341 -16.225  1.00  0.00    -0.550 OA
ENDBRANCH   4   5
ENDBRANCH   3   4
ENDBRANCH   2   3
ENDBRANCH   1   2
BRANCH   1   8
ATOM      8  C   UNL     1      31.034  -5.485 -15.269  1.00  0.00     0.000 C 
BRANCH   8   9
ATOM      9  C   UNL     1      29.991  -6.609 -15.430  1.00  0.00    -0.000 C 
BRANCH   9  10
ATOM     10  C   UNL     1      29.955  -7.636 -14.284  1.00  0.00    -0.000 C 
BRANCH  10  11
ATOM     11  C   UNL     1      30.052  -6.987 -12.896  1.00  0.00    -0.000 C 
BRANCH  11  12
ATOM     12  C   UNL     1      31.483  -7.068 -12.353  1.00  0.00    -0.003 C 
ATOM     13  C   UNL     1      31.896  -5.756 -11.691  1.00  0.00     0.004 C 
ENDBRANCH  11  12
ENDBRANCH  10  11
ENDBRANCH   9  10
ENDBRANCH   8   9
ENDBRANCH   1   8
TORSDOF 9
ENDMDL
MODEL 3
REMARK VINA RESULT:    -4.496      3.148      6.405
REMARK INTER + INTRA:          -7.301
REMARK INTER:                  -6.922
REMARK INTRA:                  -0.379
REMARK UNBOUND:                -0.440
REMARK SMILES CCCCCCCCCCC(=O)[O-]
REMARK SMILES IDX 7 1 8 2 9 3 10 4 11 5 12 6 13 7 6 8 5 9 4 10 3 11 2 12 1 13
REMARK H PARENT
REMARK Flexibility Score: inf
ROOT
ATOM      1  C   UNL     1      33.162  -5.472 -16.485  1.00  0.00     0.000 C 
ENDROOT
BRANCH   1   2
ATOM      2  C   UNL     1      33.726  -5.077 -17.861  1.00  0.00     0.000 C 
BRANCH   2   3
ATOM      3  C   UNL     1      35.019  -5.832 -18.207  1.00  0.00     0.006 C 
BRANCH   3   4
ATOM      4  C   UNL     1      35.885  -6.121 -16.974  1.00  0.00     0.053 C 
BRANCH   4   5
ATOM      5  C   UNL     1      36.965  -5.094 -16.843  1.00  0.00     0.041 C 
ATOM      6  O   UNL     1      37.966  -5.316 -16.114  1.00  0.00    -0.550 OA
ATOM      7  O   UNL     1      36.841  -3.870 -17.489  1.00  0.00    -0.550 OA
ENDBRANCH   4   5
ENDBRANCH   3   4
ENDBRANCH   2   3
ENDBRANCH   1   2
BRANCH   1   8
ATOM      8  C   UNL     1      31.672  -5.119 -16.326  1.00  0.00     0.000 C 
BRANCH   8   9
ATOM      9  C   UNL     1      31.038  -5.532 -14.982  1.00  0.00    -0.000 C 
BRANCH   9  10
ATOM     10  C   UNL     1      29.758  -6.380 -15.097  1.00  0.00    -0.000 C 
BRANCH  10  11
ATOM     11  C   UNL     1      29.583  -7.359 -13.927  1.00  0.00    -0.000 C 
BRANCH  11  12
ATOM     12  C   UNL     1      29.758  -8.808 -14.394  1.00  0.00    -0.003 C 
ATOM     13  C   UNL     1      29.827  -8.892 -15.916  1.00  0.00     0.004 C 
ENDBRANCH  11  12
ENDBRANCH  10  11
ENDBRANCH   9  10
ENDBRANCH   8   9
ENDBRANCH   1   8
TORSDOF 9
ENDMDL
MODEL 4
REMARK VINA RESULT:    -4.331      2.770      5.908
REMARK INTER + INTRA:          -7.050
REMARK INTER:                  -6.426
REMARK INTRA:                  -0.624
REMARK UNBOUND:                -0.440
REMARK SMILES CCCCCCCCCCC(=O)[O-]
REMARK SMILES IDX 7 1 8 2 9 3 10 4 11 5 12 6 13 7 6 8 5 9 4 10 3 11 2 12 1 13
REMARK H PARENT
REMARK Flexibility Score: inf
ROOT
ATOM      1  C   UNL     1      31.172  -5.311 -15.768  1.00  0.00     0.000 C 
ENDROOT
BRANCH   1   2
ATOM      2  C   UNL     1      32.585  -5.799 -16.133  1.00  0.00     0.000 C 
BRANCH   2   3
ATOM      3  C   UNL     1      33.219  -4.975 -17.265  1.00  0.00     0.006 C 
BRANCH   3   4
ATOM      4  C   UNL     1      34.341  -5.729 -17.990  1.00  0.00     0.053 C 
BRANCH   4   5
ATOM      5  C   UNL     1      35.657  -5.466 -17.330  1.00  0.00     0.041 C 
ATOM      6  O   UNL     1      36.324  -6.416 -16.844  1.00  0.00    -0.550 OA
ATOM      7  O   UNL     1      36.125  -4.163 -17.208  1.00  0.00    -0.550 OA
ENDBRANCH   4   5
ENDBRANCH   3   4
ENDBRANCH   2   3
ENDBRANCH   1   2
BRANCH   1   8
ATOM      8  C   UNL     1      30.225  -6.460 -15.380  1.00  0.00     0.000 C 
BRANCH   8   9
ATOM      9  C   UNL     1      29.672  -6.400 -13.941  1.00  0.00    -0.000 C 
BRANCH   9  10
ATOM     10  C   UNL     1      29.917  -5.071 -13.203  1.00  0.00    -0.000 C 
BRANCH  10  11
ATOM     11  C   UNL     1      30.768  -5.240 -11.936  1.00  0.00    -0.000 C 
BRANCH  11  12
ATOM     12  C   UNL     1      31.992  -6.121 -12.212  1.00  0.00    -0.003 C 
ATOM     13  C   UNL     1      32.634  -6.595 -10.912  1.00  0.00     0.004 C 
ENDBRANCH  11  12
ENDBRANCH  10  11
ENDBRANCH   9  10
ENDBRANCH   8   9
ENDBRANCH   1   8
TORSDOF 9
ENDMDL
MODEL 5
REMARK VINA RESULT:    -4.221      4.732      5.692
REMARK INTER + INTRA:          -6.883
REMARK INTER:                  -6.285
REMARK INTRA:                  -0.597
REMARK UNBOUND:                -0.440
REMARK SMILES CCCCCCCCCCC(=O)[O-]
REMARK SMILES IDX 7 1 8 2 9 3 10 4 11 5 12 6 13 7 6 8 5 9 4 10 3 11 2 12 1 13
REMARK H PARENT
REMARK Flexibility Score: inf
ROOT
ATOM      1  C   UNL     1      28.907  -5.923 -13.470  1.00  0.00     0.000 C 
ENDROOT
BRANCH   1   2
ATOM      2  C   UNL     1      29.237  -7.384 -13.120  1.00  0.00     0.000 C 
BRANCH   2   3
ATOM      3  C   UNL     1      29.989  -8.105 -14.250  1.00  0.00     0.006 C 
BRANCH   3   4
ATOM      4  C   UNL     1      29.581  -7.609 -15.644  1.00  0.00     0.053 C 
BRANCH   4   5
ATOM      5  C   UNL     1      29.470  -8.759 -16.594  1.00  0.00     0.041 C 
ATOM      6  O   UNL     1      28.385  -8.985 -17.192  1.00  0.00    -0.550 OA
ATOM      7  O   UNL     1      30.550  -9.611 -16.782  1.00  0.00    -0.550 OA
ENDBRANCH   4   5
ENDBRANCH   3   4
ENDBRANCH   2   3
ENDBRANCH   1   2
BRANCH   1   8
ATOM      8  C   UNL     1      30.102  -4.974 -13.264  1.00  0.00     0.000 C 
BRANCH   8   9
ATOM      9  C   UNL     1      30.873  -5.164 -11.942  1.00  0.00    -0.000 C 
BRANCH   9  10
ATOM     10  C   UNL     1      32.304  -5.712 -12.094  1.00  0.00    -0.000 C 
BRANCH  10  11
ATOM     11  C   UNL     1      32.597  -6.887 -11.149  1.00  0.00    -0.000 C 
BRANCH  11  12
ATOM     12  C   UNL     1      32.907  -6.388  -9.734  1.00  0.00    -0.003 C 
ATOM     13  C   UNL     1      33.832  -7.354  -8.999  1.00  0.00     0.004 C 
ENDBRANCH  11  12
ENDBRANCH  10  11
ENDBRANCH   9  10
ENDBRANCH   8   9
ENDBRANCH   1   8
TORSDOF 9
ENDMDL
MODEL 6
REMARK VINA RESULT:    -4.155      1.088      1.959
REMARK INTER + INTRA:          -6.781
REMARK INTER:                  -6.320
REMARK INTRA:                  -0.461
REMARK UNBOUND:                -0.440
REMARK SMILES CCCCCCCCCCC(=O)[O-]
REMARK SMILES IDX 7 1 8 2 9 3 10 4 11 5 12 6 13 7 6 8 5 9 4 10 3 11 2 12 1 13
REMARK H PARENT
REMARK Flexibility Score: inf
ROOT
ATOM      1  C   UNL     1      32.533  -5.765 -16.055  1.00  0.00     0.000 C 
ENDROOT
BRANCH   1   2
ATOM      2  C   UNL     1      31.098  -5.301 -15.752  1.00  0.00     0.000 C 
BRANCH   2   3
ATOM      3  C   UNL     1      30.156  -6.472 -15.431  1.00  0.00     0.006 C 
BRANCH   3   4
ATOM      4  C   UNL     1      29.381  -6.268 -14.122  1.00  0.00     0.053 C 
BRANCH   4   5
ATOM      5  C   UNL     1      30.325  -5.990 -12.996  1.00  0.00     0.041 C 
ATOM      6  O   UNL     1      31.109  -6.886 -12.590  1.00  0.00    -0.550 OA
ATOM      7  O   UNL     1      30.303  -4.755 -12.361  1.00  0.00    -0.550 OA
ENDBRANCH   4   5
ENDBRANCH   3   4
ENDBRANCH   2   3
ENDBRANCH   1   2
BRANCH   1   8
ATOM      8  C   UNL     1      33.163  -5.020 -17.246  1.00  0.00     0.000 C 
BRANCH   8   9
ATOM      9  C   UNL     1      34.450  -5.654 -17.813  1.00  0.00    -0.000 C 
BRANCH   9  10
ATOM     10  C   UNL     1      35.620  -5.756 -16.817  1.00  0.00    -0.000 C 
BRANCH  10  11
ATOM     11  C   UNL     1      36.903  -5.089 -17.334  1.00  0.00    -0.000 C 
BRANCH  11  12
ATOM     12  C   UNL     1      36.656  -3.616 -17.675  1.00  0.00    -0.003 C 
ATOM     13  C   UNL     1      37.469  -3.188 -18.893  1.00  0.00     0.004 C 
ENDBRANCH  11  12
ENDBRANCH  10  11
ENDBRANCH   9  10
ENDBRANCH   8   9
ENDBRANCH   1   8
TORSDOF 9
ENDMDL
MODEL 7
REMARK VINA RESULT:    -4.124      4.188      5.364
REMARK INTER + INTRA:          -6.735
REMARK INTER:                  -6.324
REMARK INTRA:                  -0.410
REMARK UNBOUND:                -0.440
REMARK SMILES CCCCCCCCCCC(=O)[O-]
REMARK SMILES IDX 7 1 8 2 9 3 10 4 11 5 12 6 13 7 6 8 5 9 4 10 3 11 2 12 1 13
REMARK H PARENT
REMARK Flexibility Score: inf
ROOT
ATOM      1  C   UNL     1      29.965  -5.073 -13.448  1.00  0.00     0.000 C 
ENDROOT
BRANCH   1   2
ATOM      2  C   UNL     1      31.350  -5.667 -13.138  1.00  0.00     0.000 C 
BRANCH   2   3
ATOM      3  C   UNL     1      31.779  -5.430 -11.681  1.00  0.00     0.006 C 
BRANCH   3   4
ATOM      4  C   UNL     1      32.599  -6.594 -11.108  1.00  0.00     0.053 C 
BRANCH   4   5
ATOM      5  C   UNL     1      32.907  -6.354  -9.665  1.00  0.00     0.041 C 
ATOM      6  O   UNL     1      32.405  -5.368  -9.064  1.00  0.00    -0.550 OA
ATOM      7  O   UNL     1      33.790  -7.191  -8.995  1.00  0.00    -0.550 OA
ENDBRANCH   4   5
ENDBRANCH   3   4
ENDBRANCH   2   3
ENDBRANCH   1   2
BRANCH   1   8
ATOM      8  C   UNL     1      28.893  -6.151 -13.690  1.00  0.00     0.000 C 
BRANCH   8   9
ATOM      9  C   UNL     1      29.235  -7.553 -13.145  1.00  0.00    -0.000 C 
BRANCH   9  10
ATOM     10  C   UNL     1      29.939  -8.488 -14.145  1.00  0.00    -0.000 C 
BRANCH  10  11
ATOM     11  C   UNL     1      29.804  -8.018 -15.600  1.00  0.00    -0.000 C 
BRANCH  11  12
ATOM     12  C   UNL     1      29.576  -9.206 -16.541  1.00  0.00    -0.003 C 
ATOM     13  C   UNL     1      28.444  -8.922 -17.524  1.00  0.00     0.004 C 
ENDBRANCH  11  12
ENDBRANCH  10  11
ENDBRANCH   9  10
ENDBRANCH   8   9
ENDBRANCH   1   8
TORSDOF 9
ENDMDL
MODEL 8
REMARK VINA RESULT:    -4.082      4.119      5.331
REMARK INTER + INTRA:          -6.669
REMARK INTER:                  -6.066
REMARK INTRA:                  -0.604
REMARK UNBOUND:                -0.440
REMARK SMILES CCCCCCCCCCC(=O)[O-]
REMARK SMILES IDX 7 1 8 2 9 3 10 4 11 5 12 6 13 7 6 8 5 9 4 10 3 11 2 12 1 13
REMARK H PARENT
REMARK Flexibility Score: inf
ROOT
ATOM      1  C   UNL     1      29.635  -6.644 -15.237  1.00  0.00     0.000 C 
ENDROOT
BRANCH   1   2
ATOM      2  C   UNL     1      30.106  -5.501 -14.322  1.00  0.00     0.000 C 
BRANCH   2   3
ATOM      3  C   UNL     1      30.011  -5.863 -12.831  1.00  0.00     0.006 C 
BRANCH   3   4
ATOM      4  C   UNL     1      31.029  -5.103 -11.970  1.00  0.00     0.053 C 
BRANCH   4   5
ATOM      5  C   UNL     1      32.106  -6.028 -11.500  1.00  0.00     0.041 C 
ATOM      6  O   UNL     1      32.597  -5.896 -10.348  1.00  0.00    -0.550 OA
ATOM      7  O   UNL     1      32.604  -7.005 -12.353  1.00  0.00    -0.550 OA
ENDBRANCH   4   5
ENDBRANCH   3   4
ENDBRANCH   2   3
ENDBRANCH   1   2
BRANCH   1   8
ATOM      8  C   UNL     1      29.689  -8.021 -14.550  1.00  0.00     0.000 C 
BRANCH   8   9
ATOM      9  C   UNL     1      29.500  -9.232 -15.486  1.00  0.00    -0.000 C 
BRANCH   9  10
ATOM     10  C   UNL     1      30.424  -9.256 -16.717  1.00  0.00    -0.000 C 
BRANCH  10  11
ATOM     11  C   UNL     1      29.659  -9.457 -18.034  1.00  0.00    -0.000 C 
BRANCH  11  12
ATOM     12  C   UNL     1      28.233  -8.906 -17.929  1.00  0.00    -0.003 C 
ATOM     13  C   UNL     1      27.387  -9.333 -19.125  1.00  0.00     0.004 C 
ENDBRANCH  11  12
ENDBRANCH  10  11
ENDBRANCH   9  10
ENDBRANCH   8   9
ENDBRANCH   1   8
TORSDOF 9
ENDMDL
MODEL 9
REMARK VINA RESULT:    -3.588      2.302      2.811
REMARK INTER + INTRA:          -5.916
REMARK INTER:                  -5.581
REMARK INTRA:                  -0.335
REMARK UNBOUND:                -0.440
REMARK SMILES CCCCCCCCCCC(=O)[O-]
REMARK SMILES IDX 7 1 8 2 9 3 10 4 11 5 12 6 13 7 6 8 5 9 4 10 3 11 2 12 1 13
REMARK H PARENT
REMARK Flexibility Score: inf
ROOT
ATOM      1  C   UNL     1      31.222  -5.499 -14.224  1.00  0.00     0.000 C 
ENDROOT
BRANCH   1   2
ATOM      2  C   UNL     1      29.785  -5.332 -13.701  1.00  0.00     0.000 C 
BRANCH   2   3
ATOM      3  C   UNL     1      29.073  -6.679 -13.495  1.00  0.00     0.006 C 
BRANCH   3   4
ATOM      4  C   UNL     1      29.975  -7.880 -13.807  1.00  0.00     0.053 C 
BRANCH   4   5
ATOM      5  C   UNL     1      29.678  -8.415 -15.172  1.00  0.00     0.041 C 
ATOM      6  O   UNL     1      29.949  -9.610 -15.457  1.00  0.00    -0.550 OA
ATOM      7  O   UNL     1      29.148  -7.578 -16.145  1.00  0.00    -0.550 OA
ENDBRANCH   4   5
ENDBRANCH   3   4
ENDBRANCH   2   3
ENDBRANCH   1   2
BRANCH   1   8
ATOM      8  C   UNL     1      31.374  -5.073 -15.696  1.00  0.00     0.000 C 
BRANCH   8   9
ATOM      9  C   UNL     1      32.427  -5.860 -16.503  1.00  0.00    -0.000 C 
BRANCH   9  10
ATOM     10  C   UNL     1      33.458  -4.994 -17.250  1.00  0.00    -0.000 C 
BRANCH  10  11
ATOM     11  C   UNL     1      34.748  -5.758 -17.584  1.00  0.00    -0.000 C 
BRANCH  11  12
ATOM     12  C   UNL     1      35.943  -5.174 -16.823  1.00  0.00    -0.003 C 
ATOM     13  C   UNL     1      36.564  -4.006 -17.583  1.00  0.00     0.004 C 
ENDBRANCH  11  12
ENDBRANCH  10  11
ENDBRANCH   9  10
ENDBRANCH   8   9
ENDBRANCH   1   8
TORSDOF 9
ENDMDL
