MODEL 1
REMARK VINA RESULT:    -1.076      0.000      0.000
REMARK INTER + INTRA:          -2.242
REMARK INTER:                  -1.832
REMARK INTRA:                  -0.411
REMARK UNBOUND:                -0.411
REMARK SMILES CCCCCCCCCCCCCC(=O)[O-]
REMARK SMILES IDX 8 1 9 2 10 3 11 4 12 5 13 6 14 7 15 8 16 9 7 10 6 11 5 12
REMARK SMILES IDX 4 13 3 14 2 15 1 16
REMARK H PARENT
REMARK Flexibility Score: inf
ROOT
ATOM      1  C   UNL     1      91.261  18.320 120.013  1.00  0.00     0.000 C 
ENDROOT
BRANCH   1   2
ATOM      2  C   UNL     1      92.262  17.171 119.799  1.00  0.00     0.000 C 
BRANCH   2   3
ATOM      3  C   UNL     1      92.856  16.644 121.115  1.00  0.00     0.000 C 
BRANCH   3   4
ATOM      4  C   UNL     1      93.622  15.323 120.930  1.00  0.00     0.000 C 
BRANCH   4   5
ATOM      5  C   UNL     1      94.831  15.466 119.989  1.00  0.00     0.006 C 
BRANCH   5   6
ATOM      6  C   UNL     1      96.080  15.970 120.725  1.00  0.00     0.053 C 
BRANCH   6   7
ATOM      7  C   UNL     1      96.767  17.067 119.970  1.00  0.00     0.041 C 
ATOM      8  O   UNL     1      97.406  17.958 120.587  1.00  0.00    -0.550 OA
ATOM      9  O   UNL     1      96.675  17.119 118.585  1.00  0.00    -0.550 OA
ENDBRANCH   6   7
ENDBRANCH   5   6
ENDBRANCH   4   5
ENDBRANCH   3   4
ENDBRANCH   2   3
ENDBRANCH   1   2
BRANCH   1  10
ATOM     10  C   UNL     1      90.201  18.075 121.107  1.00  0.00     0.000 C 
BRANCH  10  11
ATOM     11  C   UNL     1      88.858  18.797 120.890  1.00  0.00    -0.000 C 
BRANCH  11  12
ATOM     12  C   UNL     1      87.725  17.841 120.492  1.00  0.00    -0.000 C 
BRANCH  12  13
ATOM     13  C   UNL     1      86.396  18.272 121.125  1.00  0.00    -0.000 C 
BRANCH  13  14
ATOM     14  C   UNL     1      85.276  17.284 120.779  1.00  0.00    -0.000 C 
BRANCH  14  15
ATOM     15  C   UNL     1      83.899  17.884 121.088  1.00  0.00    -0.003 C 
ATOM     16  C   UNL     1      82.887  17.529 120.004  1.00  0.00     0.004 C 
ENDBRANCH  14  15
ENDBRANCH  13  14
ENDBRANCH  12  13
ENDBRANCH  11  12
ENDBRANCH  10  11
ENDBRANCH   1  10
TORSDOF 12
ENDMDL
MODEL 2
REMARK VINA RESULT:    -1.024      4.711      9.337
REMARK INTER + INTRA:          -2.153
REMARK INTER:                  -2.351
REMARK INTRA:                   0.198
REMARK UNBOUND:                -0.411
REMARK SMILES CCCCCCCCCCCCCC(=O)[O-]
REMARK SMILES IDX 8 1 9 2 10 3 11 4 12 5 13 6 14 7 15 8 16 9 7 10 6 11 5 12
REMARK SMILES IDX 4 13 3 14 2 15 1 16
REMARK H PARENT
REMARK Flexibility Score: inf
ROOT
ATOM      1  C   UNL     1      91.205  17.445 119.655  1.00  0.00     0.000 C 
ENDROOT
BRANCH   1   2
ATOM      2  C   UNL     1      89.785  18.039 119.678  1.00  0.00     0.000 C 
BRANCH   2   3
ATOM      3  C   UNL     1      89.256  18.267 121.103  1.00  0.00     0.000 C 
BRANCH   3   4
ATOM      4  C   UNL     1      87.844  18.876 121.119  1.00  0.00     0.000 C 
BRANCH   4   5
ATOM      5  C   UNL     1      86.737  17.809 121.049  1.00  0.00     0.006 C 
BRANCH   5   6
ATOM      6  C   UNL     1      85.336  18.433 120.979  1.00  0.00     0.053 C 
BRANCH   6   7
ATOM      7  C   UNL     1      84.279  17.401 120.732  1.00  0.00     0.041 C 
ATOM      8  O   UNL     1      84.593  16.266 120.288  1.00  0.00    -0.550 OA
ATOM      9  O   UNL     1      82.944  17.705 120.965  1.00  0.00    -0.550 OA
ENDBRANCH   6   7
ENDBRANCH   5   6
ENDBRANCH   4   5
ENDBRANCH   3   4
ENDBRANCH   2   3
ENDBRANCH   1   2
BRANCH   1  10
ATOM     10  C   UNL     1      91.978  17.537 120.987  1.00  0.00     0.000 C 
BRANCH  10  11
ATOM     11  C   UNL     1      93.432  17.034 120.934  1.00  0.00    -0.000 C 
BRANCH  11  12
ATOM     12  C   UNL     1      93.545  15.515 121.124  1.00  0.00    -0.000 C 
BRANCH  12  13
ATOM     13  C   UNL     1      94.335  14.874 119.976  1.00  0.00    -0.000 C 
BRANCH  13  14
ATOM     14  C   UNL     1      95.545  15.733 119.594  1.00  0.00    -0.000 C 
BRANCH  14  15
ATOM     15  C   UNL     1      96.154  16.406 120.830  1.00  0.00    -0.003 C 
ATOM     16  C   UNL     1      97.324  17.307 120.448  1.00  0.00     0.004 C 
ENDBRANCH  14  15
ENDBRANCH  13  14
ENDBRANCH  12  13
ENDBRANCH  11  12
ENDBRANCH  10  11
ENDBRANCH   1  10
TORSDOF 12
ENDMDL
MODEL 3
REMARK VINA RESULT:     0.129      4.709      8.824
REMARK INTER + INTRA:          -0.191
REMARK INTER:                   0.361
REMARK INTRA:                  -0.552
REMARK UNBOUND:                -0.411
REMARK SMILES CCCCCCCCCCCCCC(=O)[O-]
REMARK SMILES IDX 8 1 9 2 10 3 11 4 12 5 13 6 14 7 15 8 16 9 7 10 6 11 5 12
REMARK SMILES IDX 4 13 3 14 2 15 1 16
REMARK H PARENT
REMARK Flexibility Score: inf
ROOT
ATOM      1  C   UNL     1      91.684  18.260 119.623  1.00  0.00     0.000 C 
ENDROOT
BRANCH   1   2
ATOM      2  C   UNL     1      90.357  18.988 119.905  1.00  0.00     0.000 C 
BRANCH   2   3
ATOM      3  C   UNL     1      89.530  18.315 121.013  1.00  0.00     0.000 C 
BRANCH   3   4
ATOM      4  C   UNL     1      88.092  18.854 121.086  1.00  0.00     0.000 C 
BRANCH   4   5
ATOM      5  C   UNL     1      87.035  17.746 120.929  1.00  0.00     0.006 C 
BRANCH   5   6
ATOM      6  C   UNL     1      85.608  18.277 121.120  1.00  0.00     0.053 C 
BRANCH   6   7
ATOM      7  C   UNL     1      84.581  17.305 120.624  1.00  0.00     0.041 C 
ATOM      8  O   UNL     1      83.356  17.531 120.801  1.00  0.00    -0.550 OA
ATOM      9  O   UNL     1      84.982  16.135 119.991  1.00  0.00    -0.550 OA
ENDBRANCH   6   7
ENDBRANCH   5   6
ENDBRANCH   4   5
ENDBRANCH   3   4
ENDBRANCH   2   3
ENDBRANCH   1   2
BRANCH   1  10
ATOM     10  C   UNL     1      91.914  16.972 120.440  1.00  0.00     0.000 C 
BRANCH  10  11
ATOM     11  C   UNL     1      93.371  16.474 120.478  1.00  0.00    -0.000 C 
BRANCH  11  12
ATOM     12  C   UNL     1      93.726  15.580 119.283  1.00  0.00    -0.000 C 
BRANCH  12  13
ATOM     13  C   UNL     1      94.626  14.415 119.716  1.00  0.00    -0.000 C 
BRANCH  13  14
ATOM     14  C   UNL     1      94.235  13.906 121.108  1.00  0.00    -0.000 C 
BRANCH  14  15
ATOM     15  C   UNL     1      94.136  12.375 121.125  1.00  0.00    -0.003 C 
ATOM     16  C   UNL     1      92.694  11.914 120.943  1.00  0.00     0.004 C 
ENDBRANCH  14  15
ENDBRANCH  13  14
ENDBRANCH  12  13
ENDBRANCH  11  12
ENDBRANCH  10  11
ENDBRANCH   1  10
TORSDOF 12
ENDMDL
MODEL 4
REMARK VINA RESULT:     0.976      4.297      7.870
REMARK INTER + INTRA:           1.250
REMARK INTER:                   1.473
REMARK INTRA:                  -0.223
REMARK UNBOUND:                -0.411
REMARK SMILES CCCCCCCCCCCCCC(=O)[O-]
REMARK SMILES IDX 8 1 9 2 10 3 11 4 12 5 13 6 14 7 15 8 16 9 7 10 6 11 5 12
REMARK SMILES IDX 4 13 3 14 2 15 1 16
REMARK H PARENT
REMARK Flexibility Score: inf
ROOT
ATOM      1  C   UNL     1      93.302  15.400 118.606  1.00  0.00     0.000 C 
ENDROOT
BRANCH   1   2
ATOM      2  C   UNL     1      92.399  16.570 119.036  1.00  0.00     0.000 C 
BRANCH   2   3
ATOM      3  C   UNL     1      92.812  17.178 120.386  1.00  0.00     0.000 C 
BRANCH   3   4
ATOM      4  C   UNL     1      91.704  18.046 121.006  1.00  0.00     0.000 C 
BRANCH   4   5
ATOM      5  C   UNL     1      90.409  18.038 120.175  1.00  0.00     0.006 C 
BRANCH   5   6
ATOM      6  C   UNL     1      89.160  17.886 121.053  1.00  0.00     0.053 C 
BRANCH   6   7
ATOM      7  C   UNL     1      87.960  18.533 120.430  1.00  0.00     0.041 C 
ATOM      8  O   UNL     1      87.733  19.757 120.613  1.00  0.00    -0.550 OA
ATOM      9  O   UNL     1      87.078  17.774 119.670  1.00  0.00    -0.550 OA
ENDBRANCH   6   7
ENDBRANCH   5   6
ENDBRANCH   4   5
ENDBRANCH   3   4
ENDBRANCH   2   3
ENDBRANCH   1   2
BRANCH   1  10
ATOM     10  C   UNL     1      94.509  15.127 119.528  1.00  0.00     0.000 C 
BRANCH  10  11
ATOM     11  C   UNL     1      94.165  14.481 120.882  1.00  0.00    -0.000 C 
BRANCH  11  12
ATOM     12  C   UNL     1      94.584  13.007 120.963  1.00  0.00    -0.000 C 
BRANCH  12  13
ATOM     13  C   UNL     1      93.357  12.091 121.058  1.00  0.00    -0.000 C 
BRANCH  13  14
ATOM     14  C   UNL     1      93.770  10.615 121.060  1.00  0.00    -0.000 C 
BRANCH  14  15
ATOM     15  C   UNL     1      92.654   9.732 120.488  1.00  0.00    -0.003 C 
ATOM     16  C   UNL     1      91.373  10.532 120.273  1.00  0.00     0.004 C 
ENDBRANCH  14  15
ENDBRANCH  13  14
ENDBRANCH  12  13
ENDBRANCH  11  12
ENDBRANCH  10  11
ENDBRANCH   1  10
TORSDOF 12
ENDMDL
