MODEL 1
REMARK VINA RESULT:    -5.472      0.000      0.000
REMARK INTER + INTRA:         -10.826
REMARK INTER:                  -8.990
REMARK INTRA:                  -1.836
REMARK UNBOUND:                -1.836
REMARK SMILES COc1ccc([C@H]2CC(=O)c3c(O)cc(O[C@@H]4O[C@H](CO[C@@H]5O[C@@H](C)[C@@H](O)[C@@H](O)[C@H]5O)[C@H](O)[C@@H](O)[C@H]4O)cc3O2)cc1O
REMARK SMILES IDX 19 1 32 2 34 3 36 4 17 5 18 6 20 7 21 8 22 9 25 10 24 11
REMARK SMILES IDX 26 12 23 13 28 14 30 15 27 16 29 18 31 20 33 22 35 24 16 26
REMARK SMILES IDX 15 27 14 28 38 29 12 30 39 31 11 32 40 33 9 34 7 35 10 36
REMARK SMILES IDX 8 37 13 38 6 40 41 41 5 42 42 43 4 44 3 45 43 46 2 48 1 49
REMARK SMILES IDX 37 50
REMARK H PARENT 27 17 29 19 31 21 33 23 35 25 13 39 43 47 37 51
REMARK Flexibility Score: inf
ROOT
ATOM      1  C   UNL     1     -27.408  47.384  42.377  1.00  0.00     0.180 C 
ATOM      2  C   UNL     1     -28.628  47.245  41.400  1.00  0.00     0.177 C 
ATOM      3  C   UNL     1     -28.143  47.385  39.946  1.00  0.00     0.180 C 
ATOM      4  C   UNL     1     -27.429  48.748  39.744  1.00  0.00     0.214 C 
ATOM      5  C   UNL     1     -26.799  49.239  41.068  1.00  0.00     0.339 C 
ATOM      6  O   UNL     1     -26.336  48.135  41.817  1.00  0.00    -0.332 OA
ENDROOT
BRANCH   1   7
ATOM      7  C   UNL     1     -26.848  46.009  42.817  1.00  0.00     0.198 C 
BRANCH   7   8
ATOM      8  O   UNL     1     -27.610  45.421  43.860  1.00  0.00    -0.347 OA
BRANCH   8   9
ATOM      9  C   UNL     1     -27.718  46.267  44.990  1.00  0.00     0.281 C 
ATOM     10  C   UNL     1     -24.998  46.355  47.519  1.00  0.00     0.041 C 
ATOM     11  C   UNL     1     -26.400  46.060  46.983  1.00  0.00     0.150 C 
ATOM     12  C   UNL     1     -27.486  46.838  47.761  1.00  0.00     0.174 C 
ATOM     13  O   UNL     1     -26.433  46.385  45.606  1.00  0.00    -0.344 OA
ATOM     14  C   UNL     1     -28.902  46.431  47.263  1.00  0.00     0.179 C 
ATOM     15  C   UNL     1     -28.837  45.692  45.904  1.00  0.00     0.202 C 
BRANCH  12  16
ATOM     16  O   UNL     1     -27.292  48.223  47.579  1.00  0.00    -0.388 OA
ATOM     17  H   UNL     1     -26.684  48.535  48.300  1.00  0.00     0.211 HD
ENDBRANCH  12  16
BRANCH  14  18
ATOM     18  O   UNL     1     -29.737  47.558  47.164  1.00  0.00    -0.387 OA
ATOM     19  H   UNL     1     -30.319  47.558  47.968  1.00  0.00     0.211 HD
ENDBRANCH  14  18
BRANCH  15  20
ATOM     20  O   UNL     1     -30.088  45.689  45.256  1.00  0.00    -0.385 OA
ATOM     21  H   UNL     1     -30.208  46.569  44.810  1.00  0.00     0.211 HD
ENDBRANCH  15  20
ENDBRANCH   8   9
ENDBRANCH   7   8
ENDBRANCH   1   7
BRANCH   2  22
ATOM     22  O   UNL     1     -29.309  46.028  41.570  1.00  0.00    -0.387 OA
ATOM     23  H   UNL     1     -29.450  45.651  40.662  1.00  0.00     0.211 HD
ENDBRANCH   2  22
BRANCH   3  24
ATOM     24  O   UNL     1     -29.220  47.265  39.052  1.00  0.00    -0.387 OA
ATOM     25  H   UNL     1     -29.910  47.919  39.342  1.00  0.00     0.211 HD
ENDBRANCH   3  24
BRANCH   5  26
ATOM     26  O   UNL     1     -25.732  50.157  40.806  1.00  0.00    -0.462 OA
BRANCH  26  27
ATOM     27  C   UNL     1     -25.534  51.374  41.472  1.00  0.00     0.130 A 
ATOM     28  C   UNL     1     -26.358  51.782  42.533  1.00  0.00     0.093 A 
ATOM     29  C   UNL     1     -24.524  52.228  41.022  1.00  0.00     0.094 A 
ATOM     30  C   UNL     1     -26.146  53.012  43.169  1.00  0.00     0.133 A 
ATOM     31  C   UNL     1     -24.313  53.464  41.635  1.00  0.00     0.138 A 
ATOM     32  C   UNL     1     -25.107  53.857  42.729  1.00  0.00     0.102 A 
ATOM     33  O   UNL     1     -23.322  54.316  41.130  1.00  0.00    -0.484 OA
ATOM     34  C   UNL     1     -24.807  55.156  43.368  1.00  0.00     0.174 C 
ATOM     35  C   UNL     1     -23.172  55.681  41.539  1.00  0.00     0.211 C 
ATOM     36  O   UNL     1     -25.568  55.644  44.245  1.00  0.00    -0.294 OA
ATOM     37  C   UNL     1     -23.533  55.867  43.024  1.00  0.00     0.131 C 
BRANCH  30  38
ATOM     38  O   UNL     1     -26.967  53.388  44.233  1.00  0.00    -0.507 OA
ATOM     39  H   UNL     1     -27.923  53.692  44.084  1.00  0.00     0.293 HD
ENDBRANCH  30  38
BRANCH  35  40
ATOM     40  C   UNL     1     -23.967  56.624  40.651  1.00  0.00    -0.003 A 
ATOM     41  C   UNL     1     -24.856  56.152  39.668  1.00  0.00     0.057 A 
ATOM     42  C   UNL     1     -23.854  58.009  40.848  1.00  0.00     0.011 A 
ATOM     43  C   UNL     1     -25.596  57.043  38.883  1.00  0.00     0.158 A 
ATOM     44  C   UNL     1     -24.589  58.904  40.067  1.00  0.00     0.051 A 
ATOM     45  C   UNL     1     -25.467  58.429  39.074  1.00  0.00     0.160 A 
BRANCH  43  46
ATOM     46  O   UNL     1     -26.458  56.527  37.913  1.00  0.00    -0.504 OA
ATOM     47  H   UNL     1     -26.638  55.534  37.825  1.00  0.00     0.293 HD
ENDBRANCH  43  46
BRANCH  45  48
ATOM     48  O   UNL     1     -26.217  59.299  38.265  1.00  0.00    -0.493 OA
ATOM     49  C   UNL     1     -27.439  59.914  38.658  1.00  0.00     0.278 C 
ENDBRANCH  45  48
ENDBRANCH  35  40
ENDBRANCH  26  27
ENDBRANCH   5  26
BRANCH   4  50
ATOM     50  O   UNL     1     -28.340  49.711  39.270  1.00  0.00    -0.384 OA
ATOM     51  H   UNL     1     -28.062  50.582  39.653  1.00  0.00     0.211 HD
ENDBRANCH   4  50
TORSDOF 15
ENDMDL
MODEL 2
REMARK VINA RESULT:    -5.411      2.443      5.075
REMARK INTER + INTRA:         -10.726
REMARK INTER:                  -8.475
REMARK INTRA:                  -2.251
REMARK UNBOUND:                -1.836
REMARK SMILES COc1ccc([C@H]2CC(=O)c3c(O)cc(O[C@@H]4O[C@H](CO[C@@H]5O[C@@H](C)[C@@H](O)[C@@H](O)[C@H]5O)[C@H](O)[C@@H](O)[C@H]4O)cc3O2)cc1O
REMARK SMILES IDX 19 1 32 2 34 3 36 4 17 5 18 6 20 7 21 8 22 9 25 10 24 11
REMARK SMILES IDX 26 12 23 13 28 14 30 15 27 16 29 18 31 20 33 22 35 24 16 26
REMARK SMILES IDX 15 27 14 28 38 29 12 30 39 31 11 32 40 33 9 34 7 35 10 36
REMARK SMILES IDX 8 37 13 38 6 40 41 41 5 42 42 43 4 44 3 45 43 46 2 48 1 49
REMARK SMILES IDX 37 50
REMARK H PARENT 27 17 29 19 31 21 33 23 35 25 13 39 43 47 37 51
REMARK Flexibility Score: inf
ROOT
ATOM      1  C   UNL     1     -27.537  47.359  42.317  1.00  0.00     0.180 C 
ATOM      2  C   UNL     1     -28.775  47.183  41.368  1.00  0.00     0.177 C 
ATOM      3  C   UNL     1     -28.327  47.330  39.903  1.00  0.00     0.180 C 
ATOM      4  C   UNL     1     -27.654  48.711  39.680  1.00  0.00     0.214 C 
ATOM      5  C   UNL     1     -27.008  49.224  40.988  1.00  0.00     0.339 C 
ATOM      6  O   UNL     1     -26.499  48.136  41.730  1.00  0.00    -0.332 OA
ENDROOT
BRANCH   1   7
ATOM      7  C   UNL     1     -26.931  46.001  42.749  1.00  0.00     0.198 C 
BRANCH   7   8
ATOM      8  O   UNL     1     -27.651  45.400  43.813  1.00  0.00    -0.347 OA
BRANCH   8   9
ATOM      9  C   UNL     1     -27.760  46.251  44.939  1.00  0.00     0.281 C 
ATOM     10  C   UNL     1     -25.008  46.410  47.430  1.00  0.00     0.041 C 
ATOM     11  C   UNL     1     -26.412  46.084  46.915  1.00  0.00     0.150 C 
ATOM     12  C   UNL     1     -27.502  46.847  47.702  1.00  0.00     0.174 C 
ATOM     13  O   UNL     1     -26.470  46.398  45.536  1.00  0.00    -0.344 OA
ATOM     14  C   UNL     1     -28.916  46.408  47.227  1.00  0.00     0.179 C 
ATOM     15  C   UNL     1     -28.855  45.660  45.872  1.00  0.00     0.202 C 
BRANCH  12  16
ATOM     16  O   UNL     1     -27.338  48.233  47.508  1.00  0.00    -0.388 OA
ATOM     17  H   UNL     1     -26.371  48.400  47.359  1.00  0.00     0.211 HD
ENDBRANCH  12  16
BRANCH  14  18
ATOM     18  O   UNL     1     -29.774  47.518  47.130  1.00  0.00    -0.387 OA
ATOM     19  H   UNL     1     -30.209  47.625  48.017  1.00  0.00     0.211 HD
ENDBRANCH  14  18
BRANCH  15  20
ATOM     20  O   UNL     1     -30.115  45.629  45.241  1.00  0.00    -0.385 OA
ATOM     21  H   UNL     1     -30.811  45.798  45.930  1.00  0.00     0.211 HD
ENDBRANCH  15  20
ENDBRANCH   8   9
ENDBRANCH   7   8
ENDBRANCH   1   7
BRANCH   2  22
ATOM     22  O   UNL     1     -29.418  45.949  41.558  1.00  0.00    -0.387 OA
ATOM     23  H   UNL     1     -29.833  45.707  40.688  1.00  0.00     0.211 HD
ENDBRANCH   2  22
BRANCH   3  24
ATOM     24  O   UNL     1     -29.420  47.177  39.034  1.00  0.00    -0.387 OA
ATOM     25  H   UNL     1     -30.225  47.488  39.527  1.00  0.00     0.211 HD
ENDBRANCH   3  24
BRANCH   5  26
ATOM     26  O   UNL     1     -25.972  50.169  40.698  1.00  0.00    -0.462 OA
BRANCH  26  27
ATOM     27  C   UNL     1     -25.763  51.372  41.387  1.00  0.00     0.130 A 
ATOM     28  C   UNL     1     -24.898  52.365  40.899  1.00  0.00     0.093 A 
ATOM     29  C   UNL     1     -26.388  51.554  42.623  1.00  0.00     0.094 A 
ATOM     30  C   UNL     1     -24.696  53.551  41.618  1.00  0.00     0.133 A 
ATOM     31  C   UNL     1     -26.181  52.723  43.357  1.00  0.00     0.138 A 
ATOM     32  C   UNL     1     -25.352  53.742  42.851  1.00  0.00     0.102 A 
ATOM     33  O   UNL     1     -26.787  52.855  44.614  1.00  0.00    -0.484 OA
ATOM     34  C   UNL     1     -25.207  54.976  43.651  1.00  0.00     0.174 C 
ATOM     35  C   UNL     1     -26.468  53.904  45.537  1.00  0.00     0.211 C 
ATOM     36  O   UNL     1     -24.366  55.861  43.342  1.00  0.00    -0.294 OA
ATOM     37  C   UNL     1     -26.135  55.216  44.805  1.00  0.00     0.131 C 
BRANCH  30  38
ATOM     38  O   UNL     1     -23.846  54.531  41.104  1.00  0.00    -0.507 OA
ATOM     39  H   UNL     1     -23.328  54.387  40.244  1.00  0.00     0.293 HD
ENDBRANCH  30  38
BRANCH  35  40
ATOM     40  C   UNL     1     -25.353  53.498  46.487  1.00  0.00    -0.003 A 
ATOM     41  C   UNL     1     -24.884  52.174  46.563  1.00  0.00     0.057 A 
ATOM     42  C   UNL     1     -24.734  54.479  47.275  1.00  0.00     0.011 A 
ATOM     43  C   UNL     1     -23.836  51.833  47.427  1.00  0.00     0.158 A 
ATOM     44  C   UNL     1     -23.688  54.146  48.140  1.00  0.00     0.051 A 
ATOM     45  C   UNL     1     -23.231  52.817  48.225  1.00  0.00     0.160 A 
BRANCH  43  46
ATOM     46  O   UNL     1     -23.412  50.504  47.476  1.00  0.00    -0.504 OA
ATOM     47  H   UNL     1     -23.040  50.087  48.322  1.00  0.00     0.293 HD
ENDBRANCH  43  46
BRANCH  45  48
ATOM     48  O   UNL     1     -22.187  52.443  49.088  1.00  0.00    -0.493 OA
ATOM     49  C   UNL     1     -21.055  53.254  49.385  1.00  0.00     0.278 C 
ENDBRANCH  45  48
ENDBRANCH  35  40
ENDBRANCH  26  27
ENDBRANCH   5  26
BRANCH   4  50
ATOM     50  O   UNL     1     -28.601  49.646  39.224  1.00  0.00    -0.384 OA
ATOM     51  H   UNL     1     -29.264  49.145  38.683  1.00  0.00     0.211 HD
ENDBRANCH   4  50
TORSDOF 15
ENDMDL
MODEL 3
REMARK VINA RESULT:    -5.023      4.413      9.573
REMARK INTER + INTRA:         -10.089
REMARK INTER:                  -8.453
REMARK INTRA:                  -1.636
REMARK UNBOUND:                -1.836
REMARK SMILES COc1ccc([C@H]2CC(=O)c3c(O)cc(O[C@@H]4O[C@H](CO[C@@H]5O[C@@H](C)[C@@H](O)[C@@H](O)[C@H]5O)[C@H](O)[C@@H](O)[C@H]4O)cc3O2)cc1O
REMARK SMILES IDX 19 1 32 2 34 3 36 4 17 5 18 6 20 7 21 8 22 9 25 10 24 11
REMARK SMILES IDX 26 12 23 13 28 14 30 15 27 16 29 18 31 20 33 22 35 24 16 26
REMARK SMILES IDX 15 27 14 28 38 29 12 30 39 31 11 32 40 33 9 34 7 35 10 36
REMARK SMILES IDX 8 37 13 38 6 40 41 41 5 42 42 43 4 44 3 45 43 46 2 48 1 49
REMARK SMILES IDX 37 50
REMARK H PARENT 27 17 29 19 31 21 33 23 35 25 13 39 43 47 37 51
REMARK Flexibility Score: inf
ROOT
ATOM      1  C   UNL     1     -27.212  46.936  35.846  1.00  0.00     0.180 C 
ATOM      2  C   UNL     1     -27.683  45.757  34.924  1.00  0.00     0.177 C 
ATOM      3  C   UNL     1     -29.221  45.693  34.913  1.00  0.00     0.180 C 
ATOM      4  C   UNL     1     -29.765  45.514  36.356  1.00  0.00     0.214 C 
ATOM      5  C   UNL     1     -28.788  46.124  37.389  1.00  0.00     0.339 C 
ATOM      6  O   UNL     1     -28.168  47.270  36.845  1.00  0.00    -0.332 OA
ENDROOT
BRANCH   1   7
ATOM      7  C   UNL     1     -26.895  48.220  35.040  1.00  0.00     0.198 C 
BRANCH   7   8
ATOM      8  O   UNL     1     -27.857  49.243  35.249  1.00  0.00    -0.347 OA
BRANCH   8   9
ATOM      9  C   UNL     1     -28.330  49.793  34.033  1.00  0.00     0.281 C 
ATOM     10  C   UNL     1     -28.385  47.725  30.947  1.00  0.00     0.041 C 
ATOM     11  C   UNL     1     -27.922  48.862  31.860  1.00  0.00     0.150 C 
ATOM     12  C   UNL     1     -28.197  50.248  31.234  1.00  0.00     0.174 C 
ATOM     13  O   UNL     1     -28.578  48.731  33.108  1.00  0.00    -0.344 OA
ATOM     14  C   UNL     1     -27.616  51.372  32.138  1.00  0.00     0.179 C 
ATOM     15  C   UNL     1     -27.292  50.850  33.560  1.00  0.00     0.202 C 
BRANCH  12  16
ATOM     16  O   UNL     1     -29.587  50.427  31.079  1.00  0.00    -0.388 OA
ATOM     17  H   UNL     1     -29.743  50.743  30.150  1.00  0.00     0.211 HD
ENDBRANCH  12  16
BRANCH  14  18
ATOM     18  O   UNL     1     -28.504  52.460  32.211  1.00  0.00    -0.387 OA
ATOM     19  H   UNL     1     -28.086  53.135  32.808  1.00  0.00     0.211 HD
ENDBRANCH  14  18
BRANCH  15  20
ATOM     20  O   UNL     1     -27.168  51.907  34.483  1.00  0.00    -0.385 OA
ATOM     21  H   UNL     1     -26.370  52.444  34.234  1.00  0.00     0.211 HD
ENDBRANCH  15  20
ENDBRANCH   8   9
ENDBRANCH   7   8
ENDBRANCH   1   7
BRANCH   2  22
ATOM     22  O   UNL     1     -27.193  45.879  33.613  1.00  0.00    -0.387 OA
ATOM     23  H   UNL     1     -27.540  46.739  33.258  1.00  0.00     0.211 HD
ENDBRANCH   2  22
BRANCH   3  24
ATOM     24  O   UNL     1     -29.667  44.643  34.094  1.00  0.00    -0.387 OA
ATOM     25  H   UNL     1     -29.509  43.799  34.595  1.00  0.00     0.211 HD
ENDBRANCH   3  24
BRANCH   5  26
ATOM     26  O   UNL     1     -29.478  46.447  38.601  1.00  0.00    -0.462 OA
BRANCH  26  27
ATOM     27  C   UNL     1     -28.879  46.559  39.864  1.00  0.00     0.130 A 
ATOM     28  C   UNL     1     -29.546  46.172  41.037  1.00  0.00     0.093 A 
ATOM     29  C   UNL     1     -27.607  47.128  39.955  1.00  0.00     0.094 A 
ATOM     30  C   UNL     1     -28.929  46.310  42.288  1.00  0.00     0.133 A 
ATOM     31  C   UNL     1     -26.988  47.289  41.196  1.00  0.00     0.138 A 
ATOM     32  C   UNL     1     -27.634  46.860  42.371  1.00  0.00     0.102 A 
ATOM     33  O   UNL     1     -25.731  47.906  41.256  1.00  0.00    -0.484 OA
ATOM     34  C   UNL     1     -26.910  47.012  43.651  1.00  0.00     0.174 C 
ATOM     35  C   UNL     1     -25.112  48.315  42.482  1.00  0.00     0.211 C 
ATOM     36  O   UNL     1     -27.480  46.797  44.753  1.00  0.00    -0.294 OA
ATOM     37  C   UNL     1     -25.449  47.349  43.633  1.00  0.00     0.131 C 
BRANCH  30  38
ATOM     38  O   UNL     1     -29.605  45.902  43.438  1.00  0.00    -0.507 OA
ATOM     39  H   UNL     1     -29.517  44.958  43.798  1.00  0.00     0.293 HD
ENDBRANCH  30  38
BRANCH  35  40
ATOM     40  C   UNL     1     -25.464  49.750  42.838  1.00  0.00    -0.003 A 
ATOM     41  C   UNL     1     -25.687  50.730  41.853  1.00  0.00     0.057 A 
ATOM     42  C   UNL     1     -25.625  50.101  44.187  1.00  0.00     0.011 A 
ATOM     43  C   UNL     1     -26.037  52.037  42.209  1.00  0.00     0.158 A 
ATOM     44  C   UNL     1     -25.974  51.404  44.549  1.00  0.00     0.051 A 
ATOM     45  C   UNL     1     -26.181  52.387  43.562  1.00  0.00     0.160 A 
BRANCH  43  46
ATOM     46  O   UNL     1     -26.238  52.978  41.197  1.00  0.00    -0.504 OA
ATOM     47  H   UNL     1     -25.753  52.926  40.309  1.00  0.00     0.293 HD
ENDBRANCH  43  46
BRANCH  45  48
ATOM     48  O   UNL     1     -26.526  53.709  43.889  1.00  0.00    -0.493 OA
ATOM     49  C   UNL     1     -26.578  54.226  45.214  1.00  0.00     0.278 C 
ENDBRANCH  45  48
ENDBRANCH  35  40
ENDBRANCH  26  27
ENDBRANCH   5  26
BRANCH   4  50
ATOM     50  O   UNL     1     -29.958  44.150  36.639  1.00  0.00    -0.384 OA
ATOM     51  H   UNL     1     -29.881  43.664  35.778  1.00  0.00     0.211 HD
ENDBRANCH   4  50
TORSDOF 15
ENDMDL
MODEL 4
REMARK VINA RESULT:    -4.919      2.907     10.217
REMARK INTER + INTRA:          -9.918
REMARK INTER:                  -7.914
REMARK INTRA:                  -2.004
REMARK UNBOUND:                -1.836
REMARK SMILES COc1ccc([C@H]2CC(=O)c3c(O)cc(O[C@@H]4O[C@H](CO[C@@H]5O[C@@H](C)[C@@H](O)[C@@H](O)[C@H]5O)[C@H](O)[C@@H](O)[C@H]4O)cc3O2)cc1O
REMARK SMILES IDX 19 1 32 2 34 3 36 4 17 5 18 6 20 7 21 8 22 9 25 10 24 11
REMARK SMILES IDX 26 12 23 13 28 14 30 15 27 16 29 18 31 20 33 22 35 24 16 26
REMARK SMILES IDX 15 27 14 28 38 29 12 30 39 31 11 32 40 33 9 34 7 35 10 36
REMARK SMILES IDX 8 37 13 38 6 40 41 41 5 42 42 43 4 44 3 45 43 46 2 48 1 49
REMARK SMILES IDX 37 50
REMARK H PARENT 27 17 29 19 31 21 33 23 35 25 13 39 43 47 37 51
REMARK Flexibility Score: inf
ROOT
ATOM      1  C   UNL     1     -25.435  52.709  43.443  1.00  0.00     0.180 C 
ATOM      2  C   UNL     1     -23.887  52.890  43.261  1.00  0.00     0.177 C 
ATOM      3  C   UNL     1     -23.573  53.178  41.782  1.00  0.00     0.180 C 
ATOM      4  C   UNL     1     -24.102  52.030  40.883  1.00  0.00     0.214 C 
ATOM      5  C   UNL     1     -25.321  51.339  41.538  1.00  0.00     0.339 C 
ATOM      6  O   UNL     1     -26.086  52.288  42.250  1.00  0.00    -0.332 OA
ENDROOT
BRANCH   1   7
ATOM      7  C   UNL     1     -26.124  54.008  43.929  1.00  0.00     0.198 C 
BRANCH   7   8
ATOM      8  O   UNL     1     -26.043  54.171  45.337  1.00  0.00    -0.347 OA
BRANCH   8   9
ATOM      9  C   UNL     1     -26.017  55.534  45.720  1.00  0.00     0.281 C 
ATOM     10  C   UNL     1     -23.234  57.732  44.614  1.00  0.00     0.041 C 
ATOM     11  C   UNL     1     -24.083  56.948  45.617  1.00  0.00     0.150 C 
ATOM     12  C   UNL     1     -24.728  57.877  46.670  1.00  0.00     0.174 C 
ATOM     13  O   UNL     1     -25.072  56.229  44.903  1.00  0.00    -0.344 OA
ATOM     14  C   UNL     1     -25.491  57.038  47.734  1.00  0.00     0.179 C 
ATOM     15  C   UNL     1     -25.734  55.588  47.249  1.00  0.00     0.202 C 
BRANCH  12  16
ATOM     16  O   UNL     1     -25.616  58.767  46.032  1.00  0.00    -0.388 OA
ATOM     17  H   UNL     1     -25.850  58.372  45.152  1.00  0.00     0.211 HD
ENDBRANCH  12  16
BRANCH  14  18
ATOM     18  O   UNL     1     -26.713  57.650  48.067  1.00  0.00    -0.387 OA
ATOM     19  H   UNL     1     -26.545  58.628  48.103  1.00  0.00     0.211 HD
ENDBRANCH  14  18
BRANCH  15  20
ATOM     20  O   UNL     1     -26.753  54.958  47.990  1.00  0.00    -0.385 OA
ATOM     21  H   UNL     1     -27.375  54.519  47.351  1.00  0.00     0.211 HD
ENDBRANCH  15  20
ENDBRANCH   8   9
ENDBRANCH   7   8
ENDBRANCH   1   7
BRANCH   2  22
ATOM     22  O   UNL     1     -23.372  53.911  44.075  1.00  0.00    -0.387 OA
ATOM     23  H   UNL     1     -23.846  54.746  43.820  1.00  0.00     0.211 HD
ENDBRANCH   2  22
BRANCH   3  24
ATOM     24  O   UNL     1     -22.190  53.343  41.594  1.00  0.00    -0.387 OA
ATOM     25  H   UNL     1     -22.059  54.241  41.188  1.00  0.00     0.211 HD
ENDBRANCH   3  24
BRANCH   5  26
ATOM     26  O   UNL     1     -26.120  50.685  40.545  1.00  0.00    -0.462 OA
BRANCH  26  27
ATOM     27  C   UNL     1     -26.746  49.441  40.706  1.00  0.00     0.130 A 
ATOM     28  C   UNL     1     -27.948  49.127  40.051  1.00  0.00     0.093 A 
ATOM     29  C   UNL     1     -26.186  48.517  41.591  1.00  0.00     0.094 A 
ATOM     30  C   UNL     1     -28.560  47.881  40.243  1.00  0.00     0.133 A 
ATOM     31  C   UNL     1     -26.794  47.280  41.805  1.00  0.00     0.138 A 
ATOM     32  C   UNL     1     -27.974  46.941  41.116  1.00  0.00     0.102 A 
ATOM     33  O   UNL     1     -26.231  46.394  42.734  1.00  0.00    -0.484 OA
ATOM     34  C   UNL     1     -28.548  45.598  41.347  1.00  0.00     0.174 C 
ATOM     35  C   UNL     1     -26.888  45.204  43.188  1.00  0.00     0.211 C 
ATOM     36  O   UNL     1     -29.678  45.283  40.890  1.00  0.00    -0.294 OA
ATOM     37  C   UNL     1     -27.735  44.567  42.071  1.00  0.00     0.131 C 
BRANCH  30  38
ATOM     38  O   UNL     1     -29.744  47.583  39.568  1.00  0.00    -0.507 OA
ATOM     39  H   UNL     1     -29.751  46.994  38.742  1.00  0.00     0.293 HD
ENDBRANCH  30  38
BRANCH  35  40
ATOM     40  C   UNL     1     -27.717  45.462  44.436  1.00  0.00    -0.003 A 
ATOM     41  C   UNL     1     -27.393  46.481  45.349  1.00  0.00     0.057 A 
ATOM     42  C   UNL     1     -28.871  44.696  44.661  1.00  0.00     0.011 A 
ATOM     43  C   UNL     1     -28.190  46.714  46.476  1.00  0.00     0.158 A 
ATOM     44  C   UNL     1     -29.671  44.923  45.784  1.00  0.00     0.051 A 
ATOM     45  C   UNL     1     -29.336  45.934  46.705  1.00  0.00     0.160 A 
BRANCH  43  46
ATOM     46  O   UNL     1     -27.823  47.730  47.361  1.00  0.00    -0.504 OA
ATOM     47  H   UNL     1     -28.386  48.563  47.490  1.00  0.00     0.293 HD
ENDBRANCH  43  46
BRANCH  45  48
ATOM     48  O   UNL     1     -30.112  46.186  47.849  1.00  0.00    -0.493 OA
ATOM     49  C   UNL     1     -30.010  45.460  49.069  1.00  0.00     0.278 C 
ENDBRANCH  45  48
ENDBRANCH  35  40
ENDBRANCH  26  27
ENDBRANCH   5  26
BRANCH   4  50
ATOM     50  O   UNL     1     -23.089  51.081  40.655  1.00  0.00    -0.384 OA
ATOM     51  H   UNL     1     -22.364  51.274  41.303  1.00  0.00     0.211 HD
ENDBRANCH   4  50
TORSDOF 15
ENDMDL
MODEL 5
REMARK VINA RESULT:    -4.871      3.613      8.743
REMARK INTER + INTRA:          -9.839
REMARK INTER:                  -7.389
REMARK INTRA:                  -2.449
REMARK UNBOUND:                -1.836
REMARK SMILES COc1ccc([C@H]2CC(=O)c3c(O)cc(O[C@@H]4O[C@H](CO[C@@H]5O[C@@H](C)[C@@H](O)[C@@H](O)[C@H]5O)[C@H](O)[C@@H](O)[C@H]4O)cc3O2)cc1O
REMARK SMILES IDX 19 1 32 2 34 3 36 4 17 5 18 6 20 7 21 8 22 9 25 10 24 11
REMARK SMILES IDX 26 12 23 13 28 14 30 15 27 16 29 18 31 20 33 22 35 24 16 26
REMARK SMILES IDX 15 27 14 28 38 29 12 30 39 31 11 32 40 33 9 34 7 35 10 36
REMARK SMILES IDX 8 37 13 38 6 40 41 41 5 42 42 43 4 44 3 45 43 46 2 48 1 49
REMARK SMILES IDX 37 50
REMARK H PARENT 27 17 29 19 31 21 33 23 35 25 13 39 43 47 37 51
REMARK Flexibility Score: inf
ROOT
ATOM      1  C   UNL     1     -23.919  55.811  46.862  1.00  0.00     0.180 C 
ATOM      2  C   UNL     1     -24.654  56.400  48.116  1.00  0.00     0.177 C 
ATOM      3  C   UNL     1     -25.742  55.418  48.586  1.00  0.00     0.180 C 
ATOM      4  C   UNL     1     -26.749  55.139  47.440  1.00  0.00     0.214 C 
ATOM      5  C   UNL     1     -26.070  55.307  46.060  1.00  0.00     0.339 C 
ATOM      6  O   UNL     1     -24.724  54.889  46.134  1.00  0.00    -0.332 OA
ENDROOT
BRANCH   1   7
ATOM      7  C   UNL     1     -22.597  55.097  47.237  1.00  0.00     0.198 C 
BRANCH   7   8
ATOM      8  O   UNL     1     -22.815  53.911  47.986  1.00  0.00    -0.347 OA
BRANCH   8   9
ATOM      9  C   UNL     1     -22.362  52.755  47.307  1.00  0.00     0.281 C 
ATOM     10  C   UNL     1     -21.726  52.869  43.648  1.00  0.00     0.041 C 
ATOM     11  C   UNL     1     -22.445  52.444  44.930  1.00  0.00     0.150 C 
ATOM     12  C   UNL     1     -22.376  50.915  45.145  1.00  0.00     0.174 C 
ATOM     13  O   UNL     1     -21.866  53.135  46.021  1.00  0.00    -0.344 OA
ATOM     14  C   UNL     1     -23.209  50.508  46.394  1.00  0.00     0.179 C 
ATOM     15  C   UNL     1     -23.534  51.733  47.285  1.00  0.00     0.202 C 
BRANCH  12  16
ATOM     16  O   UNL     1     -21.033  50.524  45.315  1.00  0.00    -0.388 OA
ATOM     17  H   UNL     1     -20.998  49.535  45.231  1.00  0.00     0.211 HD
ENDBRANCH  12  16
BRANCH  14  18
ATOM     18  O   UNL     1     -22.534  49.528  47.143  1.00  0.00    -0.387 OA
ATOM     19  H   UNL     1     -23.227  49.008  47.630  1.00  0.00     0.211 HD
ENDBRANCH  14  18
BRANCH  15  20
ATOM     20  O   UNL     1     -23.908  51.341  48.585  1.00  0.00    -0.385 OA
ATOM     21  H   UNL     1     -23.703  50.374  48.690  1.00  0.00     0.211 HD
ENDBRANCH  15  20
ENDBRANCH   8   9
ENDBRANCH   7   8
ENDBRANCH   1   7
BRANCH   2  22
ATOM     22  O   UNL     1     -23.766  56.682  49.168  1.00  0.00    -0.387 OA
ATOM     23  H   UNL     1     -22.968  57.111  48.760  1.00  0.00     0.211 HD
ENDBRANCH   2  22
BRANCH   3  24
ATOM     24  O   UNL     1     -26.415  55.927  49.710  1.00  0.00    -0.387 OA
ATOM     25  H   UNL     1     -25.718  56.210  50.359  1.00  0.00     0.211 HD
ENDBRANCH   3  24
BRANCH   5  26
ATOM     26  O   UNL     1     -26.777  54.565  45.060  1.00  0.00    -0.462 OA
BRANCH  26  27
ATOM     27  C   UNL     1     -26.182  53.732  44.103  1.00  0.00     0.130 A 
ATOM     28  C   UNL     1     -25.698  54.231  42.883  1.00  0.00     0.093 A 
ATOM     29  C   UNL     1     -26.128  52.358  44.351  1.00  0.00     0.094 A 
ATOM     30  C   UNL     1     -25.122  53.371  41.938  1.00  0.00     0.133 A 
ATOM     31  C   UNL     1     -25.573  51.488  43.411  1.00  0.00     0.138 A 
ATOM     32  C   UNL     1     -25.044  51.990  42.206  1.00  0.00     0.102 A 
ATOM     33  O   UNL     1     -25.576  50.111  43.670  1.00  0.00    -0.484 OA
ATOM     34  C   UNL     1     -24.427  51.026  41.269  1.00  0.00     0.174 C 
ATOM     35  C   UNL     1     -25.237  49.122  42.690  1.00  0.00     0.211 C 
ATOM     36  O   UNL     1     -24.075  51.375  40.112  1.00  0.00    -0.294 OA
ATOM     37  C   UNL     1     -24.141  49.630  41.734  1.00  0.00     0.131 C 
BRANCH  30  38
ATOM     38  O   UNL     1     -24.631  53.893  40.741  1.00  0.00    -0.507 OA
ATOM     39  H   UNL     1     -23.639  54.050  40.597  1.00  0.00     0.293 HD
ENDBRANCH  30  38
BRANCH  35  40
ATOM     40  C   UNL     1     -26.462  48.644  41.927  1.00  0.00    -0.003 A 
ATOM     41  C   UNL     1     -26.856  49.226  40.708  1.00  0.00     0.057 A 
ATOM     42  C   UNL     1     -27.196  47.556  42.423  1.00  0.00     0.011 A 
ATOM     43  C   UNL     1     -27.973  48.748  40.013  1.00  0.00     0.158 A 
ATOM     44  C   UNL     1     -28.312  47.074  41.735  1.00  0.00     0.051 A 
ATOM     45  C   UNL     1     -28.713  47.668  40.523  1.00  0.00     0.160 A 
BRANCH  43  46
ATOM     46  O   UNL     1     -28.331  49.364  38.813  1.00  0.00    -0.504 OA
ATOM     47  H   UNL     1     -28.788  48.858  38.062  1.00  0.00     0.293 HD
ENDBRANCH  43  46
BRANCH  45  48
ATOM     48  O   UNL     1     -29.834  47.215  39.807  1.00  0.00    -0.493 OA
ATOM     49  C   UNL     1     -29.795  46.212  38.798  1.00  0.00     0.278 C 
ENDBRANCH  45  48
ENDBRANCH  35  40
ENDBRANCH  26  27
ENDBRANCH   5  26
BRANCH   4  50
ATOM     50  O   UNL     1     -27.848  56.013  47.533  1.00  0.00    -0.384 OA
ATOM     51  H   UNL     1     -28.404  55.863  46.726  1.00  0.00     0.211 HD
ENDBRANCH   4  50
TORSDOF 15
ENDMDL
MODEL 6
REMARK VINA RESULT:    -4.850      2.992      9.140
REMARK INTER + INTRA:          -9.804
REMARK INTER:                  -6.882
REMARK INTRA:                  -2.922
REMARK UNBOUND:                -1.836
REMARK SMILES COc1ccc([C@H]2CC(=O)c3c(O)cc(O[C@@H]4O[C@H](CO[C@@H]5O[C@@H](C)[C@@H](O)[C@@H](O)[C@H]5O)[C@H](O)[C@@H](O)[C@H]4O)cc3O2)cc1O
REMARK SMILES IDX 19 1 32 2 34 3 36 4 17 5 18 6 20 7 21 8 22 9 25 10 24 11
REMARK SMILES IDX 26 12 23 13 28 14 30 15 27 16 29 18 31 20 33 22 35 24 16 26
REMARK SMILES IDX 15 27 14 28 38 29 12 30 39 31 11 32 40 33 9 34 7 35 10 36
REMARK SMILES IDX 8 37 13 38 6 40 41 41 5 42 42 43 4 44 3 45 43 46 2 48 1 49
REMARK SMILES IDX 37 50
REMARK H PARENT 27 17 29 19 31 21 33 23 35 25 13 39 43 47 37 51
REMARK Flexibility Score: inf
ROOT
ATOM      1  C   UNL     1     -26.528  52.883  44.961  1.00  0.00     0.180 C 
ATOM      2  C   UNL     1     -26.376  54.130  45.901  1.00  0.00     0.177 C 
ATOM      3  C   UNL     1     -24.884  54.413  46.146  1.00  0.00     0.180 C 
ATOM      4  C   UNL     1     -24.193  53.169  46.767  1.00  0.00     0.214 C 
ATOM      5  C   UNL     1     -24.916  51.870  46.339  1.00  0.00     0.339 C 
ATOM      6  O   UNL     1     -25.409  52.007  45.023  1.00  0.00    -0.332 OA
ENDROOT
BRANCH   1   7
ATOM      7  C   UNL     1     -26.737  53.286  43.480  1.00  0.00     0.198 C 
BRANCH   7   8
ATOM      8  O   UNL     1     -25.596  53.923  42.925  1.00  0.00    -0.347 OA
BRANCH   8   9
ATOM      9  C   UNL     1     -25.200  53.341  41.697  1.00  0.00     0.281 C 
ATOM     10  C   UNL     1     -24.032  49.816  41.592  1.00  0.00     0.041 C 
ATOM     11  C   UNL     1     -23.899  51.337  41.489  1.00  0.00     0.150 C 
ATOM     12  C   UNL     1     -23.476  51.780  40.070  1.00  0.00     0.174 C 
ATOM     13  O   UNL     1     -25.136  51.922  41.854  1.00  0.00    -0.344 OA
ATOM     14  C   UNL     1     -23.244  53.317  40.032  1.00  0.00     0.179 C 
ATOM     15  C   UNL     1     -23.867  54.018  41.264  1.00  0.00     0.202 C 
BRANCH  12  16
ATOM     16  O   UNL     1     -24.479  51.422  39.147  1.00  0.00    -0.388 OA
ATOM     17  H   UNL     1     -24.031  50.982  38.377  1.00  0.00     0.211 HD
ENDBRANCH  12  16
BRANCH  14  18
ATOM     18  O   UNL     1     -23.763  53.868  38.846  1.00  0.00    -0.387 OA
ATOM     19  H   UNL     1     -23.349  53.372  38.092  1.00  0.00     0.211 HD
ENDBRANCH  14  18
BRANCH  15  20
ATOM     20  O   UNL     1     -24.032  55.399  41.046  1.00  0.00    -0.385 OA
ATOM     21  H   UNL     1     -23.846  55.587  40.088  1.00  0.00     0.211 HD
ENDBRANCH  15  20
ENDBRANCH   8   9
ENDBRANCH   7   8
ENDBRANCH   1   7
BRANCH   2  22
ATOM     22  O   UNL     1     -27.007  55.271  45.377  1.00  0.00    -0.387 OA
ATOM     23  H   UNL     1     -26.674  56.047  45.900  1.00  0.00     0.211 HD
ENDBRANCH   2  22
BRANCH   3  24
ATOM     24  O   UNL     1     -24.723  55.527  46.988  1.00  0.00    -0.387 OA
ATOM     25  H   UNL     1     -25.318  55.384  47.771  1.00  0.00     0.211 HD
ENDBRANCH   3  24
BRANCH   5  26
ATOM     26  O   UNL     1     -24.032  50.749  46.436  1.00  0.00    -0.462 OA
BRANCH  26  27
ATOM     27  C   UNL     1     -24.149  49.563  45.698  1.00  0.00     0.130 A 
ATOM     28  C   UNL     1     -23.027  48.898  45.180  1.00  0.00     0.093 A 
ATOM     29  C   UNL     1     -25.427  49.069  45.422  1.00  0.00     0.094 A 
ATOM     30  C   UNL     1     -23.176  47.723  44.432  1.00  0.00     0.133 A 
ATOM     31  C   UNL     1     -25.590  47.909  44.662  1.00  0.00     0.138 A 
ATOM     32  C   UNL     1     -24.466  47.213  44.180  1.00  0.00     0.102 A 
ATOM     33  O   UNL     1     -26.886  47.466  44.365  1.00  0.00    -0.484 OA
ATOM     34  C   UNL     1     -24.699  45.965  43.422  1.00  0.00     0.174 C 
ATOM     35  C   UNL     1     -27.166  46.426  43.420  1.00  0.00     0.211 C 
ATOM     36  O   UNL     1     -23.758  45.375  42.829  1.00  0.00    -0.294 OA
ATOM     37  C   UNL     1     -26.066  45.349  43.425  1.00  0.00     0.131 C 
BRANCH  30  38
ATOM     38  O   UNL     1     -22.044  47.069  43.943  1.00  0.00    -0.507 OA
ATOM     39  H   UNL     1     -21.108  47.377  44.182  1.00  0.00     0.293 HD
ENDBRANCH  30  38
BRANCH  35  40
ATOM     40  C   UNL     1     -27.394  46.981  42.023  1.00  0.00    -0.003 A 
ATOM     41  C   UNL     1     -27.204  48.342  41.722  1.00  0.00     0.057 A 
ATOM     42  C   UNL     1     -27.753  46.105  40.988  1.00  0.00     0.011 A 
ATOM     43  C   UNL     1     -27.394  48.822  40.421  1.00  0.00     0.158 A 
ATOM     44  C   UNL     1     -27.945  46.577  39.687  1.00  0.00     0.051 A 
ATOM     45  C   UNL     1     -27.770  47.942  39.392  1.00  0.00     0.160 A 
BRANCH  43  46
ATOM     46  O   UNL     1     -27.204  50.182  40.172  1.00  0.00    -0.504 OA
ATOM     47  H   UNL     1     -26.311  50.638  40.319  1.00  0.00     0.293 HD
ENDBRANCH  43  46
BRANCH  45  48
ATOM     48  O   UNL     1     -27.961  48.454  38.097  1.00  0.00    -0.493 OA
ATOM     49  C   UNL     1     -27.153  48.126  36.972  1.00  0.00     0.278 C 
ENDBRANCH  45  48
ENDBRANCH  35  40
ENDBRANCH  26  27
ENDBRANCH   5  26
BRANCH   4  50
ATOM     50  O   UNL     1     -24.186  53.264  48.170  1.00  0.00    -0.384 OA
ATOM     51  H   UNL     1     -24.166  54.230  48.393  1.00  0.00     0.211 HD
ENDBRANCH   4  50
TORSDOF 15
ENDMDL
MODEL 7
REMARK VINA RESULT:    -4.836      3.475      9.133
REMARK INTER + INTRA:          -9.782
REMARK INTER:                  -6.307
REMARK INTRA:                  -3.476
REMARK UNBOUND:                -1.836
REMARK SMILES COc1ccc([C@H]2CC(=O)c3c(O)cc(O[C@@H]4O[C@H](CO[C@@H]5O[C@@H](C)[C@@H](O)[C@@H](O)[C@H]5O)[C@H](O)[C@@H](O)[C@H]4O)cc3O2)cc1O
REMARK SMILES IDX 19 1 32 2 34 3 36 4 17 5 18 6 20 7 21 8 22 9 25 10 24 11
REMARK SMILES IDX 26 12 23 13 28 14 30 15 27 16 29 18 31 20 33 22 35 24 16 26
REMARK SMILES IDX 15 27 14 28 38 29 12 30 39 31 11 32 40 33 9 34 7 35 10 36
REMARK SMILES IDX 8 37 13 38 6 40 41 41 5 42 42 43 4 44 3 45 43 46 2 48 1 49
REMARK SMILES IDX 37 50
REMARK H PARENT 27 17 29 19 31 21 33 23 35 25 13 39 43 47 37 51
REMARK Flexibility Score: inf
ROOT
ATOM      1  C   UNL     1     -26.321  51.925  44.322  1.00  0.00     0.180 C 
ATOM      2  C   UNL     1     -25.622  53.118  45.062  1.00  0.00     0.177 C 
ATOM      3  C   UNL     1     -24.144  52.774  45.315  1.00  0.00     0.180 C 
ATOM      4  C   UNL     1     -24.027  51.468  46.145  1.00  0.00     0.214 C 
ATOM      5  C   UNL     1     -25.248  50.551  45.897  1.00  0.00     0.339 C 
ATOM      6  O   UNL     1     -25.679  50.677  44.559  1.00  0.00    -0.332 OA
ENDROOT
BRANCH   1   7
ATOM      7  C   UNL     1     -26.388  52.143  42.790  1.00  0.00     0.198 C 
BRANCH   7   8
ATOM      8  O   UNL     1     -25.101  52.231  42.198  1.00  0.00    -0.347 OA
BRANCH   8   9
ATOM      9  C   UNL     1     -25.052  51.614  40.924  1.00  0.00     0.281 C 
ATOM     10  C   UNL     1     -24.457  47.957  40.645  1.00  0.00     0.041 C 
ATOM     11  C   UNL     1     -24.128  49.443  40.491  1.00  0.00     0.150 C 
ATOM     12  C   UNL     1     -23.941  49.838  39.008  1.00  0.00     0.174 C 
ATOM     13  O   UNL     1     -25.165  50.199  41.089  1.00  0.00    -0.344 OA
ATOM     14  C   UNL     1     -23.500  51.326  38.898  1.00  0.00     0.179 C 
ATOM     15  C   UNL     1     -23.751  52.094  40.219  1.00  0.00     0.202 C 
BRANCH  12  16
ATOM     16  O   UNL     1     -25.152  49.643  38.314  1.00  0.00    -0.388 OA
ATOM     17  H   UNL     1     -25.659  50.496  38.355  1.00  0.00     0.211 HD
ENDBRANCH  12  16
BRANCH  14  18
ATOM     18  O   UNL     1     -24.163  51.962  37.833  1.00  0.00    -0.387 OA
ATOM     19  H   UNL     1     -23.615  51.808  37.019  1.00  0.00     0.211 HD
ENDBRANCH  14  18
BRANCH  15  20
ATOM     20  O   UNL     1     -23.753  53.487  40.015  1.00  0.00    -0.385 OA
ATOM     21  H   UNL     1     -24.180  53.916  40.804  1.00  0.00     0.211 HD
ENDBRANCH  15  20
ENDBRANCH   8   9
ENDBRANCH   7   8
ENDBRANCH   1   7
BRANCH   2  22
ATOM     22  O   UNL     1     -25.725  54.322  44.345  1.00  0.00    -0.387 OA
ATOM     23  H   UNL     1     -24.917  54.855  44.566  1.00  0.00     0.211 HD
ENDBRANCH   2  22
BRANCH   3  24
ATOM     24  O   UNL     1     -23.497  53.830  45.979  1.00  0.00    -0.387 OA
ATOM     25  H   UNL     1     -22.690  54.056  45.444  1.00  0.00     0.211 HD
ENDBRANCH   3  24
BRANCH   5  26
ATOM     26  O   UNL     1     -24.921  49.190  46.199  1.00  0.00    -0.462 OA
BRANCH  26  27
ATOM     27  C   UNL     1     -25.090  48.108  45.325  1.00  0.00     0.130 A 
ATOM     28  C   UNL     1     -24.005  47.333  44.885  1.00  0.00     0.093 A 
ATOM     29  C   UNL     1     -26.370  47.835  44.834  1.00  0.00     0.094 A 
ATOM     30  C   UNL     1     -24.202  46.267  43.998  1.00  0.00     0.133 A 
ATOM     31  C   UNL     1     -26.577  46.787  43.936  1.00  0.00     0.138 A 
ATOM     32  C   UNL     1     -25.500  45.979  43.528  1.00  0.00     0.102 A 
ATOM     33  O   UNL     1     -27.865  46.570  43.428  1.00  0.00    -0.484 OA
ATOM     34  C   UNL     1     -25.788  44.854  42.613  1.00  0.00     0.174 C 
ATOM     35  C   UNL     1     -28.145  45.674  42.345  1.00  0.00     0.211 C 
ATOM     36  O   UNL     1     -24.860  44.188  42.084  1.00  0.00    -0.294 OA
ATOM     37  C   UNL     1     -27.211  44.449  42.373  1.00  0.00     0.131 C 
BRANCH  30  38
ATOM     38  O   UNL     1     -23.111  45.500  43.589  1.00  0.00    -0.507 OA
ATOM     39  H   UNL     1     -22.213  45.561  44.057  1.00  0.00     0.293 HD
ENDBRANCH  30  38
BRANCH  35  40
ATOM     40  C   UNL     1     -28.094  46.382  41.002  1.00  0.00    -0.003 A 
ATOM     41  C   UNL     1     -28.027  47.783  40.899  1.00  0.00     0.057 A 
ATOM     42  C   UNL     1     -28.060  45.618  39.825  1.00  0.00     0.011 A 
ATOM     43  C   UNL     1     -27.954  48.409  39.649  1.00  0.00     0.158 A 
ATOM     44  C   UNL     1     -27.987  46.235  38.574  1.00  0.00     0.051 A 
ATOM     45  C   UNL     1     -27.936  47.638  38.474  1.00  0.00     0.160 A 
BRANCH  43  46
ATOM     46  O   UNL     1     -27.900  49.803  39.597  1.00  0.00    -0.504 OA
ATOM     47  H   UNL     1     -27.069  50.320  39.861  1.00  0.00     0.293 HD
ENDBRANCH  43  46
BRANCH  45  48
ATOM     48  O   UNL     1     -27.870  48.294  37.233  1.00  0.00    -0.493 OA
ATOM     49  C   UNL     1     -27.363  47.711  36.038  1.00  0.00     0.278 C 
ENDBRANCH  45  48
ENDBRANCH  35  40
ENDBRANCH  26  27
ENDBRANCH   5  26
BRANCH   4  50
ATOM     50  O   UNL     1     -23.933  51.768  47.516  1.00  0.00    -0.384 OA
ATOM     51  H   UNL     1     -24.833  52.063  47.808  1.00  0.00     0.211 HD
ENDBRANCH   4  50
TORSDOF 15
ENDMDL
MODEL 8
REMARK VINA RESULT:    -4.743      4.790      8.076
REMARK INTER + INTRA:          -9.629
REMARK INTER:                  -7.588
REMARK INTRA:                  -2.041
REMARK UNBOUND:                -1.836
REMARK SMILES COc1ccc([C@H]2CC(=O)c3c(O)cc(O[C@@H]4O[C@H](CO[C@@H]5O[C@@H](C)[C@@H](O)[C@@H](O)[C@H]5O)[C@H](O)[C@@H](O)[C@H]4O)cc3O2)cc1O
REMARK SMILES IDX 19 1 32 2 34 3 36 4 17 5 18 6 20 7 21 8 22 9 25 10 24 11
REMARK SMILES IDX 26 12 23 13 28 14 30 15 27 16 29 18 31 20 33 22 35 24 16 26
REMARK SMILES IDX 15 27 14 28 38 29 12 30 39 31 11 32 40 33 9 34 7 35 10 36
REMARK SMILES IDX 8 37 13 38 6 40 41 41 5 42 42 43 4 44 3 45 43 46 2 48 1 49
REMARK SMILES IDX 37 50
REMARK H PARENT 27 17 29 19 31 21 33 23 35 25 13 39 43 47 37 51
REMARK Flexibility Score: inf
ROOT
ATOM      1  C   UNL     1     -24.955  53.449  41.340  1.00  0.00     0.180 C 
ATOM      2  C   UNL     1     -23.405  53.228  41.443  1.00  0.00     0.177 C 
ATOM      3  C   UNL     1     -22.736  54.508  41.973  1.00  0.00     0.180 C 
ATOM      4  C   UNL     1     -23.058  55.710  41.047  1.00  0.00     0.214 C 
ATOM      5  C   UNL     1     -24.416  55.503  40.334  1.00  0.00     0.339 C 
ATOM      6  O   UNL     1     -25.307  54.819  41.189  1.00  0.00    -0.332 OA
ENDROOT
BRANCH   1   7
ATOM      7  C   UNL     1     -25.710  52.896  42.573  1.00  0.00     0.198 C 
BRANCH   7   8
ATOM      8  O   UNL     1     -26.188  53.926  43.424  1.00  0.00    -0.347 OA
BRANCH   8   9
ATOM      9  C   UNL     1     -25.435  54.029  44.619  1.00  0.00     0.281 C 
ATOM     10  C   UNL     1     -23.696  51.047  45.991  1.00  0.00     0.041 C 
ATOM     11  C   UNL     1     -24.737  52.167  45.960  1.00  0.00     0.150 C 
ATOM     12  C   UNL     1     -24.593  53.116  47.172  1.00  0.00     0.174 C 
ATOM     13  O   UNL     1     -24.599  52.876  44.743  1.00  0.00    -0.344 OA
ATOM     14  C   UNL     1     -25.733  54.174  47.166  1.00  0.00     0.179 C 
ATOM     15  C   UNL     1     -26.438  54.245  45.789  1.00  0.00     0.202 C 
BRANCH  12  16
ATOM     16  O   UNL     1     -23.340  53.760  47.118  1.00  0.00    -0.388 OA
ATOM     17  H   UNL     1     -23.355  54.376  46.340  1.00  0.00     0.211 HD
ENDBRANCH  12  16
BRANCH  14  18
ATOM     18  O   UNL     1     -25.237  55.441  47.524  1.00  0.00    -0.387 OA
ATOM     19  H   UNL     1     -24.747  55.792  46.734  1.00  0.00     0.211 HD
ENDBRANCH  14  18
BRANCH  15  20
ATOM     20  O   UNL     1     -27.162  55.444  45.640  1.00  0.00    -0.385 OA
ATOM     21  H   UNL     1     -27.703  55.378  44.809  1.00  0.00     0.211 HD
ENDBRANCH  15  20
ENDBRANCH   8   9
ENDBRANCH   7   8
ENDBRANCH   1   7
BRANCH   2  22
ATOM     22  O   UNL     1     -23.078  52.134  42.262  1.00  0.00    -0.387 OA
ATOM     23  H   UNL     1     -23.209  51.317  41.712  1.00  0.00     0.211 HD
ENDBRANCH   2  22
BRANCH   3  24
ATOM     24  O   UNL     1     -21.345  54.333  42.074  1.00  0.00    -0.387 OA
ATOM     25  H   UNL     1     -21.150  54.109  43.022  1.00  0.00     0.211 HD
ENDBRANCH   3  24
BRANCH   5  26
ATOM     26  O   UNL     1     -24.966  56.761  39.928  1.00  0.00    -0.462 OA
BRANCH  26  27
ATOM     27  C   UNL     1     -25.504  57.036  38.664  1.00  0.00     0.130 A 
ATOM     28  C   UNL     1     -26.691  57.768  38.506  1.00  0.00     0.093 A 
ATOM     29  C   UNL     1     -24.868  56.510  37.536  1.00  0.00     0.094 A 
ATOM     30  C   UNL     1     -27.215  58.012  37.229  1.00  0.00     0.133 A 
ATOM     31  C   UNL     1     -25.388  56.731  36.260  1.00  0.00     0.138 A 
ATOM     32  C   UNL     1     -26.553  57.504  36.093  1.00  0.00     0.102 A 
ATOM     33  O   UNL     1     -24.752  56.152  35.154  1.00  0.00    -0.484 OA
ATOM     34  C   UNL     1     -27.031  57.744  34.715  1.00  0.00     0.174 C 
ATOM     35  C   UNL     1     -25.319  56.131  33.838  1.00  0.00     0.211 C 
ATOM     36  O   UNL     1     -28.144  58.290  34.495  1.00  0.00    -0.294 OA
ATOM     37  C   UNL     1     -26.138  57.405  33.559  1.00  0.00     0.131 C 
BRANCH  30  38
ATOM     38  O   UNL     1     -28.387  58.758  37.096  1.00  0.00    -0.507 OA
ATOM     39  H   UNL     1     -28.586  59.546  37.703  1.00  0.00     0.293 HD
ENDBRANCH  30  38
BRANCH  35  40
ATOM     40  C   UNL     1     -26.144  54.877  33.602  1.00  0.00    -0.003 A 
ATOM     41  C   UNL     1     -25.883  53.673  34.282  1.00  0.00     0.057 A 
ATOM     42  C   UNL     1     -27.232  54.929  32.717  1.00  0.00     0.011 A 
ATOM     43  C   UNL     1     -26.676  52.540  34.065  1.00  0.00     0.158 A 
ATOM     44  C   UNL     1     -28.027  53.802  32.496  1.00  0.00     0.051 A 
ATOM     45  C   UNL     1     -27.755  52.595  33.166  1.00  0.00     0.160 A 
BRANCH  43  46
ATOM     46  O   UNL     1     -26.372  51.365  34.755  1.00  0.00    -0.504 OA
ATOM     47  H   UNL     1     -25.434  51.157  35.078  1.00  0.00     0.293 HD
ENDBRANCH  43  46
BRANCH  45  48
ATOM     48  O   UNL     1     -28.528  51.439  32.963  1.00  0.00    -0.493 OA
ATOM     49  C   UNL     1     -29.773  51.179  33.602  1.00  0.00     0.278 C 
ENDBRANCH  45  48
ENDBRANCH  35  40
ENDBRANCH  26  27
ENDBRANCH   5  26
BRANCH   4  50
ATOM     50  O   UNL     1     -22.043  55.874  40.088  1.00  0.00    -0.384 OA
ATOM     51  H   UNL     1     -22.148  55.141  39.429  1.00  0.00     0.211 HD
ENDBRANCH   4  50
TORSDOF 15
ENDMDL
MODEL 9
REMARK VINA RESULT:    -4.681      3.354      7.716
REMARK INTER + INTRA:          -9.528
REMARK INTER:                  -7.173
REMARK INTRA:                  -2.355
REMARK UNBOUND:                -1.836
REMARK SMILES COc1ccc([C@H]2CC(=O)c3c(O)cc(O[C@@H]4O[C@H](CO[C@@H]5O[C@@H](C)[C@@H](O)[C@@H](O)[C@H]5O)[C@H](O)[C@@H](O)[C@H]4O)cc3O2)cc1O
REMARK SMILES IDX 19 1 32 2 34 3 36 4 17 5 18 6 20 7 21 8 22 9 25 10 24 11
REMARK SMILES IDX 26 12 23 13 28 14 30 15 27 16 29 18 31 20 33 22 35 24 16 26
REMARK SMILES IDX 15 27 14 28 38 29 12 30 39 31 11 32 40 33 9 34 7 35 10 36
REMARK SMILES IDX 8 37 13 38 6 40 41 41 5 42 42 43 4 44 3 45 43 46 2 48 1 49
REMARK SMILES IDX 37 50
REMARK H PARENT 27 17 29 19 31 21 33 23 35 25 13 39 43 47 37 51
REMARK Flexibility Score: inf
ROOT
ATOM      1  C   UNL     1     -24.389  52.837  41.498  1.00  0.00     0.180 C 
ATOM      2  C   UNL     1     -24.366  53.231  43.016  1.00  0.00     0.177 C 
ATOM      3  C   UNL     1     -24.910  54.661  43.186  1.00  0.00     0.180 C 
ATOM      4  C   UNL     1     -24.073  55.661  42.345  1.00  0.00     0.214 C 
ATOM      5  C   UNL     1     -23.453  54.958  41.115  1.00  0.00     0.339 C 
ATOM      6  O   UNL     1     -24.335  53.966  40.634  1.00  0.00    -0.332 OA
ENDROOT
BRANCH   1   7
ATOM      7  C   UNL     1     -25.645  52.011  41.125  1.00  0.00     0.198 C 
BRANCH   7   8
ATOM      8  O   UNL     1     -25.393  50.614  41.118  1.00  0.00    -0.347 OA
BRANCH   8   9
ATOM      9  C   UNL     1     -26.355  49.898  40.366  1.00  0.00     0.281 C 
ATOM     10  C   UNL     1     -28.123  47.000  41.875  1.00  0.00     0.041 C 
ATOM     11  C   UNL     1     -27.167  47.708  40.914  1.00  0.00     0.150 C 
ATOM     12  C   UNL     1     -27.589  47.515  39.439  1.00  0.00     0.174 C 
ATOM     13  O   UNL     1     -27.125  49.083  41.252  1.00  0.00    -0.344 OA
ATOM     14  C   UNL     1     -26.536  48.153  38.489  1.00  0.00     0.179 C 
ATOM     15  C   UNL     1     -25.598  49.124  39.248  1.00  0.00     0.202 C 
BRANCH  12  16
ATOM     16  O   UNL     1     -28.849  48.110  39.229  1.00  0.00    -0.388 OA
ATOM     17  H   UNL     1     -29.293  47.612  38.493  1.00  0.00     0.211 HD
ENDBRANCH  12  16
BRANCH  14  18
ATOM     18  O   UNL     1     -27.168  48.821  37.425  1.00  0.00    -0.387 OA
ATOM     19  H   UNL     1     -27.149  49.791  37.641  1.00  0.00     0.211 HD
ENDBRANCH  14  18
BRANCH  15  20
ATOM     20  O   UNL     1     -24.936  50.000  38.366  1.00  0.00    -0.385 OA
ATOM     21  H   UNL     1     -25.534  50.169  37.590  1.00  0.00     0.211 HD
ENDBRANCH  15  20
ENDBRANCH   8   9
ENDBRANCH   7   8
ENDBRANCH   1   7
BRANCH   2  22
ATOM     22  O   UNL     1     -25.101  52.334  43.810  1.00  0.00    -0.387 OA
ATOM     23  H   UNL     1     -25.226  51.511  43.268  1.00  0.00     0.211 HD
ENDBRANCH   2  22
BRANCH   3  24
ATOM     24  O   UNL     1     -24.898  55.037  44.540  1.00  0.00    -0.387 OA
ATOM     25  H   UNL     1     -25.006  56.024  44.566  1.00  0.00     0.211 HD
ENDBRANCH   3  24
BRANCH   5  26
ATOM     26  O   UNL     1     -23.154  55.912  40.090  1.00  0.00    -0.462 OA
BRANCH  26  27
ATOM     27  C   UNL     1     -23.967  56.185  38.982  1.00  0.00     0.130 A 
ATOM     28  C   UNL     1     -25.178  56.886  39.105  1.00  0.00     0.093 A 
ATOM     29  C   UNL     1     -23.586  55.691  37.732  1.00  0.00     0.094 A 
ATOM     30  C   UNL     1     -25.978  57.131  37.981  1.00  0.00     0.133 A 
ATOM     31  C   UNL     1     -24.382  55.912  36.608  1.00  0.00     0.138 A 
ATOM     32  C   UNL     1     -25.574  56.654  36.717  1.00  0.00     0.102 A 
ATOM     33  O   UNL     1     -23.994  55.364  35.378  1.00  0.00    -0.484 OA
ATOM     34  C   UNL     1     -26.353  56.897  35.484  1.00  0.00     0.174 C 
ATOM     35  C   UNL     1     -24.840  55.343  34.221  1.00  0.00     0.211 C 
ATOM     36  O   UNL     1     -27.500  57.413  35.527  1.00  0.00    -0.294 OA
ATOM     37  C   UNL     1     -25.732  56.596  34.153  1.00  0.00     0.131 C 
BRANCH  30  38
ATOM     38  O   UNL     1     -27.168  57.844  38.125  1.00  0.00    -0.507 OA
ATOM     39  H   UNL     1     -27.273  58.565  38.831  1.00  0.00     0.293 HD
ENDBRANCH  30  38
BRANCH  35  40
ATOM     40  C   UNL     1     -25.665  54.068  34.152  1.00  0.00    -0.003 A 
ATOM     41  C   UNL     1     -25.237  52.869  34.750  1.00  0.00     0.057 A 
ATOM     42  C   UNL     1     -26.916  54.096  33.518  1.00  0.00     0.011 A 
ATOM     43  C   UNL     1     -26.030  51.717  34.694  1.00  0.00     0.158 A 
ATOM     44  C   UNL     1     -27.713  52.950  33.458  1.00  0.00     0.051 A 
ATOM     45  C   UNL     1     -27.275  51.747  34.044  1.00  0.00     0.160 A 
BRANCH  43  46
ATOM     46  O   UNL     1     -25.559  50.547  35.294  1.00  0.00    -0.504 OA
ATOM     47  H   UNL     1     -24.648  50.497  35.735  1.00  0.00     0.293 HD
ENDBRANCH  43  46
BRANCH  45  48
ATOM     48  O   UNL     1     -28.046  50.573  33.998  1.00  0.00    -0.493 OA
ATOM     49  C   UNL     1     -29.418  50.523  33.625  1.00  0.00     0.278 C 
ENDBRANCH  45  48
ENDBRANCH  35  40
ENDBRANCH  26  27
ENDBRANCH   5  26
BRANCH   4  50
ATOM     50  O   UNL     1     -23.051  56.224  43.132  1.00  0.00    -0.384 OA
ATOM     51  H   UNL     1     -23.486  56.613  43.933  1.00  0.00     0.211 HD
ENDBRANCH   4  50
TORSDOF 15
ENDMDL
