MODEL 1
REMARK VINA RESULT:     8.610      0.000      0.000
REMARK INTER + INTRA:          15.379
REMARK INTER:                  16.161
REMARK INTRA:                  -0.782
REMARK UNBOUND:                -0.782
REMARK SMILES O=C([O-])CCCCCCCCCCCCCCC(=O)[O-]
REMARK SMILES IDX 10 1 9 2 8 3 7 4 6 5 5 6 4 7 2 8 1 9 3 10 11 11 12 12 13 13
REMARK SMILES IDX 14 14 15 15 16 16 17 17 18 18 19 19 20 20
REMARK H PARENT
REMARK Flexibility Score: inf
ROOT
ATOM      1  C   UNL     1     -31.606  16.952 -10.504  1.00  0.00     0.000 C 
ENDROOT
BRANCH   1   2
ATOM      2  C   UNL     1     -31.447  18.394 -10.006  1.00  0.00     0.000 C 
BRANCH   2   3
ATOM      3  C   UNL     1     -32.440  19.331 -10.710  1.00  0.00     0.000 C 
BRANCH   3   4
ATOM      4  C   UNL     1     -32.386  20.769 -10.167  1.00  0.00     0.000 C 
BRANCH   4   5
ATOM      5  C   UNL     1     -31.079  21.490 -10.535  1.00  0.00     0.000 C 
BRANCH   5   6
ATOM      6  C   UNL     1     -31.250  23.016 -10.620  1.00  0.00     0.006 C 
BRANCH   6   7
ATOM      7  C   UNL     1     -31.884  23.613  -9.356  1.00  0.00     0.053 C 
BRANCH   7   8
ATOM      8  C   UNL     1     -33.322  23.945  -9.602  1.00  0.00     0.041 C 
ATOM      9  O   UNL     1     -34.106  24.124  -8.633  1.00  0.00    -0.550 OA
ATOM     10  O   UNL     1     -33.785  24.104 -10.902  1.00  0.00    -0.550 OA
ENDBRANCH   7   8
ENDBRANCH   6   7
ENDBRANCH   5   6
ENDBRANCH   4   5
ENDBRANCH   3   4
ENDBRANCH   2   3
ENDBRANCH   1   2
BRANCH   1  11
ATOM     11  C   UNL     1     -30.248  16.351 -10.894  1.00  0.00     0.000 C 
BRANCH  11  12
ATOM     12  C   UNL     1     -29.174  17.420 -11.161  1.00  0.00     0.000 C 
BRANCH  12  13
ATOM     13  C   UNL     1     -28.883  17.695 -12.651  1.00  0.00     0.000 C 
BRANCH  13  14
ATOM     14  C   UNL     1     -29.199  16.524 -13.603  1.00  0.00     0.000 C 
BRANCH  14  15
ATOM     15  C   UNL     1     -28.914  16.800 -15.093  1.00  0.00     0.000 C 
BRANCH  15  16
ATOM     16  C   UNL     1     -30.103  17.379 -15.888  1.00  0.00     0.006 C 
BRANCH  16  17
ATOM     17  C   UNL     1     -29.751  17.837 -17.312  1.00  0.00     0.053 C 
BRANCH  17  18
ATOM     18  C   UNL     1     -30.321  19.188 -17.622  1.00  0.00     0.041 C 
ATOM     19  O   UNL     1     -31.563  19.384 -17.551  1.00  0.00    -0.550 OA
ATOM     20  O   UNL     1     -29.475  20.238 -17.953  1.00  0.00    -0.550 OA
ENDBRANCH  17  18
ENDBRANCH  16  17
ENDBRANCH  15  16
ENDBRANCH  14  15
ENDBRANCH  13  14
ENDBRANCH  12  13
ENDBRANCH  11  12
ENDBRANCH   1  11
TORSDOF 15
ENDMDL
MODEL 2
REMARK VINA RESULT:     9.276      0.428      7.435
REMARK INTER + INTRA:          16.628
REMARK INTER:                  17.682
REMARK INTRA:                  -1.054
REMARK UNBOUND:                -0.782
REMARK SMILES O=C([O-])CCCCCCCCCCCCCCC(=O)[O-]
REMARK SMILES IDX 10 1 9 2 8 3 7 4 6 5 5 6 4 7 2 8 1 9 3 10 11 11 12 12 13 13
REMARK SMILES IDX 14 14 15 15 16 16 17 17 18 18 19 19 20 20
REMARK H PARENT
REMARK Flexibility Score: inf
ROOT
ATOM      1  C   UNL     1     -29.683  16.561 -10.868  1.00  0.00     0.000 C 
ENDROOT
BRANCH   1   2
ATOM      2  C   UNL     1     -28.999  17.834 -11.384  1.00  0.00     0.000 C 
BRANCH   2   3
ATOM      3  C   UNL     1     -28.924  17.834 -12.918  1.00  0.00     0.000 C 
BRANCH   3   4
ATOM      4  C   UNL     1     -29.022  16.420 -13.517  1.00  0.00     0.000 C 
BRANCH   4   5
ATOM      5  C   UNL     1     -29.156  16.436 -15.049  1.00  0.00     0.000 C 
BRANCH   5   6
ATOM      6  C   UNL     1     -29.629  17.798 -15.586  1.00  0.00     0.006 C 
BRANCH   6   7
ATOM      7  C   UNL     1     -30.238  17.702 -16.991  1.00  0.00     0.053 C 
BRANCH   7   8
ATOM      8  C   UNL     1     -30.486  19.070 -17.545  1.00  0.00     0.041 C 
ATOM      9  O   UNL     1     -31.661  19.515 -17.632  1.00  0.00    -0.550 OA
ATOM     10  O   UNL     1     -29.416  19.872 -17.919  1.00  0.00    -0.550 OA
ENDBRANCH   7   8
ENDBRANCH   6   7
ENDBRANCH   5   6
ENDBRANCH   4   5
ENDBRANCH   3   4
ENDBRANCH   2   3
ENDBRANCH   1   2
BRANCH   1  11
ATOM     11  C   UNL     1     -31.174  16.809 -10.595  1.00  0.00     0.000 C 
BRANCH  11  12
ATOM     12  C   UNL     1     -31.447  18.187  -9.968  1.00  0.00     0.000 C 
BRANCH  12  13
ATOM     13  C   UNL     1     -32.731  18.886 -10.464  1.00  0.00     0.000 C 
BRANCH  13  14
ATOM     14  C   UNL     1     -32.677  20.427 -10.458  1.00  0.00     0.000 C 
BRANCH  14  15
ATOM     15  C   UNL     1     -31.260  21.029 -10.380  1.00  0.00     0.000 C 
BRANCH  15  16
ATOM     16  C   UNL     1     -31.182  22.549 -10.627  1.00  0.00     0.006 C 
BRANCH  16  17
ATOM     17  C   UNL     1     -31.697  23.409  -9.462  1.00  0.00     0.053 C 
BRANCH  17  18
ATOM     18  C   UNL     1     -33.110  23.859  -9.681  1.00  0.00     0.041 C 
ATOM     19  O   UNL     1     -33.850  24.124  -8.697  1.00  0.00    -0.550 OA
ATOM     20  O   UNL     1     -33.596  24.017 -10.972  1.00  0.00    -0.550 OA
ENDBRANCH  17  18
ENDBRANCH  16  17
ENDBRANCH  15  16
ENDBRANCH  14  15
ENDBRANCH  13  14
ENDBRANCH  12  13
ENDBRANCH  11  12
ENDBRANCH   1  11
TORSDOF 15
ENDMDL
MODEL 3
REMARK VINA RESULT:    10.136      0.822      7.394
REMARK INTER + INTRA:          18.242
REMARK INTER:                  19.116
REMARK INTRA:                  -0.874
REMARK UNBOUND:                -0.782
REMARK SMILES O=C([O-])CCCCCCCCCCCCCCC(=O)[O-]
REMARK SMILES IDX 10 1 9 2 8 3 7 4 6 5 5 6 4 7 2 8 1 9 3 10 11 11 12 12 13 13
REMARK SMILES IDX 14 14 15 15 16 16 17 17 18 18 19 19 20 20
REMARK H PARENT
REMARK Flexibility Score: inf
ROOT
ATOM      1  C   UNL     1     -29.027  16.966 -11.299  1.00  0.00     0.000 C 
ENDROOT
BRANCH   1   2
ATOM      2  C   UNL     1     -28.984  17.641 -12.675  1.00  0.00     0.000 C 
BRANCH   2   3
ATOM      3  C   UNL     1     -28.846  16.598 -13.795  1.00  0.00     0.000 C 
BRANCH   3   4
ATOM      4  C   UNL     1     -28.990  17.211 -15.198  1.00  0.00     0.000 C 
BRANCH   4   5
ATOM      5  C   UNL     1     -30.263  16.741 -15.920  1.00  0.00     0.000 C 
BRANCH   5   6
ATOM      6  C   UNL     1     -30.764  17.760 -16.957  1.00  0.00     0.006 C 
BRANCH   6   7
ATOM      7  C   UNL     1     -29.621  18.438 -17.723  1.00  0.00     0.053 C 
BRANCH   7   8
ATOM      8  C   UNL     1     -29.822  19.920 -17.755  1.00  0.00     0.041 C 
ATOM      9  O   UNL     1     -28.869  20.682 -18.067  1.00  0.00    -0.550 OA
ATOM     10  O   UNL     1     -31.075  20.456 -17.487  1.00  0.00    -0.550 OA
ENDBRANCH   7   8
ENDBRANCH   6   7
ENDBRANCH   5   6
ENDBRANCH   4   5
ENDBRANCH   3   4
ENDBRANCH   2   3
ENDBRANCH   1   2
BRANCH   1  11
ATOM     11  C   UNL     1     -30.259  16.059 -11.168  1.00  0.00     0.000 C 
BRANCH  11  12
ATOM     12  C   UNL     1     -31.384  16.692 -10.331  1.00  0.00     0.000 C 
BRANCH  12  13
ATOM     13  C   UNL     1     -31.197  18.192 -10.016  1.00  0.00     0.000 C 
BRANCH  13  14
ATOM     14  C   UNL     1     -32.204  19.133 -10.709  1.00  0.00     0.000 C 
BRANCH  14  15
ATOM     15  C   UNL     1     -32.309  20.541 -10.090  1.00  0.00     0.000 C 
BRANCH  15  16
ATOM     16  C   UNL     1     -31.231  21.541 -10.557  1.00  0.00     0.006 C 
BRANCH  16  17
ATOM     17  C   UNL     1     -31.784  22.888 -11.048  1.00  0.00     0.053 C 
BRANCH  17  18
ATOM     18  C   UNL     1     -32.458  23.650  -9.948  1.00  0.00     0.041 C 
ATOM     19  O   UNL     1     -31.796  24.047  -8.954  1.00  0.00    -0.550 OA
ATOM     20  O   UNL     1     -33.811  23.951 -10.039  1.00  0.00    -0.550 OA
ENDBRANCH  17  18
ENDBRANCH  16  17
ENDBRANCH  15  16
ENDBRANCH  14  15
ENDBRANCH  13  14
ENDBRANCH  12  13
ENDBRANCH  11  12
ENDBRANCH   1  11
TORSDOF 15
ENDMDL
MODEL 4
REMARK VINA RESULT:    10.403      3.055      8.416
REMARK INTER + INTRA:          18.743
REMARK INTER:                  17.776
REMARK INTRA:                   0.967
REMARK UNBOUND:                -0.782
REMARK SMILES O=C([O-])CCCCCCCCCCCCCCC(=O)[O-]
REMARK SMILES IDX 10 1 9 2 8 3 7 4 6 5 5 6 4 7 2 8 1 9 3 10 11 11 12 12 13 13
REMARK SMILES IDX 14 14 15 15 16 16 17 17 18 18 19 19 20 20
REMARK H PARENT
REMARK Flexibility Score: inf
ROOT
ATOM      1  C   UNL     1     -29.314  16.499 -10.942  1.00  0.00     0.000 C 
ENDROOT
BRANCH   1   2
ATOM      2  C   UNL     1     -29.192  18.020 -11.099  1.00  0.00     0.000 C 
BRANCH   2   3
ATOM      3  C   UNL     1     -28.973  18.405 -12.569  1.00  0.00     0.000 C 
BRANCH   3   4
ATOM      4  C   UNL     1     -28.271  17.299 -13.375  1.00  0.00     0.000 C 
BRANCH   4   5
ATOM      5  C   UNL     1     -29.259  16.433 -14.174  1.00  0.00     0.000 C 
BRANCH   5   6
ATOM      6  C   UNL     1     -28.762  14.990 -14.360  1.00  0.00     0.006 C 
BRANCH   6   7
ATOM      7  C   UNL     1     -27.444  14.912 -15.142  1.00  0.00     0.053 C 
BRANCH   7   8
ATOM      8  C   UNL     1     -26.847  13.546 -15.021  1.00  0.00     0.041 C 
ATOM      9  O   UNL     1     -27.586  12.547 -14.817  1.00  0.00    -0.550 OA
ATOM     10  O   UNL     1     -25.479  13.369 -15.183  1.00  0.00    -0.550 OA
ENDBRANCH   7   8
ENDBRANCH   6   7
ENDBRANCH   5   6
ENDBRANCH   4   5
ENDBRANCH   3   4
ENDBRANCH   2   3
ENDBRANCH   1   2
BRANCH   1  11
ATOM     11  C   UNL     1     -30.787  16.065 -10.913  1.00  0.00     0.000 C 
BRANCH  11  12
ATOM     12  C   UNL     1     -31.687  17.051 -10.148  1.00  0.00     0.000 C 
BRANCH  12  13
ATOM     13  C   UNL     1     -31.486  18.537 -10.514  1.00  0.00     0.000 C 
BRANCH  13  14
ATOM     14  C   UNL     1     -32.742  19.419 -10.370  1.00  0.00     0.000 C 
BRANCH  14  15
ATOM     15  C   UNL     1     -32.468  20.880  -9.961  1.00  0.00     0.000 C 
BRANCH  15  16
ATOM     16  C   UNL     1     -31.231  21.522 -10.622  1.00  0.00     0.006 C 
BRANCH  16  17
ATOM     17  C   UNL     1     -31.353  23.034 -10.864  1.00  0.00     0.053 C 
BRANCH  17  18
ATOM     18  C   UNL     1     -32.308  23.679  -9.905  1.00  0.00     0.041 C 
ATOM     19  O   UNL     1     -31.895  24.124  -8.803  1.00  0.00    -0.550 OA
ATOM     20  O   UNL     1     -33.646  23.817 -10.247  1.00  0.00    -0.550 OA
ENDBRANCH  17  18
ENDBRANCH  16  17
ENDBRANCH  15  16
ENDBRANCH  14  15
ENDBRANCH  13  14
ENDBRANCH  12  13
ENDBRANCH  11  12
ENDBRANCH   1  11
TORSDOF 15
ENDMDL
MODEL 5
REMARK VINA RESULT:    10.779      6.018      8.731
REMARK INTER + INTRA:          19.449
REMARK INTER:                  19.779
REMARK INTRA:                  -0.330
REMARK UNBOUND:                -0.782
REMARK SMILES O=C([O-])CCCCCCCCCCCCCCC(=O)[O-]
REMARK SMILES IDX 10 1 9 2 8 3 7 4 6 5 5 6 4 7 2 8 1 9 3 10 11 11 12 12 13 13
REMARK SMILES IDX 14 14 15 15 16 16 17 17 18 18 19 19 20 20
REMARK H PARENT
REMARK Flexibility Score: inf
ROOT
ATOM      1  C   UNL     1     -30.477  22.431 -10.871  1.00  0.00     0.000 C 
ENDROOT
BRANCH   1   2
ATOM      2  C   UNL     1     -31.967  22.212 -10.583  1.00  0.00     0.000 C 
BRANCH   2   3
ATOM      3  C   UNL     1     -32.193  20.892  -9.830  1.00  0.00     0.000 C 
BRANCH   3   4
ATOM      4  C   UNL     1     -32.471  19.710 -10.774  1.00  0.00     0.000 C 
BRANCH   4   5
ATOM      5  C   UNL     1     -32.570  18.369 -10.028  1.00  0.00     0.000 C 
BRANCH   5   6
ATOM      6  C   UNL     1     -31.551  17.335 -10.534  1.00  0.00     0.006 C 
BRANCH   6   7
ATOM      7  C   UNL     1     -30.144  17.923 -10.704  1.00  0.00     0.053 C 
BRANCH   7   8
ATOM      8  C   UNL     1     -29.294  17.007 -11.527  1.00  0.00     0.041 C 
ATOM      9  O   UNL     1     -29.021  15.850 -11.109  1.00  0.00    -0.550 OA
ATOM     10  O   UNL     1     -28.842  17.412 -12.776  1.00  0.00    -0.550 OA
ENDBRANCH   7   8
ENDBRANCH   6   7
ENDBRANCH   5   6
ENDBRANCH   4   5
ENDBRANCH   3   4
ENDBRANCH   2   3
ENDBRANCH   1   2
BRANCH   1  11
ATOM     11  C   UNL     1     -29.693  21.116 -10.754  1.00  0.00     0.000 C 
BRANCH  11  12
ATOM     12  C   UNL     1     -28.205  21.331 -10.429  1.00  0.00     0.000 C 
BRANCH  12  13
ATOM     13  C   UNL     1     -27.897  21.616  -8.944  1.00  0.00     0.000 C 
BRANCH  13  14
ATOM     14  C   UNL     1     -26.436  22.013  -8.647  1.00  0.00     0.000 C 
BRANCH  14  15
ATOM     15  C   UNL     1     -25.693  21.074  -7.675  1.00  0.00     0.000 C 
BRANCH  15  16
ATOM     16  C   UNL     1     -24.171  21.311  -7.576  1.00  0.00     0.006 C 
BRANCH  16  17
ATOM     17  C   UNL     1     -23.700  21.848  -6.216  1.00  0.00     0.053 C 
BRANCH  17  18
ATOM     18  C   UNL     1     -22.383  22.557  -6.321  1.00  0.00     0.041 C 
ATOM     19  O   UNL     1     -21.453  22.066  -7.013  1.00  0.00    -0.550 OA
ATOM     20  O   UNL     1     -22.198  23.775  -5.682  1.00  0.00    -0.550 OA
ENDBRANCH  17  18
ENDBRANCH  16  17
ENDBRANCH  15  16
ENDBRANCH  14  15
ENDBRANCH  13  14
ENDBRANCH  12  13
ENDBRANCH  11  12
ENDBRANCH   1  11
TORSDOF 15
ENDMDL
MODEL 6
REMARK VINA RESULT:    10.840      3.022      3.547
REMARK INTER + INTRA:          19.563
REMARK INTER:                  19.857
REMARK INTRA:                  -0.294
REMARK UNBOUND:                -0.782
REMARK SMILES O=C([O-])CCCCCCCCCCCCCCC(=O)[O-]
REMARK SMILES IDX 10 1 9 2 8 3 7 4 6 5 5 6 4 7 2 8 1 9 3 10 11 11 12 12 13 13
REMARK SMILES IDX 14 14 15 15 16 16 17 17 18 18 19 19 20 20
REMARK H PARENT
REMARK Flexibility Score: inf
ROOT
ATOM      1  C   UNL     1     -31.545  16.578 -10.387  1.00  0.00     0.000 C 
ENDROOT
BRANCH   1   2
ATOM      2  C   UNL     1     -31.477  18.026  -9.886  1.00  0.00     0.000 C 
BRANCH   2   3
ATOM      3  C   UNL     1     -32.722  18.816 -10.315  1.00  0.00     0.000 C 
BRANCH   3   4
ATOM      4  C   UNL     1     -32.423  20.302 -10.570  1.00  0.00     0.000 C 
BRANCH   4   5
ATOM      5  C   UNL     1     -30.960  20.670 -10.272  1.00  0.00     0.000 C 
BRANCH   5   6
ATOM      6  C   UNL     1     -30.643  22.139 -10.597  1.00  0.00     0.006 C 
BRANCH   6   7
ATOM      7  C   UNL     1     -31.883  22.933 -11.026  1.00  0.00     0.053 C 
BRANCH   7   8
ATOM      8  C   UNL     1     -32.421  23.721  -9.874  1.00  0.00     0.041 C 
ATOM      9  O   UNL     1     -33.651  23.986  -9.807  1.00  0.00    -0.550 OA
ATOM     10  O   UNL     1     -31.573  24.123  -8.850  1.00  0.00    -0.550 OA
ENDBRANCH   7   8
ENDBRANCH   6   7
ENDBRANCH   5   6
ENDBRANCH   4   5
ENDBRANCH   3   4
ENDBRANCH   2   3
ENDBRANCH   1   2
BRANCH   1  11
ATOM     11  C   UNL     1     -30.281  16.209 -11.178  1.00  0.00     0.000 C 
BRANCH  11  12
ATOM     12  C   UNL     1     -29.117  17.185 -10.936  1.00  0.00     0.000 C 
BRANCH  12  13
ATOM     13  C   UNL     1     -28.903  18.233 -12.048  1.00  0.00     0.000 C 
BRANCH  13  14
ATOM     14  C   UNL     1     -28.558  17.651 -13.434  1.00  0.00     0.000 C 
BRANCH  14  15
ATOM     15  C   UNL     1     -29.278  16.334 -13.784  1.00  0.00     0.000 C 
BRANCH  15  16
ATOM     16  C   UNL     1     -28.511  15.408 -14.751  1.00  0.00     0.006 C 
BRANCH  16  17
ATOM     17  C   UNL     1     -28.050  14.082 -14.127  1.00  0.00     0.053 C 
BRANCH  17  18
ATOM     18  C   UNL     1     -27.169  13.303 -15.056  1.00  0.00     0.041 C 
ATOM     19  O   UNL     1     -26.005  13.708 -15.314  1.00  0.00    -0.550 OA
ATOM     20  O   UNL     1     -27.622  12.113 -15.609  1.00  0.00    -0.550 OA
ENDBRANCH  17  18
ENDBRANCH  16  17
ENDBRANCH  15  16
ENDBRANCH  14  15
ENDBRANCH  13  14
ENDBRANCH  12  13
ENDBRANCH  11  12
ENDBRANCH   1  11
TORSDOF 15
ENDMDL
MODEL 7
REMARK VINA RESULT:    10.860      5.999      7.533
REMARK INTER + INTRA:          19.600
REMARK INTER:                  19.924
REMARK INTRA:                  -0.324
REMARK UNBOUND:                -0.782
REMARK SMILES O=C([O-])CCCCCCCCCCCCCCC(=O)[O-]
REMARK SMILES IDX 10 1 9 2 8 3 7 4 6 5 5 6 4 7 2 8 1 9 3 10 11 11 12 12 13 13
REMARK SMILES IDX 14 14 15 15 16 16 17 17 18 18 19 19 20 20
REMARK H PARENT
REMARK Flexibility Score: inf
ROOT
ATOM      1  C   UNL     1     -29.765  21.298 -10.648  1.00  0.00     0.000 C 
ENDROOT
BRANCH   1   2
ATOM      2  C   UNL     1     -28.280  21.633 -10.460  1.00  0.00     0.000 C 
BRANCH   2   3
ATOM      3  C   UNL     1     -27.840  21.387  -9.010  1.00  0.00     0.000 C 
BRANCH   3   4
ATOM      4  C   UNL     1     -26.412  21.885  -8.730  1.00  0.00     0.000 C 
BRANCH   4   5
ATOM      5  C   UNL     1     -25.725  21.104  -7.597  1.00  0.00     0.000 C 
BRANCH   5   6
ATOM      6  C   UNL     1     -24.212  21.371  -7.529  1.00  0.00     0.006 C 
BRANCH   6   7
ATOM      7  C   UNL     1     -23.770  21.935  -6.173  1.00  0.00     0.053 C 
BRANCH   7   8
ATOM      8  C   UNL     1     -22.413  22.557  -6.285  1.00  0.00     0.041 C 
ATOM      9  O   UNL     1     -21.573  22.101  -7.105  1.00  0.00    -0.550 OA
ATOM     10  O   UNL     1     -22.095  23.671  -5.519  1.00  0.00    -0.550 OA
ENDBRANCH   7   8
ENDBRANCH   6   7
ENDBRANCH   5   6
ENDBRANCH   4   5
ENDBRANCH   3   4
ENDBRANCH   2   3
ENDBRANCH   1   2
BRANCH   1  11
ATOM     11  C   UNL     1     -30.640  22.545 -10.455  1.00  0.00     0.000 C 
BRANCH  11  12
ATOM     12  C   UNL     1     -32.142  22.219 -10.387  1.00  0.00     0.000 C 
BRANCH  12  13
ATOM     13  C   UNL     1     -32.482  20.828  -9.812  1.00  0.00     0.000 C 
BRANCH  13  14
ATOM     14  C   UNL     1     -32.356  19.661 -10.811  1.00  0.00     0.000 C 
BRANCH  14  15
ATOM     15  C   UNL     1     -32.594  18.261 -10.210  1.00  0.00     0.000 C 
BRANCH  15  16
ATOM     16  C   UNL     1     -31.364  17.329 -10.220  1.00  0.00     0.006 C 
BRANCH  16  17
ATOM     17  C   UNL     1     -30.061  18.002 -10.680  1.00  0.00     0.053 C 
BRANCH  17  18
ATOM     18  C   UNL     1     -29.304  17.148 -11.651  1.00  0.00     0.041 C 
ATOM     19  O   UNL     1     -28.701  17.676 -12.623  1.00  0.00    -0.550 OA
ATOM     20  O   UNL     1     -29.236  15.775 -11.462  1.00  0.00    -0.550 OA
ENDBRANCH  17  18
ENDBRANCH  16  17
ENDBRANCH  15  16
ENDBRANCH  14  15
ENDBRANCH  13  14
ENDBRANCH  12  13
ENDBRANCH  11  12
ENDBRANCH   1  11
TORSDOF 15
ENDMDL
MODEL 8
REMARK VINA RESULT:    10.880      0.904      1.587
REMARK INTER + INTRA:          19.639
REMARK INTER:                  18.776
REMARK INTRA:                   0.862
REMARK UNBOUND:                -0.782
REMARK SMILES O=C([O-])CCCCCCCCCCCCCCC(=O)[O-]
REMARK SMILES IDX 10 1 9 2 8 3 7 4 6 5 5 6 4 7 2 8 1 9 3 10 11 11 12 12 13 13
REMARK SMILES IDX 14 14 15 15 16 16 17 17 18 18 19 19 20 20
REMARK H PARENT
REMARK Flexibility Score: inf
ROOT
ATOM      1  C   UNL     1     -28.992  18.218 -10.426  1.00  0.00     0.000 C 
ENDROOT
BRANCH   1   2
ATOM      2  C   UNL     1     -30.193  19.172 -10.444  1.00  0.00     0.000 C 
BRANCH   2   3
ATOM      3  C   UNL     1     -31.512  18.393 -10.561  1.00  0.00     0.000 C 
BRANCH   3   4
ATOM      4  C   UNL     1     -32.749  19.302 -10.462  1.00  0.00     0.000 C 
BRANCH   4   5
ATOM      5  C   UNL     1     -32.406  20.712  -9.953  1.00  0.00     0.000 C 
BRANCH   5   6
ATOM      6  C   UNL     1     -31.171  21.307 -10.649  1.00  0.00     0.006 C 
BRANCH   6   7
ATOM      7  C   UNL     1     -31.361  22.779 -11.038  1.00  0.00     0.053 C 
BRANCH   7   8
ATOM      8  C   UNL     1     -32.171  23.491 -10.001  1.00  0.00     0.041 C 
ATOM      9  O   UNL     1     -31.635  23.864  -8.924  1.00  0.00    -0.550 OA
ATOM     10  O   UNL     1     -33.507  23.786 -10.244  1.00  0.00    -0.550 OA
ENDBRANCH   7   8
ENDBRANCH   6   7
ENDBRANCH   5   6
ENDBRANCH   4   5
ENDBRANCH   3   4
ENDBRANCH   2   3
ENDBRANCH   1   2
BRANCH   1  11
ATOM     11  C   UNL     1     -29.239  17.004 -11.334  1.00  0.00     0.000 C 
BRANCH  11  12
ATOM     12  C   UNL     1     -28.964  17.301 -12.819  1.00  0.00     0.000 C 
BRANCH  12  13
ATOM     13  C   UNL     1     -28.872  16.056 -13.726  1.00  0.00     0.000 C 
BRANCH  13  14
ATOM     14  C   UNL     1     -29.112  16.324 -15.226  1.00  0.00     0.000 C 
BRANCH  14  15
ATOM     15  C   UNL     1     -30.356  17.178 -15.543  1.00  0.00     0.000 C 
BRANCH  15  16
ATOM     16  C   UNL     1     -30.531  17.548 -17.030  1.00  0.00     0.006 C 
BRANCH  16  17
ATOM     17  C   UNL     1     -29.434  18.466 -17.590  1.00  0.00     0.053 C 
BRANCH  17  18
ATOM     18  C   UNL     1     -29.944  19.850 -17.856  1.00  0.00     0.041 C 
ATOM     19  O   UNL     1     -31.172  20.104 -17.749  1.00  0.00    -0.550 OA
ATOM     20  O   UNL     1     -29.057  20.865 -18.187  1.00  0.00    -0.550 OA
ENDBRANCH  17  18
ENDBRANCH  16  17
ENDBRANCH  15  16
ENDBRANCH  14  15
ENDBRANCH  13  14
ENDBRANCH  12  13
ENDBRANCH  11  12
ENDBRANCH   1  11
TORSDOF 15
ENDMDL
MODEL 9
REMARK VINA RESULT:    11.060      3.665      6.572
REMARK INTER + INTRA:          19.976
REMARK INTER:                  19.483
REMARK INTRA:                   0.494
REMARK UNBOUND:                -0.782
REMARK SMILES O=C([O-])CCCCCCCCCCCCCCC(=O)[O-]
REMARK SMILES IDX 10 1 9 2 8 3 7 4 6 5 5 6 4 7 2 8 1 9 3 10 11 11 12 12 13 13
REMARK SMILES IDX 14 14 15 15 16 16 17 17 18 18 19 19 20 20
REMARK H PARENT
REMARK Flexibility Score: inf
ROOT
ATOM      1  C   UNL     1     -28.940  17.569 -11.668  1.00  0.00     0.000 C 
ENDROOT
BRANCH   1   2
ATOM      2  C   UNL     1     -29.089  18.735 -10.684  1.00  0.00     0.000 C 
BRANCH   2   3
ATOM      3  C   UNL     1     -28.738  20.070 -11.356  1.00  0.00     0.000 C 
BRANCH   3   4
ATOM      4  C   UNL     1     -27.964  19.887 -12.672  1.00  0.00     0.000 C 
BRANCH   4   5
ATOM      5  C   UNL     1     -27.318  21.193 -13.165  1.00  0.00     0.000 C 
BRANCH   5   6
ATOM      6  C   UNL     1     -27.426  22.330 -12.135  1.00  0.00     0.006 C 
BRANCH   6   7
ATOM      7  C   UNL     1     -26.486  23.502 -12.445  1.00  0.00     0.053 C 
BRANCH   7   8
ATOM      8  C   UNL     1     -25.374  23.556 -11.446  1.00  0.00     0.041 C 
ATOM      9  O   UNL     1     -24.288  24.125 -11.737  1.00  0.00    -0.550 OA
ATOM     10  O   UNL     1     -25.553  23.021 -10.177  1.00  0.00    -0.550 OA
ENDBRANCH   7   8
ENDBRANCH   6   7
ENDBRANCH   5   6
ENDBRANCH   4   5
ENDBRANCH   3   4
ENDBRANCH   2   3
ENDBRANCH   1   2
BRANCH   1  11
ATOM     11  C   UNL     1     -29.732  16.341 -11.193  1.00  0.00     0.000 C 
BRANCH  11  12
ATOM     12  C   UNL     1     -31.191  16.672 -10.836  1.00  0.00     0.000 C 
BRANCH  12  13
ATOM     13  C   UNL     1     -31.390  17.987 -10.054  1.00  0.00     0.000 C 
BRANCH  13  14
ATOM     14  C   UNL     1     -32.381  18.981 -10.693  1.00  0.00     0.000 C 
BRANCH  14  15
ATOM     15  C   UNL     1     -32.506  20.335  -9.965  1.00  0.00     0.000 C 
BRANCH  15  16
ATOM     16  C   UNL     1     -31.422  21.372 -10.325  1.00  0.00     0.006 C 
BRANCH  16  17
ATOM     17  C   UNL     1     -31.965  22.669 -10.943  1.00  0.00     0.053 C 
BRANCH  17  18
ATOM     18  C   UNL     1     -32.508  23.601  -9.902  1.00  0.00     0.041 C 
ATOM     19  O   UNL     1     -31.747  24.078  -9.020  1.00  0.00    -0.550 OA
ATOM     20  O   UNL     1     -33.846  23.968  -9.930  1.00  0.00    -0.550 OA
ENDBRANCH  17  18
ENDBRANCH  16  17
ENDBRANCH  15  16
ENDBRANCH  14  15
ENDBRANCH  13  14
ENDBRANCH  12  13
ENDBRANCH  11  12
ENDBRANCH   1  11
TORSDOF 15
ENDMDL
