MODEL 1
REMARK VINA RESULT:    -4.712      0.000      0.000
REMARK INTER + INTRA:          -7.770
REMARK INTER:                  -6.502
REMARK INTRA:                  -1.268
REMARK UNBOUND:                -1.268
REMARK SMILES CC[C@@H](CC[C@H](C)[C@H]1CC[C@H]2[C@@H]3CC=C4C[C@H](O)CC[C@@]4(C)[C@@H]3CC[C@@]12C)C(C)C
REMARK SMILES IDX 5 1 4 2 3 3 2 4 1 5 28 6 29 7 30 8 6 9 7 10 8 11 9 12 26 13
REMARK SMILES IDX 10 14 11 15 25 16 27 17 12 18 24 19 23 20 13 21 21 22 14 23
REMARK SMILES IDX 15 24 20 25 22 26 16 27 19 28 17 29 18 30
REMARK H PARENT 18 31
REMARK Flexibility Score: inf
ROOT
ATOM      1  C   UNL     1      -5.283   8.940   5.394  1.00  0.00     0.004 C 
ENDROOT
BRANCH   1   2
ATOM      2  C   UNL     1      -4.165   9.978   5.100  1.00  0.00     0.004 C 
BRANCH   2   3
ATOM      3  C   UNL     1      -2.995   9.491   4.187  1.00  0.00    -0.009 C 
BRANCH   3   4
ATOM      4  C   UNL     1      -3.427   8.209   3.424  1.00  0.00     0.000 C 
ATOM      5  C   UNL     1      -2.866   6.917   4.022  1.00  0.00     0.004 C 
ENDBRANCH   3   4
BRANCH   3   6
ATOM      6  C   UNL     1      -1.630   9.312   4.939  1.00  0.00    -0.014 C 
ATOM      7  C   UNL     1      -0.425   9.640   4.049  1.00  0.00     0.007 C 
ATOM      8  C   UNL     1      -1.529  10.082   6.270  1.00  0.00     0.007 C 
ENDBRANCH   3   6
ENDBRANCH   2   3
ENDBRANCH   1   2
BRANCH   1   9
ATOM      9  C   UNL     1      -6.156   9.090   6.691  1.00  0.00    -0.011 C 
ATOM     10  C   UNL     1      -5.568  10.124   7.678  1.00  0.00     0.008 C 
BRANCH   9  11
ATOM     11  C   UNL     1      -6.502   7.682   7.329  1.00  0.00    -0.002 C 
ATOM     12  C   UNL     1      -6.809   6.551   6.319  1.00  0.00     0.005 C 
ATOM     13  C   UNL     1      -5.468   7.061   8.371  1.00  0.00    -0.026 C 
ATOM     14  C   UNL     1      -5.723   5.514   6.462  1.00  0.00     0.005 C 
ATOM     15  C   UNL     1      -5.280   5.575   7.918  1.00  0.00    -0.001 C 
ATOM     16  C   UNL     1      -4.086   7.788   8.475  1.00  0.00     0.007 C 
ATOM     17  C   UNL     1      -6.108   7.072   9.787  1.00  0.00     0.012 C 
ATOM     18  C   UNL     1      -3.857   4.953   8.093  1.00  0.00     0.000 C 
ATOM     19  C   UNL     1      -3.086   7.338   7.404  1.00  0.00     0.005 C 
ATOM     20  C   UNL     1      -2.677   5.853   7.580  1.00  0.00     0.003 C 
ATOM     21  C   UNL     1      -3.616   4.438   9.515  1.00  0.00     0.031 C 
ATOM     22  C   UNL     1      -1.273   5.623   8.316  1.00  0.00    -0.008 C 
ATOM     23  C   UNL     1      -2.303   3.715   9.557  1.00  0.00    -0.027 C 
ATOM     24  C   UNL     1      -1.213   4.217   8.939  1.00  0.00    -0.065 C 
ATOM     25  C   UNL     1      -0.137   5.797   7.254  1.00  0.00     0.014 C 
ATOM     26  C   UNL     1      -1.015   6.625   9.479  1.00  0.00     0.016 C 
ATOM     27  C   UNL     1       0.116   3.524   9.173  1.00  0.00     0.063 C 
ATOM     28  C   UNL     1       1.224   5.249   7.697  1.00  0.00     0.033 C 
ATOM     29  C   UNL     1       1.103   3.756   8.024  1.00  0.00     0.118 C 
BRANCH  29  30
ATOM     30  O   UNL     1       2.362   3.213   8.336  1.00  0.00    -0.393 OA
ATOM     31  H   UNL     1       2.224   2.272   8.622  1.00  0.00     0.210 HD
ENDBRANCH  29  30
ENDBRANCH   9  11
ENDBRANCH   1   9
TORSDOF 7
ENDMDL
MODEL 2
REMARK VINA RESULT:    -4.328      3.111      6.949
REMARK INTER + INTRA:          -7.241
REMARK INTER:                  -5.290
REMARK INTRA:                  -1.951
REMARK UNBOUND:                -1.268
REMARK SMILES CC[C@@H](CC[C@H](C)[C@H]1CC[C@H]2[C@@H]3CC=C4C[C@H](O)CC[C@@]4(C)[C@@H]3CC[C@@]12C)C(C)C
REMARK SMILES IDX 5 1 4 2 3 3 2 4 1 5 28 6 29 7 30 8 6 9 7 10 8 11 9 12 26 13
REMARK SMILES IDX 10 14 11 15 25 16 27 17 12 18 24 19 23 20 13 21 21 22 14 23
REMARK SMILES IDX 15 24 20 25 22 26 16 27 19 28 17 29 18 30
REMARK H PARENT 18 31
REMARK Flexibility Score: inf
ROOT
ATOM      1  C   UNL     1      -0.021   7.284   6.306  1.00  0.00     0.004 C 
ENDROOT
BRANCH   1   2
ATOM      2  C   UNL     1       0.532   7.460   7.747  1.00  0.00     0.004 C 
BRANCH   2   3
ATOM      3  C   UNL     1      -0.509   7.335   8.905  1.00  0.00    -0.009 C 
BRANCH   3   4
ATOM      4  C   UNL     1      -0.423   8.588   9.821  1.00  0.00     0.000 C 
ATOM      5  C   UNL     1      -0.282   9.903   9.051  1.00  0.00     0.004 C 
ENDBRANCH   3   4
BRANCH   3   6
ATOM      6  C   UNL     1      -0.411   5.993   9.711  1.00  0.00    -0.014 C 
ATOM      7  C   UNL     1      -1.654   5.112   9.531  1.00  0.00     0.007 C 
ATOM      8  C   UNL     1       0.863   5.174   9.433  1.00  0.00     0.007 C 
ENDBRANCH   3   6
ENDBRANCH   2   3
ENDBRANCH   1   2
BRANCH   1   9
ATOM      9  C   UNL     1      -1.096   6.175   6.020  1.00  0.00    -0.011 C 
ATOM     10  C   UNL     1      -0.460   4.783   5.804  1.00  0.00     0.008 C 
BRANCH   9  11
ATOM     11  C   UNL     1      -2.113   6.625   4.893  1.00  0.00    -0.002 C 
ATOM     12  C   UNL     1      -3.049   5.515   4.358  1.00  0.00     0.005 C 
ATOM     13  C   UNL     1      -3.055   7.876   5.193  1.00  0.00    -0.026 C 
ATOM     14  C   UNL     1      -4.458   5.894   4.739  1.00  0.00     0.005 C 
ATOM     15  C   UNL     1      -4.487   7.416   4.761  1.00  0.00    -0.001 C 
ATOM     16  C   UNL     1      -3.059   8.384   6.674  1.00  0.00     0.007 C 
ATOM     17  C   UNL     1      -2.621   9.065   4.292  1.00  0.00     0.012 C 
ATOM     18  C   UNL     1      -5.688   7.937   5.614  1.00  0.00     0.000 C 
ATOM     19  C   UNL     1      -4.018   7.602   7.577  1.00  0.00     0.005 C 
ATOM     20  C   UNL     1      -5.500   7.807   7.167  1.00  0.00     0.003 C 
ATOM     21  C   UNL     1      -6.131   9.345   5.201  1.00  0.00     0.031 C 
ATOM     22  C   UNL     1      -6.299   8.882   8.045  1.00  0.00    -0.008 C 
ATOM     23  C   UNL     1      -7.380   9.703   5.948  1.00  0.00    -0.027 C 
ATOM     24  C   UNL     1      -7.507   9.428   7.263  1.00  0.00    -0.065 C 
ATOM     25  C   UNL     1      -6.773   8.176   9.359  1.00  0.00     0.014 C 
ATOM     26  C   UNL     1      -5.440  10.120   8.437  1.00  0.00     0.016 C 
ATOM     27  C   UNL     1      -8.721   9.978   7.988  1.00  0.00     0.063 C 
ATOM     28  C   UNL     1      -7.858   8.942  10.125  1.00  0.00     0.033 C 
ATOM     29  C   UNL     1      -9.082   9.150   9.227  1.00  0.00     0.118 C 
BRANCH  29  30
ATOM     30  O   UNL     1     -10.125   9.763   9.944  1.00  0.00    -0.393 OA
ATOM     31  H   UNL     1     -10.147   9.359  10.851  1.00  0.00     0.210 HD
ENDBRANCH  29  30
ENDBRANCH   9  11
ENDBRANCH   1   9
TORSDOF 7
ENDMDL
MODEL 3
REMARK VINA RESULT:    -4.129      1.503      4.714
REMARK INTER + INTRA:          -6.966
REMARK INTER:                  -5.943
REMARK INTRA:                  -1.023
REMARK UNBOUND:                -1.268
REMARK SMILES CC[C@@H](CC[C@H](C)[C@H]1CC[C@H]2[C@@H]3CC=C4C[C@H](O)CC[C@@]4(C)[C@@H]3CC[C@@]12C)C(C)C
REMARK SMILES IDX 5 1 4 2 3 3 2 4 1 5 28 6 29 7 30 8 6 9 7 10 8 11 9 12 26 13
REMARK SMILES IDX 10 14 11 15 25 16 27 17 12 18 24 19 23 20 13 21 21 22 14 23
REMARK SMILES IDX 15 24 20 25 22 26 16 27 19 28 17 29 18 30
REMARK H PARENT 18 31
REMARK Flexibility Score: inf
ROOT
ATOM      1  C   UNL     1      -6.806   7.454   7.113  1.00  0.00     0.004 C 
ENDROOT
BRANCH   1   2
ATOM      2  C   UNL     1      -6.653   5.944   7.446  1.00  0.00     0.004 C 
BRANCH   2   3
ATOM      3  C   UNL     1      -7.029   5.518   8.902  1.00  0.00    -0.009 C 
BRANCH   3   4
ATOM      4  C   UNL     1      -8.026   6.545   9.505  1.00  0.00     0.000 C 
ATOM      5  C   UNL     1      -9.495   6.188   9.269  1.00  0.00     0.004 C 
ENDBRANCH   3   4
BRANCH   3   6
ATOM      6  C   UNL     1      -5.792   5.261   9.832  1.00  0.00    -0.014 C 
ATOM      7  C   UNL     1      -4.899   4.127   9.316  1.00  0.00     0.007 C 
ATOM      8  C   UNL     1      -4.943   6.512  10.124  1.00  0.00     0.007 C 
ENDBRANCH   3   6
ENDBRANCH   2   3
ENDBRANCH   1   2
BRANCH   1   9
ATOM      9  C   UNL     1      -6.264   8.003   5.745  1.00  0.00    -0.011 C 
ATOM     10  C   UNL     1      -5.988   6.873   4.728  1.00  0.00     0.008 C 
BRANCH   9  11
ATOM     11  C   UNL     1      -5.067   9.018   5.956  1.00  0.00    -0.002 C 
ATOM     12  C   UNL     1      -5.018   9.714   7.338  1.00  0.00     0.005 C 
ATOM     13  C   UNL     1      -3.587   8.493   5.685  1.00  0.00    -0.026 C 
ATOM     14  C   UNL     1      -3.764   9.246   8.032  1.00  0.00     0.005 C 
ATOM     15  C   UNL     1      -2.756   8.967   6.924  1.00  0.00    -0.001 C 
ATOM     16  C   UNL     1      -3.440   6.948   5.479  1.00  0.00     0.007 C 
ATOM     17  C   UNL     1      -3.026   9.188   4.414  1.00  0.00     0.012 C 
ATOM     18  C   UNL     1      -1.625   8.015   7.428  1.00  0.00     0.000 C 
ATOM     19  C   UNL     1      -3.343   6.170   6.796  1.00  0.00     0.005 C 
ATOM     20  C   UNL     1      -2.046   6.510   7.576  1.00  0.00     0.003 C 
ATOM     21  C   UNL     1      -0.327   8.177   6.631  1.00  0.00     0.031 C 
ATOM     22  C   UNL     1      -0.860   5.448   7.407  1.00  0.00    -0.008 C 
ATOM     23  C   UNL     1       0.749   7.354   7.275  1.00  0.00    -0.027 C 
ATOM     24  C   UNL     1       0.499   6.103   7.713  1.00  0.00    -0.065 C 
ATOM     25  C   UNL     1      -1.128   4.263   8.394  1.00  0.00     0.014 C 
ATOM     26  C   UNL     1      -0.750   4.870   5.966  1.00  0.00     0.016 C 
ATOM     27  C   UNL     1       1.675   5.271   8.190  1.00  0.00     0.063 C 
ATOM     28  C   UNL     1       0.086   3.357   8.629  1.00  0.00     0.033 C 
ATOM     29  C   UNL     1       1.253   4.183   9.183  1.00  0.00     0.118 C 
BRANCH  29  30
ATOM     30  O   UNL     1       2.342   3.352   9.499  1.00  0.00    -0.393 OA
ATOM     31  H   UNL     1       2.671   2.948   8.654  1.00  0.00     0.210 HD
ENDBRANCH  29  30
ENDBRANCH   9  11
ENDBRANCH   1   9
TORSDOF 7
ENDMDL
MODEL 4
REMARK VINA RESULT:    -3.830      1.933      5.088
REMARK INTER + INTRA:          -6.554
REMARK INTER:                  -5.719
REMARK INTRA:                  -0.835
REMARK UNBOUND:                -1.268
REMARK SMILES CC[C@@H](CC[C@H](C)[C@H]1CC[C@H]2[C@@H]3CC=C4C[C@H](O)CC[C@@]4(C)[C@@H]3CC[C@@]12C)C(C)C
REMARK SMILES IDX 5 1 4 2 3 3 2 4 1 5 28 6 29 7 30 8 6 9 7 10 8 11 9 12 26 13
REMARK SMILES IDX 10 14 11 15 25 16 27 17 12 18 24 19 23 20 13 21 21 22 14 23
REMARK SMILES IDX 15 24 20 25 22 26 16 27 19 28 17 29 18 30
REMARK H PARENT 18 31
REMARK Flexibility Score: inf
ROOT
ATOM      1  C   UNL     1      -6.463   7.391   8.549  1.00  0.00     0.004 C 
ENDROOT
BRANCH   1   2
ATOM      2  C   UNL     1      -7.179   7.727   9.886  1.00  0.00     0.004 C 
BRANCH   2   3
ATOM      3  C   UNL     1      -8.719   7.468   9.927  1.00  0.00    -0.009 C 
BRANCH   3   4
ATOM      4  C   UNL     1      -9.053   6.177   9.129  1.00  0.00     0.000 C 
ATOM      5  C   UNL     1      -8.658   4.888   9.851  1.00  0.00     0.004 C 
ENDBRANCH   3   4
BRANCH   3   6
ATOM      6  C   UNL     1      -9.586   8.695   9.479  1.00  0.00    -0.014 C 
ATOM      7  C   UNL     1      -8.861  10.030   9.685  1.00  0.00     0.007 C 
ATOM      8  C   UNL     1     -10.125   8.603   8.038  1.00  0.00     0.007 C 
ENDBRANCH   3   6
ENDBRANCH   2   3
ENDBRANCH   1   2
BRANCH   1   9
ATOM      9  C   UNL     1      -6.499   8.429   7.370  1.00  0.00    -0.011 C 
ATOM     10  C   UNL     1      -6.783   7.758   6.007  1.00  0.00     0.008 C 
BRANCH   9  11
ATOM     11  C   UNL     1      -5.236   9.384   7.394  1.00  0.00    -0.002 C 
ATOM     12  C   UNL     1      -4.821   9.907   8.789  1.00  0.00     0.005 C 
ATOM     13  C   UNL     1      -3.893   8.862   6.712  1.00  0.00    -0.026 C 
ATOM     14  C   UNL     1      -3.462   9.332   9.099  1.00  0.00     0.005 C 
ATOM     15  C   UNL     1      -2.766   9.166   7.754  1.00  0.00    -0.001 C 
ATOM     16  C   UNL     1      -3.879   7.350   6.306  1.00  0.00     0.007 C 
ATOM     17  C   UNL     1      -3.620   9.693   5.427  1.00  0.00     0.012 C 
ATOM     18  C   UNL     1      -1.597   8.134   7.857  1.00  0.00     0.000 C 
ATOM     19  C   UNL     1      -3.508   6.418   7.464  1.00  0.00     0.005 C 
ATOM     20  C   UNL     1      -2.047   6.632   7.936  1.00  0.00     0.003 C 
ATOM     21  C   UNL     1      -0.522   8.362   6.789  1.00  0.00     0.031 C 
ATOM     22  C   UNL     1      -0.991   5.572   7.364  1.00  0.00    -0.008 C 
ATOM     23  C   UNL     1       0.634   7.444   7.056  1.00  0.00    -0.027 C 
ATOM     24  C   UNL     1       0.433   6.155   7.399  1.00  0.00    -0.065 C 
ATOM     25  C   UNL     1      -1.074   4.283   8.248  1.00  0.00     0.014 C 
ATOM     26  C   UNL     1      -1.260   5.170   5.885  1.00  0.00     0.016 C 
ATOM     27  C   UNL     1       1.645   5.246   7.478  1.00  0.00     0.063 C 
ATOM     28  C   UNL     1       0.113   3.329   8.077  1.00  0.00     0.033 C 
ATOM     29  C   UNL     1       1.419   4.055   8.417  1.00  0.00     0.118 C 
BRANCH  29  30
ATOM     30  O   UNL     1       2.509   3.169   8.362  1.00  0.00    -0.393 OA
ATOM     31  H   UNL     1       2.382   2.580   7.573  1.00  0.00     0.210 HD
ENDBRANCH  29  30
ENDBRANCH   9  11
ENDBRANCH   1   9
TORSDOF 7
ENDMDL
MODEL 5
REMARK VINA RESULT:    -3.743      2.842      6.811
REMARK INTER + INTRA:          -6.434
REMARK INTER:                  -5.584
REMARK INTRA:                  -0.850
REMARK UNBOUND:                -1.268
REMARK SMILES CC[C@@H](CC[C@H](C)[C@H]1CC[C@H]2[C@@H]3CC=C4C[C@H](O)CC[C@@]4(C)[C@@H]3CC[C@@]12C)C(C)C
REMARK SMILES IDX 5 1 4 2 3 3 2 4 1 5 28 6 29 7 30 8 6 9 7 10 8 11 9 12 26 13
REMARK SMILES IDX 10 14 11 15 25 16 27 17 12 18 24 19 23 20 13 21 21 22 14 23
REMARK SMILES IDX 15 24 20 25 22 26 16 27 19 28 17 29 18 30
REMARK H PARENT 18 31
REMARK Flexibility Score: inf
ROOT
ATOM      1  C   UNL     1      -0.227   7.512   8.111  1.00  0.00     0.004 C 
ENDROOT
BRANCH   1   2
ATOM      2  C   UNL     1       0.745   6.823   9.109  1.00  0.00     0.004 C 
BRANCH   2   3
ATOM      3  C   UNL     1       0.174   5.598   9.892  1.00  0.00    -0.009 C 
BRANCH   3   4
ATOM      4  C   UNL     1       1.302   4.555  10.125  1.00  0.00     0.000 C 
ATOM      5  C   UNL     1       2.225   4.368   8.919  1.00  0.00     0.004 C 
ENDBRANCH   3   4
BRANCH   3   6
ATOM      6  C   UNL     1      -1.106   4.965   9.244  1.00  0.00    -0.014 C 
ATOM      7  C   UNL     1      -1.044   3.433   9.202  1.00  0.00     0.007 C 
ATOM      8  C   UNL     1      -2.434   5.423   9.876  1.00  0.00     0.007 C 
ENDBRANCH   3   6
ENDBRANCH   2   3
ENDBRANCH   1   2
BRANCH   1   9
ATOM      9  C   UNL     1       0.284   7.902   6.678  1.00  0.00    -0.011 C 
ATOM     10  C   UNL     1       0.659   9.398   6.576  1.00  0.00     0.008 C 
BRANCH   9  11
ATOM     11  C   UNL     1      -0.694   7.381   5.547  1.00  0.00    -0.002 C 
ATOM     12  C   UNL     1      -0.925   5.851   5.518  1.00  0.00     0.005 C 
ATOM     13  C   UNL     1      -2.143   8.038   5.452  1.00  0.00    -0.026 C 
ATOM     14  C   UNL     1      -2.377   5.610   5.846  1.00  0.00     0.005 C 
ATOM     15  C   UNL     1      -3.128   6.828   5.325  1.00  0.00    -0.001 C 
ATOM     16  C   UNL     1      -2.551   8.961   6.649  1.00  0.00     0.007 C 
ATOM     17  C   UNL     1      -2.230   8.890   4.156  1.00  0.00     0.012 C 
ATOM     18  C   UNL     1      -4.518   6.967   6.025  1.00  0.00     0.000 C 
ATOM     19  C   UNL     1      -3.116   8.185   7.844  1.00  0.00     0.005 C 
ATOM     20  C   UNL     1      -4.462   7.494   7.503  1.00  0.00     0.003 C 
ATOM     21  C   UNL     1      -5.527   7.741   5.172  1.00  0.00     0.031 C 
ATOM     22  C   UNL     1      -5.767   8.280   7.998  1.00  0.00    -0.008 C 
ATOM     23  C   UNL     1      -6.871   7.689   5.836  1.00  0.00    -0.027 C 
ATOM     24  C   UNL     1      -6.995   7.864   7.168  1.00  0.00    -0.065 C 
ATOM     25  C   UNL     1      -5.990   7.941   9.509  1.00  0.00     0.014 C 
ATOM     26  C   UNL     1      -5.648   9.825   7.854  1.00  0.00     0.016 C 
ATOM     27  C   UNL     1      -8.396   7.975   7.741  1.00  0.00     0.063 C 
ATOM     28  C   UNL     1      -7.385   8.302  10.033  1.00  0.00     0.033 C 
ATOM     29  C   UNL     1      -8.455   7.567   9.217  1.00  0.00     0.118 C 
BRANCH  29  30
ATOM     30  O   UNL     1      -9.735   7.808   9.746  1.00  0.00    -0.393 OA
ATOM     31  H   UNL     1     -10.396   7.363   9.153  1.00  0.00     0.210 HD
ENDBRANCH  29  30
ENDBRANCH   9  11
ENDBRANCH   1   9
TORSDOF 7
ENDMDL
MODEL 6
REMARK VINA RESULT:    -3.648     11.430     14.197
REMARK INTER + INTRA:          -6.302
REMARK INTER:                  -5.774
REMARK INTRA:                  -0.528
REMARK UNBOUND:                -1.268
REMARK SMILES CC[C@@H](CC[C@H](C)[C@H]1CC[C@H]2[C@@H]3CC=C4C[C@H](O)CC[C@@]4(C)[C@@H]3CC[C@@]12C)C(C)C
REMARK SMILES IDX 5 1 4 2 3 3 2 4 1 5 28 6 29 7 30 8 6 9 7 10 8 11 9 12 26 13
REMARK SMILES IDX 10 14 11 15 25 16 27 17 12 18 24 19 23 20 13 21 21 22 14 23
REMARK SMILES IDX 15 24 20 25 22 26 16 27 19 28 17 29 18 30
REMARK H PARENT 18 31
REMARK Flexibility Score: inf
ROOT
ATOM      1  C   UNL     1      -5.735  -4.562   9.343  1.00  0.00     0.004 C 
ENDROOT
BRANCH   1   2
ATOM      2  C   UNL     1      -6.871  -3.841  10.120  1.00  0.00     0.004 C 
BRANCH   2   3
ATOM      3  C   UNL     1      -7.172  -2.369   9.692  1.00  0.00    -0.009 C 
BRANCH   3   4
ATOM      4  C   UNL     1      -8.562  -2.300   9.000  1.00  0.00     0.000 C 
ATOM      5  C   UNL     1      -9.615  -3.203   9.645  1.00  0.00     0.004 C 
ENDBRANCH   3   4
BRANCH   3   6
ATOM      6  C   UNL     1      -6.038  -1.708   8.832  1.00  0.00    -0.014 C 
ATOM      7  C   UNL     1      -6.594  -0.787   7.739  1.00  0.00     0.007 C 
ATOM      8  C   UNL     1      -4.965  -0.969   9.652  1.00  0.00     0.007 C 
ENDBRANCH   3   6
ENDBRANCH   2   3
ENDBRANCH   1   2
BRANCH   1   9
ATOM      9  C   UNL     1      -4.482  -5.097  10.125  1.00  0.00    -0.011 C 
ATOM     10  C   UNL     1      -3.176  -4.394   9.691  1.00  0.00     0.008 C 
BRANCH   9  11
ATOM     11  C   UNL     1      -4.422  -6.679  10.119  1.00  0.00    -0.002 C 
ATOM     12  C   UNL     1      -5.791  -7.399  10.081  1.00  0.00     0.005 C 
ATOM     13  C   UNL     1      -3.531  -7.388   9.003  1.00  0.00    -0.026 C 
ATOM     14  C   UNL     1      -5.873  -8.139   8.770  1.00  0.00     0.005 C 
ATOM     15  C   UNL     1      -4.441  -8.519   8.418  1.00  0.00    -0.001 C 
ATOM     16  C   UNL     1      -3.002  -6.456   7.861  1.00  0.00     0.007 C 
ATOM     17  C   UNL     1      -2.296  -8.044   9.680  1.00  0.00     0.012 C 
ATOM     18  C   UNL     1      -4.306  -8.821   6.890  1.00  0.00     0.000 C 
ATOM     19  C   UNL     1      -4.021  -6.242   6.737  1.00  0.00     0.005 C 
ATOM     20  C   UNL     1      -4.317  -7.553   5.964  1.00  0.00     0.003 C 
ATOM     21  C   UNL     1      -3.131  -9.754   6.581  1.00  0.00     0.031 C 
ATOM     22  C   UNL     1      -3.528  -7.712   4.579  1.00  0.00    -0.008 C 
ATOM     23  C   UNL     1      -3.169 -10.122   5.128  1.00  0.00    -0.027 C 
ATOM     24  C   UNL     1      -3.426  -9.196   4.182  1.00  0.00    -0.065 C 
ATOM     25  C   UNL     1      -4.305  -6.907   3.485  1.00  0.00     0.014 C 
ATOM     26  C   UNL     1      -2.067  -7.177   4.637  1.00  0.00     0.016 C 
ATOM     27  C   UNL     1      -3.273  -9.604   2.729  1.00  0.00     0.063 C 
ATOM     28  C   UNL     1      -3.903  -7.255   2.048  1.00  0.00     0.033 C 
ATOM     29  C   UNL     1      -4.130  -8.749   1.790  1.00  0.00     0.118 C 
BRANCH  29  30
ATOM     30  O   UNL     1      -3.862  -9.067   0.447  1.00  0.00    -0.393 OA
ATOM     31  H   UNL     1      -2.879  -9.162   0.349  1.00  0.00     0.210 HD
ENDBRANCH  29  30
ENDBRANCH   9  11
ENDBRANCH   1   9
TORSDOF 7
ENDMDL
MODEL 7
REMARK VINA RESULT:    -3.645      2.808      6.478
REMARK INTER + INTRA:          -6.298
REMARK INTER:                  -5.031
REMARK INTRA:                  -1.267
REMARK UNBOUND:                -1.268
REMARK SMILES CC[C@@H](CC[C@H](C)[C@H]1CC[C@H]2[C@@H]3CC=C4C[C@H](O)CC[C@@]4(C)[C@@H]3CC[C@@]12C)C(C)C
REMARK SMILES IDX 5 1 4 2 3 3 2 4 1 5 28 6 29 7 30 8 6 9 7 10 8 11 9 12 26 13
REMARK SMILES IDX 10 14 11 15 25 16 27 17 12 18 24 19 23 20 13 21 21 22 14 23
REMARK SMILES IDX 15 24 20 25 22 26 16 27 19 28 17 29 18 30
REMARK H PARENT 18 31
REMARK Flexibility Score: inf
ROOT
ATOM      1  C   UNL     1      -0.148   7.927   7.400  1.00  0.00     0.004 C 
ENDROOT
BRANCH   1   2
ATOM      2  C   UNL     1       0.117   7.157   8.724  1.00  0.00     0.004 C 
BRANCH   2   3
ATOM      3  C   UNL     1      -0.506   5.728   8.827  1.00  0.00    -0.009 C 
BRANCH   3   4
ATOM      4  C   UNL     1      -1.464   5.663  10.048  1.00  0.00     0.000 C 
ATOM      5  C   UNL     1      -2.277   4.369  10.124  1.00  0.00     0.004 C 
ENDBRANCH   3   4
BRANCH   3   6
ATOM      6  C   UNL     1       0.551   4.569   8.829  1.00  0.00    -0.014 C 
ATOM      7  C   UNL     1       0.503   3.732   7.545  1.00  0.00     0.007 C 
ATOM      8  C   UNL     1       1.996   5.024   9.110  1.00  0.00     0.007 C 
ENDBRANCH   3   6
ENDBRANCH   2   3
ENDBRANCH   1   2
BRANCH   1   9
ATOM      9  C   UNL     1      -0.633   7.139   6.132  1.00  0.00    -0.011 C 
ATOM     10  C   UNL     1       0.543   6.680   5.240  1.00  0.00     0.008 C 
BRANCH   9  11
ATOM     11  C   UNL     1      -1.785   7.913   5.369  1.00  0.00    -0.002 C 
ATOM     12  C   UNL     1      -2.394   7.174   4.154  1.00  0.00     0.005 C 
ATOM     13  C   UNL     1      -3.026   8.434   6.223  1.00  0.00    -0.026 C 
ATOM     14  C   UNL     1      -3.835   6.875   4.486  1.00  0.00     0.005 C 
ATOM     15  C   UNL     1      -4.289   7.997   5.409  1.00  0.00    -0.001 C 
ATOM     16  C   UNL     1      -3.108   7.909   7.696  1.00  0.00     0.007 C 
ATOM     17  C   UNL     1      -2.985   9.986   6.283  1.00  0.00     0.012 C 
ATOM     18  C   UNL     1      -5.549   7.568   6.228  1.00  0.00     0.000 C 
ATOM     19  C   UNL     1      -3.766   6.530   7.809  1.00  0.00     0.005 C 
ATOM     20  C   UNL     1      -5.263   6.567   7.403  1.00  0.00     0.003 C 
ATOM     21  C   UNL     1      -6.388   8.767   6.681  1.00  0.00     0.031 C 
ATOM     22  C   UNL     1      -6.292   6.639   8.628  1.00  0.00    -0.008 C 
ATOM     23  C   UNL     1      -7.653   8.269   7.313  1.00  0.00    -0.027 C 
ATOM     24  C   UNL     1      -7.639   7.226   8.169  1.00  0.00    -0.065 C 
ATOM     25  C   UNL     1      -6.490   5.187   9.178  1.00  0.00     0.014 C 
ATOM     26  C   UNL     1      -5.800   7.542   9.796  1.00  0.00     0.016 C 
ATOM     27  C   UNL     1      -8.925   6.893   8.902  1.00  0.00     0.063 C 
ATOM     28  C   UNL     1      -7.711   5.023  10.090  1.00  0.00     0.033 C 
ATOM     29  C   UNL     1      -8.983   5.424   9.336  1.00  0.00     0.118 C 
BRANCH  29  30
ATOM     30  O   UNL     1     -10.123   5.186  10.124  1.00  0.00    -0.393 OA
ATOM     31  H   UNL     1     -10.904   5.118   9.514  1.00  0.00     0.210 HD
ENDBRANCH  29  30
ENDBRANCH   9  11
ENDBRANCH   1   9
TORSDOF 7
ENDMDL
MODEL 8
REMARK VINA RESULT:    -3.624      2.550      5.181
REMARK INTER + INTRA:          -6.270
REMARK INTER:                  -4.372
REMARK INTRA:                  -1.898
REMARK UNBOUND:                -1.268
REMARK SMILES CC[C@@H](CC[C@H](C)[C@H]1CC[C@H]2[C@@H]3CC=C4C[C@H](O)CC[C@@]4(C)[C@@H]3CC[C@@]12C)C(C)C
REMARK SMILES IDX 5 1 4 2 3 3 2 4 1 5 28 6 29 7 30 8 6 9 7 10 8 11 9 12 26 13
REMARK SMILES IDX 10 14 11 15 25 16 27 17 12 18 24 19 23 20 13 21 21 22 14 23
REMARK SMILES IDX 15 24 20 25 22 26 16 27 19 28 17 29 18 30
REMARK H PARENT 18 31
REMARK Flexibility Score: inf
ROOT
ATOM      1  C   UNL     1      -1.020   9.472   6.269  1.00  0.00     0.004 C 
ENDROOT
BRANCH   1   2
ATOM      2  C   UNL     1       0.085   8.668   7.008  1.00  0.00     0.004 C 
BRANCH   2   3
ATOM      3  C   UNL     1      -0.298   7.221   7.456  1.00  0.00    -0.009 C 
BRANCH   3   4
ATOM      4  C   UNL     1      -0.060   7.067   8.983  1.00  0.00     0.000 C 
ATOM      5  C   UNL     1      -0.359   8.336   9.783  1.00  0.00     0.004 C 
ENDBRANCH   3   4
BRANCH   3   6
ATOM      6  C   UNL     1       0.396   6.089   6.620  1.00  0.00    -0.014 C 
ATOM      7  C   UNL     1       1.146   5.086   7.505  1.00  0.00     0.007 C 
ATOM      8  C   UNL     1      -0.544   5.343   5.654  1.00  0.00     0.007 C 
ENDBRANCH   3   6
ENDBRANCH   2   3
ENDBRANCH   1   2
BRANCH   1   9
ATOM      9  C   UNL     1      -2.088   8.708   5.409  1.00  0.00    -0.011 C 
ATOM     10  C   UNL     1      -1.744   8.717   3.902  1.00  0.00     0.008 C 
BRANCH   9  11
ATOM     11  C   UNL     1      -3.561   9.174   5.759  1.00  0.00    -0.002 C 
ATOM     12  C   UNL     1      -4.614   8.945   4.649  1.00  0.00     0.005 C 
ATOM     13  C   UNL     1      -4.220   8.620   7.100  1.00  0.00    -0.026 C 
ATOM     14  C   UNL     1      -5.606   7.937   5.173  1.00  0.00     0.005 C 
ATOM     15  C   UNL     1      -5.650   8.143   6.681  1.00  0.00    -0.001 C 
ATOM     16  C   UNL     1      -3.440   7.467   7.816  1.00  0.00     0.007 C 
ATOM     17  C   UNL     1      -4.362   9.788   8.116  1.00  0.00     0.012 C 
ATOM     18  C   UNL     1      -6.216   6.876   7.399  1.00  0.00     0.000 C 
ATOM     19  C   UNL     1      -3.747   6.082   7.239  1.00  0.00     0.005 C 
ATOM     20  C   UNL     1      -5.221   5.665   7.482  1.00  0.00     0.003 C 
ATOM     21  C   UNL     1      -6.841   7.206   8.759  1.00  0.00     0.031 C 
ATOM     22  C   UNL     1      -5.446   4.679   8.724  1.00  0.00    -0.008 C 
ATOM     23  C   UNL     1      -7.501   5.975   9.305  1.00  0.00    -0.027 C 
ATOM     24  C   UNL     1      -6.897   4.771   9.231  1.00  0.00    -0.065 C 
ATOM     25  C   UNL     1      -5.127   3.223   8.248  1.00  0.00     0.014 C 
ATOM     26  C   UNL     1      -4.538   5.006   9.944  1.00  0.00     0.016 C 
ATOM     27  C   UNL     1      -7.543   3.608   9.960  1.00  0.00     0.063 C 
ATOM     28  C   UNL     1      -5.646   2.129   9.188  1.00  0.00     0.033 C 
ATOM     29  C   UNL     1      -7.165   2.255   9.347  1.00  0.00     0.118 C 
BRANCH  29  30
ATOM     30  O   UNL     1      -7.673   1.200  10.125  1.00  0.00    -0.393 OA
ATOM     31  H   UNL     1      -7.773   1.531  11.056  1.00  0.00     0.210 HD
ENDBRANCH  29  30
ENDBRANCH   9  11
ENDBRANCH   1   9
TORSDOF 7
ENDMDL
MODEL 9
REMARK VINA RESULT:    -3.378      2.174      5.053
REMARK INTER + INTRA:          -5.929
REMARK INTER:                  -4.580
REMARK INTRA:                  -1.349
REMARK UNBOUND:                -1.268
REMARK SMILES CC[C@@H](CC[C@H](C)[C@H]1CC[C@H]2[C@@H]3CC=C4C[C@H](O)CC[C@@]4(C)[C@@H]3CC[C@@]12C)C(C)C
REMARK SMILES IDX 5 1 4 2 3 3 2 4 1 5 28 6 29 7 30 8 6 9 7 10 8 11 9 12 26 13
REMARK SMILES IDX 10 14 11 15 25 16 27 17 12 18 24 19 23 20 13 21 21 22 14 23
REMARK SMILES IDX 15 24 20 25 22 26 16 27 19 28 17 29 18 30
REMARK H PARENT 18 31
REMARK Flexibility Score: inf
ROOT
ATOM      1  C   UNL     1       0.196   8.301   5.876  1.00  0.00     0.004 C 
ENDROOT
BRANCH   1   2
ATOM      2  C   UNL     1       0.697   7.558   7.146  1.00  0.00     0.004 C 
BRANCH   2   3
ATOM      3  C   UNL     1       1.039   6.044   6.969  1.00  0.00    -0.009 C 
BRANCH   3   4
ATOM      4  C   UNL     1       0.515   5.548   5.593  1.00  0.00     0.000 C 
ATOM      5  C   UNL     1      -0.830   4.823   5.673  1.00  0.00     0.004 C 
ENDBRANCH   3   4
BRANCH   3   6
ATOM      6  C   UNL     1       0.563   5.138   8.158  1.00  0.00    -0.014 C 
ATOM      7  C   UNL     1       1.397   3.858   8.288  1.00  0.00     0.007 C 
ATOM      8  C   UNL     1       0.484   5.859   9.517  1.00  0.00     0.007 C 
ENDBRANCH   3   6
ENDBRANCH   2   3
ENDBRANCH   1   2
BRANCH   1   9
ATOM      9  C   UNL     1      -0.692   9.587   6.032  1.00  0.00    -0.011 C 
ATOM     10  C   UNL     1      -0.742  10.091   7.492  1.00  0.00     0.008 C 
BRANCH   9  11
ATOM     11  C   UNL     1      -2.104   9.410   5.338  1.00  0.00    -0.002 C 
ATOM     12  C   UNL     1      -2.127   8.484   4.099  1.00  0.00     0.005 C 
ATOM     13  C   UNL     1      -3.329   8.945   6.247  1.00  0.00    -0.026 C 
ATOM     14  C   UNL     1      -2.980   7.289   4.446  1.00  0.00     0.005 C 
ATOM     15  C   UNL     1      -4.018   7.796   5.438  1.00  0.00    -0.001 C 
ATOM     16  C   UNL     1      -2.961   8.464   7.690  1.00  0.00     0.007 C 
ATOM     17  C   UNL     1      -4.331  10.124   6.388  1.00  0.00     0.012 C 
ATOM     18  C   UNL     1      -4.624   6.614   6.261  1.00  0.00     0.000 C 
ATOM     19  C   UNL     1      -2.524   6.997   7.744  1.00  0.00     0.005 C 
ATOM     20  C   UNL     1      -3.682   6.033   7.374  1.00  0.00     0.003 C 
ATOM     21  C   UNL     1      -6.024   6.932   6.796  1.00  0.00     0.031 C 
ATOM     22  C   UNL     1      -4.430   5.366   8.624  1.00  0.00    -0.008 C 
ATOM     23  C   UNL     1      -6.598   5.699   7.429  1.00  0.00    -0.027 C 
ATOM     24  C   UNL     1      -5.846   4.913   8.227  1.00  0.00    -0.065 C 
ATOM     25  C   UNL     1      -3.578   4.142   9.099  1.00  0.00     0.014 C 
ATOM     26  C   UNL     1      -4.605   6.338   9.827  1.00  0.00     0.016 C 
ATOM     27  C   UNL     1      -6.540   3.787   8.970  1.00  0.00     0.063 C 
ATOM     28  C   UNL     1      -4.328   3.181  10.029  1.00  0.00     0.033 C 
ATOM     29  C   UNL     1      -5.580   2.646   9.326  1.00  0.00     0.118 C 
BRANCH  29  30
ATOM     30  O   UNL     1      -6.227   1.687  10.125  1.00  0.00    -0.393 OA
ATOM     31  H   UNL     1      -6.982   1.314   9.599  1.00  0.00     0.210 HD
ENDBRANCH  29  30
ENDBRANCH   9  11
ENDBRANCH   1   9
TORSDOF 7
ENDMDL
