MODEL 1
REMARK VINA RESULT:    -5.813      0.000      0.000
REMARK INTER + INTRA:          -7.812
REMARK INTER:                  -7.343
REMARK INTRA:                  -0.469
REMARK UNBOUND:                -0.469
REMARK SMILES COc1cc(O)c2c(=O)c(OC)c(-c3ccc(O)c(O)c3)oc2c1
REMARK SMILES IDX 3 1 4 2 5 3 7 4 23 5 24 6 22 7 13 8 10 9 8 10 9 11 2 12 1 13
REMARK SMILES IDX 6 14 14 16 21 17 15 18 19 19 16 20 17 21 20 22 18 24 11 26
REMARK SMILES IDX 12 27
REMARK H PARENT 6 15 20 23 18 25
REMARK Flexibility Score: inf
ROOT
ATOM      1  C   UNL     1     107.693   1.133  59.074  1.00  0.00     0.126 A 
ATOM      2  C   UNL     1     107.103   1.391  60.324  1.00  0.00     0.093 A 
ATOM      3  C   UNL     1     107.896   1.608  61.460  1.00  0.00     0.134 A 
ATOM      4  C   UNL     1     109.308   1.568  61.353  1.00  0.00     0.111 A 
ATOM      5  C   UNL     1     109.891   1.306  60.094  1.00  0.00     0.146 A 
ATOM      6  C   UNL     1     109.085   1.094  58.973  1.00  0.00     0.094 A 
ATOM      7  O   UNL     1     111.209   1.254  59.959  1.00  0.00    -0.452 OA
ATOM      8  C   UNL     1     112.055   1.438  60.965  1.00  0.00     0.180 A 
ATOM      9  C   UNL     1     111.572   1.735  62.256  1.00  0.00     0.210 A 
ATOM     10  C   UNL     1     110.171   1.786  62.448  1.00  0.00     0.239 A 
ATOM     11  O   UNL     1     109.693   2.029  63.588  1.00  0.00    -0.285 OA
ENDROOT
BRANCH   1  12
ATOM     12  O   UNL     1     106.935   0.913  57.914  1.00  0.00    -0.496 OA
ATOM     13  C   UNL     1     107.292  -0.002  56.881  1.00  0.00     0.278 C 
ENDBRANCH   1  12
BRANCH   3  14
ATOM     14  O   UNL     1     107.275   1.862  62.685  1.00  0.00    -0.507 OA
ATOM     15  H   UNL     1     107.793   1.860  63.556  1.00  0.00     0.293 HD
ENDBRANCH   3  14
BRANCH   8  16
ATOM     16  C   UNL     1     113.504   1.338  60.676  1.00  0.00     0.025 A 
ATOM     17  C   UNL     1     114.284   2.485  60.441  1.00  0.00     0.062 A 
ATOM     18  C   UNL     1     114.128   0.081  60.694  1.00  0.00     0.016 A 
ATOM     19  C   UNL     1     115.657   2.375  60.194  1.00  0.00     0.158 A 
ATOM     20  C   UNL     1     115.498  -0.033  60.446  1.00  0.00     0.051 A 
ATOM     21  C   UNL     1     116.268   1.110  60.190  1.00  0.00     0.157 A 
BRANCH  19  22
ATOM     22  O   UNL     1     116.398   3.533  59.958  1.00  0.00    -0.504 OA
ATOM     23  H   UNL     1     116.752   4.107  60.713  1.00  0.00     0.293 HD
ENDBRANCH  19  22
BRANCH  21  24
ATOM     24  O   UNL     1     117.634   0.993  59.940  1.00  0.00    -0.504 OA
ATOM     25  H   UNL     1     118.027   1.205  59.030  1.00  0.00     0.293 HD
ENDBRANCH  21  24
ENDBRANCH   8  16
BRANCH   9  26
ATOM     26  O   UNL     1     112.508   1.993  63.278  1.00  0.00    -0.490 OA
ATOM     27  C   UNL     1     112.910   1.096  64.308  1.00  0.00     0.278 C 
ENDBRANCH   9  26
TORSDOF 6
ENDMDL
MODEL 2
REMARK VINA RESULT:    -5.377      2.331      7.650
REMARK INTER + INTRA:          -7.260
REMARK INTER:                  -6.941
REMARK INTRA:                  -0.319
REMARK UNBOUND:                -0.469
REMARK SMILES COc1cc(O)c2c(=O)c(OC)c(-c3ccc(O)c(O)c3)oc2c1
REMARK SMILES IDX 3 1 4 2 5 3 7 4 23 5 24 6 22 7 13 8 10 9 8 10 9 11 2 12 1 13
REMARK SMILES IDX 6 14 14 16 21 17 15 18 19 19 16 20 17 21 20 22 18 24 11 26
REMARK SMILES IDX 12 27
REMARK H PARENT 6 15 20 23 18 25
REMARK Flexibility Score: inf
ROOT
ATOM      1  C   UNL     1     116.702   3.345  61.610  1.00  0.00     0.126 A 
ATOM      2  C   UNL     1     116.670   2.425  60.548  1.00  0.00     0.093 A 
ATOM      3  C   UNL     1     115.519   1.667  60.290  1.00  0.00     0.134 A 
ATOM      4  C   UNL     1     114.372   1.826  61.106  1.00  0.00     0.111 A 
ATOM      5  C   UNL     1     114.415   2.751  62.172  1.00  0.00     0.146 A 
ATOM      6  C   UNL     1     115.570   3.499  62.413  1.00  0.00     0.094 A 
ATOM      7  O   UNL     1     113.362   2.921  62.961  1.00  0.00    -0.452 OA
ATOM      8  C   UNL     1     112.224   2.254  62.814  1.00  0.00     0.180 A 
ATOM      9  C   UNL     1     112.071   1.329  61.761  1.00  0.00     0.210 A 
ATOM     10  C   UNL     1     113.175   1.107  60.904  1.00  0.00     0.239 A 
ATOM     11  O   UNL     1     113.091   0.276  59.961  1.00  0.00    -0.285 OA
ENDROOT
BRANCH   1  12
ATOM     12  O   UNL     1     117.833   4.124  61.899  1.00  0.00    -0.496 OA
ATOM     13  C   UNL     1     118.538   4.091  63.136  1.00  0.00     0.278 C 
ENDBRANCH   1  12
BRANCH   3  14
ATOM     14  O   UNL     1     115.523   0.763  59.226  1.00  0.00    -0.507 OA
ATOM     15  H   UNL     1     116.289   0.723  58.563  1.00  0.00     0.293 HD
ENDBRANCH   3  14
BRANCH   8  16
ATOM     16  C   UNL     1     111.132   2.532  63.776  1.00  0.00     0.025 A 
ATOM     17  C   UNL     1     110.633   1.527  64.625  1.00  0.00     0.062 A 
ATOM     18  C   UNL     1     110.625   3.836  63.888  1.00  0.00     0.016 A 
ATOM     19  C   UNL     1     109.618   1.814  65.546  1.00  0.00     0.158 A 
ATOM     20  C   UNL     1     109.612   4.124  64.805  1.00  0.00     0.051 A 
ATOM     21  C   UNL     1     109.100   3.116  65.634  1.00  0.00     0.157 A 
BRANCH  19  22
ATOM     22  O   UNL     1     109.141   0.791  66.367  1.00  0.00    -0.504 OA
ATOM     23  H   UNL     1     109.718   0.362  67.080  1.00  0.00     0.293 HD
ENDBRANCH  19  22
BRANCH  21  24
ATOM     24  O   UNL     1     108.087   3.406  66.546  1.00  0.00    -0.504 OA
ATOM     25  H   UNL     1     107.168   3.707  66.241  1.00  0.00     0.293 HD
ENDBRANCH  21  24
ENDBRANCH   8  16
BRANCH   9  26
ATOM     26  O   UNL     1     110.821   0.698  61.601  1.00  0.00    -0.490 OA
ATOM     27  C   UNL     1     109.792   1.072  60.692  1.00  0.00     0.278 C 
ENDBRANCH   9  26
TORSDOF 6
ENDMDL
MODEL 3
REMARK VINA RESULT:    -5.321      1.588      6.644
REMARK INTER + INTRA:          -7.190
REMARK INTER:                  -6.702
REMARK INTRA:                  -0.488
REMARK UNBOUND:                -0.469
REMARK SMILES COc1cc(O)c2c(=O)c(OC)c(-c3ccc(O)c(O)c3)oc2c1
REMARK SMILES IDX 3 1 4 2 5 3 7 4 23 5 24 6 22 7 13 8 10 9 8 10 9 11 2 12 1 13
REMARK SMILES IDX 6 14 14 16 21 17 15 18 19 19 16 20 17 21 20 22 18 24 11 26
REMARK SMILES IDX 12 27
REMARK H PARENT 6 15 20 23 18 25
REMARK Flexibility Score: inf
ROOT
ATOM      1  C   UNL     1     114.985   2.635  61.589  1.00  0.00     0.126 A 
ATOM      2  C   UNL     1     114.653   2.309  62.915  1.00  0.00     0.093 A 
ATOM      3  C   UNL     1     113.341   1.950  63.258  1.00  0.00     0.134 A 
ATOM      4  C   UNL     1     112.336   1.914  62.261  1.00  0.00     0.111 A 
ATOM      5  C   UNL     1     112.679   2.246  60.932  1.00  0.00     0.146 A 
ATOM      6  C   UNL     1     113.992   2.600  60.608  1.00  0.00     0.094 A 
ATOM      7  O   UNL     1     111.762   2.230  59.974  1.00  0.00    -0.452 OA
ATOM      8  C   UNL     1     110.490   1.912  60.184  1.00  0.00     0.180 A 
ATOM      9  C   UNL     1     110.054   1.537  61.471  1.00  0.00     0.210 A 
ATOM     10  C   UNL     1     110.997   1.553  62.526  1.00  0.00     0.239 A 
ATOM     11  O   UNL     1     110.649   1.245  63.697  1.00  0.00    -0.285 OA
ENDROOT
BRANCH   1  12
ATOM     12  O   UNL     1     116.285   2.997  61.205  1.00  0.00    -0.496 OA
ATOM     13  C   UNL     1     116.919   2.567  60.004  1.00  0.00     0.278 C 
ENDBRANCH   1  12
BRANCH   3  14
ATOM     14  O   UNL     1     113.047   1.631  64.585  1.00  0.00    -0.507 OA
ATOM     15  H   UNL     1     112.120   1.763  64.973  1.00  0.00     0.293 HD
ENDBRANCH   3  14
BRANCH   8  16
ATOM     16  C   UNL     1     109.569   1.950  59.025  1.00  0.00     0.025 A 
ATOM     17  C   UNL     1     109.337   0.806  58.239  1.00  0.00     0.062 A 
ATOM     18  C   UNL     1     108.866   3.130  58.739  1.00  0.00     0.016 A 
ATOM     19  C   UNL     1     108.444   0.852  57.162  1.00  0.00     0.158 A 
ATOM     20  C   UNL     1     107.975   3.179  57.664  1.00  0.00     0.051 A 
ATOM     21  C   UNL     1     107.763   2.045  56.868  1.00  0.00     0.157 A 
BRANCH  19  22
ATOM     22  O   UNL     1     108.244  -0.298  56.399  1.00  0.00    -0.504 OA
ATOM     23  H   UNL     1     108.986  -0.714  55.850  1.00  0.00     0.293 HD
ENDBRANCH  19  22
BRANCH  21  24
ATOM     24  O   UNL     1     106.875   2.098  55.795  1.00  0.00    -0.504 OA
ATOM     25  H   UNL     1     106.040   2.673  55.824  1.00  0.00     0.293 HD
ENDBRANCH  21  24
ENDBRANCH   8  16
BRANCH   9  26
ATOM     26  O   UNL     1     108.712   1.139  61.633  1.00  0.00    -0.490 OA
ATOM     27  C   UNL     1     107.634   1.952  62.083  1.00  0.00     0.278 C 
ENDBRANCH   9  26
TORSDOF 6
ENDMDL
MODEL 4
REMARK VINA RESULT:    -5.130      1.984      2.350
REMARK INTER + INTRA:          -6.949
REMARK INTER:                  -6.452
REMARK INTRA:                  -0.497
REMARK UNBOUND:                -0.469
REMARK SMILES COc1cc(O)c2c(=O)c(OC)c(-c3ccc(O)c(O)c3)oc2c1
REMARK SMILES IDX 3 1 4 2 5 3 7 4 23 5 24 6 22 7 13 8 10 9 8 10 9 11 2 12 1 13
REMARK SMILES IDX 6 14 14 16 21 17 15 18 19 19 16 20 17 21 20 22 18 24 11 26
REMARK SMILES IDX 12 27
REMARK H PARENT 6 15 20 23 18 25
REMARK Flexibility Score: inf
ROOT
ATOM      1  C   UNL     1     107.931   2.960  58.589  1.00  0.00     0.126 A 
ATOM      2  C   UNL     1     107.235   1.830  59.051  1.00  0.00     0.093 A 
ATOM      3  C   UNL     1     107.836   0.934  59.948  1.00  0.00     0.134 A 
ATOM      4  C   UNL     1     109.159   1.167  60.397  1.00  0.00     0.111 A 
ATOM      5  C   UNL     1     109.851   2.304  59.925  1.00  0.00     0.146 A 
ATOM      6  C   UNL     1     109.236   3.186  59.033  1.00  0.00     0.094 A 
ATOM      7  O   UNL     1     111.093   2.550  60.318  1.00  0.00    -0.452 OA
ATOM      8  C   UNL     1     111.762   1.769  61.159  1.00  0.00     0.180 A 
ATOM      9  C   UNL     1     111.148   0.625  61.709  1.00  0.00     0.210 A 
ATOM     10  C   UNL     1     109.827   0.318  61.305  1.00  0.00     0.239 A 
ATOM     11  O   UNL     1     109.245  -0.704  61.755  1.00  0.00    -0.285 OA
ENDROOT
BRANCH   1  12
ATOM     12  O   UNL     1     107.365   3.880  57.693  1.00  0.00    -0.496 OA
ATOM     13  C   UNL     1     107.408   3.754  56.275  1.00  0.00     0.278 C 
ENDBRANCH   1  12
BRANCH   3  14
ATOM     14  O   UNL     1     107.115  -0.178  60.386  1.00  0.00    -0.507 OA
ATOM     15  H   UNL     1     107.576  -1.018  60.714  1.00  0.00     0.293 HD
ENDBRANCH   3  14
BRANCH   8  16
ATOM     16  C   UNL     1     113.150   2.154  61.503  1.00  0.00     0.025 A 
ATOM     17  C   UNL     1     114.244   1.697  60.746  1.00  0.00     0.062 A 
ATOM     18  C   UNL     1     113.378   3.040  62.567  1.00  0.00     0.016 A 
ATOM     19  C   UNL     1     115.548   2.091  61.069  1.00  0.00     0.158 A 
ATOM     20  C   UNL     1     114.678   3.434  62.893  1.00  0.00     0.051 A 
ATOM     21  C   UNL     1     115.768   2.960  62.152  1.00  0.00     0.157 A 
BRANCH  19  22
ATOM     22  O   UNL     1     116.610   1.613  60.302  1.00  0.00    -0.504 OA
ATOM     23  H   UNL     1     117.392   1.120  60.715  1.00  0.00     0.293 HD
ENDBRANCH  19  22
BRANCH  21  24
ATOM     24  O   UNL     1     117.064   3.352  62.481  1.00  0.00    -0.504 OA
ATOM     25  H   UNL     1     117.323   3.582  63.435  1.00  0.00     0.293 HD
ENDBRANCH  21  24
ENDBRANCH   8  16
BRANCH   9  26
ATOM     26  O   UNL     1     111.871  -0.134  62.651  1.00  0.00    -0.490 OA
ATOM     27  C   UNL     1     111.731  -0.085  64.067  1.00  0.00     0.278 C 
ENDBRANCH   9  26
TORSDOF 6
ENDMDL
MODEL 5
REMARK VINA RESULT:    -5.093      3.446      8.528
REMARK INTER + INTRA:          -6.901
REMARK INTER:                  -6.795
REMARK INTRA:                  -0.107
REMARK UNBOUND:                -0.469
REMARK SMILES COc1cc(O)c2c(=O)c(OC)c(-c3ccc(O)c(O)c3)oc2c1
REMARK SMILES IDX 3 1 4 2 5 3 7 4 23 5 24 6 22 7 13 8 10 9 8 10 9 11 2 12 1 13
REMARK SMILES IDX 6 14 14 16 21 17 15 18 19 19 16 20 17 21 20 22 18 24 11 26
REMARK SMILES IDX 12 27
REMARK H PARENT 6 15 20 23 18 25
REMARK Flexibility Score: inf
ROOT
ATOM      1  C   UNL     1     119.307   3.925  62.284  1.00  0.00     0.126 A 
ATOM      2  C   UNL     1     119.322   4.007  60.881  1.00  0.00     0.093 A 
ATOM      3  C   UNL     1     118.150   3.802  60.138  1.00  0.00     0.134 A 
ATOM      4  C   UNL     1     116.934   3.511  60.805  1.00  0.00     0.111 A 
ATOM      5  C   UNL     1     116.931   3.429  62.215  1.00  0.00     0.146 A 
ATOM      6  C   UNL     1     118.108   3.637  62.938  1.00  0.00     0.094 A 
ATOM      7  O   UNL     1     115.813   3.151  62.872  1.00  0.00    -0.452 OA
ATOM      8  C   UNL     1     114.648   2.933  62.273  1.00  0.00     0.180 A 
ATOM      9  C   UNL     1     114.541   3.021  60.870  1.00  0.00     0.210 A 
ATOM     10  C   UNL     1     115.713   3.303  60.129  1.00  0.00     0.239 A 
ATOM     11  O   UNL     1     115.670   3.372  58.871  1.00  0.00    -0.285 OA
ENDROOT
BRANCH   1  12
ATOM     12  O   UNL     1     120.458   4.125  63.062  1.00  0.00    -0.496 OA
ATOM     13  C   UNL     1     120.690   3.512  64.327  1.00  0.00     0.278 C 
ENDBRANCH   1  12
BRANCH   3  14
ATOM     14  O   UNL     1     118.201   3.891  58.746  1.00  0.00    -0.507 OA
ATOM     15  H   UNL     1     117.533   3.411  58.155  1.00  0.00     0.293 HD
ENDBRANCH   3  14
BRANCH   8  16
ATOM     16  C   UNL     1     113.480   2.618  63.128  1.00  0.00     0.025 A 
ATOM     17  C   UNL     1     113.355   1.369  63.763  1.00  0.00     0.062 A 
ATOM     18  C   UNL     1     112.508   3.603  63.361  1.00  0.00     0.016 A 
ATOM     19  C   UNL     1     112.258   1.097  64.588  1.00  0.00     0.158 A 
ATOM     20  C   UNL     1     111.411   3.334  64.183  1.00  0.00     0.051 A 
ATOM     21  C   UNL     1     111.277   2.081  64.796  1.00  0.00     0.157 A 
BRANCH  19  22
ATOM     22  O   UNL     1     112.162  -0.156  65.196  1.00  0.00    -0.504 OA
ATOM     23  H   UNL     1     111.911  -0.262  66.171  1.00  0.00     0.293 HD
ENDBRANCH  19  22
BRANCH  21  24
ATOM     24  O   UNL     1     110.180   1.814  65.614  1.00  0.00    -0.504 OA
ATOM     25  H   UNL     1     110.276   1.731  66.620  1.00  0.00     0.293 HD
ENDBRANCH  21  24
ENDBRANCH   8  16
BRANCH   9  26
ATOM     26  O   UNL     1     113.270   2.854  60.284  1.00  0.00    -0.490 OA
ATOM     27  C   UNL     1     112.508   1.652  60.239  1.00  0.00     0.278 C 
ENDBRANCH   9  26
TORSDOF 6
ENDMDL
MODEL 6
REMARK VINA RESULT:    -5.017      2.688      6.389
REMARK INTER + INTRA:          -6.806
REMARK INTER:                  -6.466
REMARK INTRA:                  -0.341
REMARK UNBOUND:                -0.469
REMARK SMILES COc1cc(O)c2c(=O)c(OC)c(-c3ccc(O)c(O)c3)oc2c1
REMARK SMILES IDX 3 1 4 2 5 3 7 4 23 5 24 6 22 7 13 8 10 9 8 10 9 11 2 12 1 13
REMARK SMILES IDX 6 14 14 16 21 17 15 18 19 19 16 20 17 21 20 22 18 24 11 26
REMARK SMILES IDX 12 27
REMARK H PARENT 6 15 20 23 18 25
REMARK Flexibility Score: inf
ROOT
ATOM      1  C   UNL     1     108.700   3.278  65.448  1.00  0.00     0.126 A 
ATOM      2  C   UNL     1     109.882   2.658  65.890  1.00  0.00     0.093 A 
ATOM      3  C   UNL     1     110.637   1.854  65.023  1.00  0.00     0.134 A 
ATOM      4  C   UNL     1     110.208   1.662  63.686  1.00  0.00     0.111 A 
ATOM      5  C   UNL     1     109.018   2.288  63.253  1.00  0.00     0.146 A 
ATOM      6  C   UNL     1     108.280   3.087  64.130  1.00  0.00     0.094 A 
ATOM      7  O   UNL     1     108.584   2.125  62.011  1.00  0.00    -0.452 OA
ATOM      8  C   UNL     1     109.213   1.383  61.107  1.00  0.00     0.180 A 
ATOM      9  C   UNL     1     110.425   0.741  61.434  1.00  0.00     0.210 A 
ATOM     10  C   UNL     1     110.918   0.877  62.753  1.00  0.00     0.239 A 
ATOM     11  O   UNL     1     111.987   0.305  63.095  1.00  0.00    -0.285 OA
ENDROOT
BRANCH   1  12
ATOM     12  O   UNL     1     107.919   4.091  66.284  1.00  0.00    -0.496 OA
ATOM     13  C   UNL     1     107.259   3.636  67.461  1.00  0.00     0.278 C 
ENDBRANCH   1  12
BRANCH   3  14
ATOM     14  O   UNL     1     111.805   1.253  65.495  1.00  0.00    -0.507 OA
ATOM     15  H   UNL     1     111.799   0.628  66.293  1.00  0.00     0.293 HD
ENDBRANCH   3  14
BRANCH   8  16
ATOM     16  C   UNL     1     108.608   1.276  59.760  1.00  0.00     0.025 A 
ATOM     17  C   UNL     1     109.105   2.019  58.674  1.00  0.00     0.062 A 
ATOM     18  C   UNL     1     107.557   0.371  59.545  1.00  0.00     0.016 A 
ATOM     19  C   UNL     1     108.537   1.887  57.402  1.00  0.00     0.158 A 
ATOM     20  C   UNL     1     106.987   0.238  58.276  1.00  0.00     0.051 A 
ATOM     21  C   UNL     1     107.469   0.996  57.201  1.00  0.00     0.157 A 
BRANCH  19  22
ATOM     22  O   UNL     1     109.051   2.646  56.349  1.00  0.00    -0.504 OA
ATOM     23  H   UNL     1     108.492   2.890  55.541  1.00  0.00     0.293 HD
ENDBRANCH  19  22
BRANCH  21  24
ATOM     24  O   UNL     1     106.898   0.864  55.937  1.00  0.00    -0.504 OA
ATOM     25  H   UNL     1     106.910   1.624  55.265  1.00  0.00     0.293 HD
ENDBRANCH  21  24
ENDBRANCH   8  16
BRANCH   9  26
ATOM     26  O   UNL     1     111.095   0.023  60.422  1.00  0.00    -0.490 OA
ATOM     27  C   UNL     1     112.370   0.327  59.868  1.00  0.00     0.278 C 
ENDBRANCH   9  26
TORSDOF 6
ENDMDL
MODEL 7
REMARK VINA RESULT:    -4.972      2.218      7.048
REMARK INTER + INTRA:          -6.749
REMARK INTER:                  -6.272
REMARK INTRA:                  -0.477
REMARK UNBOUND:                -0.469
REMARK SMILES COc1cc(O)c2c(=O)c(OC)c(-c3ccc(O)c(O)c3)oc2c1
REMARK SMILES IDX 3 1 4 2 5 3 7 4 23 5 24 6 22 7 13 8 10 9 8 10 9 11 2 12 1 13
REMARK SMILES IDX 6 14 14 16 21 17 15 18 19 19 16 20 17 21 20 22 18 24 11 26
REMARK SMILES IDX 12 27
REMARK H PARENT 6 15 20 23 18 25
REMARK Flexibility Score: inf
ROOT
ATOM      1  C   UNL     1     117.375   1.971  59.050  1.00  0.00     0.126 A 
ATOM      2  C   UNL     1     117.898   2.855  60.010  1.00  0.00     0.093 A 
ATOM      3  C   UNL     1     117.131   3.245  61.118  1.00  0.00     0.134 A 
ATOM      4  C   UNL     1     115.815   2.746  61.276  1.00  0.00     0.111 A 
ATOM      5  C   UNL     1     115.298   1.860  60.304  1.00  0.00     0.146 A 
ATOM      6  C   UNL     1     116.077   1.481  59.208  1.00  0.00     0.094 A 
ATOM      7  O   UNL     1     114.068   1.379  60.417  1.00  0.00    -0.452 OA
ATOM      8  C   UNL     1     113.252   1.684  61.419  1.00  0.00     0.180 A 
ATOM      9  C   UNL     1     113.685   2.537  62.455  1.00  0.00     0.210 A 
ATOM     10  C   UNL     1     114.987   3.084  62.368  1.00  0.00     0.239 A 
ATOM     11  O   UNL     1     115.409   3.866  63.260  1.00  0.00    -0.285 OA
ENDROOT
BRANCH   1  12
ATOM     12  O   UNL     1     118.111   1.556  57.930  1.00  0.00    -0.496 OA
ATOM     13  C   UNL     1     117.585   0.760  56.872  1.00  0.00     0.278 C 
ENDBRANCH   1  12
BRANCH   3  14
ATOM     14  O   UNL     1     117.682   4.124  62.052  1.00  0.00    -0.507 OA
ATOM     15  H   UNL     1     117.167   4.923  62.402  1.00  0.00     0.293 HD
ENDBRANCH   3  14
BRANCH   8  16
ATOM     16  C   UNL     1     111.897   1.086  61.412  1.00  0.00     0.025 A 
ATOM     17  C   UNL     1     111.621  -0.106  62.106  1.00  0.00     0.062 A 
ATOM     18  C   UNL     1     110.852   1.749  60.751  1.00  0.00     0.016 A 
ATOM     19  C   UNL     1     110.329  -0.645  62.110  1.00  0.00     0.158 A 
ATOM     20  C   UNL     1     109.561   1.213  60.752  1.00  0.00     0.051 A 
ATOM     21  C   UNL     1     109.294   0.014  61.425  1.00  0.00     0.157 A 
BRANCH  19  22
ATOM     22  O   UNL     1     110.093  -1.833  62.803  1.00  0.00    -0.504 OA
ATOM     23  H   UNL     1     110.845  -2.381  63.200  1.00  0.00     0.293 HD
ENDBRANCH  19  22
BRANCH  21  24
ATOM     24  O   UNL     1     108.006  -0.520  61.422  1.00  0.00    -0.504 OA
ATOM     25  H   UNL     1     107.553  -0.809  60.562  1.00  0.00     0.293 HD
ENDBRANCH  21  24
ENDBRANCH   8  16
BRANCH   9  26
ATOM     26  O   UNL     1     112.810   2.775  63.534  1.00  0.00    -0.490 OA
ATOM     27  C   UNL     1     111.882   3.848  63.653  1.00  0.00     0.278 C 
ENDBRANCH   9  26
TORSDOF 6
ENDMDL
MODEL 8
REMARK VINA RESULT:    -4.936      1.536      2.524
REMARK INTER + INTRA:          -6.704
REMARK INTER:                  -6.514
REMARK INTRA:                  -0.190
REMARK UNBOUND:                -0.469
REMARK SMILES COc1cc(O)c2c(=O)c(OC)c(-c3ccc(O)c(O)c3)oc2c1
REMARK SMILES IDX 3 1 4 2 5 3 7 4 23 5 24 6 22 7 13 8 10 9 8 10 9 11 2 12 1 13
REMARK SMILES IDX 6 14 14 16 21 17 15 18 19 19 16 20 17 21 20 22 18 24 11 26
REMARK SMILES IDX 12 27
REMARK H PARENT 6 15 20 23 18 25
REMARK Flexibility Score: inf
ROOT
ATOM      1  C   UNL     1     108.971   1.458  60.393  1.00  0.00     0.126 A 
ATOM      2  C   UNL     1     108.797   1.427  61.788  1.00  0.00     0.093 A 
ATOM      3  C   UNL     1     109.883   1.636  62.651  1.00  0.00     0.134 A 
ATOM      4  C   UNL     1     111.172   1.882  62.115  1.00  0.00     0.111 A 
ATOM      5  C   UNL     1     111.336   1.909  60.713  1.00  0.00     0.146 A 
ATOM      6  C   UNL     1     110.242   1.701  59.869  1.00  0.00     0.094 A 
ATOM      7  O   UNL     1     112.529   2.130  60.178  1.00  0.00    -0.452 OA
ATOM      8  C   UNL     1     113.627   2.334  60.896  1.00  0.00     0.180 A 
ATOM      9  C   UNL     1     113.561   2.355  62.304  1.00  0.00     0.210 A 
ATOM     10  C   UNL     1     112.310   2.111  62.918  1.00  0.00     0.239 A 
ATOM     11  O   UNL     1     112.208   2.101  64.173  1.00  0.00    -0.285 OA
ENDROOT
BRANCH   1  12
ATOM     12  O   UNL     1     107.910   1.256  59.497  1.00  0.00    -0.496 OA
ATOM     13  C   UNL     1     108.069   0.888  58.131  1.00  0.00     0.278 C 
ENDBRANCH   1  12
BRANCH   3  14
ATOM     14  O   UNL     1     109.674   1.598  64.030  1.00  0.00    -0.507 OA
ATOM     15  H   UNL     1     110.193   0.969  64.632  1.00  0.00     0.293 HD
ENDBRANCH   3  14
BRANCH   8  16
ATOM     16  C   UNL     1     114.897   2.553  60.168  1.00  0.00     0.025 A 
ATOM     17  C   UNL     1     115.878   1.548  60.090  1.00  0.00     0.062 A 
ATOM     18  C   UNL     1     115.105   3.765  59.490  1.00  0.00     0.016 A 
ATOM     19  C   UNL     1     117.063   1.763  59.376  1.00  0.00     0.158 A 
ATOM     20  C   UNL     1     116.287   3.983  58.778  1.00  0.00     0.051 A 
ATOM     21  C   UNL     1     117.273   2.988  58.721  1.00  0.00     0.157 A 
BRANCH  19  22
ATOM     22  O   UNL     1     118.017   0.747  59.326  1.00  0.00    -0.504 OA
ATOM     23  H   UNL     1     118.372   0.385  58.449  1.00  0.00     0.293 HD
ENDBRANCH  19  22
BRANCH  21  24
ATOM     24  O   UNL     1     118.452   3.210  58.012  1.00  0.00    -0.504 OA
ATOM     25  H   UNL     1     118.626   4.085  57.531  1.00  0.00     0.293 HD
ENDBRANCH  21  24
ENDBRANCH   8  16
BRANCH   9  26
ATOM     26  O   UNL     1     114.738   2.647  63.024  1.00  0.00    -0.490 OA
ATOM     27  C   UNL     1     115.418   3.897  63.068  1.00  0.00     0.278 C 
ENDBRANCH   9  26
TORSDOF 6
ENDMDL
MODEL 9
REMARK VINA RESULT:    -4.293      2.459      4.201
REMARK INTER + INTRA:          -5.891
REMARK INTER:                  -5.800
REMARK INTRA:                  -0.092
REMARK UNBOUND:                -0.469
REMARK SMILES COc1cc(O)c2c(=O)c(OC)c(-c3ccc(O)c(O)c3)oc2c1
REMARK SMILES IDX 3 1 4 2 5 3 7 4 23 5 24 6 22 7 13 8 10 9 8 10 9 11 2 12 1 13
REMARK SMILES IDX 6 14 14 16 21 17 15 18 19 19 16 20 17 21 20 22 18 24 11 26
REMARK SMILES IDX 12 27
REMARK H PARENT 6 15 20 23 18 25
REMARK Flexibility Score: inf
ROOT
ATOM      1  C   UNL     1     109.330   3.400  64.312  1.00  0.00     0.126 A 
ATOM      2  C   UNL     1     108.601   2.442  63.587  1.00  0.00     0.093 A 
ATOM      3  C   UNL     1     109.195   1.738  62.529  1.00  0.00     0.134 A 
ATOM      4  C   UNL     1     110.546   1.992  62.184  1.00  0.00     0.111 A 
ATOM      5  C   UNL     1     111.269   2.959  62.917  1.00  0.00     0.146 A 
ATOM      6  C   UNL     1     110.660   3.649  63.969  1.00  0.00     0.094 A 
ATOM      7  O   UNL     1     112.532   3.227  62.617  1.00  0.00    -0.452 OA
ATOM      8  C   UNL     1     113.194   2.628  61.634  1.00  0.00     0.180 A 
ATOM      9  C   UNL     1     112.568   1.627  60.862  1.00  0.00     0.210 A 
ATOM     10  C   UNL     1     111.216   1.318  61.140  1.00  0.00     0.239 A 
ATOM     11  O   UNL     1     110.610   0.445  60.464  1.00  0.00    -0.285 OA
ENDROOT
BRANCH   1  12
ATOM     12  O   UNL     1     108.772   4.123  65.377  1.00  0.00    -0.496 OA
ATOM     13  C   UNL     1     107.949   3.555  66.392  1.00  0.00     0.278 C 
ENDBRANCH   1  12
BRANCH   3  14
ATOM     14  O   UNL     1     108.442   0.793  61.831  1.00  0.00    -0.507 OA
ATOM     15  H   UNL     1     108.815  -0.119  61.595  1.00  0.00     0.293 HD
ENDBRANCH   3  14
BRANCH   8  16
ATOM     16  C   UNL     1     114.598   3.035  61.398  1.00  0.00     0.025 A 
ATOM     17  C   UNL     1     115.546   3.026  62.438  1.00  0.00     0.062 A 
ATOM     18  C   UNL     1     115.009   3.380  60.102  1.00  0.00     0.016 A 
ATOM     19  C   UNL     1     116.875   3.390  62.192  1.00  0.00     0.158 A 
ATOM     20  C   UNL     1     116.335   3.745  59.854  1.00  0.00     0.051 A 
ATOM     21  C   UNL     1     117.272   3.757  60.896  1.00  0.00     0.157 A 
BRANCH  19  22
ATOM     22  O   UNL     1     117.786   3.377  63.249  1.00  0.00    -0.504 OA
ATOM     23  H   UNL     1     117.703   2.728  64.022  1.00  0.00     0.293 HD
ENDBRANCH  19  22
BRANCH  21  24
ATOM     24  O   UNL     1     118.593   4.124  60.646  1.00  0.00    -0.504 OA
ATOM     25  H   UNL     1     118.844   4.689  59.842  1.00  0.00     0.293 HD
ENDBRANCH  21  24
ENDBRANCH   8  16
BRANCH   9  26
ATOM     26  O   UNL     1     113.331   0.968  59.877  1.00  0.00    -0.490 OA
ATOM     27  C   UNL     1     114.129  -0.197  60.060  1.00  0.00     0.278 C 
ENDBRANCH   9  26
TORSDOF 6
ENDMDL
