MODEL 1
REMARK VINA RESULT:    14.332      0.000      0.000
REMARK INTER + INTRA:          26.022
REMARK INTER:                  26.900
REMARK INTRA:                  -0.878
REMARK UNBOUND:                -0.878
REMARK SMILES O=C([O-])CCCCCCCCCCCCCCC(=O)[O-]
REMARK SMILES IDX 10 1 9 2 8 3 7 4 6 5 5 6 4 7 2 8 1 9 3 10 11 11 12 12 13 13
REMARK SMILES IDX 14 14 15 15 16 16 17 17 18 18 19 19 20 20
REMARK H PARENT
REMARK Flexibility Score: inf
ROOT
ATOM      1  C   UNL     1      -4.931 -18.310  26.079  1.00  0.00     0.000 C 
ENDROOT
BRANCH   1   2
ATOM      2  C   UNL     1      -5.884 -17.854  27.198  1.00  0.00     0.000 C 
BRANCH   2   3
ATOM      3  C   UNL     1      -7.289 -17.516  26.672  1.00  0.00     0.000 C 
BRANCH   3   4
ATOM      4  C   UNL     1      -8.145 -16.768  27.706  1.00  0.00     0.000 C 
BRANCH   4   5
ATOM      5  C   UNL     1      -9.443 -17.532  27.997  1.00  0.00     0.000 C 
BRANCH   5   6
ATOM      6  C   UNL     1      -9.413 -18.155  29.398  1.00  0.00     0.006 C 
BRANCH   6   7
ATOM      7  C   UNL     1      -8.138 -17.757  30.149  1.00  0.00     0.053 C 
BRANCH   7   8
ATOM      8  C   UNL     1      -8.473 -17.226  31.507  1.00  0.00     0.041 C 
ATOM      9  O   UNL     1      -7.650 -16.501  32.124  1.00  0.00    -0.550 OA
ATOM     10  O   UNL     1      -9.674 -17.575  32.112  1.00  0.00    -0.550 OA
ENDBRANCH   7   8
ENDBRANCH   6   7
ENDBRANCH   5   6
ENDBRANCH   4   5
ENDBRANCH   3   4
ENDBRANCH   2   3
ENDBRANCH   1   2
BRANCH   1  11
ATOM     11  C   UNL     1      -5.676 -18.915  24.878  1.00  0.00     0.000 C 
BRANCH  11  12
ATOM     12  C   UNL     1      -4.805 -18.993  23.615  1.00  0.00     0.000 C 
BRANCH  12  13
ATOM     13  C   UNL     1      -4.693 -20.441  23.115  1.00  0.00     0.000 C 
BRANCH  13  14
ATOM     14  C   UNL     1      -3.482 -20.664  22.191  1.00  0.00     0.000 C 
BRANCH  14  15
ATOM     15  C   UNL     1      -2.128 -20.812  22.914  1.00  0.00     0.000 C 
BRANCH  15  16
ATOM     16  C   UNL     1      -1.242 -19.553  22.903  1.00  0.00     0.006 C 
BRANCH  16  17
ATOM     17  C   UNL     1      -0.550 -19.300  24.249  1.00  0.00     0.053 C 
BRANCH  17  18
ATOM     18  C   UNL     1      -0.685 -17.864  24.644  1.00  0.00     0.041 C 
ATOM     19  O   UNL     1      -0.111 -16.966  23.975  1.00  0.00    -0.550 OA
ATOM     20  O   UNL     1      -1.406 -17.522  25.783  1.00  0.00    -0.550 OA
ENDBRANCH  17  18
ENDBRANCH  16  17
ENDBRANCH  15  16
ENDBRANCH  14  15
ENDBRANCH  13  14
ENDBRANCH  12  13
ENDBRANCH  11  12
ENDBRANCH   1  11
TORSDOF 15
ENDMDL
MODEL 2
REMARK VINA RESULT:    14.700      1.992      2.978
REMARK INTER + INTRA:          26.712
REMARK INTER:                  27.760
REMARK INTRA:                  -1.048
REMARK UNBOUND:                -0.878
REMARK SMILES O=C([O-])CCCCCCCCCCCCCCC(=O)[O-]
REMARK SMILES IDX 10 1 9 2 8 3 7 4 6 5 5 6 4 7 2 8 1 9 3 10 11 11 12 12 13 13
REMARK SMILES IDX 14 14 15 15 16 16 17 17 18 18 19 19 20 20
REMARK H PARENT
REMARK Flexibility Score: inf
ROOT
ATOM      1  C   UNL     1      -4.947 -17.741  27.565  1.00  0.00     0.000 C 
ENDROOT
BRANCH   1   2
ATOM      2  C   UNL     1      -5.668 -18.298  26.324  1.00  0.00     0.000 C 
BRANCH   2   3
ATOM      3  C   UNL     1      -7.197 -18.167  26.424  1.00  0.00     0.000 C 
BRANCH   3   4
ATOM      4  C   UNL     1      -7.635 -17.039  27.371  1.00  0.00     0.000 C 
BRANCH   4   5
ATOM      5  C   UNL     1      -9.110 -17.194  27.760  1.00  0.00     0.000 C 
BRANCH   5   6
ATOM      6  C   UNL     1      -9.248 -17.796  29.165  1.00  0.00     0.006 C 
BRANCH   6   7
ATOM      7  C   UNL     1      -8.037 -17.443  30.035  1.00  0.00     0.053 C 
BRANCH   7   8
ATOM      8  C   UNL     1      -8.345 -17.675  31.481  1.00  0.00     0.041 C 
ATOM      9  O   UNL     1      -7.781 -18.611  32.106  1.00  0.00    -0.550 OA
ATOM     10  O   UNL     1      -9.292 -16.889  32.124  1.00  0.00    -0.550 OA
ENDBRANCH   7   8
ENDBRANCH   6   7
ENDBRANCH   5   6
ENDBRANCH   4   5
ENDBRANCH   3   4
ENDBRANCH   2   3
ENDBRANCH   1   2
BRANCH   1  11
ATOM     11  C   UNL     1      -3.418 -17.865  27.463  1.00  0.00     0.000 C 
BRANCH  11  12
ATOM     12  C   UNL     1      -2.890 -17.577  26.050  1.00  0.00     0.000 C 
BRANCH  12  13
ATOM     13  C   UNL     1      -1.481 -18.161  25.862  1.00  0.00     0.000 C 
BRANCH  13  14
ATOM     14  C   UNL     1      -0.785 -17.648  24.588  1.00  0.00     0.000 C 
BRANCH  14  15
ATOM     15  C   UNL     1      -0.589 -18.703  23.481  1.00  0.00     0.000 C 
BRANCH  15  16
ATOM     16  C   UNL     1      -1.401 -19.998  23.662  1.00  0.00     0.006 C 
BRANCH  16  17
ATOM     17  C   UNL     1      -2.098 -20.449  22.372  1.00  0.00     0.053 C 
BRANCH  17  18
ATOM     18  C   UNL     1      -3.578 -20.515  22.573  1.00  0.00     0.041 C 
ATOM     19  O   UNL     1      -4.177 -19.586  23.176  1.00  0.00    -0.550 OA
ATOM     20  O   UNL     1      -4.290 -21.627  22.138  1.00  0.00    -0.550 OA
ENDBRANCH  17  18
ENDBRANCH  16  17
ENDBRANCH  15  16
ENDBRANCH  14  15
ENDBRANCH  13  14
ENDBRANCH  12  13
ENDBRANCH  11  12
ENDBRANCH   1  11
TORSDOF 15
ENDMDL
MODEL 3
REMARK VINA RESULT:    14.944      0.621      8.606
REMARK INTER + INTRA:          27.170
REMARK INTER:                  27.849
REMARK INTRA:                  -0.679
REMARK UNBOUND:                -0.878
REMARK SMILES O=C([O-])CCCCCCCCCCCCCCC(=O)[O-]
REMARK SMILES IDX 10 1 9 2 8 3 7 4 6 5 5 6 4 7 2 8 1 9 3 10 11 11 12 12 13 13
REMARK SMILES IDX 14 14 15 15 16 16 17 17 18 18 19 19 20 20
REMARK H PARENT
REMARK Flexibility Score: inf
ROOT
ATOM      1  C   UNL     1      -5.519 -17.894  24.432  1.00  0.00     0.000 C 
ENDROOT
BRANCH   1   2
ATOM      2  C   UNL     1      -5.199 -18.780  23.215  1.00  0.00     0.000 C 
BRANCH   2   3
ATOM      3  C   UNL     1      -4.320 -19.987  23.581  1.00  0.00     0.000 C 
BRANCH   3   4
ATOM      4  C   UNL     1      -3.668 -20.641  22.352  1.00  0.00     0.000 C 
BRANCH   4   5
ATOM      5  C   UNL     1      -2.181 -20.917  22.604  1.00  0.00     0.000 C 
BRANCH   5   6
ATOM      6  C   UNL     1      -1.389 -19.608  22.713  1.00  0.00     0.006 C 
BRANCH   6   7
ATOM      7  C   UNL     1      -0.656 -19.520  24.056  1.00  0.00     0.053 C 
BRANCH   7   8
ATOM      8  C   UNL     1      -0.733 -18.129  24.604  1.00  0.00     0.041 C 
ATOM      9  O   UNL     1      -1.317 -17.911  25.698  1.00  0.00    -0.550 OA
ATOM     10  O   UNL     1      -0.203 -17.067  23.882  1.00  0.00    -0.550 OA
ENDBRANCH   7   8
ENDBRANCH   6   7
ENDBRANCH   5   6
ENDBRANCH   4   5
ENDBRANCH   3   4
ENDBRANCH   2   3
ENDBRANCH   1   2
BRANCH   1  11
ATOM     11  C   UNL     1      -5.921 -18.713  25.669  1.00  0.00     0.000 C 
BRANCH  11  12
ATOM     12  C   UNL     1      -5.621 -17.986  26.988  1.00  0.00     0.000 C 
BRANCH  12  13
ATOM     13  C   UNL     1      -6.800 -17.094  27.403  1.00  0.00     0.000 C 
BRANCH  13  14
ATOM     14  C   UNL     1      -8.132 -17.525  26.763  1.00  0.00     0.000 C 
BRANCH  14  15
ATOM     15  C   UNL     1      -9.229 -17.949  27.761  1.00  0.00     0.000 C 
BRANCH  15  16
ATOM     16  C   UNL     1      -9.172 -17.249  29.130  1.00  0.00     0.006 C 
BRANCH  16  17
ATOM     17  C   UNL     1      -8.370 -18.041  30.171  1.00  0.00     0.053 C 
BRANCH  17  18
ATOM     18  C   UNL     1      -8.449 -17.376  31.508  1.00  0.00     0.041 C 
ATOM     19  O   UNL     1      -7.397 -17.015  32.099  1.00  0.00    -0.550 OA
ATOM     20  O   UNL     1      -9.682 -17.200  32.125  1.00  0.00    -0.550 OA
ENDBRANCH  17  18
ENDBRANCH  16  17
ENDBRANCH  15  16
ENDBRANCH  14  15
ENDBRANCH  13  14
ENDBRANCH  12  13
ENDBRANCH  11  12
ENDBRANCH   1  11
TORSDOF 15
ENDMDL
MODEL 4
REMARK VINA RESULT:    15.339      2.725      8.947
REMARK INTER + INTRA:          27.911
REMARK INTER:                  28.713
REMARK INTRA:                  -0.802
REMARK UNBOUND:                -0.878
REMARK SMILES O=C([O-])CCCCCCCCCCCCCCC(=O)[O-]
REMARK SMILES IDX 10 1 9 2 8 3 7 4 6 5 5 6 4 7 2 8 1 9 3 10 11 11 12 12 13 13
REMARK SMILES IDX 14 14 15 15 16 16 17 17 18 18 19 19 20 20
REMARK H PARENT
REMARK Flexibility Score: inf
ROOT
ATOM      1  C   UNL     1      -6.033 -18.211  24.349  1.00  0.00     0.000 C 
ENDROOT
BRANCH   1   2
ATOM      2  C   UNL     1      -5.185 -18.749  23.183  1.00  0.00     0.000 C 
BRANCH   2   3
ATOM      3  C   UNL     1      -4.417 -20.028  23.555  1.00  0.00     0.000 C 
BRANCH   3   4
ATOM      4  C   UNL     1      -3.750 -20.693  22.341  1.00  0.00     0.000 C 
BRANCH   4   5
ATOM      5  C   UNL     1      -2.268 -20.974  22.616  1.00  0.00     0.000 C 
BRANCH   5   6
ATOM      6  C   UNL     1      -1.466 -19.669  22.697  1.00  0.00     0.006 C 
BRANCH   6   7
ATOM      7  C   UNL     1      -0.750 -19.548  24.046  1.00  0.00     0.053 C 
BRANCH   7   8
ATOM      8  C   UNL     1      -0.689 -18.117  24.480  1.00  0.00     0.041 C 
ATOM      9  O   UNL     1      -1.291 -17.745  25.522  1.00  0.00    -0.550 OA
ATOM     10  O   UNL     1      -0.011 -17.184  23.706  1.00  0.00    -0.550 OA
ENDBRANCH   7   8
ENDBRANCH   6   7
ENDBRANCH   5   6
ENDBRANCH   4   5
ENDBRANCH   3   4
ENDBRANCH   2   3
ENDBRANCH   1   2
BRANCH   1  11
ATOM     11  C   UNL     1      -5.495 -18.648  25.721  1.00  0.00     0.000 C 
BRANCH  11  12
ATOM     12  C   UNL     1      -6.168 -17.909  26.887  1.00  0.00     0.000 C 
BRANCH  12  13
ATOM     13  C   UNL     1      -7.556 -17.393  26.481  1.00  0.00     0.000 C 
BRANCH  13  14
ATOM     14  C   UNL     1      -8.670 -17.852  27.440  1.00  0.00     0.000 C 
BRANCH  14  15
ATOM     15  C   UNL     1      -9.482 -16.714  28.090  1.00  0.00     0.000 C 
BRANCH  15  16
ATOM     16  C   UNL     1     -10.374 -15.913  27.125  1.00  0.00     0.006 C 
BRANCH  16  17
ATOM     17  C   UNL     1      -9.831 -14.507  26.840  1.00  0.00     0.053 C 
BRANCH  17  18
ATOM     18  C   UNL     1     -10.956 -13.546  26.622  1.00  0.00     0.041 C 
ATOM     19  O   UNL     1     -11.750 -13.709  25.658  1.00  0.00    -0.550 OA
ATOM     20  O   UNL     1     -11.099 -12.443  27.454  1.00  0.00    -0.550 OA
ENDBRANCH  17  18
ENDBRANCH  16  17
ENDBRANCH  15  16
ENDBRANCH  14  15
ENDBRANCH  13  14
ENDBRANCH  12  13
ENDBRANCH  11  12
ENDBRANCH   1  11
TORSDOF 15
ENDMDL
MODEL 5
REMARK VINA RESULT:    15.531      2.805      3.241
REMARK INTER + INTRA:          28.271
REMARK INTER:                  29.069
REMARK INTRA:                  -0.797
REMARK UNBOUND:                -0.878
REMARK SMILES O=C([O-])CCCCCCCCCCCCCCC(=O)[O-]
REMARK SMILES IDX 10 1 9 2 8 3 7 4 6 5 5 6 4 7 2 8 1 9 3 10 11 11 12 12 13 13
REMARK SMILES IDX 14 14 15 15 16 16 17 17 18 18 19 19 20 20
REMARK H PARENT
REMARK Flexibility Score: inf
ROOT
ATOM      1  C   UNL     1      -6.071 -18.862  25.746  1.00  0.00     0.000 C 
ENDROOT
BRANCH   1   2
ATOM      2  C   UNL     1      -6.291 -17.881  26.910  1.00  0.00     0.000 C 
BRANCH   2   3
ATOM      3  C   UNL     1      -7.604 -17.092  26.776  1.00  0.00     0.000 C 
BRANCH   3   4
ATOM      4  C   UNL     1      -8.597 -17.398  27.908  1.00  0.00     0.000 C 
BRANCH   4   5
ATOM      5  C   UNL     1      -9.946 -16.714  27.651  1.00  0.00     0.000 C 
BRANCH   5   6
ATOM      6  C   UNL     1      -9.754 -15.235  27.294  1.00  0.00     0.006 C 
BRANCH   6   7
ATOM      7  C   UNL     1     -10.709 -14.812  26.173  1.00  0.00     0.053 C 
BRANCH   7   8
ATOM      8  C   UNL     1     -11.339 -13.492  26.491  1.00  0.00     0.041 C 
ATOM      9  O   UNL     1     -10.724 -12.651  27.198  1.00  0.00    -0.550 OA
ATOM     10  O   UNL     1     -12.625 -13.211  26.048  1.00  0.00    -0.550 OA
ENDBRANCH   7   8
ENDBRANCH   6   7
ENDBRANCH   5   6
ENDBRANCH   4   5
ENDBRANCH   3   4
ENDBRANCH   2   3
ENDBRANCH   1   2
BRANCH   1  11
ATOM     11  C   UNL     1      -4.976 -18.390  24.774  1.00  0.00     0.000 C 
BRANCH  11  12
ATOM     12  C   UNL     1      -5.103 -19.024  23.381  1.00  0.00     0.000 C 
BRANCH  12  13
ATOM     13  C   UNL     1      -4.628 -20.485  23.399  1.00  0.00     0.000 C 
BRANCH  13  14
ATOM     14  C   UNL     1      -3.694 -20.826  22.223  1.00  0.00     0.000 C 
BRANCH  14  15
ATOM     15  C   UNL     1      -2.197 -20.913  22.584  1.00  0.00     0.000 C 
BRANCH  15  16
ATOM     16  C   UNL     1      -1.473 -19.560  22.698  1.00  0.00     0.006 C 
BRANCH  16  17
ATOM     17  C   UNL     1      -0.702 -19.406  24.015  1.00  0.00     0.053 C 
BRANCH  17  18
ATOM     18  C   UNL     1      -0.651 -17.969  24.426  1.00  0.00     0.041 C 
ATOM     19  O   UNL     1      -0.024 -17.132  23.725  1.00  0.00    -0.550 OA
ATOM     20  O   UNL     1      -1.255 -17.563  25.610  1.00  0.00    -0.550 OA
ENDBRANCH  17  18
ENDBRANCH  16  17
ENDBRANCH  15  16
ENDBRANCH  14  15
ENDBRANCH  13  14
ENDBRANCH  12  13
ENDBRANCH  11  12
ENDBRANCH   1  11
TORSDOF 15
ENDMDL
MODEL 6
REMARK VINA RESULT:    15.609      2.265      3.597
REMARK INTER + INTRA:          28.419
REMARK INTER:                  29.067
REMARK INTRA:                  -0.648
REMARK UNBOUND:                -0.878
REMARK SMILES O=C([O-])CCCCCCCCCCCCCCC(=O)[O-]
REMARK SMILES IDX 10 1 9 2 8 3 7 4 6 5 5 6 4 7 2 8 1 9 3 10 11 11 12 12 13 13
REMARK SMILES IDX 14 14 15 15 16 16 17 17 18 18 19 19 20 20
REMARK H PARENT
REMARK Flexibility Score: inf
ROOT
ATOM      1  C   UNL     1      -3.095 -17.864  27.275  1.00  0.00     0.000 C 
ENDROOT
BRANCH   1   2
ATOM      2  C   UNL     1      -4.631 -17.795  27.351  1.00  0.00     0.000 C 
BRANCH   2   3
ATOM      3  C   UNL     1      -5.307 -18.285  26.060  1.00  0.00     0.000 C 
BRANCH   3   4
ATOM      4  C   UNL     1      -6.837 -18.155  26.105  1.00  0.00     0.000 C 
BRANCH   4   5
ATOM      5  C   UNL     1      -7.272 -17.203  27.226  1.00  0.00     0.000 C 
BRANCH   5   6
ATOM      6  C   UNL     1      -8.494 -16.378  26.804  1.00  0.00     0.006 C 
BRANCH   6   7
ATOM      7  C   UNL     1      -9.693 -16.668  27.713  1.00  0.00     0.053 C 
BRANCH   7   8
ATOM      8  C   UNL     1      -9.388 -17.806  28.635  1.00  0.00     0.041 C 
ATOM      9  O   UNL     1      -9.661 -18.987  28.295  1.00  0.00    -0.550 OA
ATOM     10  O   UNL     1      -8.850 -17.558  29.891  1.00  0.00    -0.550 OA
ENDBRANCH   7   8
ENDBRANCH   6   7
ENDBRANCH   5   6
ENDBRANCH   4   5
ENDBRANCH   3   4
ENDBRANCH   2   3
ENDBRANCH   1   2
BRANCH   1  11
ATOM     11  C   UNL     1      -2.560 -17.554  25.867  1.00  0.00     0.000 C 
BRANCH  11  12
ATOM     12  C   UNL     1      -1.056 -17.832  25.728  1.00  0.00     0.000 C 
BRANCH  12  13
ATOM     13  C   UNL     1      -0.550 -17.428  24.335  1.00  0.00     0.000 C 
BRANCH  13  14
ATOM     14  C   UNL     1      -0.409 -18.626  23.378  1.00  0.00     0.000 C 
BRANCH  14  15
ATOM     15  C   UNL     1      -0.507 -20.012  24.048  1.00  0.00     0.000 C 
BRANCH  15  16
ATOM     16  C   UNL     1      -1.560 -20.957  23.442  1.00  0.00     0.006 C 
BRANCH  16  17
ATOM     17  C   UNL     1      -2.354 -20.310  22.300  1.00  0.00     0.053 C 
BRANCH  17  18
ATOM     18  C   UNL     1      -3.822 -20.505  22.508  1.00  0.00     0.041 C 
ATOM     19  O   UNL     1      -4.386 -21.553  22.097  1.00  0.00    -0.550 OA
ATOM     20  O   UNL     1      -4.577 -19.507  23.112  1.00  0.00    -0.550 OA
ENDBRANCH  17  18
ENDBRANCH  16  17
ENDBRANCH  15  16
ENDBRANCH  14  15
ENDBRANCH  13  14
ENDBRANCH  12  13
ENDBRANCH  11  12
ENDBRANCH   1  11
TORSDOF 15
ENDMDL
MODEL 7
REMARK VINA RESULT:    15.811      2.045      8.827
REMARK INTER + INTRA:          28.797
REMARK INTER:                  29.648
REMARK INTRA:                  -0.851
REMARK UNBOUND:                -0.878
REMARK SMILES O=C([O-])CCCCCCCCCCCCCCC(=O)[O-]
REMARK SMILES IDX 10 1 9 2 8 3 7 4 6 5 5 6 4 7 2 8 1 9 3 10 11 11 12 12 13 13
REMARK SMILES IDX 14 14 15 15 16 16 17 17 18 18 19 19 20 20
REMARK H PARENT
REMARK Flexibility Score: inf
ROOT
ATOM      1  C   UNL     1      -4.028 -18.280  26.614  1.00  0.00     0.000 C 
ENDROOT
BRANCH   1   2
ATOM      2  C   UNL     1      -2.831 -17.314  26.545  1.00  0.00     0.000 C 
BRANCH   2   3
ATOM      3  C   UNL     1      -1.547 -18.003  26.055  1.00  0.00     0.000 C 
BRANCH   3   4
ATOM      4  C   UNL     1      -0.789 -17.169  25.010  1.00  0.00     0.000 C 
BRANCH   4   5
ATOM      5  C   UNL     1      -0.285 -18.055  23.865  1.00  0.00     0.000 C 
BRANCH   5   6
ATOM      6  C   UNL     1      -1.007 -19.409  23.857  1.00  0.00     0.006 C 
BRANCH   6   7
ATOM      7  C   UNL     1      -1.718 -19.644  22.520  1.00  0.00     0.053 C 
BRANCH   7   8
ATOM      8  C   UNL     1      -2.666 -20.797  22.627  1.00  0.00     0.041 C 
ATOM      9  O   UNL     1      -2.253 -21.922  23.013  1.00  0.00    -0.550 OA
ATOM     10  O   UNL     1      -3.994 -20.642  22.252  1.00  0.00    -0.550 OA
ENDBRANCH   7   8
ENDBRANCH   6   7
ENDBRANCH   5   6
ENDBRANCH   4   5
ENDBRANCH   3   4
ENDBRANCH   2   3
ENDBRANCH   1   2
BRANCH   1  11
ATOM     11  C   UNL     1      -5.179 -17.733  27.474  1.00  0.00     0.000 C 
BRANCH  11  12
ATOM     12  C   UNL     1      -6.558 -17.972  26.843  1.00  0.00     0.000 C 
BRANCH  12  13
ATOM     13  C   UNL     1      -7.282 -16.641  26.588  1.00  0.00     0.000 C 
BRANCH  13  14
ATOM     14  C   UNL     1      -8.642 -16.552  27.305  1.00  0.00     0.000 C 
BRANCH  14  15
ATOM     15  C   UNL     1      -9.228 -17.902  27.766  1.00  0.00     0.000 C 
BRANCH  15  16
ATOM     16  C   UNL     1      -9.259 -18.114  29.290  1.00  0.00     0.006 C 
BRANCH  16  17
ATOM     17  C   UNL     1      -8.054 -17.489  30.003  1.00  0.00     0.053 C 
BRANCH  17  18
ATOM     18  C   UNL     1      -8.320 -17.367  31.470  1.00  0.00     0.041 C 
ATOM     19  O   UNL     1      -7.835 -16.407  32.124  1.00  0.00    -0.550 OA
ATOM     20  O   UNL     1      -9.063 -18.342  32.124  1.00  0.00    -0.550 OA
ENDBRANCH  17  18
ENDBRANCH  16  17
ENDBRANCH  15  16
ENDBRANCH  14  15
ENDBRANCH  13  14
ENDBRANCH  12  13
ENDBRANCH  11  12
ENDBRANCH   1  11
TORSDOF 15
ENDMDL
MODEL 8
REMARK VINA RESULT:    16.560      5.366      8.762
REMARK INTER + INTRA:          30.204
REMARK INTER:                  30.602
REMARK INTRA:                  -0.398
REMARK UNBOUND:                -0.878
REMARK SMILES O=C([O-])CCCCCCCCCCCCCCC(=O)[O-]
REMARK SMILES IDX 10 1 9 2 8 3 7 4 6 5 5 6 4 7 2 8 1 9 3 10 11 11 12 12 13 13
REMARK SMILES IDX 14 14 15 15 16 16 17 17 18 18 19 19 20 20
REMARK H PARENT
REMARK Flexibility Score: inf
ROOT
ATOM      1  C   UNL     1     -10.831 -13.297  26.411  1.00  0.00     0.000 C 
ENDROOT
BRANCH   1   2
ATOM      2  C   UNL     1     -10.896 -14.833  26.460  1.00  0.00     0.000 C 
BRANCH   2   3
ATOM      3  C   UNL     1      -9.732 -15.446  27.256  1.00  0.00     0.000 C 
BRANCH   3   4
ATOM      4  C   UNL     1     -10.033 -16.871  27.746  1.00  0.00     0.000 C 
BRANCH   4   5
ATOM      5  C   UNL     1      -8.746 -17.587  28.171  1.00  0.00     0.000 C 
BRANCH   5   6
ATOM      6  C   UNL     1      -7.516 -16.946  27.515  1.00  0.00     0.006 C 
BRANCH   6   7
ATOM      7  C   UNL     1      -7.191 -17.622  26.179  1.00  0.00     0.053 C 
BRANCH   7   8
ATOM      8  C   UNL     1      -5.862 -18.306  26.248  1.00  0.00     0.041 C 
ATOM      9  O   UNL     1      -5.613 -19.284  25.495  1.00  0.00    -0.550 OA
ATOM     10  O   UNL     1      -4.917 -17.896  27.179  1.00  0.00    -0.550 OA
ENDBRANCH   7   8
ENDBRANCH   6   7
ENDBRANCH   5   6
ENDBRANCH   4   5
ENDBRANCH   3   4
ENDBRANCH   2   3
ENDBRANCH   1   2
BRANCH   1  11
ATOM     11  C   UNL     1     -11.680 -12.634  27.509  1.00  0.00     0.000 C 
BRANCH  11  12
ATOM     12  C   UNL     1     -11.095 -11.297  27.987  1.00  0.00     0.000 C 
BRANCH  12  13
ATOM     13  C   UNL     1      -9.983 -10.816  27.043  1.00  0.00     0.000 C 
BRANCH  13  14
ATOM     14  C   UNL     1      -9.818  -9.285  27.043  1.00  0.00     0.000 C 
BRANCH  14  15
ATOM     15  C   UNL     1      -8.812  -8.737  28.075  1.00  0.00     0.000 C 
BRANCH  15  16
ATOM     16  C   UNL     1      -7.384  -9.300  27.958  1.00  0.00     0.006 C 
BRANCH  16  17
ATOM     17  C   UNL     1      -7.103  -9.932  26.589  1.00  0.00     0.053 C 
BRANCH  17  18
ATOM     18  C   UNL     1      -5.760 -10.591  26.583  1.00  0.00     0.041 C 
ATOM     19  O   UNL     1      -5.403 -11.291  25.600  1.00  0.00    -0.550 OA
ATOM     20  O   UNL     1      -4.923 -10.471  27.685  1.00  0.00    -0.550 OA
ENDBRANCH  17  18
ENDBRANCH  16  17
ENDBRANCH  15  16
ENDBRANCH  14  15
ENDBRANCH  13  14
ENDBRANCH  12  13
ENDBRANCH  11  12
ENDBRANCH   1  11
TORSDOF 15
ENDMDL
MODEL 9
REMARK VINA RESULT:    16.606      3.188      4.171
REMARK INTER + INTRA:          30.289
REMARK INTER:                  31.081
REMARK INTRA:                  -0.792
REMARK UNBOUND:                -0.878
REMARK SMILES O=C([O-])CCCCCCCCCCCCCCC(=O)[O-]
REMARK SMILES IDX 10 1 9 2 8 3 7 4 6 5 5 6 4 7 2 8 1 9 3 10 11 11 12 12 13 13
REMARK SMILES IDX 14 14 15 15 16 16 17 17 18 18 19 19 20 20
REMARK H PARENT
REMARK Flexibility Score: inf
ROOT
ATOM      1  C   UNL     1      -4.950 -17.576  27.221  1.00  0.00     0.000 C 
ENDROOT
BRANCH   1   2
ATOM      2  C   UNL     1      -5.709 -18.243  26.061  1.00  0.00     0.000 C 
BRANCH   2   3
ATOM      3  C   UNL     1      -7.233 -18.217  26.263  1.00  0.00     0.000 C 
BRANCH   3   4
ATOM      4  C   UNL     1      -7.713 -16.957  26.998  1.00  0.00     0.000 C 
BRANCH   4   5
ATOM      5  C   UNL     1      -8.912 -17.272  27.900  1.00  0.00     0.000 C 
BRANCH   5   6
ATOM      6  C   UNL     1     -10.014 -16.217  27.740  1.00  0.00     0.006 C 
BRANCH   6   7
ATOM      7  C   UNL     1      -9.623 -15.169  26.693  1.00  0.00     0.053 C 
BRANCH   7   8
ATOM      8  C   UNL     1     -10.670 -14.103  26.602  1.00  0.00     0.041 C 
ATOM      9  O   UNL     1     -10.765 -13.230  27.504  1.00  0.00    -0.550 OA
ATOM     10  O   UNL     1     -11.573 -14.105  25.546  1.00  0.00    -0.550 OA
ENDBRANCH   7   8
ENDBRANCH   6   7
ENDBRANCH   5   6
ENDBRANCH   4   5
ENDBRANCH   3   4
ENDBRANCH   2   3
ENDBRANCH   1   2
BRANCH   1  11
ATOM     11  C   UNL     1      -3.472 -17.998  27.280  1.00  0.00     0.000 C 
BRANCH  11  12
ATOM     12  C   UNL     1      -2.656 -17.476  26.088  1.00  0.00     0.000 C 
BRANCH  12  13
ATOM     13  C   UNL     1      -1.302 -18.194  25.995  1.00  0.00     0.000 C 
BRANCH  13  14
ATOM     14  C   UNL     1      -0.700 -18.158  24.578  1.00  0.00     0.000 C 
BRANCH  14  15
ATOM     15  C   UNL     1      -0.670 -19.515  23.846  1.00  0.00     0.000 C 
BRANCH  15  16
ATOM     16  C   UNL     1      -1.663 -19.649  22.678  1.00  0.00     0.006 C 
BRANCH  16  17
ATOM     17  C   UNL     1      -2.418 -20.985  22.688  1.00  0.00     0.053 C 
BRANCH  17  18
ATOM     18  C   UNL     1      -3.889 -20.755  22.548  1.00  0.00     0.041 C 
ATOM     19  O   UNL     1      -4.420 -19.729  23.048  1.00  0.00    -0.550 OA
ATOM     20  O   UNL     1      -4.682 -21.700  21.908  1.00  0.00    -0.550 OA
ENDBRANCH  17  18
ENDBRANCH  16  17
ENDBRANCH  15  16
ENDBRANCH  14  15
ENDBRANCH  13  14
ENDBRANCH  12  13
ENDBRANCH  11  12
ENDBRANCH   1  11
TORSDOF 15
ENDMDL
