MODEL 1
REMARK VINA RESULT:    -7.620      0.000      0.000
REMARK INTER + INTRA:         -10.114
REMARK INTER:                  -9.625
REMARK INTRA:                  -0.489
REMARK UNBOUND:                -0.489
REMARK SMILES Oc1ccc(CCc2cc(O)cc(O)c2)cc1
REMARK SMILES IDX 6 1 5 2 4 3 3 4 2 5 16 6 17 7 1 8 7 10 8 11 15 12 9 13 13 14
REMARK SMILES IDX 10 15 12 16 14 17 11 19
REMARK H PARENT 1 9 14 18 11 20
REMARK Flexibility Score: inf
ROOT
ATOM      1  C   UNL     1     -12.724  -0.479 -10.328  1.00  0.00     0.040 C 
ENDROOT
BRANCH   1   2
ATOM      2  C   UNL     1     -13.120   0.837  -9.716  1.00  0.00    -0.047 A 
ATOM      3  C   UNL     1     -14.476   1.185  -9.601  1.00  0.00     0.007 A 
ATOM      4  C   UNL     1     -14.843   2.422  -9.062  1.00  0.00     0.046 A 
ATOM      5  C   UNL     1     -13.862   3.325  -8.641  1.00  0.00     0.115 A 
ATOM      6  C   UNL     1     -12.137   1.752  -9.304  1.00  0.00     0.007 A 
ATOM      7  C   UNL     1     -12.507   2.988  -8.765  1.00  0.00     0.046 A 
BRANCH   5   8
ATOM      8  O   UNL     1     -14.242   4.553  -8.105  1.00  0.00    -0.508 OA
ATOM      9  H   UNL     1     -15.097   5.015  -8.392  1.00  0.00     0.293 HD
ENDBRANCH   5   8
ENDBRANCH   1   2
BRANCH   1  10
ATOM     10  C   UNL     1     -11.238  -0.762 -10.082  1.00  0.00     0.040 C 
BRANCH  10  11
ATOM     11  C   UNL     1     -11.055  -2.118  -9.456  1.00  0.00    -0.040 A 
ATOM     12  C   UNL     1      -9.853  -2.442  -8.806  1.00  0.00     0.050 A 
ATOM     13  C   UNL     1     -12.064  -3.091  -9.566  1.00  0.00     0.050 A 
ATOM     14  C   UNL     1      -9.670  -3.717  -8.251  1.00  0.00     0.119 A 
ATOM     15  C   UNL     1     -11.883  -4.363  -9.013  1.00  0.00     0.119 A 
ATOM     16  C   UNL     1     -10.686  -4.673  -8.353  1.00  0.00     0.092 A 
BRANCH  14  17
ATOM     17  O   UNL     1      -8.483  -4.043  -7.600  1.00  0.00    -0.508 OA
ATOM     18  H   UNL     1      -8.104  -4.982  -7.628  1.00  0.00     0.293 HD
ENDBRANCH  14  17
BRANCH  15  19
ATOM     19  O   UNL     1     -12.897  -5.310  -9.126  1.00  0.00    -0.508 OA
ATOM     20  H   UNL     1     -13.497  -5.540  -8.341  1.00  0.00     0.293 HD
ENDBRANCH  15  19
ENDBRANCH  10  11
ENDBRANCH   1  10
TORSDOF 6
ENDMDL
MODEL 2
REMARK VINA RESULT:    -7.615      0.073      2.035
REMARK INTER + INTRA:         -10.108
REMARK INTER:                  -9.627
REMARK INTRA:                  -0.481
REMARK UNBOUND:                -0.489
REMARK SMILES Oc1ccc(CCc2cc(O)cc(O)c2)cc1
REMARK SMILES IDX 6 1 5 2 4 3 3 4 2 5 16 6 17 7 1 8 7 10 8 11 15 12 9 13 13 14
REMARK SMILES IDX 10 15 12 16 14 17 11 19
REMARK H PARENT 1 9 14 18 11 20
REMARK Flexibility Score: inf
ROOT
ATOM      1  C   UNL     1     -12.660  -0.471 -10.311  1.00  0.00     0.040 C 
ENDROOT
BRANCH   1   2
ATOM      2  C   UNL     1     -13.080   0.846  -9.717  1.00  0.00    -0.047 A 
ATOM      3  C   UNL     1     -14.442   1.171  -9.604  1.00  0.00     0.007 A 
ATOM      4  C   UNL     1     -14.831   2.408  -9.082  1.00  0.00     0.046 A 
ATOM      5  C   UNL     1     -13.866   3.336  -8.676  1.00  0.00     0.115 A 
ATOM      6  C   UNL     1     -12.114   1.786  -9.321  1.00  0.00     0.007 A 
ATOM      7  C   UNL     1     -12.506   3.022  -8.799  1.00  0.00     0.046 A 
BRANCH   5   8
ATOM      8  O   UNL     1     -14.268   4.564  -8.157  1.00  0.00    -0.508 OA
ATOM      9  H   UNL     1     -15.190   4.943  -8.346  1.00  0.00     0.293 HD
ENDBRANCH   5   8
ENDBRANCH   1   2
BRANCH   1  10
ATOM     10  C   UNL     1     -11.189  -0.759  -9.996  1.00  0.00     0.040 C 
BRANCH  10  11
ATOM     11  C   UNL     1     -11.028  -2.153  -9.453  1.00  0.00    -0.040 A 
ATOM     12  C   UNL     1     -12.062  -3.092  -9.596  1.00  0.00     0.050 A 
ATOM     13  C   UNL     1      -9.864  -2.509  -8.750  1.00  0.00     0.050 A 
ATOM     14  C   UNL     1     -11.925  -4.381  -9.062  1.00  0.00     0.119 A 
ATOM     15  C   UNL     1      -9.726  -3.795  -8.217  1.00  0.00     0.119 A 
ATOM     16  C   UNL     1     -10.757  -4.731  -8.376  1.00  0.00     0.092 A 
BRANCH  14  17
ATOM     17  O   UNL     1     -12.944  -5.321  -9.205  1.00  0.00    -0.508 OA
ATOM     18  H   UNL     1     -13.405  -5.728  -8.401  1.00  0.00     0.293 HD
ENDBRANCH  14  17
BRANCH  15  19
ATOM     19  O   UNL     1      -8.563  -4.131  -7.529  1.00  0.00    -0.508 OA
ATOM     20  H   UNL     1      -7.676  -3.686  -7.739  1.00  0.00     0.293 HD
ENDBRANCH  15  19
ENDBRANCH  10  11
ENDBRANCH   1  10
TORSDOF 6
ENDMDL
MODEL 3
REMARK VINA RESULT:    -7.329      1.613      2.446
REMARK INTER + INTRA:          -9.746
REMARK INTER:                  -9.231
REMARK INTRA:                  -0.516
REMARK UNBOUND:                -0.489
REMARK SMILES Oc1ccc(CCc2cc(O)cc(O)c2)cc1
REMARK SMILES IDX 6 1 5 2 4 3 3 4 2 5 16 6 17 7 1 8 7 10 8 11 15 12 9 13 13 14
REMARK SMILES IDX 10 15 12 16 14 17 11 19
REMARK H PARENT 1 9 14 18 11 20
REMARK Flexibility Score: inf
ROOT
ATOM      1  C   UNL     1     -11.083  -1.700 -10.063  1.00  0.00     0.040 C 
ENDROOT
BRANCH   1   2
ATOM      2  C   UNL     1     -12.145  -0.639  -9.966  1.00  0.00    -0.047 A 
ATOM      3  C   UNL     1     -11.843   0.616  -9.410  1.00  0.00     0.007 A 
ATOM      4  C   UNL     1     -12.839   1.591  -9.290  1.00  0.00     0.046 A 
ATOM      5  C   UNL     1     -14.144   1.321  -9.713  1.00  0.00     0.115 A 
ATOM      6  C   UNL     1     -13.460  -0.911 -10.377  1.00  0.00     0.007 A 
ATOM      7  C   UNL     1     -14.453   0.065 -10.255  1.00  0.00     0.046 A 
BRANCH   5   8
ATOM      8  O   UNL     1     -15.125   2.301  -9.587  1.00  0.00    -0.508 OA
ATOM      9  H   UNL     1     -16.028   2.207 -10.038  1.00  0.00     0.293 HD
ENDBRANCH   5   8
ENDBRANCH   1   2
BRANCH   1  10
ATOM     10  C   UNL     1     -10.468  -1.974  -8.687  1.00  0.00     0.040 C 
BRANCH  10  11
ATOM     11  C   UNL     1     -10.679  -3.410  -8.291  1.00  0.00    -0.040 A 
ATOM     12  C   UNL     1     -10.567  -3.798  -6.946  1.00  0.00     0.050 A 
ATOM     13  C   UNL     1     -10.934  -4.385  -9.270  1.00  0.00     0.050 A 
ATOM     14  C   UNL     1     -10.731  -5.141  -6.580  1.00  0.00     0.119 A 
ATOM     15  C   UNL     1     -11.098  -5.726  -8.907  1.00  0.00     0.119 A 
ATOM     16  C   UNL     1     -10.999  -6.101  -7.561  1.00  0.00     0.092 A 
BRANCH  14  17
ATOM     17  O   UNL     1     -10.627  -5.531  -5.247  1.00  0.00    -0.508 OA
ATOM     18  H   UNL     1     -10.984  -4.952  -4.496  1.00  0.00     0.293 HD
ENDBRANCH  14  17
BRANCH  15  19
ATOM     19  O   UNL     1     -11.358  -6.676  -9.892  1.00  0.00    -0.508 OA
ATOM     20  H   UNL     1     -11.941  -7.484  -9.707  1.00  0.00     0.293 HD
ENDBRANCH  15  19
ENDBRANCH  10  11
ENDBRANCH   1  10
TORSDOF 6
ENDMDL
MODEL 4
REMARK VINA RESULT:    -7.203      1.605      2.606
REMARK INTER + INTRA:          -9.587
REMARK INTER:                  -9.093
REMARK INTRA:                  -0.493
REMARK UNBOUND:                -0.489
REMARK SMILES Oc1ccc(CCc2cc(O)cc(O)c2)cc1
REMARK SMILES IDX 6 1 5 2 4 3 3 4 2 5 16 6 17 7 1 8 7 10 8 11 15 12 9 13 13 14
REMARK SMILES IDX 10 15 12 16 14 17 11 19
REMARK H PARENT 1 9 14 18 11 20
REMARK Flexibility Score: inf
ROOT
ATOM      1  C   UNL     1     -11.213  -1.732 -10.072  1.00  0.00     0.040 C 
ENDROOT
BRANCH   1   2
ATOM      2  C   UNL     1     -12.248  -0.649  -9.936  1.00  0.00    -0.047 A 
ATOM      3  C   UNL     1     -13.558  -0.858 -10.398  1.00  0.00     0.007 A 
ATOM      4  C   UNL     1     -14.511   0.160 -10.301  1.00  0.00     0.046 A 
ATOM      5  C   UNL     1     -14.164   1.399  -9.752  1.00  0.00     0.115 A 
ATOM      6  C   UNL     1     -11.899   0.601  -9.398  1.00  0.00     0.007 A 
ATOM      7  C   UNL     1     -12.854   1.618  -9.303  1.00  0.00     0.046 A 
BRANCH   5   8
ATOM      8  O   UNL     1     -15.123   2.404  -9.661  1.00  0.00    -0.508 OA
ATOM      9  H   UNL     1     -16.103   2.220  -9.848  1.00  0.00     0.293 HD
ENDBRANCH   5   8
ENDBRANCH   1   2
BRANCH   1  10
ATOM     10  C   UNL     1     -10.517  -1.983  -8.730  1.00  0.00     0.040 C 
BRANCH  10  11
ATOM     11  C   UNL     1     -10.671  -3.421  -8.316  1.00  0.00    -0.040 A 
ATOM     12  C   UNL     1     -10.942  -4.410  -9.275  1.00  0.00     0.050 A 
ATOM     13  C   UNL     1     -10.602  -3.778  -6.958  1.00  0.00     0.050 A 
ATOM     14  C   UNL     1     -11.118  -5.745  -8.885  1.00  0.00     0.119 A 
ATOM     15  C   UNL     1     -10.778  -5.110  -6.567  1.00  0.00     0.119 A 
ATOM     16  C   UNL     1     -11.033  -6.092  -7.533  1.00  0.00     0.092 A 
BRANCH  14  17
ATOM     17  O   UNL     1     -11.380  -6.733  -9.833  1.00  0.00    -0.508 OA
ATOM     18  H   UNL     1     -11.259  -7.715  -9.620  1.00  0.00     0.293 HD
ENDBRANCH  14  17
BRANCH  15  19
ATOM     19  O   UNL     1     -10.698  -5.445  -5.218  1.00  0.00    -0.508 OA
ATOM     20  H   UNL     1      -9.809  -5.479  -4.732  1.00  0.00     0.293 HD
ENDBRANCH  15  19
ENDBRANCH  10  11
ENDBRANCH   1  10
TORSDOF 6
ENDMDL
MODEL 5
REMARK VINA RESULT:    -6.723      2.126      6.914
REMARK INTER + INTRA:          -8.980
REMARK INTER:                  -8.495
REMARK INTRA:                  -0.485
REMARK UNBOUND:                -0.489
REMARK SMILES Oc1ccc(CCc2cc(O)cc(O)c2)cc1
REMARK SMILES IDX 6 1 5 2 4 3 3 4 2 5 16 6 17 7 1 8 7 10 8 11 15 12 9 13 13 14
REMARK SMILES IDX 10 15 12 16 14 17 11 19
REMARK H PARENT 1 9 14 18 11 20
REMARK Flexibility Score: inf
ROOT
ATOM      1  C   UNL     1     -10.278  -2.545  -8.332  1.00  0.00     0.040 C 
ENDROOT
BRANCH   1   2
ATOM      2  C   UNL     1     -10.509  -4.009  -8.071  1.00  0.00    -0.047 A 
ATOM      3  C   UNL     1     -10.729  -4.469  -6.762  1.00  0.00     0.007 A 
ATOM      4  C   UNL     1     -10.911  -5.833  -6.516  1.00  0.00     0.046 A 
ATOM      5  C   UNL     1     -10.866  -6.751  -7.570  1.00  0.00     0.115 A 
ATOM      6  C   UNL     1     -10.451  -4.934  -9.125  1.00  0.00     0.007 A 
ATOM      7  C   UNL     1     -10.633  -6.298  -8.876  1.00  0.00     0.046 A 
BRANCH   5   8
ATOM      8  O   UNL     1     -11.050  -8.107  -7.311  1.00  0.00    -0.508 OA
ATOM      9  H   UNL     1     -10.901  -8.808  -8.027  1.00  0.00     0.293 HD
ENDBRANCH   5   8
ENDBRANCH   1   2
BRANCH   1  10
ATOM     10  C   UNL     1     -10.614  -2.198  -9.785  1.00  0.00     0.040 C 
BRANCH  10  11
ATOM     11  C   UNL     1     -11.636  -1.095  -9.843  1.00  0.00    -0.040 A 
ATOM     12  C   UNL     1     -11.348   0.168  -9.300  1.00  0.00     0.050 A 
ATOM     13  C   UNL     1     -12.909  -1.337 -10.388  1.00  0.00     0.050 A 
ATOM     14  C   UNL     1     -12.312   1.185  -9.324  1.00  0.00     0.119 A 
ATOM     15  C   UNL     1     -13.872  -0.323 -10.413  1.00  0.00     0.119 A 
ATOM     16  C   UNL     1     -13.570   0.938  -9.883  1.00  0.00     0.092 A 
BRANCH  14  17
ATOM     17  O   UNL     1     -12.031   2.442  -8.794  1.00  0.00    -0.508 OA
ATOM     18  H   UNL     1     -12.431   2.747  -7.915  1.00  0.00     0.293 HD
ENDBRANCH  14  17
BRANCH  15  19
ATOM     19  O   UNL     1     -15.124  -0.580 -10.965  1.00  0.00    -0.508 OA
ATOM     20  H   UNL     1     -15.687   0.160 -11.369  1.00  0.00     0.293 HD
ENDBRANCH  15  19
ENDBRANCH  10  11
ENDBRANCH   1  10
TORSDOF 6
ENDMDL
MODEL 6
REMARK VINA RESULT:    -6.635      2.103      7.161
REMARK INTER + INTRA:          -8.869
REMARK INTER:                  -8.368
REMARK INTRA:                  -0.500
REMARK UNBOUND:                -0.489
REMARK SMILES Oc1ccc(CCc2cc(O)cc(O)c2)cc1
REMARK SMILES IDX 6 1 5 2 4 3 3 4 2 5 16 6 17 7 1 8 7 10 8 11 15 12 9 13 13 14
REMARK SMILES IDX 10 15 12 16 14 17 11 19
REMARK H PARENT 1 9 14 18 11 20
REMARK Flexibility Score: inf
ROOT
ATOM      1  C   UNL     1     -10.221  -2.567  -8.296  1.00  0.00     0.040 C 
ENDROOT
BRANCH   1   2
ATOM      2  C   UNL     1     -10.453  -4.035  -8.063  1.00  0.00    -0.047 A 
ATOM      3  C   UNL     1     -10.397  -4.940  -9.137  1.00  0.00     0.007 A 
ATOM      4  C   UNL     1     -10.645  -6.300  -8.925  1.00  0.00     0.046 A 
ATOM      5  C   UNL     1     -10.960  -6.768  -7.646  1.00  0.00     0.115 A 
ATOM      6  C   UNL     1     -10.784  -4.507  -6.783  1.00  0.00     0.007 A 
ATOM      7  C   UNL     1     -11.032  -5.867  -6.574  1.00  0.00     0.046 A 
BRANCH   5   8
ATOM      8  O   UNL     1     -11.204  -8.125  -7.450  1.00  0.00    -0.508 OA
ATOM      9  H   UNL     1     -10.499  -8.739  -7.057  1.00  0.00     0.293 HD
ENDBRANCH   5   8
ENDBRANCH   1   2
BRANCH   1  10
ATOM     10  C   UNL     1     -10.564  -2.190  -9.741  1.00  0.00     0.040 C 
BRANCH  10  11
ATOM     11  C   UNL     1     -11.629  -1.128  -9.772  1.00  0.00    -0.040 A 
ATOM     12  C   UNL     1     -12.889  -1.403 -10.327  1.00  0.00     0.050 A 
ATOM     13  C   UNL     1     -11.352   0.166  -9.297  1.00  0.00     0.050 A 
ATOM     14  C   UNL     1     -13.870  -0.404 -10.385  1.00  0.00     0.119 A 
ATOM     15  C   UNL     1     -12.330   1.164  -9.354  1.00  0.00     0.119 A 
ATOM     16  C   UNL     1     -13.590   0.876  -9.896  1.00  0.00     0.092 A 
BRANCH  14  17
ATOM     17  O   UNL     1     -15.125  -0.672 -10.928  1.00  0.00    -0.508 OA
ATOM     18  H   UNL     1     -15.701   0.065 -11.318  1.00  0.00     0.293 HD
ENDBRANCH  14  17
BRANCH  15  19
ATOM     19  O   UNL     1     -12.039   2.438  -8.871  1.00  0.00    -0.508 OA
ATOM     20  H   UNL     1     -11.604   3.140  -9.459  1.00  0.00     0.293 HD
ENDBRANCH  15  19
ENDBRANCH  10  11
ENDBRANCH   1  10
TORSDOF 6
ENDMDL
MODEL 7
REMARK VINA RESULT:    -6.297     16.478     18.058
REMARK INTER + INTRA:          -8.443
REMARK INTER:                  -8.053
REMARK INTRA:                  -0.390
REMARK UNBOUND:                -0.489
REMARK SMILES Oc1ccc(CCc2cc(O)cc(O)c2)cc1
REMARK SMILES IDX 6 1 5 2 4 3 3 4 2 5 16 6 17 7 1 8 7 10 8 11 15 12 9 13 13 14
REMARK SMILES IDX 10 15 12 16 14 17 11 19
REMARK H PARENT 1 9 14 18 11 20
REMARK Flexibility Score: inf
ROOT
ATOM      1  C   UNL     1      -9.077   7.846   5.825  1.00  0.00     0.040 C 
ENDROOT
BRANCH   1   2
ATOM      2  C   UNL     1      -8.111   8.987   5.994  1.00  0.00    -0.047 A 
ATOM      3  C   UNL     1      -7.430   9.509   4.881  1.00  0.00     0.007 A 
ATOM      4  C   UNL     1      -6.508  10.547   5.043  1.00  0.00     0.046 A 
ATOM      5  C   UNL     1      -6.249  11.067   6.315  1.00  0.00     0.115 A 
ATOM      6  C   UNL     1      -7.838   9.502   7.271  1.00  0.00     0.007 A 
ATOM      7  C   UNL     1      -6.915  10.540   7.430  1.00  0.00     0.046 A 
BRANCH   5   8
ATOM      8  O   UNL     1      -5.328  12.102   6.461  1.00  0.00    -0.508 OA
ATOM      9  H   UNL     1      -5.283  12.655   7.310  1.00  0.00     0.293 HD
ENDBRANCH   5   8
ENDBRANCH   1   2
BRANCH   1  10
ATOM     10  C   UNL     1      -8.834   6.773   6.890  1.00  0.00     0.040 C 
BRANCH  10  11
ATOM     11  C   UNL     1      -9.860   5.677   6.781  1.00  0.00    -0.040 A 
ATOM     12  C   UNL     1     -10.199   4.909   7.906  1.00  0.00     0.050 A 
ATOM     13  C   UNL     1     -10.445   5.376   5.539  1.00  0.00     0.050 A 
ATOM     14  C   UNL     1     -11.131   3.867   7.797  1.00  0.00     0.119 A 
ATOM     15  C   UNL     1     -11.374   4.337   5.428  1.00  0.00     0.119 A 
ATOM     16  C   UNL     1     -11.718   3.586   6.559  1.00  0.00     0.092 A 
BRANCH  14  17
ATOM     17  O   UNL     1     -11.477   3.105   8.911  1.00  0.00    -0.508 OA
ATOM     18  H   UNL     1     -12.120   2.326   8.839  1.00  0.00     0.293 HD
ENDBRANCH  14  17
BRANCH  15  19
ATOM     19  O   UNL     1     -11.949   4.060   4.190  1.00  0.00    -0.508 OA
ATOM     20  H   UNL     1     -12.905   4.321   3.979  1.00  0.00     0.293 HD
ENDBRANCH  15  19
ENDBRANCH  10  11
ENDBRANCH   1  10
TORSDOF 6
ENDMDL
MODEL 8
REMARK VINA RESULT:    -5.980     16.945     19.271
REMARK INTER + INTRA:          -8.041
REMARK INTER:                  -7.645
REMARK INTRA:                  -0.397
REMARK UNBOUND:                -0.489
REMARK SMILES Oc1ccc(CCc2cc(O)cc(O)c2)cc1
REMARK SMILES IDX 6 1 5 2 4 3 3 4 2 5 16 6 17 7 1 8 7 10 8 11 15 12 9 13 13 14
REMARK SMILES IDX 10 15 12 16 14 17 11 19
REMARK H PARENT 1 9 14 18 11 20
REMARK Flexibility Score: inf
ROOT
ATOM      1  C   UNL     1      -8.851   7.228   7.288  1.00  0.00     0.040 C 
ENDROOT
BRANCH   1   2
ATOM      2  C   UNL     1      -9.728   6.044   6.981  1.00  0.00    -0.047 A 
ATOM      3  C   UNL     1     -10.148   5.188   8.012  1.00  0.00     0.007 A 
ATOM      4  C   UNL     1     -10.937   4.070   7.722  1.00  0.00     0.046 A 
ATOM      5  C   UNL     1     -11.305   3.791   6.402  1.00  0.00     0.115 A 
ATOM      6  C   UNL     1     -10.089   5.753   5.655  1.00  0.00     0.007 A 
ATOM      7  C   UNL     1     -10.877   4.635   5.368  1.00  0.00     0.046 A 
BRANCH   5   8
ATOM      8  O   UNL     1     -12.091   2.674   6.128  1.00  0.00    -0.508 OA
ATOM      9  H   UNL     1     -13.034   2.766   5.766  1.00  0.00     0.293 HD
ENDBRANCH   5   8
ENDBRANCH   1   2
BRANCH   1  10
ATOM     10  C   UNL     1      -8.652   8.089   6.036  1.00  0.00     0.040 C 
BRANCH  10  11
ATOM     11  C   UNL     1      -7.692   9.213   6.316  1.00  0.00    -0.040 A 
ATOM     12  C   UNL     1      -6.792   9.639   5.325  1.00  0.00     0.050 A 
ATOM     13  C   UNL     1      -7.648   9.808   7.588  1.00  0.00     0.050 A 
ATOM     14  C   UNL     1      -5.875  10.664   5.595  1.00  0.00     0.119 A 
ATOM     15  C   UNL     1      -6.734  10.831   7.860  1.00  0.00     0.119 A 
ATOM     16  C   UNL     1      -5.850  11.259   6.860  1.00  0.00     0.092 A 
BRANCH  14  17
ATOM     17  O   UNL     1      -4.984  11.096   4.615  1.00  0.00    -0.508 OA
ATOM     18  H   UNL     1      -4.205  11.703   4.839  1.00  0.00     0.293 HD
ENDBRANCH  14  17
BRANCH  15  19
ATOM     19  O   UNL     1      -6.711  11.412   9.125  1.00  0.00    -0.508 OA
ATOM     20  H   UNL     1      -7.376  12.130   9.390  1.00  0.00     0.293 HD
ENDBRANCH  15  19
ENDBRANCH  10  11
ENDBRANCH   1  10
TORSDOF 6
ENDMDL
