MODEL 1
REMARK VINA RESULT:    -4.563      0.000      0.000
REMARK INTER + INTRA:          -5.159
REMARK INTER:                  -4.964
REMARK INTRA:                  -0.196
REMARK UNBOUND:                -0.196
REMARK SMILES O=C([O-])c1ccccc1O
REMARK SMILES IDX 4 1 9 2 5 3 8 4 6 5 7 6 2 7 1 8 3 9 10 10
REMARK H PARENT 10 11
REMARK Flexibility Score: inf
ROOT
ATOM      1  C   UNL     1     -18.333 -29.638  19.335  1.00  0.00     0.039 A 
ATOM      2  C   UNL     1     -19.638 -30.188  19.343  1.00  0.00     0.124 A 
ATOM      3  C   UNL     1     -17.306 -30.317  20.017  1.00  0.00     0.014 A 
ATOM      4  C   UNL     1     -19.886 -31.388  20.027  1.00  0.00     0.047 A 
ATOM      5  C   UNL     1     -17.567 -31.512  20.694  1.00  0.00     0.001 A 
ATOM      6  C   UNL     1     -18.855 -32.047  20.698  1.00  0.00     0.004 A 
ENDROOT
BRANCH   1   7
ATOM      7  C   UNL     1     -18.020 -28.371  18.627  1.00  0.00     0.075 C 
ATOM      8  O   UNL     1     -18.460 -27.267  19.044  1.00  0.00    -0.545 OA
ATOM      9  O   UNL     1     -17.229 -28.384  17.483  1.00  0.00    -0.545 OA
ENDBRANCH   1   7
BRANCH   2  10
ATOM     10  O   UNL     1     -20.686 -29.550  18.680  1.00  0.00    -0.507 OA
ATOM     11  H   UNL     1     -20.519 -28.868  17.948  1.00  0.00     0.293 HD
ENDBRANCH   2  10
TORSDOF 2
ENDMDL
MODEL 2
REMARK VINA RESULT:    -4.535     10.610     11.141
REMARK INTER + INTRA:          -5.128
REMARK INTER:                  -4.894
REMARK INTRA:                  -0.234
REMARK UNBOUND:                -0.196
REMARK SMILES O=C([O-])c1ccccc1O
REMARK SMILES IDX 4 1 9 2 5 3 8 4 6 5 7 6 2 7 1 8 3 9 10 10
REMARK H PARENT 10 11
REMARK Flexibility Score: inf
ROOT
ATOM      1  C   UNL     1     -11.320 -21.748  17.471  1.00  0.00     0.039 A 
ATOM      2  C   UNL     1     -12.026 -22.072  16.287  1.00  0.00     0.124 A 
ATOM      3  C   UNL     1     -10.240 -22.563  17.860  1.00  0.00     0.014 A 
ATOM      4  C   UNL     1     -11.644 -23.189  15.528  1.00  0.00     0.047 A 
ATOM      5  C   UNL     1      -9.870 -23.672  17.095  1.00  0.00     0.001 A 
ATOM      6  C   UNL     1     -10.570 -23.984  15.931  1.00  0.00     0.004 A 
ENDROOT
BRANCH   1   7
ATOM      7  C   UNL     1     -11.686 -20.578  18.308  1.00  0.00     0.075 C 
ATOM      8  O   UNL     1     -12.828 -20.484  18.832  1.00  0.00    -0.545 OA
ATOM      9  O   UNL     1     -10.766 -19.559  18.529  1.00  0.00    -0.545 OA
ENDBRANCH   1   7
BRANCH   2  10
ATOM     10  O   UNL     1     -13.103 -21.294  15.862  1.00  0.00    -0.507 OA
ATOM     11  H   UNL     1     -14.062 -21.604  15.971  1.00  0.00     0.293 HD
ENDBRANCH   2  10
TORSDOF 2
ENDMDL
MODEL 3
REMARK VINA RESULT:    -4.384      3.239      4.464
REMARK INTER + INTRA:          -4.965
REMARK INTER:                  -4.748
REMARK INTRA:                  -0.217
REMARK UNBOUND:                -0.196
REMARK SMILES O=C([O-])c1ccccc1O
REMARK SMILES IDX 4 1 9 2 5 3 8 4 6 5 7 6 2 7 1 8 3 9 10 10
REMARK H PARENT 10 11
REMARK Flexibility Score: inf
ROOT
ATOM      1  C   UNL     1     -17.944 -32.804  20.453  1.00  0.00     0.039 A 
ATOM      2  C   UNL     1     -17.537 -32.722  21.807  1.00  0.00     0.124 A 
ATOM      3  C   UNL     1     -16.967 -33.026  19.464  1.00  0.00     0.014 A 
ATOM      4  C   UNL     1     -16.181 -32.860  22.139  1.00  0.00     0.047 A 
ATOM      5  C   UNL     1     -15.620 -33.163  19.809  1.00  0.00     0.001 A 
ATOM      6  C   UNL     1     -15.227 -33.080  21.144  1.00  0.00     0.004 A 
ENDROOT
BRANCH   1   7
ATOM      7  C   UNL     1     -19.366 -32.663  20.050  1.00  0.00     0.075 C 
ATOM      8  O   UNL     1     -19.983 -33.613  19.498  1.00  0.00    -0.545 OA
ATOM      9  O   UNL     1     -20.043 -31.470  20.276  1.00  0.00    -0.545 OA
ENDBRANCH   1   7
BRANCH   2  10
ATOM     10  O   UNL     1     -18.470 -32.502  22.820  1.00  0.00    -0.507 OA
ATOM     11  H   UNL     1     -18.720 -31.567  23.122  1.00  0.00     0.293 HD
ENDBRANCH   2  10
TORSDOF 2
ENDMDL
MODEL 4
REMARK VINA RESULT:    -4.382      1.131      2.387
REMARK INTER + INTRA:          -4.962
REMARK INTER:                  -4.786
REMARK INTRA:                  -0.175
REMARK UNBOUND:                -0.196
REMARK SMILES O=C([O-])c1ccccc1O
REMARK SMILES IDX 4 1 9 2 5 3 8 4 6 5 7 6 2 7 1 8 3 9 10 10
REMARK H PARENT 10 11
REMARK Flexibility Score: inf
ROOT
ATOM      1  C   UNL     1     -18.450 -29.468  19.165  1.00  0.00     0.039 A 
ATOM      2  C   UNL     1     -17.530 -30.219  19.937  1.00  0.00     0.124 A 
ATOM      3  C   UNL     1     -19.785 -29.908  19.086  1.00  0.00     0.014 A 
ATOM      4  C   UNL     1     -17.957 -31.378  20.602  1.00  0.00     0.047 A 
ATOM      5  C   UNL     1     -20.197 -31.064  19.754  1.00  0.00     0.001 A 
ATOM      6  C   UNL     1     -19.285 -31.798  20.511  1.00  0.00     0.004 A 
ENDROOT
BRANCH   1   7
ATOM      7  C   UNL     1     -18.048 -28.236  18.442  1.00  0.00     0.075 C 
ATOM      8  O   UNL     1     -17.333 -28.293  17.407  1.00  0.00    -0.545 OA
ATOM      9  O   UNL     1     -18.457 -26.989  18.902  1.00  0.00    -0.545 OA
ENDBRANCH   1   7
BRANCH   2  10
ATOM     10  O   UNL     1     -16.198 -29.821  20.044  1.00  0.00    -0.507 OA
ATOM     11  H   UNL     1     -15.880 -28.920  19.705  1.00  0.00     0.293 HD
ENDBRANCH   2  10
TORSDOF 2
ENDMDL
MODEL 5
REMARK VINA RESULT:    -4.370      2.733      4.265
REMARK INTER + INTRA:          -4.949
REMARK INTER:                  -4.698
REMARK INTRA:                  -0.251
REMARK UNBOUND:                -0.196
REMARK SMILES O=C([O-])c1ccccc1O
REMARK SMILES IDX 4 1 9 2 5 3 8 4 6 5 7 6 2 7 1 8 3 9 10 10
REMARK H PARENT 10 11
REMARK Flexibility Score: inf
ROOT
ATOM      1  C   UNL     1     -18.640 -31.380  20.286  1.00  0.00     0.039 A 
ATOM      2  C   UNL     1     -17.527 -30.510  20.192  1.00  0.00     0.124 A 
ATOM      3  C   UNL     1     -19.843 -31.012  19.656  1.00  0.00     0.014 A 
ATOM      4  C   UNL     1     -17.638 -29.306  19.480  1.00  0.00     0.047 A 
ATOM      5  C   UNL     1     -19.941 -29.810  18.949  1.00  0.00     0.001 A 
ATOM      6  C   UNL     1     -18.840 -28.958  18.861  1.00  0.00     0.004 A 
ENDROOT
BRANCH   1   7
ATOM      7  C   UNL     1     -18.573 -32.664  21.029  1.00  0.00     0.075 C 
ATOM      8  O   UNL     1     -18.092 -32.719  22.191  1.00  0.00    -0.545 OA
ATOM      9  O   UNL     1     -19.045 -33.835  20.446  1.00  0.00    -0.545 OA
ENDBRANCH   1   7
BRANCH   2  10
ATOM     10  O   UNL     1     -16.314 -30.834  20.801  1.00  0.00    -0.507 OA
ATOM     11  H   UNL     1     -16.270 -31.167  21.758  1.00  0.00     0.293 HD
ENDBRANCH   2  10
TORSDOF 2
ENDMDL
MODEL 6
REMARK VINA RESULT:    -4.364      2.849      3.527
REMARK INTER + INTRA:          -4.942
REMARK INTER:                  -4.706
REMARK INTRA:                  -0.237
REMARK UNBOUND:                -0.196
REMARK SMILES O=C([O-])c1ccccc1O
REMARK SMILES IDX 4 1 9 2 5 3 8 4 6 5 7 6 2 7 1 8 3 9 10 10
REMARK H PARENT 10 11
REMARK Flexibility Score: inf
ROOT
ATOM      1  C   UNL     1     -17.659 -31.330  20.012  1.00  0.00     0.039 A 
ATOM      2  C   UNL     1     -18.904 -31.789  20.505  1.00  0.00     0.124 A 
ATOM      3  C   UNL     1     -17.648 -30.307  19.046  1.00  0.00     0.014 A 
ATOM      4  C   UNL     1     -20.096 -31.224  20.028  1.00  0.00     0.047 A 
ATOM      5  C   UNL     1     -18.843 -29.753  18.579  1.00  0.00     0.001 A 
ATOM      6  C   UNL     1     -20.065 -30.211  19.069  1.00  0.00     0.004 A 
ENDROOT
BRANCH   1   7
ATOM      7  C   UNL     1     -16.370 -31.896  20.484  1.00  0.00     0.075 C 
ATOM      8  O   UNL     1     -16.221 -32.270  21.678  1.00  0.00    -0.545 OA
ATOM      9  O   UNL     1     -15.297 -32.022  19.608  1.00  0.00    -0.545 OA
ENDBRANCH   1   7
BRANCH   2  10
ATOM     10  O   UNL     1     -18.963 -32.802  21.463  1.00  0.00    -0.507 OA
ATOM     11  H   UNL     1     -19.676 -32.813  22.184  1.00  0.00     0.293 HD
ENDBRANCH   2  10
TORSDOF 2
ENDMDL
MODEL 7
REMARK VINA RESULT:    -4.266      1.593      2.768
REMARK INTER + INTRA:          -4.835
REMARK INTER:                  -4.581
REMARK INTRA:                  -0.254
REMARK UNBOUND:                -0.196
REMARK SMILES O=C([O-])c1ccccc1O
REMARK SMILES IDX 4 1 9 2 5 3 8 4 6 5 7 6 2 7 1 8 3 9 10 10
REMARK H PARENT 10 11
REMARK Flexibility Score: inf
ROOT
ATOM      1  C   UNL     1     -18.608 -31.252  19.805  1.00  0.00     0.039 A 
ATOM      2  C   UNL     1     -17.400 -31.085  20.524  1.00  0.00     0.124 A 
ATOM      3  C   UNL     1     -19.260 -32.499  19.854  1.00  0.00     0.014 A 
ATOM      4  C   UNL     1     -16.875 -32.154  21.267  1.00  0.00     0.047 A 
ATOM      5  C   UNL     1     -18.727 -33.555  20.598  1.00  0.00     0.001 A 
ATOM      6  C   UNL     1     -17.536 -33.383  21.303  1.00  0.00     0.004 A 
ENDROOT
BRANCH   1   7
ATOM      7  C   UNL     1     -19.204 -30.153  19.004  1.00  0.00     0.075 C 
ATOM      8  O   UNL     1     -20.419 -29.843  19.125  1.00  0.00    -0.545 OA
ATOM      9  O   UNL     1     -18.422 -29.442  18.099  1.00  0.00    -0.545 OA
ENDBRANCH   1   7
BRANCH   2  10
ATOM     10  O   UNL     1     -16.720 -29.868  20.504  1.00  0.00    -0.507 OA
ATOM     11  H   UNL     1     -15.748 -29.804  20.221  1.00  0.00     0.293 HD
ENDBRANCH   2  10
TORSDOF 2
ENDMDL
MODEL 8
REMARK VINA RESULT:    -4.246     10.760     11.083
REMARK INTER + INTRA:          -4.814
REMARK INTER:                  -4.598
REMARK INTRA:                  -0.217
REMARK UNBOUND:                -0.196
REMARK SMILES O=C([O-])c1ccccc1O
REMARK SMILES IDX 4 1 9 2 5 3 8 4 6 5 7 6 2 7 1 8 3 9 10 10
REMARK H PARENT 10 11
REMARK Flexibility Score: inf
ROOT
ATOM      1  C   UNL     1     -11.113 -22.623  16.828  1.00  0.00     0.039 A 
ATOM      2  C   UNL     1     -12.074 -21.583  16.869  1.00  0.00     0.124 A 
ATOM      3  C   UNL     1     -10.284 -22.824  17.947  1.00  0.00     0.014 A 
ATOM      4  C   UNL     1     -12.183 -20.777  18.012  1.00  0.00     0.047 A 
ATOM      5  C   UNL     1     -10.403 -22.014  19.079  1.00  0.00     0.001 A 
ATOM      6  C   UNL     1     -11.351 -20.992  19.112  1.00  0.00     0.004 A 
ENDROOT
BRANCH   1   7
ATOM      7  C   UNL     1     -10.958 -23.502  15.642  1.00  0.00     0.075 C 
ATOM      8  O   UNL     1     -10.492 -24.667  15.752  1.00  0.00    -0.545 OA
ATOM      9  O   UNL     1     -11.328 -23.049  14.380  1.00  0.00    -0.545 OA
ENDBRANCH   1   7
BRANCH   2  10
ATOM     10  O   UNL     1     -12.917 -21.347  15.783  1.00  0.00    -0.507 OA
ATOM     11  H   UNL     1     -13.606 -22.028  15.485  1.00  0.00     0.293 HD
ENDBRANCH   2  10
TORSDOF 2
ENDMDL
MODEL 9
REMARK VINA RESULT:    -4.134      1.721      2.112
REMARK INTER + INTRA:          -4.693
REMARK INTER:                  -4.440
REMARK INTRA:                  -0.253
REMARK UNBOUND:                -0.196
REMARK SMILES O=C([O-])c1ccccc1O
REMARK SMILES IDX 4 1 9 2 5 3 8 4 6 5 7 6 2 7 1 8 3 9 10 10
REMARK H PARENT 10 11
REMARK Flexibility Score: inf
ROOT
ATOM      1  C   UNL     1     -17.781 -31.166  20.001  1.00  0.00     0.039 A 
ATOM      2  C   UNL     1     -18.963 -31.867  20.341  1.00  0.00     0.124 A 
ATOM      3  C   UNL     1     -16.563 -31.871  19.962  1.00  0.00     0.014 A 
ATOM      4  C   UNL     1     -18.904 -33.238  20.633  1.00  0.00     0.047 A 
ATOM      5  C   UNL     1     -16.518 -33.236  20.255  1.00  0.00     0.001 A 
ATOM      6  C   UNL     1     -17.687 -33.919  20.590  1.00  0.00     0.004 A 
ENDROOT
BRANCH   1   7
ATOM      7  C   UNL     1     -17.791 -29.716  19.684  1.00  0.00     0.075 C 
ATOM      8  O   UNL     1     -16.899 -28.946  20.131  1.00  0.00    -0.545 OA
ATOM      9  O   UNL     1     -18.794 -29.180  18.884  1.00  0.00    -0.545 OA
ENDBRANCH   1   7
BRANCH   2  10
ATOM     10  O   UNL     1     -20.193 -31.210  20.392  1.00  0.00    -0.507 OA
ATOM     11  H   UNL     1     -20.506 -30.728  21.228  1.00  0.00     0.293 HD
ENDBRANCH   2  10
TORSDOF 2
ENDMDL
