MODEL 1
REMARK VINA RESULT:    -4.946      0.000      0.000
REMARK INTER + INTRA:          -5.951
REMARK INTER:                  -6.970
REMARK INTRA:                   1.019
REMARK UNBOUND:                 1.019
REMARK SMILES CC1=CCC(=C(C)C)C(=O)CC(C)=CCC1
REMARK SMILES IDX 12 1 14 2 13 3 15 4 16 5 2 6 1 7 3 8 11 10 9 11 10 12 5 13
REMARK SMILES IDX 6 14 7 15 8 16 4 17
REMARK H PARENT
REMARK Flexibility Score: 60.00
ROOT
ATOM      1  C   UNL     1     214.801 152.959 180.982  1.00  0.00    -0.070 C 
ATOM      2  C   UNL     1     215.089 152.933 179.660  1.00  0.00    -0.027 C 
ATOM      3  C   UNL     1     214.125 154.195 181.524  1.00  0.00     0.039 C 
ENDROOT
BRANCH   2   4
ATOM      4  C   UNL     1     215.662 151.766 178.892  1.00  0.00     0.032 C 
BRANCH   4   5
ATOM      5  C   UNL     1     214.592 150.720 178.521  1.00  0.00     0.034 C 
BRANCH   5   6
ATOM      6  C   UNL     1     213.194 151.307 178.520  1.00  0.00    -0.077 C 
ATOM      7  C   UNL     1     212.784 152.176 177.358  1.00  0.00     0.039 C 
ATOM      8  C   UNL     1     212.301 151.117 179.516  1.00  0.00    -0.023 CG0
ATOM      9  G   UNL     1     212.535 150.312 180.772  1.00  0.00     0.000 G0
ENDBRANCH   5   6
ENDBRANCH   4   5
ENDBRANCH   2   4
BRANCH   1  10
ATOM     10  C   UNL     1     215.058 151.795 181.925  1.00  0.00     0.111 C 
BRANCH  10  11
ATOM     11  C   UNL     1     213.814 151.415 182.690  1.00  0.00     0.163 C 
ATOM     12  O   UNL     1     213.910 151.251 183.937  1.00  0.00    -0.294 OA
BRANCH  11  13
ATOM     13  C   UNL     1     212.504 151.183 182.006  1.00  0.00    -0.002 C 
ATOM     14  C   UNL     1     211.357 151.805 182.418  1.00  0.00    -0.069 C 
ATOM     15  C   UNL     1     210.029 151.535 181.745  1.00  0.00     0.039 C 
ATOM     16  C   UNL     1     211.364 152.816 183.542  1.00  0.00     0.039 C 
BRANCH  13  17
ATOM     17  C   UNL     1     212.513 150.284 180.783  1.00  0.00     0.066 CG0
ATOM     18  G   UNL     1     212.307 151.112 179.537  1.00  0.00     0.000 G0
ENDBRANCH  13  17
ENDBRANCH  11  13
ENDBRANCH  10  11
ENDBRANCH   1  10
TORSDOF 0
ENDMDL
MODEL 2
REMARK VINA RESULT:    -4.934      1.544      3.332
REMARK INTER + INTRA:          -5.934
REMARK INTER:                  -6.719
REMARK INTRA:                   0.786
REMARK UNBOUND:                 1.019
REMARK SMILES CC1=CCC(=C(C)C)C(=O)CC(C)=CCC1
REMARK SMILES IDX 12 1 14 2 13 3 15 4 16 5 2 6 1 7 3 8 11 10 9 11 10 12 5 13
REMARK SMILES IDX 6 14 7 15 8 16 4 17
REMARK H PARENT
REMARK Flexibility Score: 60.00
ROOT
ATOM      1  C   UNL     1     211.714 152.038 182.947  1.00  0.00    -0.070 C 
ATOM      2  C   UNL     1     211.359 151.178 181.963  1.00  0.00    -0.027 C 
ATOM      3  C   UNL     1     210.813 153.223 183.196  1.00  0.00     0.039 C 
ENDROOT
BRANCH   2   4
ATOM      4  C   UNL     1     212.049 149.881 181.616  1.00  0.00     0.032 C 
BRANCH   4   5
ATOM      5  C   UNL     1     213.307 150.093 180.751  1.00  0.00     0.034 C 
BRANCH   5   6
ATOM      6  C   UNL     1     213.174 151.292 179.833  1.00  0.00    -0.077 C 
ATOM      7  C   UNL     1     212.272 151.176 178.630  1.00  0.00     0.039 C 
ATOM      8  C   UNL     1     213.839 152.455 180.017  1.00  0.00    -0.023 CG0
ATOM      9  G   UNL     1     214.808 152.751 181.136  1.00  0.00     0.000 G0
ENDBRANCH   5   6
ENDBRANCH   4   5
ENDBRANCH   2   4
BRANCH   1  10
ATOM     10  C   UNL     1     212.922 151.837 183.848  1.00  0.00     0.111 C 
BRANCH  10  11
ATOM     11  C   UNL     1     213.992 152.866 183.578  1.00  0.00     0.163 C 
ATOM     12  O   UNL     1     214.761 153.185 184.525  1.00  0.00    -0.294 OA
BRANCH  11  13
ATOM     13  C   UNL     1     214.123 153.541 182.250  1.00  0.00    -0.002 C 
ATOM     14  C   UNL     1     213.699 154.826 182.051  1.00  0.00    -0.069 C 
ATOM     15  C   UNL     1     213.800 155.489 180.694  1.00  0.00     0.039 C 
ATOM     16  C   UNL     1     213.141 155.660 183.182  1.00  0.00     0.039 C 
BRANCH  13  17
ATOM     17  C   UNL     1     214.818 152.764 181.146  1.00  0.00     0.066 CG0
ATOM     18  G   UNL     1     213.840 152.466 180.035  1.00  0.00     0.000 G0
ENDBRANCH  13  17
ENDBRANCH  11  13
ENDBRANCH  10  11
ENDBRANCH   1  10
TORSDOF 0
ENDMDL
MODEL 3
REMARK VINA RESULT:    -4.732      1.554      2.934
REMARK INTER + INTRA:          -5.649
REMARK INTER:                  -6.453
REMARK INTRA:                   0.804
REMARK UNBOUND:                 1.019
REMARK SMILES CC1=CCC(=C(C)C)C(=O)CC(C)=CCC1
REMARK SMILES IDX 12 1 14 2 13 3 15 4 16 5 2 6 1 7 3 8 11 10 9 11 10 12 5 13
REMARK SMILES IDX 6 14 7 15 8 16 4 17
REMARK H PARENT
REMARK Flexibility Score: 60.00
ROOT
ATOM      1  C   UNL     1     211.748 150.968 181.287  1.00  0.00    -0.070 C 
ATOM      2  C   UNL     1     212.021 151.072 179.965  1.00  0.00    -0.027 C 
ATOM      3  C   UNL     1     210.520 151.678 181.802  1.00  0.00     0.039 C 
ENDROOT
BRANCH   2   4
ATOM      4  C   UNL     1     213.127 150.362 179.222  1.00  0.00     0.032 C 
BRANCH   4   5
ATOM      5  C   UNL     1     214.481 151.090 179.341  1.00  0.00     0.034 C 
BRANCH   5   6
ATOM      6  C   UNL     1     214.313 152.589 179.488  1.00  0.00    -0.077 C 
ATOM      7  C   UNL     1     213.943 153.391 178.266  1.00  0.00     0.039 C 
ATOM      8  C   UNL     1     214.503 153.255 180.650  1.00  0.00    -0.023 CG0
ATOM      9  G   UNL     1     214.908 152.636 181.966  1.00  0.00     0.000 G0
ENDBRANCH   5   6
ENDBRANCH   4   5
ENDBRANCH   2   4
BRANCH   1  10
ATOM     10  C   UNL     1     212.567 150.129 182.255  1.00  0.00     0.111 C 
BRANCH  10  11
ATOM     11  C   UNL     1     213.366 150.994 183.199  1.00  0.00     0.163 C 
ATOM     12  O   UNL     1     213.704 150.503 184.311  1.00  0.00    -0.294 OA
BRANCH  11  13
ATOM     13  C   UNL     1     213.713 152.412 182.872  1.00  0.00    -0.002 C 
ATOM     14  C   UNL     1     213.020 153.464 183.406  1.00  0.00    -0.069 C 
ATOM     15  C   UNL     1     213.353 154.894 183.040  1.00  0.00     0.039 C 
ATOM     16  C   UNL     1     211.913 153.253 184.414  1.00  0.00     0.039 C 
BRANCH  13  17
ATOM     17  C   UNL     1     214.918 152.639 181.978  1.00  0.00     0.066 CG0
ATOM     18  G   UNL     1     214.477 153.249 180.669  1.00  0.00     0.000 G0
ENDBRANCH  13  17
ENDBRANCH  11  13
ENDBRANCH  10  11
ENDBRANCH   1  10
TORSDOF 0
ENDMDL
MODEL 4
REMARK VINA RESULT:    -4.657      1.786      2.459
REMARK INTER + INTRA:          -5.544
REMARK INTER:                  -6.032
REMARK INTRA:                   0.488
REMARK UNBOUND:                 1.019
REMARK SMILES CC1=CCC(=C(C)C)C(=O)CC(C)=CCC1
REMARK SMILES IDX 12 1 14 2 13 3 15 4 16 5 2 6 1 7 3 8 11 10 9 11 10 12 5 13
REMARK SMILES IDX 6 14 7 15 8 16 4 17
REMARK H PARENT
REMARK Flexibility Score: 60.00
ROOT
ATOM      1  C   UNL     1     213.451 155.841 180.689  1.00  0.00    -0.070 C 
ATOM      2  C   UNL     1     213.509 155.858 179.337  1.00  0.00    -0.027 C 
ATOM      3  C   UNL     1     214.143 156.960 181.430  1.00  0.00     0.039 C 
ENDROOT
BRANCH   2   4
ATOM      4  C   UNL     1     212.805 154.906 178.400  1.00  0.00     0.032 C 
BRANCH   4   5
ATOM      5  C   UNL     1     213.687 153.706 178.002  1.00  0.00     0.034 C 
BRANCH   5   6
ATOM      6  C   UNL     1     212.935 152.393 178.080  1.00  0.00    -0.077 C 
ATOM      7  C   UNL     1     211.941 152.072 176.992  1.00  0.00     0.039 C 
ATOM      8  C   UNL     1     213.085 151.501 179.085  1.00  0.00    -0.023 CG0
ATOM      9  G   UNL     1     214.000 151.658 180.276  1.00  0.00     0.000 G0
ENDBRANCH   5   6
ENDBRANCH   4   5
ENDBRANCH   2   4
BRANCH   1  10
ATOM     10  C   UNL     1     212.678 154.805 181.489  1.00  0.00     0.111 C 
BRANCH  10  11
ATOM     11  C   UNL     1     213.550 153.633 181.866  1.00  0.00     0.163 C 
ATOM     12  O   UNL     1     214.614 153.865 182.502  1.00  0.00    -0.294 OA
BRANCH  11  13
ATOM     13  C   UNL     1     213.212 152.232 181.463  1.00  0.00    -0.002 C 
ATOM     14  C   UNL     1     212.205 151.532 182.071  1.00  0.00    -0.069 C 
ATOM     15  C   UNL     1     211.894 150.103 181.684  1.00  0.00     0.039 C 
ATOM     16  C   UNL     1     211.332 152.161 183.133  1.00  0.00     0.039 C 
BRANCH  13  17
ATOM     17  C   UNL     1     213.984 151.643 180.297  1.00  0.00     0.066 CG0
ATOM     18  G   UNL     1     213.077 151.507 179.098  1.00  0.00     0.000 G0
ENDBRANCH  13  17
ENDBRANCH  11  13
ENDBRANCH  10  11
ENDBRANCH   1  10
TORSDOF 0
ENDMDL
MODEL 5
REMARK VINA RESULT:    -4.563      2.100      4.155
REMARK INTER + INTRA:          -5.410
REMARK INTER:                  -6.261
REMARK INTRA:                   0.850
REMARK UNBOUND:                 1.019
REMARK SMILES CC1=CCC(=C(C)C)C(=O)CC(C)=CCC1
REMARK SMILES IDX 12 1 14 2 13 3 15 4 16 5 2 6 1 7 3 8 11 10 9 11 10 12 5 13
REMARK SMILES IDX 6 14 7 15 8 16 4 17
REMARK H PARENT
REMARK Flexibility Score: 60.00
ROOT
ATOM      1  C   UNL     1     212.432 153.423 183.590  1.00  0.00    -0.070 C 
ATOM      2  C   UNL     1     212.216 152.086 183.617  1.00  0.00    -0.027 C 
ATOM      3  C   UNL     1     213.216 154.024 184.731  1.00  0.00     0.039 C 
ENDROOT
BRANCH   2   4
ATOM      4  C   UNL     1     211.554 151.266 182.536  1.00  0.00     0.032 C 
BRANCH   4   5
ATOM      5  C   UNL     1     212.531 150.287 181.855  1.00  0.00     0.034 C 
BRANCH   5   6
ATOM      6  C   UNL     1     213.880 150.923 181.584  1.00  0.00    -0.077 C 
ATOM      7  C   UNL     1     215.065 150.458 182.392  1.00  0.00     0.039 C 
ATOM      8  C   UNL     1     214.078 151.904 180.675  1.00  0.00    -0.023 CG0
ATOM      9  G   UNL     1     213.016 152.524 179.799  1.00  0.00     0.000 G0
ENDBRANCH   5   6
ENDBRANCH   4   5
ENDBRANCH   2   4
BRANCH   1  10
ATOM     10  C   UNL     1     211.989 154.327 182.451  1.00  0.00     0.111 C 
BRANCH  10  11
ATOM     11  C   UNL     1     213.085 154.509 181.430  1.00  0.00     0.163 C 
ATOM     12  O   UNL     1     214.126 155.130 181.780  1.00  0.00    -0.294 OA
BRANCH  11  13
ATOM     13  C   UNL     1     212.944 154.024 180.022  1.00  0.00    -0.002 C 
ATOM     14  C   UNL     1     212.838 154.890 178.970  1.00  0.00    -0.069 C 
ATOM     15  C   UNL     1     212.656 154.392 177.553  1.00  0.00     0.039 C 
ATOM     16  C   UNL     1     212.931 156.387 179.164  1.00  0.00     0.039 C 
BRANCH  13  17
ATOM     17  C   UNL     1     212.999 152.523 179.801  1.00  0.00     0.066 CG0
ATOM     18  G   UNL     1     214.068 151.915 180.677  1.00  0.00     0.000 G0
ENDBRANCH  13  17
ENDBRANCH  11  13
ENDBRANCH  10  11
ENDBRANCH   1  10
TORSDOF 0
ENDMDL
MODEL 6
REMARK VINA RESULT:    -4.562      2.663      5.223
REMARK INTER + INTRA:          -5.409
REMARK INTER:                  -5.825
REMARK INTRA:                   0.416
REMARK UNBOUND:                 1.019
REMARK SMILES CC1=CCC(=C(C)C)C(=O)CC(C)=CCC1
REMARK SMILES IDX 12 1 14 2 13 3 15 4 16 5 2 6 1 7 3 8 11 10 9 11 10 12 5 13
REMARK SMILES IDX 6 14 7 15 8 16 4 17
REMARK H PARENT
REMARK Flexibility Score: 60.00
ROOT
ATOM      1  C   UNL     1     213.019 151.324 182.643  1.00  0.00    -0.070 C 
ATOM      2  C   UNL     1     212.915 151.702 183.939  1.00  0.00    -0.027 C 
ATOM      3  C   UNL     1     213.624 149.971 182.359  1.00  0.00     0.039 C 
ENDROOT
BRANCH   2   4
ATOM      4  C   UNL     1     212.251 152.956 184.454  1.00  0.00     0.032 C 
BRANCH   4   5
ATOM      5  C   UNL     1     213.123 154.212 184.257  1.00  0.00     0.034 C 
BRANCH   5   6
ATOM      6  C   UNL     1     212.409 155.284 183.457  1.00  0.00    -0.077 C 
ATOM      7  C   UNL     1     211.145 155.878 184.024  1.00  0.00     0.039 C 
ATOM      8  C   UNL     1     212.828 155.720 182.248  1.00  0.00    -0.023 CG0
ATOM      9  G   UNL     1     214.044 155.224 181.502  1.00  0.00     0.000 G0
ENDBRANCH   5   6
ENDBRANCH   4   5
ENDBRANCH   2   4
BRANCH   1  10
ATOM     10  C   UNL     1     212.502 152.152 181.478  1.00  0.00     0.111 C 
BRANCH  10  11
ATOM     11  C   UNL     1     213.629 152.811 180.723  1.00  0.00     0.163 C 
ATOM     12  O   UNL     1     214.624 152.104 180.405  1.00  0.00    -0.294 OA
BRANCH  11  13
ATOM     13  C   UNL     1     213.615 154.271 180.394  1.00  0.00    -0.002 C 
ATOM     14  C   UNL     1     213.176 154.732 179.184  1.00  0.00    -0.069 C 
ATOM     15  C   UNL     1     213.201 156.206 178.845  1.00  0.00     0.039 C 
ATOM     16  C   UNL     1     212.610 153.797 178.138  1.00  0.00     0.039 C 
BRANCH  13  17
ATOM     17  C   UNL     1     214.041 155.229 181.492  1.00  0.00     0.066 CG0
ATOM     18  G   UNL     1     212.824 155.744 182.223  1.00  0.00     0.000 G0
ENDBRANCH  13  17
ENDBRANCH  11  13
ENDBRANCH  10  11
ENDBRANCH   1  10
TORSDOF 0
ENDMDL
MODEL 7
REMARK VINA RESULT:    -4.550      1.916      4.689
REMARK INTER + INTRA:          -5.392
REMARK INTER:                  -6.327
REMARK INTRA:                   0.935
REMARK UNBOUND:                 1.019
REMARK SMILES CC1=CCC(=C(C)C)C(=O)CC(C)=CCC1
REMARK SMILES IDX 12 1 14 2 13 3 15 4 16 5 2 6 1 7 3 8 11 10 9 11 10 12 5 13
REMARK SMILES IDX 6 14 7 15 8 16 4 17
REMARK H PARENT
REMARK Flexibility Score: 60.00
ROOT
ATOM      1  C   UNL     1     213.214 151.200 183.779  1.00  0.00    -0.070 C 
ATOM      2  C   UNL     1     212.265 152.123 184.065  1.00  0.00    -0.027 C 
ATOM      3  C   UNL     1     213.908 150.533 184.942  1.00  0.00     0.039 C 
ENDROOT
BRANCH   2   4
ATOM      4  C   UNL     1     211.378 152.831 183.068  1.00  0.00     0.032 C 
BRANCH   4   5
ATOM      5  C   UNL     1     211.359 154.358 183.273  1.00  0.00     0.034 C 
BRANCH   5   6
ATOM      6  C   UNL     1     212.572 155.032 182.661  1.00  0.00    -0.077 C 
ATOM      7  C   UNL     1     213.154 156.232 183.363  1.00  0.00     0.039 C 
ATOM      8  C   UNL     1     213.146 154.634 181.504  1.00  0.00    -0.023 CG0
ATOM      9  G   UNL     1     212.689 153.482 180.641  1.00  0.00     0.000 G0
ENDBRANCH   5   6
ENDBRANCH   4   5
ENDBRANCH   2   4
BRANCH   1  10
ATOM     10  C   UNL     1     213.564 150.757 182.368  1.00  0.00     0.111 C 
BRANCH  10  11
ATOM     11  C   UNL     1     214.366 151.808 181.640  1.00  0.00     0.163 C 
ATOM     12  O   UNL     1     215.494 152.124 182.108  1.00  0.00    -0.294 OA
BRANCH  11  13
ATOM     13  C   UNL     1     213.838 152.507 180.427  1.00  0.00    -0.002 C 
ATOM     14  C   UNL     1     214.311 152.230 179.174  1.00  0.00    -0.069 C 
ATOM     15  C   UNL     1     213.800 152.969 177.957  1.00  0.00     0.039 C 
ATOM     16  C   UNL     1     215.343 151.150 178.938  1.00  0.00     0.039 C 
BRANCH  13  17
ATOM     17  C   UNL     1     212.697 153.487 180.637  1.00  0.00     0.066 CG0
ATOM     18  G   UNL     1     213.155 154.624 181.518  1.00  0.00     0.000 G0
ENDBRANCH  13  17
ENDBRANCH  11  13
ENDBRANCH  10  11
ENDBRANCH   1  10
TORSDOF 0
ENDMDL
MODEL 8
REMARK VINA RESULT:    -4.519      1.597      2.121
REMARK INTER + INTRA:          -5.348
REMARK INTER:                  -6.077
REMARK INTRA:                   0.728
REMARK UNBOUND:                 1.019
REMARK SMILES CC1=CCC(=C(C)C)C(=O)CC(C)=CCC1
REMARK SMILES IDX 12 1 14 2 13 3 15 4 16 5 2 6 1 7 3 8 11 10 9 11 10 12 5 13
REMARK SMILES IDX 6 14 7 15 8 16 4 17
REMARK H PARENT
REMARK Flexibility Score: 60.00
ROOT
ATOM      1  C   UNL     1     214.353 154.255 180.020  1.00  0.00    -0.070 C 
ATOM      2  C   UNL     1     214.758 153.380 179.070  1.00  0.00    -0.027 C 
ATOM      3  C   UNL     1     213.674 155.521 179.556  1.00  0.00     0.039 C 
ENDROOT
BRANCH   2   4
ATOM      4  C   UNL     1     215.358 152.015 179.310  1.00  0.00     0.032 C 
BRANCH   4   5
ATOM      5  C   UNL     1     214.498 150.879 178.722  1.00  0.00     0.034 C 
BRANCH   5   6
ATOM      6  C   UNL     1     213.069 150.924 179.227  1.00  0.00    -0.077 C 
ATOM      7  C   UNL     1     211.961 151.127 178.224  1.00  0.00     0.039 C 
ATOM      8  C   UNL     1     212.732 150.819 180.532  1.00  0.00    -0.023 CG0
ATOM      9  G   UNL     1     213.695 150.648 181.682  1.00  0.00     0.000 G0
ENDBRANCH   5   6
ENDBRANCH   4   5
ENDBRANCH   2   4
BRANCH   1  10
ATOM     10  C   UNL     1     214.485 154.002 181.513  1.00  0.00     0.111 C 
BRANCH  10  11
ATOM     11  C   UNL     1     213.337 153.176 182.039  1.00  0.00     0.163 C 
ATOM     12  O   UNL     1     212.178 153.671 181.993  1.00  0.00    -0.294 OA
BRANCH  11  13
ATOM     13  C   UNL     1     213.548 151.826 182.650  1.00  0.00    -0.002 C 
ATOM     14  C   UNL     1     213.559 151.645 184.006  1.00  0.00    -0.069 C 
ATOM     15  C   UNL     1     213.812 150.284 184.617  1.00  0.00     0.039 C 
ATOM     16  C   UNL     1     213.286 152.785 184.960  1.00  0.00     0.039 C 
BRANCH  13  17
ATOM     17  C   UNL     1     213.676 150.650 181.699  1.00  0.00     0.066 CG0
ATOM     18  G   UNL     1     212.740 150.834 180.529  1.00  0.00     0.000 G0
ENDBRANCH  13  17
ENDBRANCH  11  13
ENDBRANCH  10  11
ENDBRANCH   1  10
TORSDOF 0
ENDMDL
MODEL 9
REMARK VINA RESULT:    -4.287      2.320      4.465
REMARK INTER + INTRA:          -5.021
REMARK INTER:                  -5.514
REMARK INTRA:                   0.493
REMARK UNBOUND:                 1.019
REMARK SMILES CC1=CCC(=C(C)C)C(=O)CC(C)=CCC1
REMARK SMILES IDX 12 1 14 2 13 3 15 4 16 5 2 6 1 7 3 8 11 10 9 11 10 12 5 13
REMARK SMILES IDX 6 14 7 15 8 16 4 17
REMARK H PARENT
REMARK Flexibility Score: 60.00
ROOT
ATOM      1  C   UNL     1     212.453 153.918 183.152  1.00  0.00    -0.070 C 
ATOM      2  C   UNL     1     212.717 155.239 183.287  1.00  0.00    -0.027 C 
ATOM      3  C   UNL     1     212.482 153.071 184.400  1.00  0.00     0.039 C 
ENDROOT
BRANCH   2   4
ATOM      4  C   UNL     1     212.638 156.282 182.199  1.00  0.00     0.032 C 
BRANCH   4   5
ATOM      5  C   UNL     1     213.937 156.378 181.375  1.00  0.00     0.034 C 
BRANCH   5   6
ATOM      6  C   UNL     1     213.703 156.098 179.903  1.00  0.00    -0.077 C 
ATOM      7  C   UNL     1     212.978 157.136 179.084  1.00  0.00     0.039 C 
ATOM      8  C   UNL     1     214.084 154.957 179.287  1.00  0.00    -0.023 CG0
ATOM      9  G   UNL     1     214.786 153.791 179.942  1.00  0.00     0.000 G0
ENDBRANCH   5   6
ENDBRANCH   4   5
ENDBRANCH   2   4
BRANCH   1  10
ATOM     10  C   UNL     1     212.067 153.264 181.835  1.00  0.00     0.111 C 
BRANCH  10  11
ATOM     11  C   UNL     1     213.158 152.355 181.326  1.00  0.00     0.163 C 
ATOM     12  O   UNL     1     213.518 151.392 182.058  1.00  0.00    -0.294 OA
BRANCH  11  13
ATOM     13  C   UNL     1     213.846 152.597 180.020  1.00  0.00    -0.002 C 
ATOM     14  C   UNL     1     213.591 151.827 178.919  1.00  0.00    -0.069 C 
ATOM     15  C   UNL     1     214.319 152.053 177.612  1.00  0.00     0.039 C 
ATOM     16  C   UNL     1     212.546 150.734 178.942  1.00  0.00     0.039 C 
BRANCH  13  17
ATOM     17  C   UNL     1     214.787 153.786 179.946  1.00  0.00     0.066 CG0
ATOM     18  G   UNL     1     214.085 154.955 179.297  1.00  0.00     0.000 G0
ENDBRANCH  13  17
ENDBRANCH  11  13
ENDBRANCH  10  11
ENDBRANCH   1  10
TORSDOF 0
ENDMDL
