MODEL 1
REMARK VINA RESULT:    -4.902      0.000      0.000
REMARK INTER + INTRA:          -7.874
REMARK INTER:                  -6.621
REMARK INTRA:                  -1.252
REMARK UNBOUND:                -1.252
REMARK SMILES CC(=O)CCC=C(C)CCC=C(C)C
REMARK SMILES IDX 7 1 6 2 8 3 9 4 10 5 11 6 13 7 12 8 14 9 5 10 4 11 2 12 3 13
REMARK SMILES IDX 1 14
REMARK H PARENT
REMARK Flexibility Score: inf
ROOT
ATOM      1  C   UNL     1     137.674 185.983 191.563  1.00  0.00    -0.077 C 
ATOM      2  C   UNL     1     136.770 186.772 192.187  1.00  0.00    -0.028 C 
ATOM      3  C   UNL     1     138.747 186.644 190.737  1.00  0.00     0.039 C 
ENDROOT
BRANCH   1   4
ATOM      4  C   UNL     1     137.676 184.469 191.687  1.00  0.00     0.034 C 
BRANCH   4   5
ATOM      5  C   UNL     1     137.523 183.783 190.322  1.00  0.00     0.032 C 
BRANCH   5   6
ATOM      6  C   UNL     1     136.212 184.134 189.659  1.00  0.00    -0.028 C 
ATOM      7  C   UNL     1     136.139 182.031 188.301  1.00  0.00     0.039 C 
ATOM      8  C   UNL     1     135.565 183.345 188.774  1.00  0.00    -0.080 C 
ATOM      9  C   UNL     1     134.236 183.811 188.237  1.00  0.00     0.039 C 
ENDBRANCH   5   6
ENDBRANCH   4   5
ENDBRANCH   1   4
BRANCH   2  10
ATOM     10  C   UNL     1     135.591 186.271 192.989  1.00  0.00     0.035 C 
BRANCH  10  11
ATOM     11  C   UNL     1     134.289 186.337 192.181  1.00  0.00     0.079 C 
BRANCH  11  12
ATOM     12  C   UNL     1     133.626 184.989 192.080  1.00  0.00     0.130 C 
ATOM     13  O   UNL     1     132.579 184.871 191.460  1.00  0.00    -0.300 OA
ATOM     14  C   UNL     1     134.233 183.793 192.749  1.00  0.00     0.087 C 
ENDBRANCH  11  12
ENDBRANCH  10  11
ENDBRANCH   2  10
TORSDOF 6
ENDMDL
MODEL 2
REMARK VINA RESULT:    -4.612      2.633      4.945
REMARK INTER + INTRA:          -7.482
REMARK INTER:                  -6.904
REMARK INTRA:                  -0.578
REMARK UNBOUND:                -1.252
REMARK SMILES CC(=O)CCC=C(C)CCC=C(C)C
REMARK SMILES IDX 7 1 6 2 8 3 9 4 10 5 11 6 13 7 12 8 14 9 5 10 4 11 2 12 3 13
REMARK SMILES IDX 1 14
REMARK H PARENT
REMARK Flexibility Score: inf
ROOT
ATOM      1  C   UNL     1     135.808 183.029 188.681  1.00  0.00    -0.077 C 
ATOM      2  C   UNL     1     136.762 183.245 189.616  1.00  0.00    -0.028 C 
ATOM      3  C   UNL     1     135.844 181.734 187.912  1.00  0.00     0.039 C 
ENDROOT
BRANCH   1   4
ATOM      4  C   UNL     1     134.686 184.015 188.402  1.00  0.00     0.034 C 
BRANCH   4   5
ATOM      5  C   UNL     1     133.489 183.339 187.717  1.00  0.00     0.032 C 
BRANCH   5   6
ATOM      6  C   UNL     1     133.181 183.964 186.377  1.00  0.00    -0.028 C 
ATOM      7  C   UNL     1     133.616 181.853 185.100  1.00  0.00     0.039 C 
ATOM      8  C   UNL     1     133.204 183.303 185.199  1.00  0.00    -0.080 C 
ATOM      9  C   UNL     1     132.822 184.052 183.948  1.00  0.00     0.039 C 
ENDBRANCH   5   6
ENDBRANCH   4   5
ENDBRANCH   1   4
BRANCH   2  10
ATOM     10  C   UNL     1     136.914 184.516 190.419  1.00  0.00     0.035 C 
BRANCH  10  11
ATOM     11  C   UNL     1     138.389 184.846 190.679  1.00  0.00     0.079 C 
BRANCH  11  12
ATOM     12  C   UNL     1     138.650 186.328 190.612  1.00  0.00     0.130 C 
ATOM     13  O   UNL     1     137.815 187.112 191.040  1.00  0.00    -0.300 OA
ATOM     14  C   UNL     1     139.918 186.849 190.007  1.00  0.00     0.087 C 
ENDBRANCH  11  12
ENDBRANCH  10  11
ENDBRANCH   2  10
TORSDOF 6
ENDMDL
MODEL 3
REMARK VINA RESULT:    -4.527      2.053      4.512
REMARK INTER + INTRA:          -7.368
REMARK INTER:                  -6.096
REMARK INTRA:                  -1.272
REMARK UNBOUND:                -1.252
REMARK SMILES CC(=O)CCC=C(C)CCC=C(C)C
REMARK SMILES IDX 7 1 6 2 8 3 9 4 10 5 11 6 13 7 12 8 14 9 5 10 4 11 2 12 3 13
REMARK SMILES IDX 1 14
REMARK H PARENT
REMARK Flexibility Score: inf
ROOT
ATOM      1  C   UNL     1     138.244 185.858 190.553  1.00  0.00    -0.077 C 
ATOM      2  C   UNL     1     138.331 184.522 190.354  1.00  0.00    -0.028 C 
ATOM      3  C   UNL     1     139.500 186.681 190.423  1.00  0.00     0.039 C 
ENDROOT
BRANCH   1   4
ATOM      4  C   UNL     1     136.935 186.564 190.865  1.00  0.00     0.034 C 
BRANCH   4   5
ATOM      5  C   UNL     1     136.843 186.972 192.342  1.00  0.00     0.032 C 
BRANCH   5   6
ATOM      6  C   UNL     1     136.072 185.962 193.158  1.00  0.00    -0.028 C 
ATOM      7  C   UNL     1     138.134 184.867 194.066  1.00  0.00     0.039 C 
ATOM      8  C   UNL     1     136.637 185.032 193.959  1.00  0.00    -0.080 C 
ATOM      9  C   UNL     1     135.732 184.125 194.753  1.00  0.00     0.039 C 
ENDBRANCH   5   6
ENDBRANCH   4   5
ENDBRANCH   1   4
BRANCH   2  10
ATOM     10  C   UNL     1     137.189 183.547 190.518  1.00  0.00     0.035 C 
BRANCH  10  11
ATOM     11  C   UNL     1     137.072 182.607 189.312  1.00  0.00     0.079 C 
BRANCH  11  12
ATOM     12  C   UNL     1     135.832 182.887 188.504  1.00  0.00     0.130 C 
ATOM     13  O   UNL     1     135.532 182.151 187.576  1.00  0.00    -0.300 OA
ATOM     14  C   UNL     1     134.973 184.074 188.820  1.00  0.00     0.087 C 
ENDBRANCH  11  12
ENDBRANCH  10  11
ENDBRANCH   2  10
TORSDOF 6
ENDMDL
MODEL 4
REMARK VINA RESULT:    -4.510      1.881      3.120
REMARK INTER + INTRA:          -7.344
REMARK INTER:                  -6.723
REMARK INTRA:                  -0.621
REMARK UNBOUND:                -1.252
REMARK SMILES CC(=O)CCC=C(C)CCC=C(C)C
REMARK SMILES IDX 7 1 6 2 8 3 9 4 10 5 11 6 13 7 12 8 14 9 5 10 4 11 2 12 3 13
REMARK SMILES IDX 1 14
REMARK H PARENT
REMARK Flexibility Score: inf
ROOT
ATOM      1  C   UNL     1     136.761 184.160 189.924  1.00  0.00    -0.077 C 
ATOM      2  C   UNL     1     137.401 185.084 190.677  1.00  0.00    -0.028 C 
ATOM      3  C   UNL     1     137.461 182.853 189.653  1.00  0.00     0.039 C 
ENDROOT
BRANCH   1   4
ATOM      4  C   UNL     1     135.361 184.367 189.374  1.00  0.00     0.034 C 
BRANCH   4   5
ATOM      5  C   UNL     1     134.981 183.283 188.354  1.00  0.00     0.032 C 
BRANCH   5   6
ATOM      6  C   UNL     1     133.816 183.706 187.491  1.00  0.00    -0.028 C 
ATOM      7  C   UNL     1     134.265 181.975 185.738  1.00  0.00     0.039 C 
ATOM      8  C   UNL     1     133.464 183.109 186.331  1.00  0.00    -0.080 C 
ATOM      9  C   UNL     1     132.242 183.613 185.607  1.00  0.00     0.039 C 
ENDBRANCH   5   6
ENDBRANCH   4   5
ENDBRANCH   1   4
BRANCH   2  10
ATOM     10  C   UNL     1     136.876 186.468 190.979  1.00  0.00     0.035 C 
BRANCH  10  11
ATOM     11  C   UNL     1     136.846 186.743 192.488  1.00  0.00     0.079 C 
BRANCH  11  12
ATOM     12  C   UNL     1     135.544 186.308 193.109  1.00  0.00     0.130 C 
ATOM     13  O   UNL     1     135.525 185.916 194.267  1.00  0.00    -0.300 OA
ATOM     14  C   UNL     1     134.276 186.338 192.311  1.00  0.00     0.087 C 
ENDBRANCH  11  12
ENDBRANCH  10  11
ENDBRANCH   2  10
TORSDOF 6
ENDMDL
MODEL 5
REMARK VINA RESULT:    -4.478      1.827      4.538
REMARK INTER + INTRA:          -7.301
REMARK INTER:                  -5.766
REMARK INTRA:                  -1.535
REMARK UNBOUND:                -1.252
REMARK SMILES CC(=O)CCC=C(C)CCC=C(C)C
REMARK SMILES IDX 7 1 6 2 8 3 9 4 10 5 11 6 13 7 12 8 14 9 5 10 4 11 2 12 3 13
REMARK SMILES IDX 1 14
REMARK H PARENT
REMARK Flexibility Score: inf
ROOT
ATOM      1  C   UNL     1     136.380 183.178 189.256  1.00  0.00    -0.077 C 
ATOM      2  C   UNL     1     137.614 183.273 189.801  1.00  0.00    -0.028 C 
ATOM      3  C   UNL     1     135.975 181.866 188.635  1.00  0.00     0.039 C 
ENDROOT
BRANCH   1   4
ATOM      4  C   UNL     1     135.376 184.318 189.277  1.00  0.00     0.034 C 
BRANCH   4   5
ATOM      5  C   UNL     1     134.115 183.955 190.074  1.00  0.00     0.032 C 
BRANCH   5   6
ATOM      6  C   UNL     1     134.429 183.664 191.522  1.00  0.00    -0.028 C 
ATOM      7  C   UNL     1     133.889 185.988 192.283  1.00  0.00     0.039 C 
ATOM      8  C   UNL     1     134.303 184.557 192.528  1.00  0.00    -0.080 C 
ATOM      9  C   UNL     1     134.606 184.102 193.933  1.00  0.00     0.039 C 
ENDBRANCH   5   6
ENDBRANCH   4   5
ENDBRANCH   1   4
BRANCH   2  10
ATOM     10  C   UNL     1     138.203 184.532 190.394  1.00  0.00     0.035 C 
BRANCH  10  11
ATOM     11  C   UNL     1     137.948 184.617 191.904  1.00  0.00     0.079 C 
BRANCH  11  12
ATOM     12  C   UNL     1     137.617 186.022 192.336  1.00  0.00     0.130 C 
ATOM     13  O   UNL     1     137.625 186.310 193.524  1.00  0.00    -0.300 OA
ATOM     14  C   UNL     1     137.263 187.064 191.319  1.00  0.00     0.087 C 
ENDBRANCH  11  12
ENDBRANCH  10  11
ENDBRANCH   2  10
TORSDOF 6
ENDMDL
MODEL 6
REMARK VINA RESULT:    -4.466      2.002      3.865
REMARK INTER + INTRA:          -7.284
REMARK INTER:                  -5.547
REMARK INTRA:                  -1.738
REMARK UNBOUND:                -1.252
REMARK SMILES CC(=O)CCC=C(C)CCC=C(C)C
REMARK SMILES IDX 7 1 6 2 8 3 9 4 10 5 11 6 13 7 12 8 14 9 5 10 4 11 2 12 3 13
REMARK SMILES IDX 1 14
REMARK H PARENT
REMARK Flexibility Score: inf
ROOT
ATOM      1  C   UNL     1     133.538 184.858 192.247  1.00  0.00    -0.077 C 
ATOM      2  C   UNL     1     134.125 186.076 192.206  1.00  0.00    -0.028 C 
ATOM      3  C   UNL     1     132.101 184.745 191.805  1.00  0.00     0.039 C 
ENDROOT
BRANCH   1   4
ATOM      4  C   UNL     1     134.271 183.600 192.680  1.00  0.00     0.034 C 
BRANCH   4   5
ATOM      5  C   UNL     1     134.444 182.610 191.519  1.00  0.00     0.032 C 
BRANCH   5   6
ATOM      6  C   UNL     1     135.861 182.595 190.999  1.00  0.00    -0.028 C 
ATOM      7  C   UNL     1     135.343 184.081 189.050  1.00  0.00     0.039 C 
ATOM      8  C   UNL     1     136.286 183.275 189.911  1.00  0.00    -0.080 C 
ATOM      9  C   UNL     1     137.746 183.202 189.546  1.00  0.00     0.039 C 
ENDBRANCH   5   6
ENDBRANCH   4   5
ENDBRANCH   1   4
BRANCH   2  10
ATOM     10  C   UNL     1     135.527 186.377 192.682  1.00  0.00     0.035 C 
BRANCH  10  11
ATOM     11  C   UNL     1     136.463 186.700 191.511  1.00  0.00     0.079 C 
BRANCH  11  12
ATOM     12  C   UNL     1     137.844 186.137 191.729  1.00  0.00     0.130 C 
ATOM     13  O   UNL     1     138.768 186.502 191.017  1.00  0.00    -0.300 OA
ATOM     14  C   UNL     1     138.087 185.119 192.801  1.00  0.00     0.087 C 
ENDBRANCH  11  12
ENDBRANCH  10  11
ENDBRANCH   2  10
TORSDOF 6
ENDMDL
MODEL 7
REMARK VINA RESULT:    -4.366      2.521      4.242
REMARK INTER + INTRA:          -7.150
REMARK INTER:                  -6.538
REMARK INTRA:                  -0.612
REMARK UNBOUND:                -1.252
REMARK SMILES CC(=O)CCC=C(C)CCC=C(C)C
REMARK SMILES IDX 7 1 6 2 8 3 9 4 10 5 11 6 13 7 12 8 14 9 5 10 4 11 2 12 3 13
REMARK SMILES IDX 1 14
REMARK H PARENT
REMARK Flexibility Score: inf
ROOT
ATOM      1  C   UNL     1     136.525 183.445 189.426  1.00  0.00    -0.077 C 
ATOM      2  C   UNL     1     136.839 184.240 190.476  1.00  0.00    -0.028 C 
ATOM      3  C   UNL     1     137.464 182.318 189.080  1.00  0.00     0.039 C 
ENDROOT
BRANCH   1   4
ATOM      4  C   UNL     1     135.255 183.616 188.610  1.00  0.00     0.034 C 
BRANCH   4   5
ATOM      5  C   UNL     1     134.733 182.273 188.078  1.00  0.00     0.032 C 
BRANCH   5   6
ATOM      6  C   UNL     1     134.563 182.291 186.578  1.00  0.00    -0.028 C 
ATOM      7  C   UNL     1     136.131 180.373 186.207  1.00  0.00     0.039 C 
ATOM      8  C   UNL     1     135.159 181.425 185.729  1.00  0.00    -0.080 C 
ATOM      9  C   UNL     1     134.850 181.536 184.258  1.00  0.00     0.039 C 
ENDBRANCH   5   6
ENDBRANCH   4   5
ENDBRANCH   1   4
BRANCH   2  10
ATOM     10  C   UNL     1     136.049 185.453 190.908  1.00  0.00     0.035 C 
BRANCH  10  11
ATOM     11  C   UNL     1     136.872 186.740 190.772  1.00  0.00     0.079 C 
BRANCH  11  12
ATOM     12  C   UNL     1     138.293 186.546 191.233  1.00  0.00     0.130 C 
ATOM     13  O   UNL     1     138.520 186.263 192.400  1.00  0.00    -0.300 OA
ATOM     14  C   UNL     1     139.431 186.716 190.273  1.00  0.00     0.087 C 
ENDBRANCH  11  12
ENDBRANCH  10  11
ENDBRANCH   2  10
TORSDOF 6
ENDMDL
MODEL 8
REMARK VINA RESULT:    -4.290      2.687      4.844
REMARK INTER + INTRA:          -7.048
REMARK INTER:                  -6.443
REMARK INTRA:                  -0.604
REMARK UNBOUND:                -1.252
REMARK SMILES CC(=O)CCC=C(C)CCC=C(C)C
REMARK SMILES IDX 7 1 6 2 8 3 9 4 10 5 11 6 13 7 12 8 14 9 5 10 4 11 2 12 3 13
REMARK SMILES IDX 1 14
REMARK H PARENT
REMARK Flexibility Score: inf
ROOT
ATOM      1  C   UNL     1     135.838 182.970 188.686  1.00  0.00    -0.077 C 
ATOM      2  C   UNL     1     136.756 183.086 189.672  1.00  0.00    -0.028 C 
ATOM      3  C   UNL     1     135.878 181.741 187.814  1.00  0.00     0.039 C 
ENDROOT
BRANCH   1   4
ATOM      4  C   UNL     1     134.750 184.003 188.443  1.00  0.00     0.034 C 
BRANCH   4   5
ATOM      5  C   UNL     1     133.832 183.604 187.278  1.00  0.00     0.032 C 
BRANCH   5   6
ATOM      6  C   UNL     1     132.408 184.051 187.506  1.00  0.00    -0.028 C 
ATOM      7  C   UNL     1     131.808 182.028 188.855  1.00  0.00     0.039 C 
ATOM      8  C   UNL     1     131.498 183.370 188.237  1.00  0.00    -0.080 C 
ATOM      9  C   UNL     1     130.128 183.971 188.417  1.00  0.00     0.039 C 
ENDBRANCH   5   6
ENDBRANCH   4   5
ENDBRANCH   1   4
BRANCH   2  10
ATOM     10  C   UNL     1     136.902 184.282 190.583  1.00  0.00     0.035 C 
BRANCH  10  11
ATOM     11  C   UNL     1     138.346 184.799 190.610  1.00  0.00     0.079 C 
BRANCH  11  12
ATOM     12  C   UNL     1     138.400 186.300 190.723  1.00  0.00     0.130 C 
ATOM     13  O   UNL     1     139.405 186.900 190.372  1.00  0.00    -0.300 OA
ATOM     14  C   UNL     1     137.235 187.061 191.279  1.00  0.00     0.087 C 
ENDBRANCH  11  12
ENDBRANCH  10  11
ENDBRANCH   2  10
TORSDOF 6
ENDMDL
MODEL 9
REMARK VINA RESULT:    -4.267      1.827      3.998
REMARK INTER + INTRA:          -7.016
REMARK INTER:                  -5.636
REMARK INTRA:                  -1.381
REMARK UNBOUND:                -1.252
REMARK SMILES CC(=O)CCC=C(C)CCC=C(C)C
REMARK SMILES IDX 7 1 6 2 8 3 9 4 10 5 11 6 13 7 12 8 14 9 5 10 4 11 2 12 3 13
REMARK SMILES IDX 1 14
REMARK H PARENT
REMARK Flexibility Score: inf
ROOT
ATOM      1  C   UNL     1     137.433 185.507 192.719  1.00  0.00    -0.077 C 
ATOM      2  C   UNL     1     137.762 184.657 191.718  1.00  0.00    -0.028 C 
ATOM      3  C   UNL     1     138.170 185.385 194.028  1.00  0.00     0.039 C 
ENDROOT
BRANCH   1   4
ATOM      4  C   UNL     1     136.385 186.596 192.568  1.00  0.00     0.034 C 
BRANCH   4   5
ATOM      5  C   UNL     1     135.090 186.252 193.317  1.00  0.00     0.032 C 
BRANCH   5   6
ATOM      6  C   UNL     1     133.982 185.852 192.371  1.00  0.00    -0.028 C 
ATOM      7  C   UNL     1     134.336 183.398 192.722  1.00  0.00     0.039 C 
ATOM      8  C   UNL     1     133.612 184.578 192.118  1.00  0.00    -0.080 C 
ATOM      9  C   UNL     1     132.451 184.340 191.188  1.00  0.00     0.039 C 
ENDBRANCH   5   6
ENDBRANCH   4   5
ENDBRANCH   1   4
BRANCH   2  10
ATOM     10  C   UNL     1     137.074 184.595 190.375  1.00  0.00     0.035 C 
BRANCH  10  11
ATOM     11  C   UNL     1     137.183 183.199 189.749  1.00  0.00     0.079 C 
BRANCH  11  12
ATOM     12  C   UNL     1     136.065 182.935 188.775  1.00  0.00     0.130 C 
ATOM     13  O   UNL     1     136.031 181.879 188.160  1.00  0.00    -0.300 OA
ATOM     14  C   UNL     1     135.002 183.966 188.542  1.00  0.00     0.087 C 
ENDBRANCH  11  12
ENDBRANCH  10  11
ENDBRANCH   2  10
TORSDOF 6
ENDMDL
