MODEL 1
REMARK VINA RESULT:    -6.575      0.000      0.000
REMARK INTER + INTRA:         -12.938
REMARK INTER:                 -11.571
REMARK INTRA:                  -1.367
REMARK UNBOUND:                -1.367
REMARK SMILES CCCCCCC=CCCCCCCCC(=O)[O-]
REMARK SMILES IDX 10 1 11 2 12 3 13 4 14 5 15 6 16 7 17 8 18 9 9 10 8 11 7 12
REMARK SMILES IDX 6 13 5 14 4 15 3 16 2 17 1 18
REMARK H PARENT
REMARK Flexibility Score: inf
ROOT
ATOM      1  C   UNL     1     130.235 127.429 126.408  1.00  0.00     0.004 C 
ENDROOT
BRANCH   1   2
ATOM      2  C   UNL     1     130.710 127.484 124.941  1.00  0.00     0.000 C 
BRANCH   2   3
ATOM      3  C   UNL     1     129.611 127.802 123.913  1.00  0.00     0.000 C 
BRANCH   3   4
ATOM      4  C   UNL     1     128.409 126.846 124.009  1.00  0.00     0.000 C 
BRANCH   4   5
ATOM      5  C   UNL     1     127.357 127.112 122.921  1.00  0.00     0.006 C 
BRANCH   5   6
ATOM      6  C   UNL     1     127.577 128.449 122.200  1.00  0.00     0.053 C 
BRANCH   6   7
ATOM      7  C   UNL     1     126.310 129.245 122.181  1.00  0.00     0.041 C 
ATOM      8  O   UNL     1     125.233 128.734 122.584  1.00  0.00    -0.550 OA
ATOM      9  O   UNL     1     126.328 130.570 121.764  1.00  0.00    -0.550 OA
ENDBRANCH   6   7
ENDBRANCH   5   6
ENDBRANCH   4   5
ENDBRANCH   3   4
ENDBRANCH   2   3
ENDBRANCH   1   2
BRANCH   1  10
ATOM     10  C   UNL     1     130.746 126.214 127.205  1.00  0.00     0.027 C 
BRANCH  10  11
ATOM     11  C   UNL     1     130.871 124.957 126.377  1.00  0.00    -0.031 C 
ATOM     12  C   UNL     1     129.927 124.006 126.250  1.00  0.00    -0.031 C 
BRANCH  12  13
ATOM     13  C   UNL     1     128.591 124.002 126.953  1.00  0.00     0.027 C 
BRANCH  13  14
ATOM     14  C   UNL     1     128.568 123.012 128.132  1.00  0.00     0.004 C 
BRANCH  14  15
ATOM     15  C   UNL     1     128.050 123.602 129.457  1.00  0.00     0.000 C 
BRANCH  15  16
ATOM     16  C   UNL     1     129.025 124.556 130.174  1.00  0.00    -0.000 C 
BRANCH  16  17
ATOM     17  C   UNL     1     128.996 124.434 131.713  1.00  0.00    -0.003 C 
ATOM     18  C   UNL     1     128.612 123.031 132.183  1.00  0.00     0.004 C 
ENDBRANCH  16  17
ENDBRANCH  15  16
ENDBRANCH  14  15
ENDBRANCH  13  14
ENDBRANCH  12  13
ENDBRANCH  10  11
ENDBRANCH   1  10
TORSDOF 13
ENDMDL
MODEL 2
REMARK VINA RESULT:    -6.568      3.850      7.757
REMARK INTER + INTRA:         -12.925
REMARK INTER:                 -11.680
REMARK INTRA:                  -1.245
REMARK UNBOUND:                -1.367
REMARK SMILES CCCCCCC=CCCCCCCCC(=O)[O-]
REMARK SMILES IDX 10 1 11 2 12 3 13 4 14 5 15 6 16 7 17 8 18 9 9 10 8 11 7 12
REMARK SMILES IDX 6 13 5 14 4 15 3 16 2 17 1 18
REMARK H PARENT
REMARK Flexibility Score: inf
ROOT
ATOM      1  C   UNL     1     129.352 126.040 127.547  1.00  0.00     0.004 C 
ENDROOT
BRANCH   1   2
ATOM      2  C   UNL     1     127.915 125.582 127.223  1.00  0.00     0.000 C 
BRANCH   2   3
ATOM      3  C   UNL     1     127.149 124.958 128.403  1.00  0.00     0.000 C 
BRANCH   3   4
ATOM      4  C   UNL     1     127.289 123.427 128.463  1.00  0.00     0.000 C 
BRANCH   4   5
ATOM      5  C   UNL     1     128.552 122.981 129.216  1.00  0.00     0.006 C 
BRANCH   5   6
ATOM      6  C   UNL     1     128.267 122.599 130.675  1.00  0.00     0.053 C 
BRANCH   6   7
ATOM      7  C   UNL     1     128.617 123.731 131.588  1.00  0.00     0.041 C 
ATOM      8  O   UNL     1     128.285 123.693 132.802  1.00  0.00    -0.550 OA
ATOM      9  O   UNL     1     129.354 124.808 131.110  1.00  0.00    -0.550 OA
ENDBRANCH   6   7
ENDBRANCH   5   6
ENDBRANCH   4   5
ENDBRANCH   3   4
ENDBRANCH   2   3
ENDBRANCH   1   2
BRANCH   1  10
ATOM     10  C   UNL     1     130.460 125.166 126.931  1.00  0.00     0.027 C 
BRANCH  10  11
ATOM     11  C   UNL     1     131.562 125.961 126.272  1.00  0.00    -0.031 C 
ATOM     12  C   UNL     1     131.537 126.440 125.014  1.00  0.00    -0.031 C 
BRANCH  12  13
ATOM     13  C   UNL     1     130.422 126.226 124.019  1.00  0.00     0.027 C 
BRANCH  13  14
ATOM     14  C   UNL     1     129.422 127.397 124.021  1.00  0.00     0.004 C 
BRANCH  14  15
ATOM     15  C   UNL     1     127.954 126.988 123.799  1.00  0.00     0.000 C 
BRANCH  15  16
ATOM     16  C   UNL     1     127.406 127.253 122.384  1.00  0.00    -0.000 C 
BRANCH  16  17
ATOM     17  C   UNL     1     127.025 128.727 122.129  1.00  0.00    -0.003 C 
ATOM     18  C   UNL     1     125.528 128.983 122.293  1.00  0.00     0.004 C 
ENDBRANCH  16  17
ENDBRANCH  15  16
ENDBRANCH  14  15
ENDBRANCH  13  14
ENDBRANCH  12  13
ENDBRANCH  10  11
ENDBRANCH   1  10
TORSDOF 13
ENDMDL
MODEL 3
REMARK VINA RESULT:    -5.811      1.351      2.229
REMARK INTER + INTRA:         -11.594
REMARK INTER:                 -10.293
REMARK INTRA:                  -1.301
REMARK UNBOUND:                -1.367
REMARK SMILES CCCCCCC=CCCCCCCCC(=O)[O-]
REMARK SMILES IDX 10 1 11 2 12 3 13 4 14 5 15 6 16 7 17 8 18 9 9 10 8 11 7 12
REMARK SMILES IDX 6 13 5 14 4 15 3 16 2 17 1 18
REMARK H PARENT
REMARK Flexibility Score: inf
ROOT
ATOM      1  C   UNL     1     130.691 124.880 126.442  1.00  0.00     0.004 C 
ENDROOT
BRANCH   1   2
ATOM      2  C   UNL     1     131.652 126.042 126.115  1.00  0.00     0.000 C 
BRANCH   2   3
ATOM      3  C   UNL     1     131.007 127.235 125.388  1.00  0.00     0.000 C 
BRANCH   3   4
ATOM      4  C   UNL     1     130.275 126.824 124.099  1.00  0.00     0.000 C 
BRANCH   4   5
ATOM      5  C   UNL     1     129.190 127.833 123.691  1.00  0.00     0.006 C 
BRANCH   5   6
ATOM      6  C   UNL     1     127.881 127.155 123.264  1.00  0.00     0.053 C 
BRANCH   6   7
ATOM      7  C   UNL     1     127.112 128.042 122.337  1.00  0.00     0.041 C 
ATOM      8  O   UNL     1     127.710 128.910 121.648  1.00  0.00    -0.550 OA
ATOM      9  O   UNL     1     125.740 127.880 122.199  1.00  0.00    -0.550 OA
ENDBRANCH   6   7
ENDBRANCH   5   6
ENDBRANCH   4   5
ENDBRANCH   3   4
ENDBRANCH   2   3
ENDBRANCH   1   2
BRANCH   1  10
ATOM     10  C   UNL     1     129.721 125.157 127.606  1.00  0.00     0.027 C 
BRANCH  10  11
ATOM     11  C   UNL     1     128.423 125.796 127.173  1.00  0.00    -0.031 C 
ATOM     12  C   UNL     1     127.244 125.682 127.812  1.00  0.00    -0.031 C 
BRANCH  12  13
ATOM     13  C   UNL     1     126.997 124.855 129.051  1.00  0.00     0.027 C 
BRANCH  13  14
ATOM     14  C   UNL     1     126.409 123.474 128.708  1.00  0.00     0.004 C 
BRANCH  14  15
ATOM     15  C   UNL     1     127.221 122.279 129.243  1.00  0.00     0.000 C 
BRANCH  15  16
ATOM     16  C   UNL     1     128.508 122.650 130.005  1.00  0.00    -0.000 C 
BRANCH  16  17
ATOM     17  C   UNL     1     128.379 122.534 131.539  1.00  0.00    -0.003 C 
ATOM     18  C   UNL     1     128.670 123.853 132.254  1.00  0.00     0.004 C 
ENDBRANCH  16  17
ENDBRANCH  15  16
ENDBRANCH  14  15
ENDBRANCH  13  14
ENDBRANCH  12  13
ENDBRANCH  10  11
ENDBRANCH   1  10
TORSDOF 13
ENDMDL
MODEL 4
REMARK VINA RESULT:    -5.617      0.965      2.261
REMARK INTER + INTRA:         -11.252
REMARK INTER:                 -10.027
REMARK INTRA:                  -1.225
REMARK UNBOUND:                -1.367
REMARK SMILES CCCCCCC=CCCCCCCCC(=O)[O-]
REMARK SMILES IDX 10 1 11 2 12 3 13 4 14 5 15 6 16 7 17 8 18 9 9 10 8 11 7 12
REMARK SMILES IDX 6 13 5 14 4 15 3 16 2 17 1 18
REMARK H PARENT
REMARK Flexibility Score: inf
ROOT
ATOM      1  C   UNL     1     129.950 126.874 124.005  1.00  0.00     0.004 C 
ENDROOT
BRANCH   1   2
ATOM      2  C   UNL     1     128.558 126.578 124.601  1.00  0.00     0.000 C 
BRANCH   2   3
ATOM      3  C   UNL     1     127.370 127.022 123.729  1.00  0.00     0.000 C 
BRANCH   3   4
ATOM      4  C   UNL     1     127.585 126.733 122.234  1.00  0.00     0.000 C 
BRANCH   4   5
ATOM      5  C   UNL     1     126.819 127.711 121.329  1.00  0.00     0.006 C 
BRANCH   5   6
ATOM      6  C   UNL     1     127.420 129.122 121.341  1.00  0.00     0.053 C 
BRANCH   6   7
ATOM      7  C   UNL     1     126.420 130.111 121.850  1.00  0.00     0.041 C 
ATOM      8  O   UNL     1     125.448 129.727 122.552  1.00  0.00    -0.550 OA
ATOM      9  O   UNL     1     126.586 131.466 121.589  1.00  0.00    -0.550 OA
ENDBRANCH   6   7
ENDBRANCH   5   6
ENDBRANCH   4   5
ENDBRANCH   3   4
ENDBRANCH   2   3
ENDBRANCH   1   2
BRANCH   1  10
ATOM     10  C   UNL     1     130.875 127.704 124.915  1.00  0.00     0.027 C 
BRANCH  10  11
ATOM     11  C   UNL     1     130.348 127.874 126.320  1.00  0.00    -0.031 C 
ATOM     12  C   UNL     1     130.498 126.990 127.324  1.00  0.00    -0.031 C 
BRANCH  12  13
ATOM     13  C   UNL     1     131.178 125.647 127.212  1.00  0.00     0.027 C 
BRANCH  13  14
ATOM     14  C   UNL     1     130.163 124.509 127.000  1.00  0.00     0.004 C 
BRANCH  14  15
ATOM     15  C   UNL     1     128.857 124.655 127.803  1.00  0.00     0.000 C 
BRANCH  15  16
ATOM     16  C   UNL     1     128.170 123.330 128.185  1.00  0.00    -0.000 C 
BRANCH  16  17
ATOM     17  C   UNL     1     128.475 122.863 129.625  1.00  0.00    -0.003 C 
ATOM     18  C   UNL     1     128.771 124.027 130.569  1.00  0.00     0.004 C 
ENDBRANCH  16  17
ENDBRANCH  15  16
ENDBRANCH  14  15
ENDBRANCH  13  14
ENDBRANCH  12  13
ENDBRANCH  10  11
ENDBRANCH   1  10
TORSDOF 13
ENDMDL
MODEL 5
REMARK VINA RESULT:    -5.527      3.431      5.627
REMARK INTER + INTRA:         -11.094
REMARK INTER:                 -10.414
REMARK INTRA:                  -0.680
REMARK UNBOUND:                -1.367
REMARK SMILES CCCCCCC=CCCCCCCCC(=O)[O-]
REMARK SMILES IDX 10 1 11 2 12 3 13 4 14 5 15 6 16 7 17 8 18 9 9 10 8 11 7 12
REMARK SMILES IDX 6 13 5 14 4 15 3 16 2 17 1 18
REMARK H PARENT
REMARK Flexibility Score: inf
ROOT
ATOM      1  C   UNL     1     126.286 128.957 122.120  1.00  0.00     0.004 C 
ENDROOT
BRANCH   1   2
ATOM      2  C   UNL     1     124.966 128.206 122.393  1.00  0.00     0.000 C 
BRANCH   2   3
ATOM      3  C   UNL     1     124.682 127.025 121.449  1.00  0.00     0.000 C 
BRANCH   3   4
ATOM      4  C   UNL     1     123.298 126.395 121.680  1.00  0.00     0.000 C 
BRANCH   4   5
ATOM      5  C   UNL     1     122.175 127.443 121.726  1.00  0.00     0.006 C 
BRANCH   5   6
ATOM      6  C   UNL     1     120.939 126.952 122.492  1.00  0.00     0.053 C 
BRANCH   6   7
ATOM      7  C   UNL     1     119.766 127.838 122.211  1.00  0.00     0.041 C 
ATOM      8  O   UNL     1     119.285 128.563 123.121  1.00  0.00    -0.550 OA
ATOM      9  O   UNL     1     119.232 127.898 120.930  1.00  0.00    -0.550 OA
ENDBRANCH   6   7
ENDBRANCH   5   6
ENDBRANCH   4   5
ENDBRANCH   3   4
ENDBRANCH   2   3
ENDBRANCH   1   2
BRANCH   1  10
ATOM     10  C   UNL     1     127.552 128.085 122.213  1.00  0.00     0.027 C 
BRANCH  10  11
ATOM     11  C   UNL     1     127.496 127.050 123.311  1.00  0.00    -0.031 C 
ATOM     12  C   UNL     1     128.479 126.791 124.193  1.00  0.00    -0.031 C 
BRANCH  12  13
ATOM     13  C   UNL     1     129.835 127.455 124.212  1.00  0.00     0.027 C 
BRANCH  13  14
ATOM     14  C   UNL     1     130.975 126.425 124.305  1.00  0.00     0.004 C 
BRANCH  14  15
ATOM     15  C   UNL     1     131.587 126.269 125.710  1.00  0.00     0.000 C 
BRANCH  15  16
ATOM     16  C   UNL     1     130.859 125.276 126.635  1.00  0.00    -0.000 C 
BRANCH  16  17
ATOM     17  C   UNL     1     129.929 125.951 127.665  1.00  0.00    -0.003 C 
ATOM     18  C   UNL     1     129.280 124.948 128.618  1.00  0.00     0.004 C 
ENDBRANCH  16  17
ENDBRANCH  15  16
ENDBRANCH  14  15
ENDBRANCH  13  14
ENDBRANCH  12  13
ENDBRANCH  10  11
ENDBRANCH   1  10
TORSDOF 13
ENDMDL
MODEL 6
REMARK VINA RESULT:    -5.317      1.750      3.721
REMARK INTER + INTRA:         -10.725
REMARK INTER:                  -9.091
REMARK INTRA:                  -1.633
REMARK UNBOUND:                -1.367
REMARK SMILES CCCCCCC=CCCCCCCCC(=O)[O-]
REMARK SMILES IDX 10 1 11 2 12 3 13 4 14 5 15 6 16 7 17 8 18 9 9 10 8 11 7 12
REMARK SMILES IDX 6 13 5 14 4 15 3 16 2 17 1 18
REMARK H PARENT
REMARK Flexibility Score: inf
ROOT
ATOM      1  C   UNL     1     127.567 125.651 127.358  1.00  0.00     0.004 C 
ENDROOT
BRANCH   1   2
ATOM      2  C   UNL     1     128.244 126.482 126.249  1.00  0.00     0.000 C 
BRANCH   2   3
ATOM      3  C   UNL     1     127.789 126.149 124.817  1.00  0.00     0.000 C 
BRANCH   3   4
ATOM      4  C   UNL     1     128.297 127.164 123.778  1.00  0.00     0.000 C 
BRANCH   4   5
ATOM      5  C   UNL     1     127.341 127.311 122.584  1.00  0.00     0.006 C 
BRANCH   5   6
ATOM      6  C   UNL     1     127.510 128.649 121.852  1.00  0.00     0.053 C 
BRANCH   6   7
ATOM      7  C   UNL     1     126.270 129.476 121.985  1.00  0.00     0.041 C 
ATOM      8  O   UNL     1     125.204 128.958 122.409  1.00  0.00    -0.550 OA
ATOM      9  O   UNL     1     126.303 130.832 121.685  1.00  0.00    -0.550 OA
ENDBRANCH   6   7
ENDBRANCH   5   6
ENDBRANCH   4   5
ENDBRANCH   3   4
ENDBRANCH   2   3
ENDBRANCH   1   2
BRANCH   1  10
ATOM     10  C   UNL     1     128.476 124.598 128.019  1.00  0.00     0.027 C 
BRANCH  10  11
ATOM     11  C   UNL     1     128.732 123.388 127.151  1.00  0.00    -0.031 C 
ATOM     12  C   UNL     1     129.785 123.225 126.329  1.00  0.00    -0.031 C 
BRANCH  12  13
ATOM     13  C   UNL     1     130.874 124.242 126.089  1.00  0.00     0.027 C 
BRANCH  13  14
ATOM     14  C   UNL     1     130.875 124.748 124.635  1.00  0.00     0.004 C 
BRANCH  14  15
ATOM     15  C   UNL     1     131.648 126.061 124.412  1.00  0.00     0.000 C 
BRANCH  15  16
ATOM     16  C   UNL     1     132.263 126.683 125.680  1.00  0.00    -0.000 C 
BRANCH  16  17
ATOM     17  C   UNL     1     131.482 127.902 126.217  1.00  0.00    -0.003 C 
ATOM     18  C   UNL     1     131.297 127.859 127.733  1.00  0.00     0.004 C 
ENDBRANCH  16  17
ENDBRANCH  15  16
ENDBRANCH  14  15
ENDBRANCH  13  14
ENDBRANCH  12  13
ENDBRANCH  10  11
ENDBRANCH   1  10
TORSDOF 13
ENDMDL
MODEL 7
REMARK VINA RESULT:    -5.259      3.807      7.098
REMARK INTER + INTRA:         -10.623
REMARK INTER:                  -9.460
REMARK INTRA:                  -1.163
REMARK UNBOUND:                -1.367
REMARK SMILES CCCCCCC=CCCCCCCCC(=O)[O-]
REMARK SMILES IDX 10 1 11 2 12 3 13 4 14 5 15 6 16 7 17 8 18 9 9 10 8 11 7 12
REMARK SMILES IDX 6 13 5 14 4 15 3 16 2 17 1 18
REMARK H PARENT
REMARK Flexibility Score: inf
ROOT
ATOM      1  C   UNL     1     129.512 123.614 127.043  1.00  0.00     0.004 C 
ENDROOT
BRANCH   1   2
ATOM      2  C   UNL     1     130.516 123.700 125.875  1.00  0.00     0.000 C 
BRANCH   2   3
ATOM      3  C   UNL     1     130.897 125.129 125.448  1.00  0.00     0.000 C 
BRANCH   3   4
ATOM      4  C   UNL     1     131.815 125.831 126.464  1.00  0.00     0.000 C 
BRANCH   4   5
ATOM      5  C   UNL     1     131.751 127.362 126.354  1.00  0.00     0.006 C 
BRANCH   5   6
ATOM      6  C   UNL     1     130.927 128.003 127.478  1.00  0.00     0.053 C 
BRANCH   6   7
ATOM      7  C   UNL     1     131.819 128.438 128.597  1.00  0.00     0.041 C 
ATOM      8  O   UNL     1     132.680 129.338 128.408  1.00  0.00    -0.550 OA
ATOM      9  O   UNL     1     131.670 127.884 129.862  1.00  0.00    -0.550 OA
ENDBRANCH   6   7
ENDBRANCH   5   6
ENDBRANCH   4   5
ENDBRANCH   3   4
ENDBRANCH   2   3
ENDBRANCH   1   2
BRANCH   1  10
ATOM     10  C   UNL     1     128.115 124.185 126.733  1.00  0.00     0.027 C 
BRANCH  10  11
ATOM     11  C   UNL     1     128.032 125.687 126.869  1.00  0.00    -0.031 C 
ATOM     12  C   UNL     1     127.902 126.558 125.851  1.00  0.00    -0.031 C 
BRANCH  12  13
ATOM     13  C   UNL     1     127.865 126.193 124.386  1.00  0.00     0.027 C 
BRANCH  13  14
ATOM     14  C   UNL     1     128.332 127.358 123.495  1.00  0.00     0.004 C 
BRANCH  14  15
ATOM     15  C   UNL     1     127.598 127.468 122.146  1.00  0.00     0.000 C 
BRANCH  15  16
ATOM     16  C   UNL     1     126.068 127.620 122.242  1.00  0.00    -0.000 C 
BRANCH  16  17
ATOM     17  C   UNL     1     125.603 129.060 122.549  1.00  0.00    -0.003 C 
ATOM     18  C   UNL     1     126.409 130.112 121.788  1.00  0.00     0.004 C 
ENDBRANCH  16  17
ENDBRANCH  15  16
ENDBRANCH  14  15
ENDBRANCH  13  14
ENDBRANCH  12  13
ENDBRANCH  10  11
ENDBRANCH   1  10
TORSDOF 13
ENDMDL
MODEL 8
REMARK VINA RESULT:    -4.887      2.979      7.335
REMARK INTER + INTRA:          -9.967
REMARK INTER:                  -9.699
REMARK INTRA:                  -0.268
REMARK UNBOUND:                -1.367
REMARK SMILES CCCCCCC=CCCCCCCCC(=O)[O-]
REMARK SMILES IDX 10 1 11 2 12 3 13 4 14 5 15 6 16 7 17 8 18 9 9 10 8 11 7 12
REMARK SMILES IDX 6 13 5 14 4 15 3 16 2 17 1 18
REMARK H PARENT
REMARK Flexibility Score: inf
ROOT
ATOM      1  C   UNL     1     129.883 126.055 128.915  1.00  0.00     0.004 C 
ENDROOT
BRANCH   1   2
ATOM      2  C   UNL     1     129.487 124.632 129.362  1.00  0.00     0.000 C 
BRANCH   2   3
ATOM      3  C   UNL     1     129.124 124.495 130.851  1.00  0.00     0.000 C 
BRANCH   3   4
ATOM      4  C   UNL     1     128.409 123.172 131.172  1.00  0.00     0.000 C 
BRANCH   4   5
ATOM      5  C   UNL     1     128.292 122.254 129.945  1.00  0.00     0.006 C 
BRANCH   5   6
ATOM      6  C   UNL     1     126.891 122.277 129.320  1.00  0.00     0.053 C 
BRANCH   6   7
ATOM      7  C   UNL     1     126.716 123.501 128.477  1.00  0.00     0.041 C 
ATOM      8  O   UNL     1     125.997 124.453 128.881  1.00  0.00    -0.550 OA
ATOM      9  O   UNL     1     127.386 123.612 127.265  1.00  0.00    -0.550 OA
ENDBRANCH   6   7
ENDBRANCH   5   6
ENDBRANCH   4   5
ENDBRANCH   3   4
ENDBRANCH   2   3
ENDBRANCH   1   2
BRANCH   1  10
ATOM     10  C   UNL     1     129.906 126.267 127.390  1.00  0.00     0.027 C 
BRANCH  10  11
ATOM     11  C   UNL     1     131.176 125.783 126.731  1.00  0.00    -0.031 C 
ATOM     12  C   UNL     1     131.667 126.227 125.558  1.00  0.00    -0.031 C 
BRANCH  12  13
ATOM     13  C   UNL     1     131.009 127.253 124.667  1.00  0.00     0.027 C 
BRANCH  13  14
ATOM     14  C   UNL     1     129.897 126.630 123.803  1.00  0.00     0.004 C 
BRANCH  14  15
ATOM     15  C   UNL     1     128.569 127.410 123.807  1.00  0.00     0.000 C 
BRANCH  15  16
ATOM     16  C   UNL     1     127.614 127.084 122.642  1.00  0.00    -0.000 C 
BRANCH  16  17
ATOM     17  C   UNL     1     126.428 128.063 122.516  1.00  0.00    -0.003 C 
ATOM     18  C   UNL     1     126.806 129.352 121.787  1.00  0.00     0.004 C 
ENDBRANCH  16  17
ENDBRANCH  15  16
ENDBRANCH  14  15
ENDBRANCH  13  14
ENDBRANCH  12  13
ENDBRANCH  10  11
ENDBRANCH   1  10
TORSDOF 13
ENDMDL
MODEL 9
REMARK VINA RESULT:    -4.729     10.543     13.171
REMARK INTER + INTRA:          -9.690
REMARK INTER:                  -8.769
REMARK INTRA:                  -0.921
REMARK UNBOUND:                -1.367
REMARK SMILES CCCCCCC=CCCCCCCCC(=O)[O-]
REMARK SMILES IDX 10 1 11 2 12 3 13 4 14 5 15 6 16 7 17 8 18 9 9 10 8 11 7 12
REMARK SMILES IDX 6 13 5 14 4 15 3 16 2 17 1 18
REMARK H PARENT
REMARK Flexibility Score: inf
ROOT
ATOM      1  C   UNL     1     117.794 131.688 125.477  1.00  0.00     0.004 C 
ENDROOT
BRANCH   1   2
ATOM      2  C   UNL     1     118.460 130.696 124.501  1.00  0.00     0.000 C 
BRANCH   2   3
ATOM      3  C   UNL     1     117.753 130.548 123.142  1.00  0.00     0.000 C 
BRANCH   3   4
ATOM      4  C   UNL     1     118.736 130.319 121.981  1.00  0.00     0.000 C 
BRANCH   4   5
ATOM      5  C   UNL     1     118.485 128.990 121.251  1.00  0.00     0.006 C 
BRANCH   5   6
ATOM      6  C   UNL     1     119.762 128.156 121.084  1.00  0.00     0.053 C 
BRANCH   6   7
ATOM      7  C   UNL     1     120.096 127.452 122.361  1.00  0.00     0.041 C 
ATOM      8  O   UNL     1     119.284 127.464 123.323  1.00  0.00    -0.550 OA
ATOM      9  O   UNL     1     121.285 126.742 122.473  1.00  0.00    -0.550 OA
ENDBRANCH   6   7
ENDBRANCH   5   6
ENDBRANCH   4   5
ENDBRANCH   3   4
ENDBRANCH   2   3
ENDBRANCH   1   2
BRANCH   1  10
ATOM     10  C   UNL     1     116.407 131.255 125.988  1.00  0.00     0.027 C 
BRANCH  10  11
ATOM     11  C   UNL     1     115.265 132.020 125.361  1.00  0.00    -0.031 C 
ATOM     12  C   UNL     1     113.997 132.040 125.812  1.00  0.00    -0.031 C 
BRANCH  12  13
ATOM     13  C   UNL     1     113.477 131.262 126.997  1.00  0.00     0.027 C 
BRANCH  13  14
ATOM     14  C   UNL     1     113.737 132.000 128.323  1.00  0.00     0.004 C 
BRANCH  14  15
ATOM     15  C   UNL     1     114.793 131.340 129.229  1.00  0.00     0.000 C 
BRANCH  15  16
ATOM     16  C   UNL     1     114.847 129.802 129.160  1.00  0.00    -0.000 C 
BRANCH  16  17
ATOM     17  C   UNL     1     116.274 129.223 129.267  1.00  0.00    -0.003 C 
ATOM     18  C   UNL     1     116.613 128.756 130.682  1.00  0.00     0.004 C 
ENDBRANCH  16  17
ENDBRANCH  15  16
ENDBRANCH  14  15
ENDBRANCH  13  14
ENDBRANCH  12  13
ENDBRANCH  10  11
ENDBRANCH   1  10
TORSDOF 13
ENDMDL
