MODEL 1
REMARK VINA RESULT:    -3.133      0.000      0.000
REMARK INTER + INTRA:          -3.638
REMARK INTER:                  -3.591
REMARK INTRA:                  -0.047
REMARK UNBOUND:                -0.047
REMARK SMILES CC(C)[C@@H]([NH3+])C(=O)[O-]
REMARK SMILES IDX 4 1 5 2 6 6 7 7 8 8 2 9 1 10 3 11
REMARK H PARENT 5 3 5 4 5 5
REMARK Flexibility Score: inf
ROOT
ATOM      1  C   UNL     1     -22.922   3.281   8.491  1.00  0.00     0.230 C 
ENDROOT
BRANCH   1   2
ATOM      2  N   UNL     1     -23.701   3.121   7.253  1.00  0.00    -0.350 N 
ATOM      3  H   UNL     1     -23.513   2.183   6.829  1.00  0.00     0.345 HD
ATOM      4  H   UNL     1     -23.452   3.864   6.560  1.00  0.00     0.345 HD
ATOM      5  H   UNL     1     -24.724   3.166   7.462  1.00  0.00     0.345 HD
ENDBRANCH   1   2
BRANCH   1   6
ATOM      6  C   UNL     1     -21.511   2.803   8.255  1.00  0.00     0.099 C 
ATOM      7  O   UNL     1     -20.946   3.018   7.150  1.00  0.00    -0.544 OA
ATOM      8  O   UNL     1     -20.826   2.120   9.253  1.00  0.00    -0.544 OA
ENDBRANCH   1   6
BRANCH   1   9
ATOM      9  C   UNL     1     -22.927   4.758   8.992  1.00  0.00     0.047 C 
ATOM     10  C   UNL     1     -23.240   5.747   7.857  1.00  0.00     0.014 C 
ATOM     11  C   UNL     1     -23.947   4.958  10.128  1.00  0.00     0.014 C 
ENDBRANCH   1   9
TORSDOF 3
ENDMDL
MODEL 2
REMARK VINA RESULT:    -3.120      1.849      2.248
REMARK INTER + INTRA:          -3.623
REMARK INTER:                  -3.560
REMARK INTRA:                  -0.063
REMARK UNBOUND:                -0.047
REMARK SMILES CC(C)[C@@H]([NH3+])C(=O)[O-]
REMARK SMILES IDX 4 1 5 2 6 6 7 7 8 8 2 9 1 10 3 11
REMARK H PARENT 5 3 5 4 5 5
REMARK Flexibility Score: inf
ROOT
ATOM      1  C   UNL     1     -22.513   3.667   7.550  1.00  0.00     0.230 C 
ENDROOT
BRANCH   1   2
ATOM      2  N   UNL     1     -21.159   3.767   8.117  1.00  0.00    -0.350 N 
ATOM      3  H   UNL     1     -20.692   2.831   8.100  1.00  0.00     0.345 HD
ATOM      4  H   UNL     1     -21.195   4.113   9.104  1.00  0.00     0.345 HD
ATOM      5  H   UNL     1     -20.573   4.413   7.540  1.00  0.00     0.345 HD
ENDBRANCH   1   2
BRANCH   1   6
ATOM      6  C   UNL     1     -23.032   2.265   7.752  1.00  0.00     0.099 C 
ATOM      7  O   UNL     1     -24.186   1.953   7.354  1.00  0.00    -0.544 OA
ATOM      8  O   UNL     1     -22.244   1.309   8.382  1.00  0.00    -0.544 OA
ENDBRANCH   1   6
BRANCH   1   9
ATOM      9  C   UNL     1     -23.484   4.710   8.181  1.00  0.00     0.047 C 
ATOM     10  C   UNL     1     -23.238   4.884   9.689  1.00  0.00     0.014 C 
ATOM     11  C   UNL     1     -23.356   6.080   7.490  1.00  0.00     0.014 C 
ENDBRANCH   1   9
TORSDOF 3
ENDMDL
MODEL 3
REMARK VINA RESULT:    -3.110      1.670      2.222
REMARK INTER + INTRA:          -3.612
REMARK INTER:                  -3.548
REMARK INTRA:                  -0.064
REMARK UNBOUND:                -0.047
REMARK SMILES CC(C)[C@@H]([NH3+])C(=O)[O-]
REMARK SMILES IDX 4 1 5 2 6 6 7 7 8 8 2 9 1 10 3 11
REMARK H PARENT 5 3 5 4 5 5
REMARK Flexibility Score: inf
ROOT
ATOM      1  C   UNL     1     -21.985   3.814   8.251  1.00  0.00     0.230 C 
ENDROOT
BRANCH   1   2
ATOM      2  N   UNL     1     -21.803   2.735   9.234  1.00  0.00    -0.350 N 
ATOM      3  H   UNL     1     -20.895   2.243   9.064  1.00  0.00     0.345 HD
ATOM      4  H   UNL     1     -22.584   2.041   9.173  1.00  0.00     0.345 HD
ATOM      5  H   UNL     1     -21.761   3.132  10.201  1.00  0.00     0.345 HD
ENDBRANCH   1   2
BRANCH   1   6
ATOM      6  C   UNL     1     -21.978   3.225   6.862  1.00  0.00     0.099 C 
ATOM      7  O   UNL     1     -20.912   3.200   6.189  1.00  0.00    -0.544 OA
ATOM      8  O   UNL     1     -23.146   2.709   6.313  1.00  0.00    -0.544 OA
ENDBRANCH   1   6
BRANCH   1   9
ATOM      9  C   UNL     1     -23.300   4.612   8.503  1.00  0.00     0.047 C 
ATOM     10  C   UNL     1     -23.519   4.898   9.998  1.00  0.00     0.014 C 
ATOM     11  C   UNL     1     -23.299   5.945   7.732  1.00  0.00     0.014 C 
ENDBRANCH   1   9
TORSDOF 3
ENDMDL
MODEL 4
REMARK VINA RESULT:    -3.081     16.117     16.989
REMARK INTER + INTRA:          -3.579
REMARK INTER:                  -3.531
REMARK INTRA:                  -0.047
REMARK UNBOUND:                -0.047
REMARK SMILES CC(C)[C@@H]([NH3+])C(=O)[O-]
REMARK SMILES IDX 4 1 5 2 6 6 7 7 8 8 2 9 1 10 3 11
REMARK H PARENT 5 3 5 4 5 5
REMARK Flexibility Score: inf
ROOT
ATOM      1  C   UNL     1     -22.880  -1.148  -7.293  1.00  0.00     0.230 C 
ENDROOT
BRANCH   1   2
ATOM      2  N   UNL     1     -22.005  -0.674  -8.376  1.00  0.00    -0.350 N 
ATOM      3  H   UNL     1     -22.040  -1.337  -9.183  1.00  0.00     0.345 HD
ATOM      4  H   UNL     1     -21.015  -0.593  -8.044  1.00  0.00     0.345 HD
ATOM      5  H   UNL     1     -22.334   0.255  -8.726  1.00  0.00     0.345 HD
ENDBRANCH   1   2
BRANCH   1   6
ATOM      6  C   UNL     1     -23.803  -0.029  -6.876  1.00  0.00     0.099 C 
ATOM      7  O   UNL     1     -24.643  -0.211  -5.955  1.00  0.00    -0.544 OA
ATOM      8  O   UNL     1     -23.736   1.207  -7.507  1.00  0.00    -0.544 OA
ENDBRANCH   1   6
BRANCH   1   9
ATOM      9  C   UNL     1     -23.697  -2.406  -7.716  1.00  0.00     0.047 C 
ATOM     10  C   UNL     1     -23.314  -2.890  -9.125  1.00  0.00     0.014 C 
ATOM     11  C   UNL     1     -23.499  -3.561  -6.717  1.00  0.00     0.014 C 
ENDBRANCH   1   9
TORSDOF 3
ENDMDL
MODEL 5
REMARK VINA RESULT:    -3.062      1.899      1.955
REMARK INTER + INTRA:          -3.557
REMARK INTER:                  -3.656
REMARK INTRA:                   0.099
REMARK UNBOUND:                -0.047
REMARK SMILES CC(C)[C@@H]([NH3+])C(=O)[O-]
REMARK SMILES IDX 4 1 5 2 6 6 7 7 8 8 2 9 1 10 3 11
REMARK H PARENT 5 3 5 4 5 5
REMARK Flexibility Score: inf
ROOT
ATOM      1  C   UNL     1     -21.950   4.007   8.212  1.00  0.00     0.230 C 
ENDROOT
BRANCH   1   2
ATOM      2  N   UNL     1     -21.933   2.952   9.236  1.00  0.00    -0.350 N 
ATOM      3  H   UNL     1     -22.888   2.832   9.645  1.00  0.00     0.345 HD
ATOM      4  H   UNL     1     -21.261   3.190  10.003  1.00  0.00     0.345 HD
ATOM      5  H   UNL     1     -21.665   2.036   8.808  1.00  0.00     0.345 HD
ENDBRANCH   1   2
BRANCH   1   6
ATOM      6  C   UNL     1     -22.622   3.479   6.968  1.00  0.00     0.099 C 
ATOM      7  O   UNL     1     -22.084   3.642   5.840  1.00  0.00    -0.544 OA
ATOM      8  O   UNL     1     -23.838   2.813   7.057  1.00  0.00    -0.544 OA
ENDBRANCH   1   6
BRANCH   1   9
ATOM      9  C   UNL     1     -22.666   5.296   8.719  1.00  0.00     0.047 C 
ATOM     10  C   UNL     1     -23.329   6.073   7.569  1.00  0.00     0.014 C 
ATOM     11  C   UNL     1     -23.731   4.961   9.779  1.00  0.00     0.014 C 
ENDBRANCH   1   9
TORSDOF 3
ENDMDL
MODEL 6
REMARK VINA RESULT:    -3.029      2.125      3.400
REMARK INTER + INTRA:          -3.519
REMARK INTER:                  -3.466
REMARK INTRA:                  -0.053
REMARK UNBOUND:                -0.047
REMARK SMILES CC(C)[C@@H]([NH3+])C(=O)[O-]
REMARK SMILES IDX 4 1 5 2 6 6 7 7 8 8 2 9 1 10 3 11
REMARK H PARENT 5 3 5 4 5 5
REMARK Flexibility Score: inf
ROOT
ATOM      1  C   UNL     1     -22.698   3.432   8.083  1.00  0.00     0.230 C 
ENDROOT
BRANCH   1   2
ATOM      2  N   UNL     1     -23.474   2.304   8.621  1.00  0.00    -0.350 N 
ATOM      3  H   UNL     1     -24.172   1.978   7.914  1.00  0.00     0.345 HD
ATOM      4  H   UNL     1     -23.979   2.584   9.494  1.00  0.00     0.345 HD
ATOM      5  H   UNL     1     -22.842   1.497   8.826  1.00  0.00     0.345 HD
ENDBRANCH   1   2
BRANCH   1   6
ATOM      6  C   UNL     1     -22.968   4.662   8.915  1.00  0.00     0.099 C 
ATOM      7  O   UNL     1     -22.314   5.720   8.713  1.00  0.00    -0.544 OA
ATOM      8  O   UNL     1     -23.937   4.636   9.911  1.00  0.00    -0.544 OA
ENDBRANCH   1   6
BRANCH   1   9
ATOM      9  C   UNL     1     -21.171   3.119   8.043  1.00  0.00     0.047 C 
ATOM     10  C   UNL     1     -20.768   2.094   9.116  1.00  0.00     0.014 C 
ATOM     11  C   UNL     1     -20.747   2.593   6.660  1.00  0.00     0.014 C 
ENDBRANCH   1   9
TORSDOF 3
ENDMDL
MODEL 7
REMARK VINA RESULT:    -3.026     15.855     16.716
REMARK INTER + INTRA:          -3.516
REMARK INTER:                  -3.440
REMARK INTRA:                  -0.075
REMARK UNBOUND:                -0.047
REMARK SMILES CC(C)[C@@H]([NH3+])C(=O)[O-]
REMARK SMILES IDX 4 1 5 2 6 6 7 7 8 8 2 9 1 10 3 11
REMARK H PARENT 5 3 5 4 5 5
REMARK Flexibility Score: inf
ROOT
ATOM      1  C   UNL     1     -21.878  -1.627  -7.581  1.00  0.00     0.230 C 
ENDROOT
BRANCH   1   2
ATOM      2  N   UNL     1     -21.631  -0.627  -8.631  1.00  0.00    -0.350 N 
ATOM      3  H   UNL     1     -22.494  -0.487  -9.205  1.00  0.00     0.345 HD
ATOM      4  H   UNL     1     -20.851  -0.932  -9.258  1.00  0.00     0.345 HD
ATOM      5  H   UNL     1     -21.394   0.297  -8.201  1.00  0.00     0.345 HD
ENDBRANCH   1   2
BRANCH   1   6
ATOM      6  C   UNL     1     -21.734  -0.973  -6.229  1.00  0.00     0.099 C 
ATOM      7  O   UNL     1     -20.844  -1.363  -5.427  1.00  0.00    -0.544 OA
ATOM      8  O   UNL     1     -22.583   0.063  -5.857  1.00  0.00    -0.544 OA
ENDBRANCH   1   6
BRANCH   1   9
ATOM      9  C   UNL     1     -23.284  -2.286  -7.727  1.00  0.00     0.047 C 
ATOM     10  C   UNL     1     -23.490  -2.893  -9.125  1.00  0.00     0.014 C 
ATOM     11  C   UNL     1     -23.498  -3.382  -6.667  1.00  0.00     0.014 C 
ENDBRANCH   1   9
TORSDOF 3
ENDMDL
MODEL 8
REMARK VINA RESULT:    -2.956      9.125      9.710
REMARK INTER + INTRA:          -3.435
REMARK INTER:                  -3.375
REMARK INTRA:                  -0.060
REMARK UNBOUND:                -0.047
REMARK SMILES CC(C)[C@@H]([NH3+])C(=O)[O-]
REMARK SMILES IDX 4 1 5 2 6 6 7 7 8 8 2 9 1 10 3 11
REMARK H PARENT 5 3 5 4 5 5
REMARK Flexibility Score: inf
ROOT
ATOM      1  C   UNL     1     -26.598  -4.718   8.414  1.00  0.00     0.230 C 
ENDROOT
BRANCH   1   2
ATOM      2  N   UNL     1     -27.429  -4.733   9.628  1.00  0.00    -0.350 N 
ATOM      3  H   UNL     1     -27.282  -3.854  10.175  1.00  0.00     0.345 HD
ATOM      4  H   UNL     1     -27.191  -5.554  10.231  1.00  0.00     0.345 HD
ATOM      5  H   UNL     1     -28.442  -4.769   9.371  1.00  0.00     0.345 HD
ENDBRANCH   1   2
BRANCH   1   6
ATOM      6  C   UNL     1     -26.859  -5.973   7.619  1.00  0.00     0.099 C 
ATOM      7  O   UNL     1     -26.699  -5.976   6.369  1.00  0.00    -0.544 OA
ATOM      8  O   UNL     1     -27.280  -7.133   8.258  1.00  0.00    -0.544 OA
ENDBRANCH   1   6
BRANCH   1   9
ATOM      9  C   UNL     1     -26.864  -3.451   7.545  1.00  0.00     0.047 C 
ATOM     10  C   UNL     1     -28.252  -2.849   7.819  1.00  0.00     0.014 C 
ATOM     11  C   UNL     1     -25.792  -2.373   7.790  1.00  0.00     0.014 C 
ENDBRANCH   1   9
TORSDOF 3
ENDMDL
