MODEL 1
REMARK VINA RESULT:    -3.520      0.000      0.000
REMARK INTER + INTRA:          -4.176
REMARK INTER:                  -4.137
REMARK INTRA:                  -0.040
REMARK UNBOUND:                -0.040
REMARK SMILES CCCCC(=O)[O-]
REMARK SMILES IDX 4 1 5 2 6 3 7 4 3 5 2 6 1 7
REMARK H PARENT
REMARK Flexibility Score: inf
ROOT
ATOM      1  C   UNL     1       9.112 -10.315  12.109  1.00  0.00     0.053 C 
ENDROOT
BRANCH   1   2
ATOM      2  C   UNL     1       9.977  -9.179  11.663  1.00  0.00     0.041 C 
ATOM      3  O   UNL     1       9.789  -8.643  10.539  1.00  0.00    -0.550 OA
ATOM      4  O   UNL     1      10.960  -8.679  12.509  1.00  0.00    -0.550 OA
ENDBRANCH   1   2
BRANCH   1   5
ATOM      5  C   UNL     1       7.702 -10.178  11.521  1.00  0.00     0.006 C 
BRANCH   5   6
ATOM      6  C   UNL     1       6.603 -10.531  12.534  1.00  0.00    -0.003 C 
ATOM      7  C   UNL     1       7.115 -11.404  13.680  1.00  0.00     0.004 C 
ENDBRANCH   5   6
ENDBRANCH   1   5
TORSDOF 3
ENDMDL
MODEL 2
REMARK VINA RESULT:    -3.016      3.601      4.533
REMARK INTER + INTRA:          -3.585
REMARK INTER:                  -3.569
REMARK INTRA:                  -0.016
REMARK UNBOUND:                -0.040
REMARK SMILES CCCCC(=O)[O-]
REMARK SMILES IDX 4 1 5 2 6 3 7 4 3 5 2 6 1 7
REMARK H PARENT
REMARK Flexibility Score: inf
ROOT
ATOM      1  C   UNL     1      10.873 -10.956  14.707  1.00  0.00     0.053 C 
ENDROOT
BRANCH   1   2
ATOM      2  C   UNL     1      11.892 -10.640  15.756  1.00  0.00     0.041 C 
ATOM      3  O   UNL     1      11.675  -9.728  16.596  1.00  0.00    -0.550 OA
ATOM      4  O   UNL     1      13.062 -11.386  15.835  1.00  0.00    -0.550 OA
ENDBRANCH   1   2
BRANCH   1   5
ATOM      5  C   UNL     1      11.216 -10.241  13.394  1.00  0.00     0.006 C 
BRANCH   5   6
ATOM      6  C   UNL     1      10.062 -10.282  12.381  1.00  0.00    -0.003 C 
ATOM      7  C   UNL     1      10.031  -9.054  11.471  1.00  0.00     0.004 C 
ENDBRANCH   5   6
ENDBRANCH   1   5
TORSDOF 3
ENDMDL
MODEL 3
REMARK VINA RESULT:    -2.821      2.146      3.243
REMARK INTER + INTRA:          -3.355
REMARK INTER:                  -3.319
REMARK INTRA:                  -0.036
REMARK UNBOUND:                -0.040
REMARK SMILES CCCCC(=O)[O-]
REMARK SMILES IDX 4 1 5 2 6 3 7 4 3 5 2 6 1 7
REMARK H PARENT
REMARK Flexibility Score: inf
ROOT
ATOM      1  C   UNL     1       9.439 -10.275  12.611  1.00  0.00     0.053 C 
ENDROOT
BRANCH   1   2
ATOM      2  C   UNL     1       8.724  -9.757  11.404  1.00  0.00     0.041 C 
ATOM      3  O   UNL     1       9.315  -8.992  10.597  1.00  0.00    -0.550 OA
ATOM      4  O   UNL     1       7.420 -10.159  11.143  1.00  0.00    -0.550 OA
ENDBRANCH   1   2
BRANCH   1   5
ATOM      5  C   UNL     1      10.956 -10.128  12.439  1.00  0.00     0.006 C 
BRANCH   5   6
ATOM      6  C   UNL     1      11.733 -10.498  13.712  1.00  0.00    -0.003 C 
ATOM      7  C   UNL     1      10.836 -11.089  14.800  1.00  0.00     0.004 C 
ENDBRANCH   5   6
ENDBRANCH   1   5
TORSDOF 3
ENDMDL
MODEL 4
REMARK VINA RESULT:    -2.714      2.714      3.568
REMARK INTER + INTRA:          -3.230
REMARK INTER:                  -3.210
REMARK INTRA:                  -0.020
REMARK UNBOUND:                -0.040
REMARK SMILES CCCCC(=O)[O-]
REMARK SMILES IDX 4 1 5 2 6 3 7 4 3 5 2 6 1 7
REMARK H PARENT
REMARK Flexibility Score: inf
ROOT
ATOM      1  C   UNL     1       8.896  -8.943   9.941  1.00  0.00     0.053 C 
ENDROOT
BRANCH   1   2
ATOM      2  C   UNL     1       9.187  -8.020   8.800  1.00  0.00     0.041 C 
ATOM      3  O   UNL     1       9.831  -6.956   8.994  1.00  0.00    -0.550 OA
ATOM      4  O   UNL     1       8.788  -8.360   7.513  1.00  0.00    -0.550 OA
ENDBRANCH   1   2
BRANCH   1   5
ATOM      5  C   UNL     1       9.964  -8.798  11.032  1.00  0.00     0.006 C 
BRANCH   5   6
ATOM      6  C   UNL     1       9.850  -9.881  12.116  1.00  0.00    -0.003 C 
ATOM      7  C   UNL     1      11.197 -10.220  12.755  1.00  0.00     0.004 C 
ENDBRANCH   5   6
ENDBRANCH   1   5
TORSDOF 3
ENDMDL
MODEL 5
REMARK VINA RESULT:    -2.577      7.829      8.815
REMARK INTER + INTRA:          -3.068
REMARK INTER:                  -3.048
REMARK INTRA:                  -0.020
REMARK UNBOUND:                -0.040
REMARK SMILES CCCCC(=O)[O-]
REMARK SMILES IDX 4 1 5 2 6 3 7 4 3 5 2 6 1 7
REMARK H PARENT
REMARK Flexibility Score: inf
ROOT
ATOM      1  C   UNL     1      10.011  -3.214  15.141  1.00  0.00     0.053 C 
ENDROOT
BRANCH   1   2
ATOM      2  C   UNL     1       8.811  -2.363  14.874  1.00  0.00     0.041 C 
ATOM      3  O   UNL     1       7.765  -2.874  14.393  1.00  0.00    -0.550 OA
ATOM      4  O   UNL     1       8.830  -1.013  15.201  1.00  0.00    -0.550 OA
ENDBRANCH   1   2
BRANCH   1   5
ATOM      5  C   UNL     1      10.916  -2.551  16.187  1.00  0.00     0.006 C 
BRANCH   5   6
ATOM      6  C   UNL     1      11.757  -3.570  16.971  1.00  0.00    -0.003 C 
ATOM      7  C   UNL     1      13.209  -3.126  17.148  1.00  0.00     0.004 C 
ENDBRANCH   5   6
ENDBRANCH   1   5
TORSDOF 3
ENDMDL
MODEL 6
REMARK VINA RESULT:    -2.530      8.380      9.434
REMARK INTER + INTRA:          -3.014
REMARK INTER:                  -2.915
REMARK INTRA:                  -0.099
REMARK UNBOUND:                -0.040
REMARK SMILES CCCCC(=O)[O-]
REMARK SMILES IDX 4 1 5 2 6 3 7 4 3 5 2 6 1 7
REMARK H PARENT
REMARK Flexibility Score: inf
ROOT
ATOM      1  C   UNL     1      10.636  -3.447  16.051  1.00  0.00     0.053 C 
ENDROOT
BRANCH   1   2
ATOM      2  C   UNL     1      10.441  -1.964  16.057  1.00  0.00     0.041 C 
ATOM      3  O   UNL     1      10.725  -1.284  15.036  1.00  0.00    -0.550 OA
ATOM      4  O   UNL     1       9.898  -1.339  17.173  1.00  0.00    -0.550 OA
ENDBRANCH   1   2
BRANCH   1   5
ATOM      5  C   UNL     1      11.576  -3.868  17.188  1.00  0.00     0.006 C 
BRANCH   5   6
ATOM      6  C   UNL     1      12.981  -3.261  17.048  1.00  0.00    -0.003 C 
ATOM      7  C   UNL     1      13.721  -3.171  18.383  1.00  0.00     0.004 C 
ENDBRANCH   5   6
ENDBRANCH   1   5
TORSDOF 3
ENDMDL
MODEL 7
REMARK VINA RESULT:    -2.489      8.639      9.631
REMARK INTER + INTRA:          -2.965
REMARK INTER:                  -2.936
REMARK INTRA:                  -0.029
REMARK UNBOUND:                -0.040
REMARK SMILES CCCCC(=O)[O-]
REMARK SMILES IDX 4 1 5 2 6 3 7 4 3 5 2 6 1 7
REMARK H PARENT
REMARK Flexibility Score: inf
ROOT
ATOM      1  C   UNL     1      12.869  -3.301  16.969  1.00  0.00     0.053 C 
ENDROOT
BRANCH   1   2
ATOM      2  C   UNL     1      13.519  -3.169  18.310  1.00  0.00     0.041 C 
ATOM      3  O   UNL     1      13.970  -4.187  18.898  1.00  0.00    -0.550 OA
ATOM      4  O   UNL     1      13.671  -1.914  18.888  1.00  0.00    -0.550 OA
ENDBRANCH   1   2
BRANCH   1   5
ATOM      5  C   UNL     1      11.413  -3.757  17.122  1.00  0.00     0.006 C 
BRANCH   5   6
ATOM      6  C   UNL     1      10.560  -3.433  15.886  1.00  0.00    -0.003 C 
ATOM      7  C   UNL     1      10.562  -1.944  15.540  1.00  0.00     0.004 C 
ENDBRANCH   5   6
ENDBRANCH   1   5
TORSDOF 3
ENDMDL
MODEL 8
REMARK VINA RESULT:    -2.487      9.952     10.409
REMARK INTER + INTRA:          -2.963
REMARK INTER:                  -2.904
REMARK INTRA:                  -0.059
REMARK UNBOUND:                -0.040
REMARK SMILES CCCCC(=O)[O-]
REMARK SMILES IDX 4 1 5 2 6 3 7 4 3 5 2 6 1 7
REMARK H PARENT
REMARK Flexibility Score: inf
ROOT
ATOM      1  C   UNL     1      10.960 -18.770   8.045  1.00  0.00     0.053 C 
ENDROOT
BRANCH   1   2
ATOM      2  C   UNL     1      10.457 -20.085   8.549  1.00  0.00     0.041 C 
ATOM      3  O   UNL     1       9.425 -20.603   8.047  1.00  0.00    -0.550 OA
ATOM      4  O   UNL     1      11.155 -20.763   9.541  1.00  0.00    -0.550 OA
ENDBRANCH   1   2
BRANCH   1   5
ATOM      5  C   UNL     1      12.232 -18.359   8.798  1.00  0.00     0.006 C 
BRANCH   5   6
ATOM      6  C   UNL     1      12.256 -16.862   9.142  1.00  0.00    -0.003 C 
ATOM      7  C   UNL     1      10.882 -16.325   9.542  1.00  0.00     0.004 C 
ENDBRANCH   5   6
ENDBRANCH   1   5
TORSDOF 3
ENDMDL
MODEL 9
REMARK VINA RESULT:    -2.464      5.935      6.772
REMARK INTER + INTRA:          -2.936
REMARK INTER:                  -2.878
REMARK INTRA:                  -0.058
REMARK UNBOUND:                -0.040
REMARK SMILES CCCCC(=O)[O-]
REMARK SMILES IDX 4 1 5 2 6 3 7 4 3 5 2 6 1 7
REMARK H PARENT
REMARK Flexibility Score: inf
ROOT
ATOM      1  C   UNL     1      12.443 -10.471  17.919  1.00  0.00     0.053 C 
ENDROOT
BRANCH   1   2
ATOM      2  C   UNL     1      13.898 -10.767  17.736  1.00  0.00     0.041 C 
ATOM      3  O   UNL     1      14.754  -9.858  17.894  1.00  0.00    -0.550 OA
ATOM      4  O   UNL     1      14.312 -12.060  17.439  1.00  0.00    -0.550 OA
ENDBRANCH   1   2
BRANCH   1   5
ATOM      5  C   UNL     1      11.843  -9.912  16.622  1.00  0.00     0.006 C 
BRANCH   5   6
ATOM      6  C   UNL     1      11.417 -11.018  15.645  1.00  0.00    -0.003 C 
ATOM      7  C   UNL     1      11.206 -10.499  14.223  1.00  0.00     0.004 C 
ENDBRANCH   5   6
ENDBRANCH   1   5
TORSDOF 3
ENDMDL
