MODEL 1
REMARK VINA RESULT:    -5.137      0.000      0.000
REMARK INTER + INTRA:          -5.839
REMARK INTER:                  -5.738
REMARK INTRA:                  -0.101
REMARK UNBOUND:                -0.101
REMARK SMILES CCc1ccc(O)cc1O
REMARK SMILES IDX 3 1 9 2 8 3 6 4 5 5 4 6 2 7 1 8 10 9 7 11
REMARK H PARENT 10 10 7 12
REMARK Flexibility Score: inf
ROOT
ATOM      1  C   UNL     1     -14.614  -5.863  38.564  1.00  0.00    -0.006 A 
ATOM      2  C   UNL     1     -13.543  -6.474  39.246  1.00  0.00     0.122 A 
ATOM      3  C   UNL     1     -12.626  -7.265  38.537  1.00  0.00     0.092 A 
ATOM      4  C   UNL     1     -12.775  -7.462  37.161  1.00  0.00     0.119 A 
ATOM      5  C   UNL     1     -13.848  -6.867  36.486  1.00  0.00     0.047 A 
ATOM      6  C   UNL     1     -14.765  -6.077  37.183  1.00  0.00     0.011 A 
ENDROOT
BRANCH   1   7
ATOM      7  C   UNL     1     -15.632  -5.032  39.305  1.00  0.00     0.036 C 
ATOM      8  C   UNL     1     -16.996  -5.715  39.299  1.00  0.00     0.009 C 
ENDBRANCH   1   7
BRANCH   2   9
ATOM      9  O   UNL     1     -13.392  -6.296  40.621  1.00  0.00    -0.508 OA
ATOM     10  H   UNL     1     -13.888  -5.567  41.120  1.00  0.00     0.293 HD
ENDBRANCH   2   9
BRANCH   4  11
ATOM     11  O   UNL     1     -11.855  -8.251  36.475  1.00  0.00    -0.508 OA
ATOM     12  H   UNL     1     -12.151  -9.021  35.888  1.00  0.00     0.293 HD
ENDBRANCH   4  11
TORSDOF 3
ENDMDL
MODEL 2
REMARK VINA RESULT:    -5.127      1.857      2.603
REMARK INTER + INTRA:          -5.828
REMARK INTER:                  -5.724
REMARK INTRA:                  -0.104
REMARK UNBOUND:                -0.101
REMARK SMILES CCc1ccc(O)cc1O
REMARK SMILES IDX 3 1 9 2 8 3 6 4 5 5 4 6 2 7 1 8 10 9 7 11
REMARK H PARENT 10 10 7 12
REMARK Flexibility Score: inf
ROOT
ATOM      1  C   UNL     1     -13.811  -6.485  38.184  1.00  0.00    -0.006 A 
ATOM      2  C   UNL     1     -13.308  -7.159  37.053  1.00  0.00     0.122 A 
ATOM      3  C   UNL     1     -12.201  -8.011  37.184  1.00  0.00     0.092 A 
ATOM      4  C   UNL     1     -11.586  -8.186  38.427  1.00  0.00     0.119 A 
ATOM      5  C   UNL     1     -12.076  -7.506  39.548  1.00  0.00     0.047 A 
ATOM      6  C   UNL     1     -13.178  -6.656  39.427  1.00  0.00     0.011 A 
ENDROOT
BRANCH   1   7
ATOM      7  C   UNL     1     -14.980  -5.539  38.066  1.00  0.00     0.036 C 
ATOM      8  C   UNL     1     -16.277  -6.229  38.477  1.00  0.00     0.009 C 
ENDBRANCH   1   7
BRANCH   2   9
ATOM      9  O   UNL     1     -13.905  -6.981  35.805  1.00  0.00    -0.508 OA
ATOM     10  H   UNL     1     -13.444  -6.465  35.064  1.00  0.00     0.293 HD
ENDBRANCH   2   9
BRANCH   4  11
ATOM     11  O   UNL     1     -10.488  -9.036  38.537  1.00  0.00    -0.508 OA
ATOM     12  H   UNL     1      -9.677  -8.934  37.939  1.00  0.00     0.293 HD
ENDBRANCH   4  11
TORSDOF 3
ENDMDL
MODEL 3
REMARK VINA RESULT:    -5.004      1.568      4.317
REMARK INTER + INTRA:          -5.691
REMARK INTER:                  -5.604
REMARK INTRA:                  -0.086
REMARK UNBOUND:                -0.101
REMARK SMILES CCc1ccc(O)cc1O
REMARK SMILES IDX 3 1 9 2 8 3 6 4 5 5 4 6 2 7 1 8 10 9 7 11
REMARK H PARENT 10 10 7 12
REMARK Flexibility Score: inf
ROOT
ATOM      1  C   UNL     1     -12.825  -7.320  37.825  1.00  0.00    -0.006 A 
ATOM      2  C   UNL     1     -13.847  -6.780  37.019  1.00  0.00     0.122 A 
ATOM      3  C   UNL     1     -14.772  -5.882  37.573  1.00  0.00     0.092 A 
ATOM      4  C   UNL     1     -14.695  -5.529  38.924  1.00  0.00     0.119 A 
ATOM      5  C   UNL     1     -13.689  -6.077  39.729  1.00  0.00     0.047 A 
ATOM      6  C   UNL     1     -12.763  -6.970  39.185  1.00  0.00     0.011 A 
ENDROOT
BRANCH   1   7
ATOM      7  C   UNL     1     -11.836  -8.310  37.264  1.00  0.00     0.036 C 
ATOM      8  C   UNL     1     -11.127  -9.062  38.386  1.00  0.00     0.009 C 
ENDBRANCH   1   7
BRANCH   2   9
ATOM      9  O   UNL     1     -13.942  -7.135  35.674  1.00  0.00    -0.508 OA
ATOM     10  H   UNL     1     -14.296  -6.490  34.977  1.00  0.00     0.293 HD
ENDBRANCH   2   9
BRANCH   4  11
ATOM     11  O   UNL     1     -15.623  -4.637  39.455  1.00  0.00    -0.508 OA
ATOM     12  H   UNL     1     -15.501  -4.233  40.376  1.00  0.00     0.293 HD
ENDBRANCH   4  11
TORSDOF 3
ENDMDL
MODEL 4
REMARK VINA RESULT:    -4.895      2.945      5.122
REMARK INTER + INTRA:          -5.569
REMARK INTER:                  -5.472
REMARK INTRA:                  -0.097
REMARK UNBOUND:                -0.101
REMARK SMILES CCc1ccc(O)cc1O
REMARK SMILES IDX 3 1 9 2 8 3 6 4 5 5 4 6 2 7 1 8 10 9 7 11
REMARK H PARENT 10 10 7 12
REMARK Flexibility Score: inf
ROOT
ATOM      1  C   UNL     1     -16.222  -6.224  39.461  1.00  0.00    -0.006 A 
ATOM      2  C   UNL     1     -17.400  -6.976  39.644  1.00  0.00     0.122 A 
ATOM      3  C   UNL     1     -17.843  -7.272  40.942  1.00  0.00     0.092 A 
ATOM      4  C   UNL     1     -17.117  -6.836  42.055  1.00  0.00     0.119 A 
ATOM      5  C   UNL     1     -15.939  -6.102  41.873  1.00  0.00     0.047 A 
ATOM      6  C   UNL     1     -15.492  -5.801  40.585  1.00  0.00     0.011 A 
ENDROOT
BRANCH   1   7
ATOM      7  C   UNL     1     -15.706  -5.917  38.077  1.00  0.00     0.036 C 
ATOM      8  C   UNL     1     -14.314  -6.505  37.876  1.00  0.00     0.009 C 
ENDBRANCH   1   7
BRANCH   2   9
ATOM      9  O   UNL     1     -18.124  -7.427  38.542  1.00  0.00    -0.508 OA
ATOM     10  H   UNL     1     -17.675  -7.907  37.770  1.00  0.00     0.293 HD
ENDBRANCH   2   9
BRANCH   4  11
ATOM     11  O   UNL     1     -17.573  -7.141  43.336  1.00  0.00    -0.508 OA
ATOM     12  H   UNL     1     -17.044  -7.739  43.958  1.00  0.00     0.293 HD
ENDBRANCH   4  11
TORSDOF 3
ENDMDL
MODEL 5
REMARK VINA RESULT:    -4.711      1.994      4.219
REMARK INTER + INTRA:          -5.363
REMARK INTER:                  -5.284
REMARK INTRA:                  -0.080
REMARK UNBOUND:                -0.101
REMARK SMILES CCc1ccc(O)cc1O
REMARK SMILES IDX 3 1 9 2 8 3 6 4 5 5 4 6 2 7 1 8 10 9 7 11
REMARK H PARENT 10 10 7 12
REMARK Flexibility Score: inf
ROOT
ATOM      1  C   UNL     1     -15.563  -6.017  38.611  1.00  0.00    -0.006 A 
ATOM      2  C   UNL     1     -15.025  -5.735  39.883  1.00  0.00     0.122 A 
ATOM      3  C   UNL     1     -15.779  -6.006  41.034  1.00  0.00     0.092 A 
ATOM      4  C   UNL     1     -17.066  -6.541  40.929  1.00  0.00     0.119 A 
ATOM      5  C   UNL     1     -17.607  -6.807  39.665  1.00  0.00     0.047 A 
ATOM      6  C   UNL     1     -16.863  -6.542  38.513  1.00  0.00     0.011 A 
ENDROOT
BRANCH   1   7
ATOM      7  C   UNL     1     -14.788  -5.707  37.355  1.00  0.00     0.036 C 
ATOM      8  C   UNL     1     -13.861  -6.863  36.993  1.00  0.00     0.009 C 
ENDBRANCH   1   7
BRANCH   2   9
ATOM      9  O   UNL     1     -13.747  -5.189  39.999  1.00  0.00    -0.508 OA
ATOM     10  H   UNL     1     -13.596  -4.274  40.410  1.00  0.00     0.293 HD
ENDBRANCH   2   9
BRANCH   4  11
ATOM     11  O   UNL     1     -17.799  -6.803  42.084  1.00  0.00    -0.508 OA
ATOM     12  H   UNL     1     -18.803  -6.673  42.115  1.00  0.00     0.293 HD
ENDBRANCH   4  11
TORSDOF 3
ENDMDL
MODEL 6
REMARK VINA RESULT:    -4.695      2.886      5.169
REMARK INTER + INTRA:          -5.346
REMARK INTER:                  -5.259
REMARK INTRA:                  -0.086
REMARK UNBOUND:                -0.101
REMARK SMILES CCc1ccc(O)cc1O
REMARK SMILES IDX 3 1 9 2 8 3 6 4 5 5 4 6 2 7 1 8 10 9 7 11
REMARK H PARENT 10 10 7 12
REMARK Flexibility Score: inf
ROOT
ATOM      1  C   UNL     1     -10.618  -9.262  39.033  1.00  0.00    -0.006 A 
ATOM      2  C   UNL     1     -10.839  -9.347  37.644  1.00  0.00     0.122 A 
ATOM      3  C   UNL     1     -11.781  -8.504  37.035  1.00  0.00     0.092 A 
ATOM      4  C   UNL     1     -12.511  -7.588  37.799  1.00  0.00     0.119 A 
ATOM      5  C   UNL     1     -12.302  -7.513  39.181  1.00  0.00     0.047 A 
ATOM      6  C   UNL     1     -11.366  -8.348  39.796  1.00  0.00     0.011 A 
ENDROOT
BRANCH   1   7
ATOM      7  C   UNL     1      -9.634 -10.176  39.719  1.00  0.00     0.036 C 
ATOM      8  C   UNL     1      -9.893 -10.220  41.222  1.00  0.00     0.009 C 
ENDBRANCH   1   7
BRANCH   2   9
ATOM      9  O   UNL     1     -10.127 -10.266  36.874  1.00  0.00    -0.508 OA
ATOM     10  H   UNL     1      -9.132 -10.407  37.001  1.00  0.00     0.293 HD
ENDBRANCH   2   9
BRANCH   4  11
ATOM     11  O   UNL     1     -13.442  -6.760  37.176  1.00  0.00    -0.508 OA
ATOM     12  H   UNL     1     -13.226  -6.277  36.312  1.00  0.00     0.293 HD
ENDBRANCH   4  11
TORSDOF 3
ENDMDL
MODEL 7
REMARK VINA RESULT:    -4.657      2.103      3.822
REMARK INTER + INTRA:          -5.303
REMARK INTER:                  -5.217
REMARK INTRA:                  -0.085
REMARK UNBOUND:                -0.101
REMARK SMILES CCc1ccc(O)cc1O
REMARK SMILES IDX 3 1 9 2 8 3 6 4 5 5 4 6 2 7 1 8 10 9 7 11
REMARK H PARENT 10 10 7 12
REMARK Flexibility Score: inf
ROOT
ATOM      1  C   UNL     1     -13.697  -6.509  39.258  1.00  0.00    -0.006 A 
ATOM      2  C   UNL     1     -14.314  -6.076  40.449  1.00  0.00     0.122 A 
ATOM      3  C   UNL     1     -15.645  -5.634  40.424  1.00  0.00     0.092 A 
ATOM      4  C   UNL     1     -16.360  -5.606  39.223  1.00  0.00     0.119 A 
ATOM      5  C   UNL     1     -15.744  -6.021  38.037  1.00  0.00     0.047 A 
ATOM      6  C   UNL     1     -14.419  -6.465  38.053  1.00  0.00     0.011 A 
ENDROOT
BRANCH   1   7
ATOM      7  C   UNL     1     -12.259  -6.961  39.250  1.00  0.00     0.036 C 
ATOM      8  C   UNL     1     -12.027  -8.009  38.166  1.00  0.00     0.009 C 
ENDBRANCH   1   7
BRANCH   2   9
ATOM      9  O   UNL     1     -13.606  -6.086  41.650  1.00  0.00    -0.508 OA
ATOM     10  H   UNL     1     -14.045  -6.355  42.524  1.00  0.00     0.293 HD
ENDBRANCH   2   9
BRANCH   4  11
ATOM     11  O   UNL     1     -17.681  -5.162  39.219  1.00  0.00    -0.508 OA
ATOM     12  H   UNL     1     -18.118  -4.793  40.055  1.00  0.00     0.293 HD
ENDBRANCH   4  11
TORSDOF 3
ENDMDL
MODEL 8
REMARK VINA RESULT:    -4.619      1.670      3.136
REMARK INTER + INTRA:          -5.260
REMARK INTER:                  -5.175
REMARK INTRA:                  -0.085
REMARK UNBOUND:                -0.101
REMARK SMILES CCc1ccc(O)cc1O
REMARK SMILES IDX 3 1 9 2 8 3 6 4 5 5 4 6 2 7 1 8 10 9 7 11
REMARK H PARENT 10 10 7 12
REMARK Flexibility Score: inf
ROOT
ATOM      1  C   UNL     1     -12.689  -6.900  39.631  1.00  0.00    -0.006 A 
ATOM      2  C   UNL     1     -13.795  -6.105  39.270  1.00  0.00     0.122 A 
ATOM      3  C   UNL     1     -14.248  -6.102  37.943  1.00  0.00     0.092 A 
ATOM      4  C   UNL     1     -13.600  -6.872  36.971  1.00  0.00     0.119 A 
ATOM      5  C   UNL     1     -12.492  -7.650  37.326  1.00  0.00     0.047 A 
ATOM      6  C   UNL     1     -12.036  -7.661  38.646  1.00  0.00     0.011 A 
ENDROOT
BRANCH   1   7
ATOM      7  C   UNL     1     -12.162  -6.900  41.044  1.00  0.00     0.036 C 
ATOM      8  C   UNL     1     -11.142  -8.018  41.242  1.00  0.00     0.009 C 
ENDBRANCH   1   7
BRANCH   2   9
ATOM      9  O   UNL     1     -14.440  -5.323  40.227  1.00  0.00    -0.508 OA
ATOM     10  H   UNL     1     -13.947  -4.605  40.747  1.00  0.00     0.293 HD
ENDBRANCH   2   9
BRANCH   4  11
ATOM     11  O   UNL     1     -14.065  -6.854  35.658  1.00  0.00    -0.508 OA
ATOM     12  H   UNL     1     -14.993  -6.521  35.429  1.00  0.00     0.293 HD
ENDBRANCH   4  11
TORSDOF 3
ENDMDL
MODEL 9
REMARK VINA RESULT:    -4.567      6.810      7.976
REMARK INTER + INTRA:          -5.203
REMARK INTER:                  -5.116
REMARK INTRA:                  -0.086
REMARK UNBOUND:                -0.101
REMARK SMILES CCc1ccc(O)cc1O
REMARK SMILES IDX 3 1 9 2 8 3 6 4 5 5 4 6 2 7 1 8 10 9 7 11
REMARK H PARENT 10 10 7 12
REMARK Flexibility Score: inf
ROOT
ATOM      1  C   UNL     1     -16.404  -9.422  44.593  1.00  0.00    -0.006 A 
ATOM      2  C   UNL     1     -17.392  -9.422  43.587  1.00  0.00     0.122 A 
ATOM      3  C   UNL     1     -17.955  -8.210  43.164  1.00  0.00     0.092 A 
ATOM      4  C   UNL     1     -17.553  -7.001  43.741  1.00  0.00     0.119 A 
ATOM      5  C   UNL     1     -16.583  -7.002  44.750  1.00  0.00     0.047 A 
ATOM      6  C   UNL     1     -16.015  -8.205  45.177  1.00  0.00     0.011 A 
ENDROOT
BRANCH   1   7
ATOM      7  C   UNL     1     -15.803 -10.714  45.089  1.00  0.00     0.036 C 
ATOM      8  C   UNL     1     -15.053 -10.493  46.399  1.00  0.00     0.009 C 
ENDBRANCH   1   7
BRANCH   2   9
ATOM      9  O   UNL     1     -17.811 -10.622  43.014  1.00  0.00    -0.508 OA
ATOM     10  H   UNL     1     -18.521 -11.200  43.449  1.00  0.00     0.293 HD
ENDBRANCH   2   9
BRANCH   4  11
ATOM     11  O   UNL     1     -18.125  -5.807  43.307  1.00  0.00    -0.508 OA
ATOM     12  H   UNL     1     -17.960  -5.450  42.374  1.00  0.00     0.293 HD
ENDBRANCH   4  11
TORSDOF 3
ENDMDL
