MODEL 1
REMARK VINA RESULT:    -5.626      0.000      0.000
REMARK INTER + INTRA:          -8.318
REMARK INTER:                  -6.942
REMARK INTRA:                  -1.377
REMARK UNBOUND:                -1.377
REMARK SMILES CC(C)=CCC[C@@H](C)c1ccc(C)cc1
REMARK SMILES IDX 6 1 7 2 8 3 9 4 13 5 12 6 11 7 14 8 10 9 15 10 5 11 4 12
REMARK SMILES IDX 2 13 1 14 3 15
REMARK H PARENT
REMARK Flexibility Score: inf
ROOT
ATOM      1  C   UNL     1      91.088 100.805  99.357  1.00  0.00     0.012 C 
ENDROOT
BRANCH   1   2
ATOM      2  C   UNL     1      91.196 102.231  99.947  1.00  0.00     0.016 C 
ATOM      3  C   UNL     1      91.238 102.235 101.482  1.00  0.00     0.013 C 
BRANCH   2   4
ATOM      4  C   UNL     1      92.417 102.940  99.385  1.00  0.00    -0.045 A 
ATOM      5  C   UNL     1      95.868 104.977  97.774  1.00  0.00     0.044 C 
ATOM      6  C   UNL     1      94.669 104.251  98.308  1.00  0.00    -0.051 A 
ATOM      7  C   UNL     1      93.379 104.735  98.052  1.00  0.00     0.004 A 
ATOM      8  C   UNL     1      94.831 103.122  99.123  1.00  0.00     0.004 A 
ATOM      9  C   UNL     1      92.261 104.081  98.579  1.00  0.00     0.004 A 
ATOM     10  C   UNL     1      93.716 102.467  99.651  1.00  0.00     0.004 A 
ENDBRANCH   2   4
ENDBRANCH   1   2
BRANCH   1  11
ATOM     11  C   UNL     1      90.875 100.778  97.830  1.00  0.00     0.028 C 
BRANCH  11  12
ATOM     12  C   UNL     1      91.837  99.844  97.132  1.00  0.00    -0.028 C 
ATOM     13  C   UNL     1      92.846 100.248  96.328  1.00  0.00    -0.080 C 
ATOM     14  C   UNL     1      93.737  99.198  95.714  1.00  0.00     0.039 C 
ATOM     15  C   UNL     1      93.083 101.705  96.005  1.00  0.00     0.039 C 
ENDBRANCH  11  12
ENDBRANCH   1  11
TORSDOF 4
ENDMDL
MODEL 2
REMARK VINA RESULT:    -5.624      0.194      1.264
REMARK INTER + INTRA:          -8.316
REMARK INTER:                  -6.925
REMARK INTRA:                  -1.391
REMARK UNBOUND:                -1.377
REMARK SMILES CC(C)=CCC[C@@H](C)c1ccc(C)cc1
REMARK SMILES IDX 6 1 7 2 8 3 9 4 13 5 12 6 11 7 14 8 10 9 15 10 5 11 4 12
REMARK SMILES IDX 2 13 1 14 3 15
REMARK H PARENT
REMARK Flexibility Score: inf
ROOT
ATOM      1  C   UNL     1      91.044 100.796  99.264  1.00  0.00     0.012 C 
ENDROOT
BRANCH   1   2
ATOM      2  C   UNL     1      91.102 102.229  99.844  1.00  0.00     0.016 C 
ATOM      3  C   UNL     1      90.990 102.253 101.375  1.00  0.00     0.013 C 
BRANCH   2   4
ATOM      4  C   UNL     1      92.378 102.924  99.398  1.00  0.00    -0.045 A 
ATOM      5  C   UNL     1      96.021 104.875  98.142  1.00  0.00     0.044 C 
ATOM      6  C   UNL     1      94.756 104.215  98.604  1.00  0.00    -0.051 A 
ATOM      7  C   UNL     1      94.809 103.027  99.345  1.00  0.00     0.004 A 
ATOM      8  C   UNL     1      93.509 104.744  98.241  1.00  0.00     0.004 A 
ATOM      9  C   UNL     1      93.630 102.390  99.746  1.00  0.00     0.004 A 
ATOM     10  C   UNL     1      92.330 104.110  98.640  1.00  0.00     0.004 A 
ENDBRANCH   2   4
ENDBRANCH   1   2
BRANCH   1  11
ATOM     11  C   UNL     1      90.875 100.751  97.731  1.00  0.00     0.028 C 
BRANCH  11  12
ATOM     12  C   UNL     1      91.889  99.848  97.068  1.00  0.00    -0.028 C 
ATOM     13  C   UNL     1      92.924 100.285  96.315  1.00  0.00    -0.080 C 
ATOM     14  C   UNL     1      93.866  99.263  95.731  1.00  0.00     0.039 C 
ATOM     15  C   UNL     1      93.140 101.751  96.019  1.00  0.00     0.039 C 
ENDBRANCH  11  12
ENDBRANCH   1  11
TORSDOF 4
ENDMDL
MODEL 3
REMARK VINA RESULT:    -5.480      1.484      4.826
REMARK INTER + INTRA:          -8.138
REMARK INTER:                  -7.100
REMARK INTRA:                  -1.038
REMARK UNBOUND:                -1.377
REMARK SMILES CC(C)=CCC[C@@H](C)c1ccc(C)cc1
REMARK SMILES IDX 6 1 7 2 8 3 9 4 13 5 12 6 11 7 14 8 10 9 15 10 5 11 4 12
REMARK SMILES IDX 2 13 1 14 3 15
REMARK H PARENT
REMARK Flexibility Score: inf
ROOT
ATOM      1  C   UNL     1      92.621 101.804 100.444  1.00  0.00     0.012 C 
ENDROOT
BRANCH   1   2
ATOM      2  C   UNL     1      91.224 101.961  99.799  1.00  0.00     0.016 C 
ATOM      3  C   UNL     1      90.875 103.424  99.491  1.00  0.00     0.013 C 
BRANCH   2   4
ATOM      4  C   UNL     1      91.133 101.121  98.536  1.00  0.00    -0.045 A 
ATOM      5  C   UNL     1      90.875  98.706  94.964  1.00  0.00     0.044 C 
ATOM      6  C   UNL     1      90.995  99.546  96.200  1.00  0.00    -0.051 A 
ATOM      7  C   UNL     1      91.139  98.940  97.455  1.00  0.00     0.004 A 
ATOM      8  C   UNL     1      90.898 100.943  96.118  1.00  0.00     0.004 A 
ATOM      9  C   UNL     1      91.215  99.720  98.614  1.00  0.00     0.004 A 
ATOM     10  C   UNL     1      90.974 101.724  97.274  1.00  0.00     0.004 A 
ENDBRANCH   2   4
ENDBRANCH   1   2
BRANCH   1  11
ATOM     11  C   UNL     1      93.789 101.990  99.455  1.00  0.00     0.028 C 
BRANCH  11  12
ATOM     12  C   UNL     1      94.388 103.375  99.526  1.00  0.00    -0.028 C 
ATOM     13  C   UNL     1      94.382 104.263  98.508  1.00  0.00    -0.080 C 
ATOM     14  C   UNL     1      95.004 105.618  98.734  1.00  0.00     0.039 C 
ATOM     15  C   UNL     1      93.805 103.928  97.152  1.00  0.00     0.039 C 
ENDBRANCH  11  12
ENDBRANCH   1  11
TORSDOF 4
ENDMDL
MODEL 4
REMARK VINA RESULT:    -5.315      1.382      5.198
REMARK INTER + INTRA:          -7.934
REMARK INTER:                  -7.264
REMARK INTRA:                  -0.670
REMARK UNBOUND:                -1.377
REMARK SMILES CC(C)=CCC[C@@H](C)c1ccc(C)cc1
REMARK SMILES IDX 6 1 7 2 8 3 9 4 13 5 12 6 11 7 14 8 10 9 15 10 5 11 4 12
REMARK SMILES IDX 2 13 1 14 3 15
REMARK H PARENT
REMARK Flexibility Score: inf
ROOT
ATOM      1  C   UNL     1      91.145 103.527  97.653  1.00  0.00     0.012 C 
ENDROOT
BRANCH   1   2
ATOM      2  C   UNL     1      91.671 102.636  96.504  1.00  0.00     0.016 C 
ATOM      3  C   UNL     1      93.114 102.978  96.103  1.00  0.00     0.013 C 
BRANCH   2   4
ATOM      4  C   UNL     1      91.564 101.170  96.886  1.00  0.00    -0.045 A 
ATOM      5  C   UNL     1      91.242  97.009  98.000  1.00  0.00     0.044 C 
ATOM      6  C   UNL     1      91.381  98.455  97.626  1.00  0.00    -0.051 A 
ATOM      7  C   UNL     1      90.876  99.454  98.470  1.00  0.00     0.004 A 
ATOM      8  C   UNL     1      91.958  98.816  96.400  1.00  0.00     0.004 A 
ATOM      9  C   UNL     1      90.973 100.801  98.107  1.00  0.00     0.004 A 
ATOM     10  C   UNL     1      92.056 100.161  96.036  1.00  0.00     0.004 A 
ENDBRANCH   2   4
ENDBRANCH   1   2
BRANCH   1  11
ATOM     11  C   UNL     1      92.258 104.220  98.465  1.00  0.00     0.028 C 
BRANCH  11  12
ATOM     12  C   UNL     1      92.945 103.274  99.422  1.00  0.00    -0.028 C 
ATOM     13  C   UNL     1      94.281 103.230  99.626  1.00  0.00    -0.080 C 
ATOM     14  C   UNL     1      94.821 102.243 100.629  1.00  0.00     0.039 C 
ATOM     15  C   UNL     1      95.240 104.112  98.861  1.00  0.00     0.039 C 
ENDBRANCH  11  12
ENDBRANCH   1  11
TORSDOF 4
ENDMDL
MODEL 5
REMARK VINA RESULT:    -5.290      1.378      2.159
REMARK INTER + INTRA:          -7.903
REMARK INTER:                  -7.175
REMARK INTRA:                  -0.728
REMARK UNBOUND:                -1.377
REMARK SMILES CC(C)=CCC[C@@H](C)c1ccc(C)cc1
REMARK SMILES IDX 6 1 7 2 8 3 9 4 13 5 12 6 11 7 14 8 10 9 15 10 5 11 4 12
REMARK SMILES IDX 2 13 1 14 3 15
REMARK H PARENT
REMARK Flexibility Score: inf
ROOT
ATOM      1  C   UNL     1      90.910 101.535  96.626  1.00  0.00     0.012 C 
ENDROOT
BRANCH   1   2
ATOM      2  C   UNL     1      91.080 102.739  97.582  1.00  0.00     0.016 C 
ATOM      3  C   UNL     1      90.875 102.359  99.055  1.00  0.00     0.013 C 
BRANCH   2   4
ATOM      4  C   UNL     1      92.447 103.373  97.387  1.00  0.00    -0.045 A 
ATOM      5  C   UNL     1      96.331 105.189  96.861  1.00  0.00     0.044 C 
ATOM      6  C   UNL     1      94.970 104.583  97.031  1.00  0.00    -0.051 A 
ATOM      7  C   UNL     1      94.261 104.762  98.227  1.00  0.00     0.004 A 
ATOM      8  C   UNL     1      94.422 103.779  96.020  1.00  0.00     0.004 A 
ATOM      9  C   UNL     1      93.007 104.168  98.402  1.00  0.00     0.004 A 
ATOM     10  C   UNL     1      93.169 103.186  96.193  1.00  0.00     0.004 A 
ENDBRANCH   2   4
ENDBRANCH   1   2
BRANCH   1  11
ATOM     11  C   UNL     1      91.444 100.206  97.196  1.00  0.00     0.028 C 
BRANCH  11  12
ATOM     12  C   UNL     1      92.762  99.802  96.576  1.00  0.00    -0.028 C 
ATOM     13  C   UNL     1      92.884  99.135  95.407  1.00  0.00    -0.080 C 
ATOM     14  C   UNL     1      94.269  98.816  94.905  1.00  0.00     0.039 C 
ATOM     15  C   UNL     1      91.682  98.675  94.615  1.00  0.00     0.039 C 
ENDBRANCH  11  12
ENDBRANCH   1  11
TORSDOF 4
ENDMDL
MODEL 6
REMARK VINA RESULT:    -5.199      1.031      4.602
REMARK INTER + INTRA:          -7.791
REMARK INTER:                  -6.715
REMARK INTRA:                  -1.077
REMARK UNBOUND:                -1.377
REMARK SMILES CC(C)=CCC[C@@H](C)c1ccc(C)cc1
REMARK SMILES IDX 6 1 7 2 8 3 9 4 13 5 12 6 11 7 14 8 10 9 15 10 5 11 4 12
REMARK SMILES IDX 2 13 1 14 3 15
REMARK H PARENT
REMARK Flexibility Score: inf
ROOT
ATOM      1  C   UNL     1      91.844 104.052  98.976  1.00  0.00     0.012 C 
ENDROOT
BRANCH   1   2
ATOM      2  C   UNL     1      92.186 102.628  99.472  1.00  0.00     0.016 C 
ATOM      3  C   UNL     1      91.262 102.157 100.604  1.00  0.00     0.013 C 
BRANCH   2   4
ATOM      4  C   UNL     1      92.143 101.645  98.313  1.00  0.00    -0.045 A 
ATOM      5  C   UNL     1      92.040  98.872  95.003  1.00  0.00     0.044 C 
ATOM      6  C   UNL     1      92.050  99.848  96.142  1.00  0.00    -0.051 A 
ATOM      7  C   UNL     1      92.757 101.053  96.033  1.00  0.00     0.004 A 
ATOM      8  C   UNL     1      91.408  99.534  97.349  1.00  0.00     0.004 A 
ATOM      9  C   UNL     1      92.797 101.949  97.107  1.00  0.00     0.004 A 
ATOM     10  C   UNL     1      91.447 100.427  98.422  1.00  0.00     0.004 A 
ENDBRANCH   2   4
ENDBRANCH   1   2
BRANCH   1  11
ATOM     11  C   UNL     1      92.946 105.093  99.261  1.00  0.00     0.028 C 
BRANCH  11  12
ATOM     12  C   UNL     1      93.889 105.267  98.093  1.00  0.00    -0.028 C 
ATOM     13  C   UNL     1      95.110 104.696  98.005  1.00  0.00    -0.080 C 
ATOM     14  C   UNL     1      95.932 104.948  96.766  1.00  0.00     0.039 C 
ATOM     15  C   UNL     1      95.682 103.847  99.116  1.00  0.00     0.039 C 
ENDBRANCH  11  12
ENDBRANCH   1  11
TORSDOF 4
ENDMDL
MODEL 7
REMARK VINA RESULT:    -4.864      1.259      4.618
REMARK INTER + INTRA:          -7.378
REMARK INTER:                  -5.857
REMARK INTRA:                  -1.521
REMARK UNBOUND:                -1.377
REMARK SMILES CC(C)=CCC[C@@H](C)c1ccc(C)cc1
REMARK SMILES IDX 6 1 7 2 8 3 9 4 13 5 12 6 11 7 14 8 10 9 15 10 5 11 4 12
REMARK SMILES IDX 2 13 1 14 3 15
REMARK H PARENT
REMARK Flexibility Score: inf
ROOT
ATOM      1  C   UNL     1      92.995 102.994  95.751  1.00  0.00     0.012 C 
ENDROOT
BRANCH   1   2
ATOM      2  C   UNL     1      92.201 101.815  96.361  1.00  0.00     0.016 C 
ATOM      3  C   UNL     1      92.947 100.477  96.247  1.00  0.00     0.013 C 
BRANCH   2   4
ATOM      4  C   UNL     1      91.861 102.107  97.812  1.00  0.00    -0.045 A 
ATOM      5  C   UNL     1      90.879 102.964 101.930  1.00  0.00     0.044 C 
ATOM      6  C   UNL     1      91.247 102.680 100.504  1.00  0.00    -0.051 A 
ATOM      7  C   UNL     1      90.875 103.571  99.488  1.00  0.00     0.004 A 
ATOM      8  C   UNL     1      91.908 101.490 100.168  1.00  0.00     0.004 A 
ATOM      9  C   UNL     1      91.185 103.291  98.154  1.00  0.00     0.004 A 
ATOM     10  C   UNL     1      92.220 101.209  98.835  1.00  0.00     0.004 A 
ENDBRANCH   2   4
ENDBRANCH   1   2
BRANCH   1  11
ATOM     11  C   UNL     1      94.349 103.257  96.440  1.00  0.00     0.028 C 
BRANCH  11  12
ATOM     12  C   UNL     1      94.366 104.567  97.192  1.00  0.00    -0.028 C 
ATOM     13  C   UNL     1      94.624 104.686  98.514  1.00  0.00    -0.080 C 
ATOM     14  C   UNL     1      94.624 106.065  99.123  1.00  0.00     0.039 C 
ATOM     15  C   UNL     1      94.876 103.485  99.395  1.00  0.00     0.039 C 
ENDBRANCH  11  12
ENDBRANCH   1  11
TORSDOF 4
ENDMDL
MODEL 8
REMARK VINA RESULT:    -3.593      1.252      4.493
REMARK INTER + INTRA:          -5.810
REMARK INTER:                  -4.548
REMARK INTRA:                  -1.263
REMARK UNBOUND:                -1.377
REMARK SMILES CC(C)=CCC[C@@H](C)c1ccc(C)cc1
REMARK SMILES IDX 6 1 7 2 8 3 9 4 13 5 12 6 11 7 14 8 10 9 15 10 5 11 4 12
REMARK SMILES IDX 2 13 1 14 3 15
REMARK H PARENT
REMARK Flexibility Score: inf
ROOT
ATOM      1  C   UNL     1      90.877 101.506  98.921  1.00  0.00     0.012 C 
ENDROOT
BRANCH   1   2
ATOM      2  C   UNL     1      90.875 101.836  97.410  1.00  0.00     0.016 C 
ATOM      3  C   UNL     1      91.132 103.324  97.129  1.00  0.00     0.013 C 
BRANCH   2   4
ATOM      4  C   UNL     1      91.898 100.979  96.685  1.00  0.00    -0.045 A 
ATOM      5  C   UNL     1      94.787  98.517  94.623  1.00  0.00     0.044 C 
ATOM      6  C   UNL     1      93.795  99.362  95.366  1.00  0.00    -0.051 A 
ATOM      7  C   UNL     1      92.523  98.858  95.666  1.00  0.00     0.004 A 
ATOM      8  C   UNL     1      94.110 100.686  95.708  1.00  0.00     0.004 A 
ATOM      9  C   UNL     1      91.584  99.657  96.327  1.00  0.00     0.004 A 
ATOM     10  C   UNL     1      93.174 101.485  96.368  1.00  0.00     0.004 A 
ENDBRANCH   2   4
ENDBRANCH   1   2
BRANCH   1  11
ATOM     11  C   UNL     1      91.797 102.419  99.758  1.00  0.00     0.028 C 
BRANCH  11  12
ATOM     12  C   UNL     1      93.126 101.770 100.065  1.00  0.00    -0.028 C 
ATOM     13  C   UNL     1      94.327 102.291  99.730  1.00  0.00    -0.080 C 
ATOM     14  C   UNL     1      95.571 101.535 100.120  1.00  0.00     0.039 C 
ATOM     15  C   UNL     1      94.454 103.582  98.953  1.00  0.00     0.039 C 
ENDBRANCH  11  12
ENDBRANCH   1  11
TORSDOF 4
ENDMDL
