MODEL 1
REMARK VINA RESULT:    -3.769      0.000      0.000
REMARK INTER + INTRA:          -4.551
REMARK INTER:                  -4.430
REMARK INTRA:                  -0.120
REMARK UNBOUND:                -0.120
REMARK SMILES O=C([O-])CCC(=O)[O-]
REMARK SMILES IDX 4 1 2 2 1 3 3 4 5 5 6 6 7 7 8 8
REMARK H PARENT
REMARK Flexibility Score: inf
ROOT
ATOM      1  C   UNL     1      -6.110   5.911  -3.482  1.00  0.00     0.059 C 
ENDROOT
BRANCH   1   2
ATOM      2  C   UNL     1      -4.719   6.362  -3.157  1.00  0.00     0.042 C 
ATOM      3  O   UNL     1      -3.728   5.679  -3.530  1.00  0.00    -0.550 OA
ATOM      4  O   UNL     1      -4.514   7.557  -2.479  1.00  0.00    -0.550 OA
ENDBRANCH   1   2
BRANCH   1   5
ATOM      5  C   UNL     1      -7.127   7.042  -3.297  1.00  0.00     0.059 C 
BRANCH   5   6
ATOM      6  C   UNL     1      -7.405   7.750  -4.587  1.00  0.00     0.042 C 
ATOM      7  O   UNL     1      -8.414   7.442  -5.275  1.00  0.00    -0.550 OA
ATOM      8  O   UNL     1      -6.528   8.723  -5.050  1.00  0.00    -0.550 OA
ENDBRANCH   5   6
ENDBRANCH   1   5
TORSDOF 3
ENDMDL
MODEL 2
REMARK VINA RESULT:    -3.727      1.706      3.349
REMARK INTER + INTRA:          -4.501
REMARK INTER:                  -4.344
REMARK INTRA:                  -0.157
REMARK UNBOUND:                -0.120
REMARK SMILES O=C([O-])CCC(=O)[O-]
REMARK SMILES IDX 4 1 2 2 1 3 3 4 5 5 6 6 7 7 8 8
REMARK H PARENT
REMARK Flexibility Score: inf
ROOT
ATOM      1  C   UNL     1      -5.900   6.111  -3.452  1.00  0.00     0.059 C 
ENDROOT
BRANCH   1   2
ATOM      2  C   UNL     1      -7.365   6.367  -3.631  1.00  0.00     0.042 C 
ATOM      3  O   UNL     1      -8.180   6.052  -2.724  1.00  0.00    -0.550 OA
ATOM      4  O   UNL     1      -7.826   6.994  -4.783  1.00  0.00    -0.550 OA
ENDBRANCH   1   2
BRANCH   1   5
ATOM      5  C   UNL     1      -5.062   7.338  -3.825  1.00  0.00     0.059 C 
BRANCH   5   6
ATOM      6  C   UNL     1      -5.183   8.422  -2.798  1.00  0.00     0.042 C 
ATOM      7  O   UNL     1      -5.816   9.478  -3.063  1.00  0.00    -0.550 OA
ATOM      8  O   UNL     1      -4.562   8.282  -1.564  1.00  0.00    -0.550 OA
ENDBRANCH   5   6
ENDBRANCH   1   5
TORSDOF 3
ENDMDL
MODEL 3
REMARK VINA RESULT:    -3.722      0.432      3.549
REMARK INTER + INTRA:          -4.495
REMARK INTER:                  -4.365
REMARK INTRA:                  -0.130
REMARK UNBOUND:                -0.120
REMARK SMILES O=C([O-])CCC(=O)[O-]
REMARK SMILES IDX 4 1 2 2 1 3 3 4 5 5 6 6 7 7 8 8
REMARK H PARENT
REMARK Flexibility Score: inf
ROOT
ATOM      1  C   UNL     1      -7.238   6.715  -3.136  1.00  0.00     0.059 C 
ENDROOT
BRANCH   1   2
ATOM      2  C   UNL     1      -7.530   7.593  -4.314  1.00  0.00     0.042 C 
ATOM      3  O   UNL     1      -8.276   7.182  -5.242  1.00  0.00    -0.550 OA
ATOM      4  O   UNL     1      -7.013   8.882  -4.366  1.00  0.00    -0.550 OA
ENDBRANCH   1   2
BRANCH   1   5
ATOM      5  C   UNL     1      -6.126   5.707  -3.444  1.00  0.00     0.059 C 
BRANCH   5   6
ATOM      6  C   UNL     1      -4.770   6.339  -3.359  1.00  0.00     0.042 C 
ATOM      7  O   UNL     1      -3.813   5.880  -4.036  1.00  0.00    -0.550 OA
ATOM      8  O   UNL     1      -4.555   7.409  -2.500  1.00  0.00    -0.550 OA
ENDBRANCH   5   6
ENDBRANCH   1   5
TORSDOF 3
ENDMDL
MODEL 4
REMARK VINA RESULT:    -3.693      1.773      2.470
REMARK INTER + INTRA:          -4.461
REMARK INTER:                  -4.350
REMARK INTRA:                  -0.110
REMARK UNBOUND:                -0.120
REMARK SMILES O=C([O-])CCC(=O)[O-]
REMARK SMILES IDX 4 1 2 2 1 3 3 4 5 5 6 6 7 7 8 8
REMARK H PARENT
REMARK Flexibility Score: inf
ROOT
ATOM      1  C   UNL     1      -5.121   7.082  -2.968  1.00  0.00     0.059 C 
ENDROOT
BRANCH   1   2
ATOM      2  C   UNL     1      -4.832   8.148  -3.981  1.00  0.00     0.042 C 
ATOM      3  O   UNL     1      -5.181   9.339  -3.764  1.00  0.00    -0.550 OA
ATOM      4  O   UNL     1      -4.142   7.834  -5.145  1.00  0.00    -0.550 OA
ENDBRANCH   1   2
BRANCH   1   5
ATOM      5  C   UNL     1      -5.965   5.951  -3.564  1.00  0.00     0.059 C 
BRANCH   5   6
ATOM      6  C   UNL     1      -7.414   6.324  -3.638  1.00  0.00     0.042 C 
ATOM      7  O   UNL     1      -8.189   6.051  -2.684  1.00  0.00    -0.550 OA
ATOM      8  O   UNL     1      -7.916   6.938  -4.778  1.00  0.00    -0.550 OA
ENDBRANCH   5   6
ENDBRANCH   1   5
TORSDOF 3
ENDMDL
MODEL 5
REMARK VINA RESULT:    -3.683      1.432      1.938
REMARK INTER + INTRA:          -4.450
REMARK INTER:                  -4.331
REMARK INTRA:                  -0.119
REMARK UNBOUND:                -0.120
REMARK SMILES O=C([O-])CCC(=O)[O-]
REMARK SMILES IDX 4 1 2 2 1 3 3 4 5 5 6 6 7 7 8 8
REMARK H PARENT
REMARK Flexibility Score: inf
ROOT
ATOM      1  C   UNL     1      -5.385   7.236  -2.943  1.00  0.00     0.059 C 
ENDROOT
BRANCH   1   2
ATOM      2  C   UNL     1      -4.376   6.832  -3.974  1.00  0.00     0.042 C 
ATOM      3  O   UNL     1      -4.109   7.600  -4.936  1.00  0.00    -0.550 OA
ATOM      4  O   UNL     1      -3.699   5.625  -3.849  1.00  0.00    -0.550 OA
ENDBRANCH   1   2
BRANCH   1   5
ATOM      5  C   UNL     1      -6.571   7.973  -3.573  1.00  0.00     0.059 C 
BRANCH   5   6
ATOM      6  C   UNL     1      -7.556   7.018  -4.175  1.00  0.00     0.042 C 
ATOM      7  O   UNL     1      -8.221   7.350  -5.192  1.00  0.00    -0.550 OA
ATOM      8  O   UNL     1      -7.768   5.776  -3.590  1.00  0.00    -0.550 OA
ENDBRANCH   5   6
ENDBRANCH   1   5
TORSDOF 3
ENDMDL
MODEL 6
REMARK VINA RESULT:    -3.272      1.720      2.241
REMARK INTER + INTRA:          -3.967
REMARK INTER:                  -3.831
REMARK INTRA:                  -0.135
REMARK UNBOUND:                -0.120
REMARK SMILES O=C([O-])CCC(=O)[O-]
REMARK SMILES IDX 4 1 2 2 1 3 3 4 5 5 6 6 7 7 8 8
REMARK H PARENT
REMARK Flexibility Score: inf
ROOT
ATOM      1  C   UNL     1      -5.349   7.672  -3.701  1.00  0.00     0.059 C 
ENDROOT
BRANCH   1   2
ATOM      2  C   UNL     1      -5.254   8.574  -2.508  1.00  0.00     0.042 C 
ATOM      3  O   UNL     1      -4.538   8.249  -1.524  1.00  0.00    -0.550 OA
ATOM      4  O   UNL     1      -5.922   9.792  -2.501  1.00  0.00    -0.550 OA
ENDBRANCH   1   2
BRANCH   1   5
ATOM      5  C   UNL     1      -6.419   6.592  -3.508  1.00  0.00     0.059 C 
BRANCH   5   6
ATOM      6  C   UNL     1      -7.782   7.093  -3.876  1.00  0.00     0.042 C 
ATOM      7  O   UNL     1      -8.136   7.139  -5.083  1.00  0.00    -0.550 OA
ATOM      8  O   UNL     1      -8.646   7.547  -2.888  1.00  0.00    -0.550 OA
ENDBRANCH   5   6
ENDBRANCH   1   5
TORSDOF 3
ENDMDL
MODEL 7
REMARK VINA RESULT:    -3.142     14.298     15.937
REMARK INTER + INTRA:          -3.813
REMARK INTER:                  -3.736
REMARK INTRA:                  -0.078
REMARK UNBOUND:                -0.120
REMARK SMILES O=C([O-])CCC(=O)[O-]
REMARK SMILES IDX 4 1 2 2 1 3 3 4 5 5 6 6 7 7 8 8
REMARK H PARENT
REMARK Flexibility Score: inf
ROOT
ATOM      1  C   UNL     1       7.210   2.371   5.496  1.00  0.00     0.059 C 
ENDROOT
BRANCH   1   2
ATOM      2  C   UNL     1       7.456   1.119   4.710  1.00  0.00     0.042 C 
ATOM      3  O   UNL     1       6.647   0.156   4.781  1.00  0.00    -0.550 OA
ATOM      4  O   UNL     1       8.558   1.032   3.867  1.00  0.00    -0.550 OA
ENDBRANCH   1   2
BRANCH   1   5
ATOM      5  C   UNL     1       5.737   2.506   5.895  1.00  0.00     0.059 C 
BRANCH   5   6
ATOM      6  C   UNL     1       5.032   3.532   5.061  1.00  0.00     0.042 C 
ATOM      7  O   UNL     1       3.861   3.320   4.650  1.00  0.00    -0.550 OA
ATOM      8  O   UNL     1       5.683   4.706   4.706  1.00  0.00    -0.550 OA
ENDBRANCH   5   6
ENDBRANCH   1   5
TORSDOF 3
ENDMDL
MODEL 8
REMARK VINA RESULT:    -3.138     14.275     16.261
REMARK INTER + INTRA:          -3.809
REMARK INTER:                  -3.740
REMARK INTRA:                  -0.069
REMARK UNBOUND:                -0.120
REMARK SMILES O=C([O-])CCC(=O)[O-]
REMARK SMILES IDX 4 1 2 2 1 3 3 4 5 5 6 6 7 7 8 8
REMARK H PARENT
REMARK Flexibility Score: inf
ROOT
ATOM      1  C   UNL     1       5.729   2.534   5.843  1.00  0.00     0.059 C 
ENDROOT
BRANCH   1   2
ATOM      2  C   UNL     1       5.076   3.612   5.032  1.00  0.00     0.042 C 
ATOM      3  O   UNL     1       3.915   3.445   4.573  1.00  0.00    -0.550 OA
ATOM      4  O   UNL     1       5.732   4.818   4.820  1.00  0.00    -0.550 OA
ENDBRANCH   1   2
BRANCH   1   5
ATOM      5  C   UNL     1       7.208   2.372   5.478  1.00  0.00     0.059 C 
BRANCH   5   6
ATOM      6  C   UNL     1       7.454   1.101   4.725  1.00  0.00     0.042 C 
ATOM      7  O   UNL     1       8.498   0.965   4.034  1.00  0.00    -0.550 OA
ATOM      8  O   UNL     1       6.511   0.082   4.754  1.00  0.00    -0.550 OA
ENDBRANCH   5   6
ENDBRANCH   1   5
TORSDOF 3
ENDMDL
MODEL 9
REMARK VINA RESULT:    -3.098      1.629      3.529
REMARK INTER + INTRA:          -3.762
REMARK INTER:                  -3.624
REMARK INTRA:                  -0.138
REMARK UNBOUND:                -0.120
REMARK SMILES O=C([O-])CCC(=O)[O-]
REMARK SMILES IDX 4 1 2 2 1 3 3 4 5 5 6 6 7 7 8 8
REMARK H PARENT
REMARK Flexibility Score: inf
ROOT
ATOM      1  C   UNL     1      -4.968   8.644  -3.807  1.00  0.00     0.059 C 
ENDROOT
BRANCH   1   2
ATOM      2  C   UNL     1      -6.325   8.777  -4.427  1.00  0.00     0.042 C 
ATOM      3  O   UNL     1      -6.444   8.874  -5.677  1.00  0.00    -0.550 OA
ATOM      4  O   UNL     1      -7.461   8.751  -3.627  1.00  0.00    -0.550 OA
ENDBRANCH   1   2
BRANCH   1   5
ATOM      5  C   UNL     1      -4.925   7.508  -2.780  1.00  0.00     0.059 C 
BRANCH   5   6
ATOM      6  C   UNL     1      -4.895   6.166  -3.444  1.00  0.00     0.042 C 
ATOM      7  O   UNL     1      -5.939   5.465  -3.506  1.00  0.00    -0.550 OA
ATOM      8  O   UNL     1      -3.703   5.671  -3.959  1.00  0.00    -0.550 OA
ENDBRANCH   5   6
ENDBRANCH   1   5
TORSDOF 3
ENDMDL
