MODEL 1
REMARK VINA RESULT:    -4.747      0.000      0.000
REMARK INTER + INTRA:         -12.175
REMARK INTER:                  -9.187
REMARK INTRA:                  -2.988
REMARK UNBOUND:                -2.988
REMARK SMILES CCCCCC=CCC=CCCCCCCCCOC(C)=O
REMARK SMILES IDX 12 1 11 2 10 3 9 4 8 5 7 6 6 7 5 8 4 9 3 10 2 11 1 12 13 13
REMARK SMILES IDX 14 14 15 15 16 16 17 17 18 18 19 19 20 20 22 21 21 22
REMARK H PARENT
REMARK Flexibility Score: inf
ROOT
ATOM      1  C   UNL     1     -21.778  -6.123  -9.854  1.00  0.00     0.004 C 
ENDROOT
BRANCH   1   2
ATOM      2  C   UNL     1     -21.684  -5.072 -10.970  1.00  0.00     0.027 C 
BRANCH   2   3
ATOM      3  C   UNL     1     -22.411  -3.806 -10.587  1.00  0.00    -0.031 C 
ATOM      4  C   UNL     1     -21.812  -2.604 -10.546  1.00  0.00    -0.027 C 
BRANCH   4   5
ATOM      5  C   UNL     1     -20.352  -2.401 -10.875  1.00  0.00     0.054 C 
BRANCH   5   6
ATOM      6  C   UNL     1     -19.619  -1.755  -9.730  1.00  0.00    -0.027 C 
ATOM      7  C   UNL     1     -19.059  -2.426  -8.705  1.00  0.00    -0.031 C 
BRANCH   7   8
ATOM      8  C   UNL     1     -19.104  -3.927  -8.528  1.00  0.00     0.027 C 
BRANCH   8   9
ATOM      9  C   UNL     1     -19.791  -4.315  -7.213  1.00  0.00     0.004 C 
BRANCH   9  10
ATOM     10  C   UNL     1     -21.164  -3.645  -7.055  1.00  0.00     0.000 C 
BRANCH  10  11
ATOM     11  C   UNL     1     -22.081  -4.475  -6.150  1.00  0.00    -0.003 C 
ATOM     12  C   UNL     1     -23.346  -4.899  -6.888  1.00  0.00     0.004 C 
ENDBRANCH  10  11
ENDBRANCH   9  10
ENDBRANCH   8   9
ENDBRANCH   7   8
ENDBRANCH   5   6
ENDBRANCH   4   5
ENDBRANCH   2   3
ENDBRANCH   1   2
BRANCH   1  13
ATOM     13  C   UNL     1     -20.769  -7.267 -10.034  1.00  0.00     0.000 C 
BRANCH  13  14
ATOM     14  C   UNL     1     -20.037  -7.621  -8.730  1.00  0.00     0.000 C 
BRANCH  14  15
ATOM     15  C   UNL     1     -21.028  -7.772  -7.567  1.00  0.00     0.000 C 
BRANCH  15  16
ATOM     16  C   UNL     1     -20.908  -9.127  -6.845  1.00  0.00     0.003 C 
BRANCH  16  17
ATOM     17  C   UNL     1     -22.161  -9.562  -6.065  1.00  0.00     0.042 C 
BRANCH  17  18
ATOM     18  C   UNL     1     -22.974  -8.377  -5.526  1.00  0.00     0.233 C 
BRANCH  18  19
ATOM     19  O   UNL     1     -23.342  -8.607  -4.167  1.00  0.00    -0.466 OA
BRANCH  19  20
ATOM     20  C   UNL     1     -23.536  -7.580  -3.237  1.00  0.00     0.302 C 
ATOM     21  O   UNL     1     -22.923  -7.581  -2.135  1.00  0.00    -0.253 OA
ATOM     22  C   UNL     1     -24.520  -6.499  -3.532  1.00  0.00     0.139 C 
ENDBRANCH  19  20
ENDBRANCH  18  19
ENDBRANCH  17  18
ENDBRANCH  16  17
ENDBRANCH  15  16
ENDBRANCH  14  15
ENDBRANCH  13  14
ENDBRANCH   1  13
TORSDOF 16
ENDMDL
MODEL 2
REMARK VINA RESULT:    -4.664      1.133      3.182
REMARK INTER + INTRA:         -12.014
REMARK INTER:                  -8.951
REMARK INTRA:                  -3.062
REMARK UNBOUND:                -2.988
REMARK SMILES CCCCCC=CCC=CCCCCCCCCOC(C)=O
REMARK SMILES IDX 12 1 11 2 10 3 9 4 8 5 7 6 6 7 5 8 4 9 3 10 2 11 1 12 13 13
REMARK SMILES IDX 14 14 15 15 16 16 17 17 18 18 19 19 20 20 22 21 21 22
REMARK H PARENT
REMARK Flexibility Score: inf
ROOT
ATOM      1  C   UNL     1     -22.471  -3.686 -10.710  1.00  0.00     0.004 C 
ENDROOT
BRANCH   1   2
ATOM      2  C   UNL     1     -21.747  -2.378 -10.360  1.00  0.00     0.027 C 
BRANCH   2   3
ATOM      3  C   UNL     1     -20.290  -2.441 -10.749  1.00  0.00    -0.031 C 
ATOM      4  C   UNL     1     -19.294  -2.470  -9.848  1.00  0.00    -0.027 C 
BRANCH   4   5
ATOM      5  C   UNL     1     -19.533  -2.439  -8.357  1.00  0.00     0.054 C 
BRANCH   5   6
ATOM      6  C   UNL     1     -19.629  -3.831  -7.791  1.00  0.00    -0.027 C 
ATOM      7  C   UNL     1     -20.718  -4.331  -7.174  1.00  0.00    -0.031 C 
BRANCH   7   8
ATOM      8  C   UNL     1     -21.998  -3.566  -6.927  1.00  0.00     0.027 C 
BRANCH   8   9
ATOM      9  C   UNL     1     -23.213  -4.501  -6.905  1.00  0.00     0.004 C 
BRANCH   9  10
ATOM     10  C   UNL     1     -22.911  -5.830  -6.197  1.00  0.00     0.000 C 
BRANCH  10  11
ATOM     11  C   UNL     1     -24.200  -6.496  -5.703  1.00  0.00    -0.003 C 
ATOM     12  C   UNL     1     -24.283  -6.472  -4.180  1.00  0.00     0.004 C 
ENDBRANCH  10  11
ENDBRANCH   9  10
ENDBRANCH   8   9
ENDBRANCH   7   8
ENDBRANCH   5   6
ENDBRANCH   4   5
ENDBRANCH   2   3
ENDBRANCH   1   2
BRANCH   1  13
ATOM     13  C   UNL     1     -21.506  -4.870 -10.875  1.00  0.00     0.000 C 
BRANCH  13  14
ATOM     14  C   UNL     1     -21.940  -6.103 -10.068  1.00  0.00     0.000 C 
BRANCH  14  15
ATOM     15  C   UNL     1     -20.751  -7.043  -9.817  1.00  0.00     0.000 C 
BRANCH  15  16
ATOM     16  C   UNL     1     -20.856  -7.805  -8.483  1.00  0.00     0.003 C 
BRANCH  16  17
ATOM     17  C   UNL     1     -19.510  -8.146  -7.821  1.00  0.00     0.042 C 
BRANCH  17  18
ATOM     18  C   UNL     1     -19.666  -8.914  -6.502  1.00  0.00     0.233 C 
BRANCH  18  19
ATOM     19  O   UNL     1     -20.981  -8.735  -5.977  1.00  0.00    -0.466 OA
BRANCH  19  20
ATOM     20  C   UNL     1     -21.815  -9.797  -5.614  1.00  0.00     0.302 C 
ATOM     21  O   UNL     1     -22.723  -9.640  -4.752  1.00  0.00    -0.253 OA
ATOM     22  C   UNL     1     -21.595 -11.144  -6.214  1.00  0.00     0.139 C 
ENDBRANCH  19  20
ENDBRANCH  18  19
ENDBRANCH  17  18
ENDBRANCH  16  17
ENDBRANCH  15  16
ENDBRANCH  14  15
ENDBRANCH  13  14
ENDBRANCH   1  13
TORSDOF 16
ENDMDL
MODEL 3
REMARK VINA RESULT:    -4.575      2.338      3.408
REMARK INTER + INTRA:         -11.842
REMARK INTER:                  -9.288
REMARK INTRA:                  -2.554
REMARK UNBOUND:                -2.988
REMARK SMILES CCCCCC=CCC=CCCCCCCCCOC(C)=O
REMARK SMILES IDX 12 1 11 2 10 3 9 4 8 5 7 6 6 7 5 8 4 9 3 10 2 11 1 12 13 13
REMARK SMILES IDX 14 14 15 15 16 16 17 17 18 18 19 19 20 20 22 21 21 22
REMARK H PARENT
REMARK Flexibility Score: inf
ROOT
ATOM      1  C   UNL     1     -21.772  -6.154  -9.801  1.00  0.00     0.004 C 
ENDROOT
BRANCH   1   2
ATOM      2  C   UNL     1     -21.587  -5.115 -10.916  1.00  0.00     0.027 C 
BRANCH   2   3
ATOM      3  C   UNL     1     -22.368  -3.857 -10.623  1.00  0.00    -0.031 C 
ATOM      4  C   UNL     1     -21.802  -2.639 -10.583  1.00  0.00    -0.027 C 
BRANCH   4   5
ATOM      5  C   UNL     1     -20.330  -2.409 -10.823  1.00  0.00     0.054 C 
BRANCH   5   6
ATOM      6  C   UNL     1     -19.684  -1.731  -9.644  1.00  0.00    -0.027 C 
ATOM      7  C   UNL     1     -19.176  -2.377  -8.576  1.00  0.00    -0.031 C 
BRANCH   7   8
ATOM      8  C   UNL     1     -19.202  -3.875  -8.380  1.00  0.00     0.027 C 
BRANCH   8   9
ATOM      9  C   UNL     1     -20.040  -4.265  -7.156  1.00  0.00     0.004 C 
BRANCH   9  10
ATOM     10  C   UNL     1     -21.323  -3.429  -7.040  1.00  0.00     0.000 C 
BRANCH  10  11
ATOM     11  C   UNL     1     -22.326  -4.090  -6.089  1.00  0.00    -0.003 C 
ATOM     12  C   UNL     1     -23.321  -4.957  -6.853  1.00  0.00     0.004 C 
ENDBRANCH  10  11
ENDBRANCH   9  10
ENDBRANCH   8   9
ENDBRANCH   7   8
ENDBRANCH   5   6
ENDBRANCH   4   5
ENDBRANCH   2   3
ENDBRANCH   1   2
BRANCH   1  13
ATOM     13  C   UNL     1     -20.784  -7.325  -9.913  1.00  0.00     0.000 C 
BRANCH  13  14
ATOM     14  C   UNL     1     -20.096  -7.650  -8.579  1.00  0.00     0.000 C 
BRANCH  14  15
ATOM     15  C   UNL     1     -21.132  -7.915  -7.476  1.00  0.00     0.000 C 
BRANCH  15  16
ATOM     16  C   UNL     1     -20.864  -9.218  -6.699  1.00  0.00     0.003 C 
BRANCH  16  17
ATOM     17  C   UNL     1     -21.953 -10.295  -6.841  1.00  0.00     0.042 C 
BRANCH  17  18
ATOM     18  C   UNL     1     -21.650 -11.566  -6.035  1.00  0.00     0.233 C 
BRANCH  18  19
ATOM     19  O   UNL     1     -22.462 -12.646  -6.491  1.00  0.00    -0.466 OA
BRANCH  19  20
ATOM     20  C   UNL     1     -21.945 -13.885  -6.886  1.00  0.00     0.302 C 
ATOM     21  O   UNL     1     -22.711 -14.854  -7.140  1.00  0.00    -0.253 OA
ATOM     22  C   UNL     1     -20.468 -14.075  -6.956  1.00  0.00     0.139 C 
ENDBRANCH  19  20
ENDBRANCH  18  19
ENDBRANCH  17  18
ENDBRANCH  16  17
ENDBRANCH  15  16
ENDBRANCH  14  15
ENDBRANCH  13  14
ENDBRANCH   1  13
TORSDOF 16
ENDMDL
MODEL 4
REMARK VINA RESULT:    -4.549      1.361      2.285
REMARK INTER + INTRA:         -11.792
REMARK INTER:                  -8.557
REMARK INTRA:                  -3.236
REMARK UNBOUND:                -2.988
REMARK SMILES CCCCCC=CCC=CCCCCCCCCOC(C)=O
REMARK SMILES IDX 12 1 11 2 10 3 9 4 8 5 7 6 6 7 5 8 4 9 3 10 2 11 1 12 13 13
REMARK SMILES IDX 14 14 15 15 16 16 17 17 18 18 19 19 20 20 22 21 21 22
REMARK H PARENT
REMARK Flexibility Score: inf
ROOT
ATOM      1  C   UNL     1     -21.768  -6.115  -9.832  1.00  0.00     0.004 C 
ENDROOT
BRANCH   1   2
ATOM      2  C   UNL     1     -21.766  -5.116 -10.999  1.00  0.00     0.027 C 
BRANCH   2   3
ATOM      3  C   UNL     1     -22.450  -3.827 -10.613  1.00  0.00    -0.031 C 
ATOM      4  C   UNL     1     -21.810  -2.647 -10.566  1.00  0.00    -0.027 C 
BRANCH   4   5
ATOM      5  C   UNL     1     -20.343  -2.494 -10.890  1.00  0.00     0.054 C 
BRANCH   5   6
ATOM      6  C   UNL     1     -19.609  -1.796  -9.776  1.00  0.00    -0.027 C 
ATOM      7  C   UNL     1     -19.012  -2.424  -8.744  1.00  0.00    -0.031 C 
BRANCH   7   8
ATOM      8  C   UNL     1     -19.013  -3.919  -8.525  1.00  0.00     0.027 C 
BRANCH   8   9
ATOM      9  C   UNL     1     -19.779  -4.299  -7.252  1.00  0.00     0.004 C 
BRANCH   9  10
ATOM     10  C   UNL     1     -21.117  -3.554  -7.135  1.00  0.00     0.000 C 
BRANCH  10  11
ATOM     11  C   UNL     1     -22.050  -4.253  -6.141  1.00  0.00    -0.003 C 
ATOM     12  C   UNL     1     -23.301  -4.781  -6.838  1.00  0.00     0.004 C 
ENDBRANCH  10  11
ENDBRANCH   9  10
ENDBRANCH   8   9
ENDBRANCH   7   8
ENDBRANCH   5   6
ENDBRANCH   4   5
ENDBRANCH   2   3
ENDBRANCH   1   2
BRANCH   1  13
ATOM     13  C   UNL     1     -20.737  -7.239 -10.014  1.00  0.00     0.000 C 
BRANCH  13  14
ATOM     14  C   UNL     1     -20.067  -7.646  -8.693  1.00  0.00     0.000 C 
BRANCH  14  15
ATOM     15  C   UNL     1     -21.116  -7.945  -7.613  1.00  0.00     0.000 C 
BRANCH  15  16
ATOM     16  C   UNL     1     -20.609  -7.663  -6.186  1.00  0.00     0.003 C 
BRANCH  16  17
ATOM     17  C   UNL     1     -21.664  -7.825  -5.078  1.00  0.00     0.042 C 
BRANCH  17  18
ATOM     18  C   UNL     1     -22.764  -8.833  -5.437  1.00  0.00     0.233 C 
BRANCH  18  19
ATOM     19  O   UNL     1     -22.454 -10.117  -4.898  1.00  0.00    -0.466 OA
BRANCH  19  20
ATOM     20  C   UNL     1     -22.132 -11.226  -5.688  1.00  0.00     0.302 C 
ATOM     21  O   UNL     1     -22.213 -11.169  -6.946  1.00  0.00    -0.253 OA
ATOM     22  C   UNL     1     -21.741 -12.507  -5.033  1.00  0.00     0.139 C 
ENDBRANCH  19  20
ENDBRANCH  18  19
ENDBRANCH  17  18
ENDBRANCH  16  17
ENDBRANCH  15  16
ENDBRANCH  14  15
ENDBRANCH  13  14
ENDBRANCH   1  13
TORSDOF 16
ENDMDL
MODEL 5
REMARK VINA RESULT:    -4.540      1.538      4.475
REMARK INTER + INTRA:         -11.774
REMARK INTER:                  -8.565
REMARK INTRA:                  -3.210
REMARK UNBOUND:                -2.988
REMARK SMILES CCCCCC=CCC=CCCCCCCCCOC(C)=O
REMARK SMILES IDX 12 1 11 2 10 3 9 4 8 5 7 6 6 7 5 8 4 9 3 10 2 11 1 12 13 13
REMARK SMILES IDX 14 14 15 15 16 16 17 17 18 18 19 19 20 20 22 21 21 22
REMARK H PARENT
REMARK Flexibility Score: inf
ROOT
ATOM      1  C   UNL     1     -21.873  -3.454  -6.209  1.00  0.00     0.004 C 
ENDROOT
BRANCH   1   2
ATOM      2  C   UNL     1     -20.584  -3.737  -6.993  1.00  0.00     0.027 C 
BRANCH   2   3
ATOM      3  C   UNL     1     -19.897  -4.980  -6.482  1.00  0.00    -0.031 C 
ATOM      4  C   UNL     1     -19.493  -5.976  -7.288  1.00  0.00    -0.027 C 
BRANCH   4   5
ATOM      5  C   UNL     1     -19.689  -5.951  -8.785  1.00  0.00     0.054 C 
BRANCH   5   6
ATOM      6  C   UNL     1     -21.044  -6.487  -9.167  1.00  0.00    -0.027 C 
ATOM      7  C   UNL     1     -21.828  -5.963 -10.129  1.00  0.00    -0.031 C 
BRANCH   7   8
ATOM      8  C   UNL     1     -21.488  -4.742 -10.952  1.00  0.00     0.027 C 
BRANCH   8   9
ATOM      9  C   UNL     1     -22.390  -3.555 -10.593  1.00  0.00     0.004 C 
BRANCH   9  10
ATOM     10  C   UNL     1     -21.585  -2.279 -10.309  1.00  0.00     0.000 C 
BRANCH  10  11
ATOM     11  C   UNL     1     -20.080  -2.539 -10.433  1.00  0.00    -0.003 C 
ATOM     12  C   UNL     1     -19.289  -1.236 -10.368  1.00  0.00     0.004 C 
ENDBRANCH  10  11
ENDBRANCH   9  10
ENDBRANCH   8   9
ENDBRANCH   7   8
ENDBRANCH   5   6
ENDBRANCH   4   5
ENDBRANCH   2   3
ENDBRANCH   1   2
BRANCH   1  13
ATOM     13  C   UNL     1     -23.134  -3.582  -7.077  1.00  0.00     0.000 C 
BRANCH  13  14
ATOM     14  C   UNL     1     -23.689  -5.014  -7.107  1.00  0.00     0.000 C 
BRANCH  14  15
ATOM     15  C   UNL     1     -23.464  -5.720  -5.762  1.00  0.00     0.000 C 
BRANCH  15  16
ATOM     16  C   UNL     1     -22.825  -7.113  -5.912  1.00  0.00     0.003 C 
BRANCH  16  17
ATOM     17  C   UNL     1     -23.496  -8.228  -5.092  1.00  0.00     0.042 C 
BRANCH  17  18
ATOM     18  C   UNL     1     -22.522  -8.954  -4.154  1.00  0.00     0.233 C 
BRANCH  18  19
ATOM     19  O   UNL     1     -22.045 -10.151  -4.766  1.00  0.00    -0.466 OA
BRANCH  19  20
ATOM     20  C   UNL     1     -21.541 -10.200  -6.070  1.00  0.00     0.302 C 
ATOM     21  O   UNL     1     -22.175 -10.794  -6.985  1.00  0.00    -0.253 OA
ATOM     22  C   UNL     1     -20.214  -9.590  -6.369  1.00  0.00     0.139 C 
ENDBRANCH  19  20
ENDBRANCH  18  19
ENDBRANCH  17  18
ENDBRANCH  16  17
ENDBRANCH  15  16
ENDBRANCH  14  15
ENDBRANCH  13  14
ENDBRANCH   1  13
TORSDOF 16
ENDMDL
MODEL 6
REMARK VINA RESULT:    -4.525     14.082     15.779
REMARK INTER + INTRA:         -11.745
REMARK INTER:                  -9.272
REMARK INTRA:                  -2.473
REMARK UNBOUND:                -2.988
REMARK SMILES CCCCCC=CCC=CCCCCCCCCOC(C)=O
REMARK SMILES IDX 12 1 11 2 10 3 9 4 8 5 7 6 6 7 5 8 4 9 3 10 2 11 1 12 13 13
REMARK SMILES IDX 14 14 15 15 16 16 17 17 18 18 19 19 20 20 22 21 21 22
REMARK H PARENT
REMARK Flexibility Score: inf
ROOT
ATOM      1  C   UNL     1     -39.117  -3.696 -13.072  1.00  0.00     0.004 C 
ENDROOT
BRANCH   1   2
ATOM      2  C   UNL     1     -37.743  -4.178 -13.560  1.00  0.00     0.027 C 
BRANCH   2   3
ATOM      3  C   UNL     1     -37.384  -3.551 -14.885  1.00  0.00    -0.031 C 
ATOM      4  C   UNL     1     -36.402  -2.645 -15.022  1.00  0.00    -0.027 C 
BRANCH   4   5
ATOM      5  C   UNL     1     -35.562  -2.161 -13.864  1.00  0.00     0.054 C 
BRANCH   5   6
ATOM      6  C   UNL     1     -34.168  -2.727 -13.928  1.00  0.00    -0.027 C 
ATOM      7  C   UNL     1     -33.712  -3.726 -13.147  1.00  0.00    -0.031 C 
BRANCH   7   8
ATOM      8  C   UNL     1     -34.516  -4.413 -12.067  1.00  0.00     0.027 C 
BRANCH   8   9
ATOM      9  C   UNL     1     -34.569  -3.571 -10.786  1.00  0.00     0.004 C 
BRANCH   9  10
ATOM     10  C   UNL     1     -33.264  -2.799 -10.545  1.00  0.00     0.000 C 
BRANCH  10  11
ATOM     11  C   UNL     1     -33.368  -1.921  -9.293  1.00  0.00    -0.003 C 
ATOM     12  C   UNL     1     -34.825  -1.663  -8.921  1.00  0.00     0.004 C 
ENDBRANCH  10  11
ENDBRANCH   9  10
ENDBRANCH   8   9
ENDBRANCH   7   8
ENDBRANCH   5   6
ENDBRANCH   4   5
ENDBRANCH   2   3
ENDBRANCH   1   2
BRANCH   1  13
ATOM     13  C   UNL     1     -39.061  -2.301 -12.432  1.00  0.00     0.000 C 
BRANCH  13  14
ATOM     14  C   UNL     1     -38.094  -2.234 -11.241  1.00  0.00     0.000 C 
BRANCH  14  15
ATOM     15  C   UNL     1     -38.648  -3.012 -10.038  1.00  0.00     0.000 C 
BRANCH  15  16
ATOM     16  C   UNL     1     -37.814  -4.258  -9.690  1.00  0.00     0.003 C 
BRANCH  16  17
ATOM     17  C   UNL     1     -38.612  -5.427  -9.087  1.00  0.00     0.042 C 
BRANCH  17  18
ATOM     18  C   UNL     1     -38.997  -5.198  -7.619  1.00  0.00     0.233 C 
BRANCH  18  19
ATOM     19  O   UNL     1     -37.910  -5.544  -6.762  1.00  0.00    -0.466 OA
BRANCH  19  20
ATOM     20  C   UNL     1     -37.383  -4.677  -5.800  1.00  0.00     0.302 C 
ATOM     21  O   UNL     1     -36.746  -3.642  -6.142  1.00  0.00    -0.253 OA
ATOM     22  C   UNL     1     -37.528  -5.007  -4.353  1.00  0.00     0.139 C 
ENDBRANCH  19  20
ENDBRANCH  18  19
ENDBRANCH  17  18
ENDBRANCH  16  17
ENDBRANCH  15  16
ENDBRANCH  14  15
ENDBRANCH  13  14
ENDBRANCH   1  13
TORSDOF 16
ENDMDL
MODEL 7
REMARK VINA RESULT:    -4.515      1.215      1.940
REMARK INTER + INTRA:         -11.725
REMARK INTER:                  -8.707
REMARK INTRA:                  -3.019
REMARK UNBOUND:                -2.988
REMARK SMILES CCCCCC=CCC=CCCCCCCCCOC(C)=O
REMARK SMILES IDX 12 1 11 2 10 3 9 4 8 5 7 6 6 7 5 8 4 9 3 10 2 11 1 12 13 13
REMARK SMILES IDX 14 14 15 15 16 16 17 17 18 18 19 19 20 20 22 21 21 22
REMARK H PARENT
REMARK Flexibility Score: inf
ROOT
ATOM      1  C   UNL     1     -20.562  -7.633  -9.219  1.00  0.00     0.004 C 
ENDROOT
BRANCH   1   2
ATOM      2  C   UNL     1     -21.503  -6.443  -9.453  1.00  0.00     0.027 C 
BRANCH   2   3
ATOM      3  C   UNL     1     -21.658  -6.152 -10.925  1.00  0.00    -0.031 C 
ATOM      4  C   UNL     1     -22.061  -4.960 -11.396  1.00  0.00    -0.027 C 
BRANCH   4   5
ATOM      5  C   UNL     1     -22.403  -3.795 -10.499  1.00  0.00     0.054 C 
BRANCH   5   6
ATOM      6  C   UNL     1     -21.537  -2.601 -10.801  1.00  0.00    -0.027 C 
ATOM      7  C   UNL     1     -20.275  -2.442 -10.358  1.00  0.00    -0.031 C 
BRANCH   7   8
ATOM      8  C   UNL     1     -19.542  -3.419  -9.467  1.00  0.00     0.027 C 
BRANCH   8   9
ATOM      9  C   UNL     1     -19.691  -3.048  -7.987  1.00  0.00     0.004 C 
BRANCH   9  10
ATOM     10  C   UNL     1     -20.657  -3.985  -7.248  1.00  0.00     0.000 C 
BRANCH  10  11
ATOM     11  C   UNL     1     -21.895  -3.225  -6.759  1.00  0.00    -0.003 C 
ATOM     12  C   UNL     1     -23.176  -3.977  -7.105  1.00  0.00     0.004 C 
ENDBRANCH  10  11
ENDBRANCH   9  10
ENDBRANCH   8   9
ENDBRANCH   7   8
ENDBRANCH   5   6
ENDBRANCH   4   5
ENDBRANCH   2   3
ENDBRANCH   1   2
BRANCH   1  13
ATOM     13  C   UNL     1     -19.429  -7.308  -8.233  1.00  0.00     0.000 C 
BRANCH  13  14
ATOM     14  C   UNL     1     -19.817  -7.586  -6.773  1.00  0.00     0.000 C 
BRANCH  14  15
ATOM     15  C   UNL     1     -20.528  -8.941  -6.642  1.00  0.00     0.000 C 
BRANCH  15  16
ATOM     16  C   UNL     1     -21.923  -8.830  -6.000  1.00  0.00     0.003 C 
BRANCH  16  17
ATOM     17  C   UNL     1     -22.543  -7.422  -6.032  1.00  0.00     0.042 C 
BRANCH  17  18
ATOM     18  C   UNL     1     -23.920  -7.357  -5.359  1.00  0.00     0.233 C 
BRANCH  18  19
ATOM     19  O   UNL     1     -24.043  -6.157  -4.597  1.00  0.00    -0.466 OA
BRANCH  19  20
ATOM     20  C   UNL     1     -23.333  -5.920  -3.415  1.00  0.00     0.302 C 
ATOM     21  O   UNL     1     -23.664  -6.487  -2.338  1.00  0.00    -0.253 OA
ATOM     22  C   UNL     1     -22.206  -4.944  -3.418  1.00  0.00     0.139 C 
ENDBRANCH  19  20
ENDBRANCH  18  19
ENDBRANCH  17  18
ENDBRANCH  16  17
ENDBRANCH  15  16
ENDBRANCH  14  15
ENDBRANCH  13  14
ENDBRANCH   1  13
TORSDOF 16
ENDMDL
MODEL 8
REMARK VINA RESULT:    -4.499      1.152      3.629
REMARK INTER + INTRA:         -11.694
REMARK INTER:                  -8.848
REMARK INTRA:                  -2.846
REMARK UNBOUND:                -2.988
REMARK SMILES CCCCCC=CCC=CCCCCCCCCOC(C)=O
REMARK SMILES IDX 12 1 11 2 10 3 9 4 8 5 7 6 6 7 5 8 4 9 3 10 2 11 1 12 13 13
REMARK SMILES IDX 14 14 15 15 16 16 17 17 18 18 19 19 20 20 22 21 21 22
REMARK H PARENT
REMARK Flexibility Score: inf
ROOT
ATOM      1  C   UNL     1     -20.297  -4.347  -7.127  1.00  0.00     0.004 C 
ENDROOT
BRANCH   1   2
ATOM      2  C   UNL     1     -19.418  -3.934  -8.316  1.00  0.00     0.027 C 
BRANCH   2   3
ATOM      3  C   UNL     1     -19.270  -2.434  -8.388  1.00  0.00    -0.031 C 
ATOM      4  C   UNL     1     -19.624  -1.716  -9.467  1.00  0.00    -0.027 C 
BRANCH   4   5
ATOM      5  C   UNL     1     -20.201  -2.339 -10.715  1.00  0.00     0.054 C 
BRANCH   5   6
ATOM      6  C   UNL     1     -21.690  -2.531 -10.592  1.00  0.00    -0.027 C 
ATOM      7  C   UNL     1     -22.323  -3.710 -10.744  1.00  0.00    -0.031 C 
BRANCH   7   8
ATOM      8  C   UNL     1     -21.646  -5.016 -11.092  1.00  0.00     0.027 C 
BRANCH   8   9
ATOM      9  C   UNL     1     -21.904  -6.083 -10.022  1.00  0.00     0.004 C 
BRANCH   9  10
ATOM     10  C   UNL     1     -20.771  -7.118  -9.949  1.00  0.00     0.000 C 
BRANCH  10  11
ATOM     11  C   UNL     1     -20.706  -7.766  -8.562  1.00  0.00    -0.003 C 
ATOM     12  C   UNL     1     -19.262  -7.991  -8.127  1.00  0.00     0.004 C 
ENDBRANCH  10  11
ENDBRANCH   9  10
ENDBRANCH   8   9
ENDBRANCH   7   8
ENDBRANCH   5   6
ENDBRANCH   4   5
ENDBRANCH   2   3
ENDBRANCH   1   2
BRANCH   1  13
ATOM     13  C   UNL     1     -21.394  -3.318  -6.816  1.00  0.00     0.000 C 
BRANCH  13  14
ATOM     14  C   UNL     1     -22.807  -3.863  -7.074  1.00  0.00     0.000 C 
BRANCH  14  15
ATOM     15  C   UNL     1     -22.886  -5.362  -6.749  1.00  0.00     0.000 C 
BRANCH  15  16
ATOM     16  C   UNL     1     -23.443  -5.644  -5.341  1.00  0.00     0.003 C 
BRANCH  16  17
ATOM     17  C   UNL     1     -24.120  -7.016  -5.173  1.00  0.00     0.042 C 
BRANCH  17  18
ATOM     18  C   UNL     1     -23.367  -7.943  -4.209  1.00  0.00     0.233 C 
BRANCH  18  19
ATOM     19  O   UNL     1     -22.246  -7.266  -3.644  1.00  0.00    -0.466 OA
BRANCH  19  20
ATOM     20  C   UNL     1     -22.088  -7.053  -2.270  1.00  0.00     0.302 C 
ATOM     21  O   UNL     1     -22.780  -6.188  -1.667  1.00  0.00    -0.253 OA
ATOM     22  C   UNL     1     -21.052  -7.820  -1.522  1.00  0.00     0.139 C 
ENDBRANCH  19  20
ENDBRANCH  18  19
ENDBRANCH  17  18
ENDBRANCH  16  17
ENDBRANCH  15  16
ENDBRANCH  14  15
ENDBRANCH  13  14
ENDBRANCH   1  13
TORSDOF 16
ENDMDL
MODEL 9
REMARK VINA RESULT:    -4.395      1.571      3.800
REMARK INTER + INTRA:         -11.494
REMARK INTER:                  -7.955
REMARK INTRA:                  -3.539
REMARK UNBOUND:                -2.988
REMARK SMILES CCCCCC=CCC=CCCCCCCCCOC(C)=O
REMARK SMILES IDX 12 1 11 2 10 3 9 4 8 5 7 6 6 7 5 8 4 9 3 10 2 11 1 12 13 13
REMARK SMILES IDX 14 14 15 15 16 16 17 17 18 18 19 19 20 20 22 21 21 22
REMARK H PARENT
REMARK Flexibility Score: inf
ROOT
ATOM      1  C   UNL     1     -18.967  -5.351  -8.440  1.00  0.00     0.004 C 
ENDROOT
BRANCH   1   2
ATOM      2  C   UNL     1     -19.286  -4.598  -7.141  1.00  0.00     0.027 C 
BRANCH   2   3
ATOM      3  C   UNL     1     -19.202  -5.514  -5.945  1.00  0.00    -0.031 C 
ATOM      4  C   UNL     1     -20.159  -5.578  -5.004  1.00  0.00    -0.027 C 
BRANCH   4   5
ATOM      5  C   UNL     1     -21.412  -4.737  -5.049  1.00  0.00     0.054 C 
BRANCH   5   6
ATOM      6  C   UNL     1     -22.523  -5.450  -5.773  1.00  0.00    -0.027 C 
ATOM      7  C   UNL     1     -23.257  -4.911  -6.765  1.00  0.00    -0.031 C 
BRANCH   7   8
ATOM      8  C   UNL     1     -23.103  -3.500  -7.286  1.00  0.00     0.027 C 
BRANCH   8   9
ATOM      9  C   UNL     1     -22.378  -3.478  -8.637  1.00  0.00     0.004 C 
BRANCH   9  10
ATOM     10  C   UNL     1     -22.608  -4.766  -9.441  1.00  0.00     0.000 C 
BRANCH  10  11
ATOM     11  C   UNL     1     -21.931  -4.687 -10.813  1.00  0.00    -0.003 C 
ATOM     12  C   UNL     1     -21.885  -6.056 -11.485  1.00  0.00     0.004 C 
ENDBRANCH  10  11
ENDBRANCH   9  10
ENDBRANCH   8   9
ENDBRANCH   7   8
ENDBRANCH   5   6
ENDBRANCH   4   5
ENDBRANCH   2   3
ENDBRANCH   1   2
BRANCH   1  13
ATOM     13  C   UNL     1     -18.885  -6.872  -8.237  1.00  0.00     0.000 C 
BRANCH  13  14
ATOM     14  C   UNL     1     -20.025  -7.625  -8.939  1.00  0.00     0.000 C 
BRANCH  14  15
ATOM     15  C   UNL     1     -21.088  -8.080  -7.928  1.00  0.00     0.000 C 
BRANCH  15  16
ATOM     16  C   UNL     1     -20.501  -8.900  -6.764  1.00  0.00     0.003 C 
BRANCH  16  17
ATOM     17  C   UNL     1     -21.515  -9.776  -6.009  1.00  0.00     0.042 C 
BRANCH  17  18
ATOM     18  C   UNL     1     -22.786  -9.015  -5.609  1.00  0.00     0.233 C 
BRANCH  18  19
ATOM     19  O   UNL     1     -23.053  -9.192  -4.218  1.00  0.00    -0.466 OA
BRANCH  19  20
ATOM     20  C   UNL     1     -23.179  -8.128  -3.318  1.00  0.00     0.302 C 
ATOM     21  O   UNL     1     -24.251  -7.467  -3.244  1.00  0.00    -0.253 OA
ATOM     22  C   UNL     1     -22.014  -7.738  -2.473  1.00  0.00     0.139 C 
ENDBRANCH  19  20
ENDBRANCH  18  19
ENDBRANCH  17  18
ENDBRANCH  16  17
ENDBRANCH  15  16
ENDBRANCH  14  15
ENDBRANCH  13  14
ENDBRANCH   1  13
TORSDOF 16
ENDMDL
