MODEL 1
REMARK VINA RESULT:    -4.034      0.000      0.000
REMARK INTER + INTRA:          -5.738
REMARK INTER:                  -5.449
REMARK INTRA:                  -0.289
REMARK UNBOUND:                -0.289
REMARK SMILES CCCCCCC=CC(=O)[O-]
REMARK SMILES IDX 5 1 6 2 7 3 8 4 9 5 10 6 11 7 4 8 3 9 2 10 1 11
REMARK H PARENT
REMARK Flexibility Score: inf
ROOT
ATOM      1  C   UNL     1       2.951   6.074   3.158  1.00  0.00     0.004 C 
ENDROOT
BRANCH   1   2
ATOM      2  C   UNL     1       3.178   4.697   3.805  1.00  0.00     0.027 C 
BRANCH   2   3
ATOM      3  C   UNL     1       4.165   4.746   4.939  1.00  0.00    -0.025 C 
ATOM      4  C   UNL     1       4.727   3.636   5.426  1.00  0.00     0.020 C 
BRANCH   4   5
ATOM      5  C   UNL     1       5.691   3.670   6.536  1.00  0.00     0.064 C 
ATOM      6  O   UNL     1       6.708   2.929   6.500  1.00  0.00    -0.545 OA
ATOM      7  O   UNL     1       5.496   4.511   7.627  1.00  0.00    -0.545 OA
ENDBRANCH   4   5
ENDBRANCH   2   3
ENDBRANCH   1   2
BRANCH   1   8
ATOM      8  C   UNL     1       1.488   6.553   3.192  1.00  0.00     0.000 C 
BRANCH   8   9
ATOM      9  C   UNL     1       1.304   7.843   4.010  1.00  0.00    -0.000 C 
BRANCH   9  10
ATOM     10  C   UNL     1       1.021   7.563   5.494  1.00  0.00    -0.003 C 
ATOM     11  C   UNL     1       0.182   8.658   6.150  1.00  0.00     0.004 C 
ENDBRANCH   9  10
ENDBRANCH   8   9
ENDBRANCH   1   8
TORSDOF 6
ENDMDL
MODEL 2
REMARK VINA RESULT:    -4.000     12.554     13.553
REMARK INTER + INTRA:          -5.693
REMARK INTER:                  -5.066
REMARK INTRA:                  -0.627
REMARK UNBOUND:                -0.289
REMARK SMILES CCCCCCC=CC(=O)[O-]
REMARK SMILES IDX 5 1 6 2 7 3 8 4 9 5 10 6 11 7 4 8 3 9 2 10 1 11
REMARK H PARENT
REMARK Flexibility Score: inf
ROOT
ATOM      1  C   UNL     1      -3.009  -5.665   3.043  1.00  0.00     0.004 C 
ENDROOT
BRANCH   1   2
ATOM      2  C   UNL     1      -3.156  -4.349   3.828  1.00  0.00     0.027 C 
BRANCH   2   3
ATOM      3  C   UNL     1      -4.439  -4.280   4.607  1.00  0.00    -0.025 C 
ATOM      4  C   UNL     1      -4.505  -3.673   5.796  1.00  0.00     0.020 C 
BRANCH   4   5
ATOM      5  C   UNL     1      -5.754  -3.601   6.569  1.00  0.00     0.064 C 
ATOM      6  O   UNL     1      -6.640  -2.769   6.243  1.00  0.00    -0.545 OA
ATOM      7  O   UNL     1      -5.970  -4.440   7.657  1.00  0.00    -0.545 OA
ENDBRANCH   4   5
ENDBRANCH   2   3
ENDBRANCH   1   2
BRANCH   1   8
ATOM      8  C   UNL     1      -2.026  -6.668   3.674  1.00  0.00     0.000 C 
BRANCH   8   9
ATOM      9  C   UNL     1      -1.252  -6.074   4.863  1.00  0.00    -0.000 C 
BRANCH   9  10
ATOM     10  C   UNL     1      -1.468  -6.867   6.161  1.00  0.00    -0.003 C 
ATOM     11  C   UNL     1      -2.046  -6.010   7.286  1.00  0.00     0.004 C 
ENDBRANCH   9  10
ENDBRANCH   8   9
ENDBRANCH   1   8
TORSDOF 6
ENDMDL
MODEL 3
REMARK VINA RESULT:    -3.967     15.256     16.420
REMARK INTER + INTRA:          -5.648
REMARK INTER:                  -5.325
REMARK INTRA:                  -0.322
REMARK UNBOUND:                -0.289
REMARK SMILES CCCCCCC=CC(=O)[O-]
REMARK SMILES IDX 5 1 6 2 7 3 8 4 9 5 10 6 11 7 4 8 3 9 2 10 1 11
REMARK H PARENT
REMARK Flexibility Score: inf
ROOT
ATOM      1  C   UNL     1      -3.228  -6.080  -2.392  1.00  0.00     0.004 C 
ENDROOT
BRANCH   1   2
ATOM      2  C   UNL     1      -4.571  -6.646  -1.897  1.00  0.00     0.027 C 
BRANCH   2   3
ATOM      3  C   UNL     1      -5.692  -6.409  -2.870  1.00  0.00    -0.025 C 
ATOM      4  C   UNL     1      -6.659  -5.521  -2.623  1.00  0.00     0.020 C 
BRANCH   4   5
ATOM      5  C   UNL     1      -7.762  -5.283  -3.565  1.00  0.00     0.064 C 
ATOM      6  O   UNL     1      -7.686  -5.732  -4.738  1.00  0.00    -0.545 OA
ATOM      7  O   UNL     1      -8.891  -4.568  -3.179  1.00  0.00    -0.545 OA
ENDBRANCH   4   5
ENDBRANCH   2   3
ENDBRANCH   1   2
BRANCH   1   8
ATOM      8  C   UNL     1      -2.402  -5.372  -1.302  1.00  0.00     0.000 C 
BRANCH   8   9
ATOM      9  C   UNL     1      -3.232  -5.035  -0.052  1.00  0.00    -0.000 C 
BRANCH   9  10
ATOM     10  C   UNL     1      -2.359  -4.822   1.194  1.00  0.00    -0.003 C 
ATOM     11  C   UNL     1      -2.896  -5.557   2.422  1.00  0.00     0.004 C 
ENDBRANCH   9  10
ENDBRANCH   8   9
ENDBRANCH   1   8
TORSDOF 6
ENDMDL
MODEL 4
REMARK VINA RESULT:    -3.950      5.635      6.737
REMARK INTER + INTRA:          -5.625
REMARK INTER:                  -5.415
REMARK INTRA:                  -0.209
REMARK UNBOUND:                -0.289
REMARK SMILES CCCCCCC=CC(=O)[O-]
REMARK SMILES IDX 5 1 6 2 7 3 8 4 9 5 10 6 11 7 4 8 3 9 2 10 1 11
REMARK H PARENT
REMARK Flexibility Score: inf
ROOT
ATOM      1  C   UNL     1       3.006   5.068   0.393  1.00  0.00     0.004 C 
ENDROOT
BRANCH   1   2
ATOM      2  C   UNL     1       2.320   5.618  -0.870  1.00  0.00     0.027 C 
BRANCH   2   3
ATOM      3  C   UNL     1       3.293   5.901  -1.980  1.00  0.00    -0.025 C 
ATOM      4  C   UNL     1       4.569   6.208  -1.731  1.00  0.00     0.020 C 
BRANCH   4   5
ATOM      5  C   UNL     1       5.530   6.489  -2.808  1.00  0.00     0.064 C 
ATOM      6  O   UNL     1       6.442   7.337  -2.622  1.00  0.00    -0.545 OA
ATOM      7  O   UNL     1       5.446   5.832  -4.031  1.00  0.00    -0.545 OA
ENDBRANCH   4   5
ENDBRANCH   2   3
ENDBRANCH   1   2
BRANCH   1   8
ATOM      8  C   UNL     1       2.158   5.184   1.673  1.00  0.00     0.000 C 
BRANCH   8   9
ATOM      9  C   UNL     1       2.847   6.015   2.769  1.00  0.00    -0.000 C 
BRANCH   9  10
ATOM     10  C   UNL     1       1.916   6.313   3.954  1.00  0.00    -0.003 C 
ATOM     11  C   UNL     1       1.425   7.760   3.969  1.00  0.00     0.004 C 
ENDBRANCH   9  10
ENDBRANCH   8   9
ENDBRANCH   1   8
TORSDOF 6
ENDMDL
MODEL 5
REMARK VINA RESULT:    -3.940     14.110     15.395
REMARK INTER + INTRA:          -5.612
REMARK INTER:                  -5.250
REMARK INTRA:                  -0.362
REMARK UNBOUND:                -0.289
REMARK SMILES CCCCCCC=CC(=O)[O-]
REMARK SMILES IDX 5 1 6 2 7 3 8 4 9 5 10 6 11 7 4 8 3 9 2 10 1 11
REMARK H PARENT
REMARK Flexibility Score: inf
ROOT
ATOM      1  C   UNL     1      -3.229  -4.769   0.345  1.00  0.00     0.004 C 
ENDROOT
BRANCH   1   2
ATOM      2  C   UNL     1      -2.448  -5.436  -0.801  1.00  0.00     0.027 C 
BRANCH   2   3
ATOM      3  C   UNL     1      -3.341  -5.885  -1.924  1.00  0.00    -0.025 C 
ATOM      4  C   UNL     1      -4.670  -5.928  -1.789  1.00  0.00     0.020 C 
BRANCH   4   5
ATOM      5  C   UNL     1      -5.554  -6.367  -2.878  1.00  0.00     0.064 C 
ATOM      6  O   UNL     1      -6.397  -7.278  -2.666  1.00  0.00    -0.545 OA
ATOM      7  O   UNL     1      -5.473  -5.791  -4.141  1.00  0.00    -0.545 OA
ENDBRANCH   4   5
ENDBRANCH   2   3
ENDBRANCH   1   2
BRANCH   1   8
ATOM      8  C   UNL     1      -2.454  -4.693   1.674  1.00  0.00     0.000 C 
BRANCH   8   9
ATOM      9  C   UNL     1      -2.951  -5.716   2.710  1.00  0.00    -0.000 C 
BRANCH   9  10
ATOM     10  C   UNL     1      -1.800  -6.477   3.385  1.00  0.00    -0.003 C 
ATOM     11  C   UNL     1      -0.509  -6.440   2.567  1.00  0.00     0.004 C 
ENDBRANCH   9  10
ENDBRANCH   8   9
ENDBRANCH   1   8
TORSDOF 6
ENDMDL
MODEL 6
REMARK VINA RESULT:    -3.933      6.940      8.186
REMARK INTER + INTRA:          -5.601
REMARK INTER:                  -5.200
REMARK INTRA:                  -0.401
REMARK UNBOUND:                -0.289
REMARK SMILES CCCCCCC=CC(=O)[O-]
REMARK SMILES IDX 5 1 6 2 7 3 8 4 9 5 10 6 11 7 4 8 3 9 2 10 1 11
REMARK H PARENT
REMARK Flexibility Score: inf
ROOT
ATOM      1  C   UNL     1       3.103   6.658  -2.454  1.00  0.00     0.004 C 
ENDROOT
BRANCH   1   2
ATOM      2  C   UNL     1       4.531   6.668  -1.880  1.00  0.00     0.027 C 
BRANCH   2   3
ATOM      3  C   UNL     1       5.569   6.304  -2.904  1.00  0.00    -0.025 C 
ATOM      4  C   UNL     1       6.710   5.699  -2.560  1.00  0.00     0.020 C 
BRANCH   4   5
ATOM      5  C   UNL     1       7.734   5.340  -3.552  1.00  0.00     0.064 C 
ATOM      6  O   UNL     1       8.766   4.719  -3.184  1.00  0.00    -0.545 OA
ATOM      7  O   UNL     1       7.580   5.675  -4.893  1.00  0.00    -0.545 OA
ENDBRANCH   4   5
ENDBRANCH   2   3
ENDBRANCH   1   2
BRANCH   1   8
ATOM      8  C   UNL     1       2.402   5.289  -2.374  1.00  0.00     0.000 C 
BRANCH   8   9
ATOM      9  C   UNL     1       1.590   5.112  -1.080  1.00  0.00    -0.000 C 
BRANCH   9  10
ATOM     10  C   UNL     1       2.314   4.237  -0.046  1.00  0.00    -0.003 C 
ATOM     11  C   UNL     1       2.975   5.057   1.061  1.00  0.00     0.004 C 
ENDBRANCH   9  10
ENDBRANCH   8   9
ENDBRANCH   1   8
TORSDOF 6
ENDMDL
MODEL 7
REMARK VINA RESULT:    -3.902     15.240     16.454
REMARK INTER + INTRA:          -5.560
REMARK INTER:                  -5.130
REMARK INTRA:                  -0.430
REMARK UNBOUND:                -0.289
REMARK SMILES CCCCCCC=CC(=O)[O-]
REMARK SMILES IDX 5 1 6 2 7 3 8 4 9 5 10 6 11 7 4 8 3 9 2 10 1 11
REMARK H PARENT
REMARK Flexibility Score: inf
ROOT
ATOM      1  C   UNL     1      -3.009  -6.616  -2.465  1.00  0.00     0.004 C 
ENDROOT
BRANCH   1   2
ATOM      2  C   UNL     1      -4.479  -6.645  -2.010  1.00  0.00     0.027 C 
BRANCH   2   3
ATOM      3  C   UNL     1      -5.392  -5.916  -2.956  1.00  0.00    -0.025 C 
ATOM      4  C   UNL     1      -6.721  -6.029  -2.874  1.00  0.00     0.020 C 
BRANCH   4   5
ATOM      5  C   UNL     1      -7.624  -5.323  -3.794  1.00  0.00     0.064 C 
ATOM      6  O   UNL     1      -8.229  -4.291  -3.402  1.00  0.00    -0.545 OA
ATOM      7  O   UNL     1      -7.820  -5.779  -5.093  1.00  0.00    -0.545 OA
ENDBRANCH   4   5
ENDBRANCH   2   3
ENDBRANCH   1   2
BRANCH   1   8
ATOM      8  C   UNL     1      -2.381  -5.210  -2.480  1.00  0.00     0.000 C 
BRANCH   8   9
ATOM      9  C   UNL     1      -1.571  -4.907  -1.208  1.00  0.00    -0.000 C 
BRANCH   9  10
ATOM     10  C   UNL     1      -2.364  -4.076  -0.189  1.00  0.00    -0.003 C 
ATOM     11  C   UNL     1      -2.997  -4.933   0.906  1.00  0.00     0.004 C 
ENDBRANCH   9  10
ENDBRANCH   8   9
ENDBRANCH   1   8
TORSDOF 6
ENDMDL
MODEL 8
REMARK VINA RESULT:    -3.892      6.991      8.465
REMARK INTER + INTRA:          -5.547
REMARK INTER:                  -4.929
REMARK INTRA:                  -0.617
REMARK UNBOUND:                -0.289
REMARK SMILES CCCCCCC=CC(=O)[O-]
REMARK SMILES IDX 5 1 6 2 7 3 8 4 9 5 10 6 11 7 4 8 3 9 2 10 1 11
REMARK H PARENT
REMARK Flexibility Score: inf
ROOT
ATOM      1  C   UNL     1       3.052   6.394  -2.391  1.00  0.00     0.004 C 
ENDROOT
BRANCH   1   2
ATOM      2  C   UNL     1       4.493   6.768  -2.000  1.00  0.00     0.027 C 
BRANCH   2   3
ATOM      3  C   UNL     1       5.508   6.284  -2.997  1.00  0.00    -0.025 C 
ATOM      4  C   UNL     1       6.739   5.922  -2.624  1.00  0.00     0.020 C 
BRANCH   4   5
ATOM      5  C   UNL     1       7.741   5.449  -3.590  1.00  0.00     0.064 C 
ATOM      6  O   UNL     1       8.742   4.803  -3.183  1.00  0.00    -0.545 OA
ATOM      7  O   UNL     1       7.600   5.705  -4.950  1.00  0.00    -0.545 OA
ENDBRANCH   4   5
ENDBRANCH   2   3
ENDBRANCH   1   2
BRANCH   1   8
ATOM      8  C   UNL     1       2.286   5.617  -1.306  1.00  0.00     0.000 C 
BRANCH   8   9
ATOM      9  C   UNL     1       3.188   5.177  -0.140  1.00  0.00    -0.000 C 
BRANCH   9  10
ATOM     10  C   UNL     1       3.427   3.660  -0.121  1.00  0.00    -0.003 C 
ATOM     11  C   UNL     1       4.703   3.255  -0.858  1.00  0.00     0.004 C 
ENDBRANCH   9  10
ENDBRANCH   8   9
ENDBRANCH   1   8
TORSDOF 6
ENDMDL
MODEL 9
REMARK VINA RESULT:    -3.718      4.200      6.096
REMARK INTER + INTRA:          -5.311
REMARK INTER:                  -4.974
REMARK INTRA:                  -0.338
REMARK UNBOUND:                -0.289
REMARK SMILES CCCCCCC=CC(=O)[O-]
REMARK SMILES IDX 5 1 6 2 7 3 8 4 9 5 10 6 11 7 4 8 3 9 2 10 1 11
REMARK H PARENT
REMARK Flexibility Score: inf
ROOT
ATOM      1  C   UNL     1       1.900   4.983   0.358  1.00  0.00     0.004 C 
ENDROOT
BRANCH   1   2
ATOM      2  C   UNL     1       3.027   4.875   1.400  1.00  0.00     0.027 C 
BRANCH   2   3
ATOM      3  C   UNL     1       2.859   5.842   2.538  1.00  0.00    -0.025 C 
ATOM      4  C   UNL     1       1.652   6.146   3.025  1.00  0.00     0.020 C 
BRANCH   4   5
ATOM      5  C   UNL     1       1.473   7.093   4.136  1.00  0.00     0.064 C 
ATOM      6  O   UNL     1       1.213   8.299   3.890  1.00  0.00    -0.545 OA
ATOM      7  O   UNL     1       1.588   6.674   5.458  1.00  0.00    -0.545 OA
ENDBRANCH   4   5
ENDBRANCH   2   3
ENDBRANCH   1   2
BRANCH   1   8
ATOM      8  C   UNL     1       2.326   5.643  -0.966  1.00  0.00     0.000 C 
BRANCH   8   9
ATOM      9  C   UNL     1       3.825   5.466  -1.263  1.00  0.00    -0.000 C 
BRANCH   9  10
ATOM     10  C   UNL     1       4.465   6.740  -1.835  1.00  0.00    -0.003 C 
ATOM     11  C   UNL     1       5.784   6.463  -2.557  1.00  0.00     0.004 C 
ENDBRANCH   9  10
ENDBRANCH   8   9
ENDBRANCH   1   8
TORSDOF 6
ENDMDL
