MODEL 1
REMARK VINA RESULT:    -4.134      0.000      0.000
REMARK INTER + INTRA:          -5.724
REMARK INTER:                  -5.463
REMARK INTRA:                  -0.261
REMARK UNBOUND:                -0.261
REMARK SMILES C=CCC[C@@H](O)CCC
REMARK SMILES IDX 4 1 5 2 7 3 8 4 9 5 6 6 3 8 2 9 1 10
REMARK H PARENT 6 7
REMARK Flexibility Score: inf
ROOT
ATOM      1  C   UNL     1      -4.216  19.012  48.468  1.00  0.00     0.036 C 
ENDROOT
BRANCH   1   2
ATOM      2  C   UNL     1      -2.907  18.238  48.735  1.00  0.00     0.114 C 
BRANCH   2   3
ATOM      3  C   UNL     1      -2.545  17.308  47.559  1.00  0.00     0.031 C 
BRANCH   3   4
ATOM      4  C   UNL     1      -2.764  17.967  46.188  1.00  0.00    -0.001 C 
ATOM      5  C   UNL     1      -3.420  16.994  45.211  1.00  0.00     0.004 C 
ENDBRANCH   3   4
ENDBRANCH   2   3
BRANCH   2   6
ATOM      6  O   UNL     1      -3.064  17.464  49.898  1.00  0.00    -0.393 OA
ATOM      7  H   UNL     1      -3.151  16.519  49.608  1.00  0.00     0.210 HD
ENDBRANCH   2   6
ENDBRANCH   1   2
BRANCH   1   8
ATOM      8  C   UNL     1      -4.041  20.537  48.571  1.00  0.00     0.029 C 
BRANCH   8   9
ATOM      9  C   UNL     1      -4.974  21.286  47.656  1.00  0.00    -0.035 C 
ATOM     10  C   UNL     1      -5.341  22.547  47.901  1.00  0.00     0.004 C 
ENDBRANCH   8   9
ENDBRANCH   1   8
TORSDOF 6
ENDMDL
MODEL 2
REMARK VINA RESULT:    -4.114      5.093      7.101
REMARK INTER + INTRA:          -5.697
REMARK INTER:                  -5.533
REMARK INTRA:                  -0.164
REMARK UNBOUND:                -0.261
REMARK SMILES C=CCC[C@@H](O)CCC
REMARK SMILES IDX 4 1 5 2 7 3 8 4 9 5 6 6 3 8 2 9 1 10
REMARK H PARENT 6 7
REMARK Flexibility Score: inf
ROOT
ATOM      1  C   UNL     1      -4.658  25.355  50.765  1.00  0.00     0.036 C 
ENDROOT
BRANCH   1   2
ATOM      2  C   UNL     1      -6.028  24.840  50.273  1.00  0.00     0.114 C 
BRANCH   2   3
ATOM      3  C   UNL     1      -5.944  24.277  48.839  1.00  0.00     0.031 C 
BRANCH   3   4
ATOM      4  C   UNL     1      -4.974  23.091  48.719  1.00  0.00    -0.001 C 
ATOM      5  C   UNL     1      -5.427  22.119  47.633  1.00  0.00     0.004 C 
ENDBRANCH   3   4
ENDBRANCH   2   3
BRANCH   2   6
ATOM      6  O   UNL     1      -6.949  25.900  50.294  1.00  0.00    -0.393 OA
ATOM      7  H   UNL     1      -6.639  26.568  49.628  1.00  0.00     0.210 HD
ENDBRANCH   2   6
ENDBRANCH   1   2
BRANCH   1   8
ATOM      8  C   UNL     1      -4.220  24.712  52.092  1.00  0.00     0.029 C 
BRANCH   8   9
ATOM      9  C   UNL     1      -3.385  25.643  52.933  1.00  0.00    -0.035 C 
ATOM     10  C   UNL     1      -3.922  26.685  53.573  1.00  0.00     0.004 C 
ENDBRANCH   8   9
ENDBRANCH   1   8
TORSDOF 6
ENDMDL
MODEL 3
REMARK VINA RESULT:    -4.031      4.506      7.314
REMARK INTER + INTRA:          -5.588
REMARK INTER:                  -5.373
REMARK INTRA:                  -0.215
REMARK UNBOUND:                -0.261
REMARK SMILES C=CCC[C@@H](O)CCC
REMARK SMILES IDX 4 1 5 2 7 3 8 4 9 5 6 6 3 8 2 9 1 10
REMARK H PARENT 6 7
REMARK Flexibility Score: inf
ROOT
ATOM      1  C   UNL     1      -5.887  24.286  48.912  1.00  0.00     0.036 C 
ENDROOT
BRANCH   1   2
ATOM      2  C   UNL     1      -5.622  25.228  50.106  1.00  0.00     0.114 C 
BRANCH   2   3
ATOM      3  C   UNL     1      -5.034  24.466  51.313  1.00  0.00     0.031 C 
BRANCH   3   4
ATOM      4  C   UNL     1      -3.718  25.076  51.820  1.00  0.00    -0.001 C 
ATOM      5  C   UNL     1      -3.952  25.933  53.060  1.00  0.00     0.004 C 
ENDBRANCH   3   4
ENDBRANCH   2   3
BRANCH   2   6
ATOM      6  O   UNL     1      -6.832  25.829  50.491  1.00  0.00    -0.393 OA
ATOM      7  H   UNL     1      -7.560  25.340  50.027  1.00  0.00     0.210 HD
ENDBRANCH   2   6
ENDBRANCH   1   2
BRANCH   1   8
ATOM      8  C   UNL     1      -4.871  23.134  48.821  1.00  0.00     0.029 C 
BRANCH   8   9
ATOM      9  C   UNL     1      -5.280  22.085  47.821  1.00  0.00    -0.035 C 
ATOM     10  C   UNL     1      -4.702  20.881  47.786  1.00  0.00     0.004 C 
ENDBRANCH   8   9
ENDBRANCH   1   8
TORSDOF 6
ENDMDL
MODEL 4
REMARK VINA RESULT:    -3.938      3.840      5.476
REMARK INTER + INTRA:          -5.465
REMARK INTER:                  -5.259
REMARK INTRA:                  -0.206
REMARK UNBOUND:                -0.261
REMARK SMILES C=CCC[C@@H](O)CCC
REMARK SMILES IDX 4 1 5 2 7 3 8 4 9 5 6 6 3 8 2 9 1 10
REMARK H PARENT 6 7
REMARK Flexibility Score: inf
ROOT
ATOM      1  C   UNL     1      -4.650  23.858  49.450  1.00  0.00     0.036 C 
ENDROOT
BRANCH   1   2
ATOM      2  C   UNL     1      -5.680  23.435  48.380  1.00  0.00     0.114 C 
BRANCH   2   3
ATOM      3  C   UNL     1      -5.343  22.054  47.778  1.00  0.00     0.031 C 
BRANCH   3   4
ATOM      4  C   UNL     1      -4.235  21.321  48.551  1.00  0.00    -0.001 C 
ATOM      5  C   UNL     1      -4.291  19.817  48.297  1.00  0.00     0.004 C 
ENDBRANCH   3   4
ENDBRANCH   2   3
BRANCH   2   6
ATOM      6  O   UNL     1      -5.688  24.391  47.351  1.00  0.00    -0.393 OA
ATOM      7  H   UNL     1      -4.745  24.532  47.077  1.00  0.00     0.210 HD
ENDBRANCH   2   6
ENDBRANCH   1   2
BRANCH   1   8
ATOM      8  C   UNL     1      -5.307  24.405  50.729  1.00  0.00     0.029 C 
BRANCH   8   9
ATOM      9  C   UNL     1      -4.383  24.353  51.917  1.00  0.00    -0.035 C 
ATOM     10  C   UNL     1      -4.093  25.443  52.632  1.00  0.00     0.004 C 
ENDBRANCH   8   9
ENDBRANCH   1   8
TORSDOF 6
ENDMDL
MODEL 5
REMARK VINA RESULT:    -3.919      0.738      3.997
REMARK INTER + INTRA:          -5.440
REMARK INTER:                  -5.097
REMARK INTRA:                  -0.343
REMARK UNBOUND:                -0.261
REMARK SMILES C=CCC[C@@H](O)CCC
REMARK SMILES IDX 4 1 5 2 7 3 8 4 9 5 6 6 3 8 2 9 1 10
REMARK H PARENT 6 7
REMARK Flexibility Score: inf
ROOT
ATOM      1  C   UNL     1      -1.979  18.738  47.823  1.00  0.00     0.036 C 
ENDROOT
BRANCH   1   2
ATOM      2  C   UNL     1      -3.241  18.144  48.485  1.00  0.00     0.114 C 
BRANCH   2   3
ATOM      3  C   UNL     1      -4.441  19.110  48.393  1.00  0.00     0.031 C 
BRANCH   3   4
ATOM      4  C   UNL     1      -4.035  20.583  48.552  1.00  0.00    -0.001 C 
ATOM      5  C   UNL     1      -4.977  21.499  47.775  1.00  0.00     0.004 C 
ENDBRANCH   3   4
ENDBRANCH   2   3
BRANCH   2   6
ATOM      6  O   UNL     1      -2.968  17.884  49.838  1.00  0.00    -0.393 OA
ATOM      7  H   UNL     1      -3.818  17.585  50.254  1.00  0.00     0.210 HD
ENDBRANCH   2   6
ENDBRANCH   1   2
BRANCH   1   8
ATOM      8  C   UNL     1      -1.659  18.096  46.462  1.00  0.00     0.029 C 
BRANCH   8   9
ATOM      9  C   UNL     1      -2.598  16.967  46.125  1.00  0.00    -0.035 C 
ATOM     10  C   UNL     1      -3.278  16.935  44.976  1.00  0.00     0.004 C 
ENDBRANCH   8   9
ENDBRANCH   1   8
TORSDOF 6
ENDMDL
MODEL 6
REMARK VINA RESULT:    -3.891      2.657      3.913
REMARK INTER + INTRA:          -5.403
REMARK INTER:                  -5.164
REMARK INTRA:                  -0.239
REMARK UNBOUND:                -0.261
REMARK SMILES C=CCC[C@@H](O)CCC
REMARK SMILES IDX 4 1 5 2 7 3 8 4 9 5 6 6 3 8 2 9 1 10
REMARK H PARENT 6 7
REMARK Flexibility Score: inf
ROOT
ATOM      1  C   UNL     1      -5.458  22.802  48.087  1.00  0.00     0.036 C 
ENDROOT
BRANCH   1   2
ATOM      2  C   UNL     1      -4.799  21.460  47.704  1.00  0.00     0.114 C 
BRANCH   2   3
ATOM      3  C   UNL     1      -3.653  21.091  48.669  1.00  0.00     0.031 C 
BRANCH   3   4
ATOM      4  C   UNL     1      -3.367  19.581  48.707  1.00  0.00    -0.001 C 
ATOM      5  C   UNL     1      -4.612  18.778  48.340  1.00  0.00     0.004 C 
ENDBRANCH   3   4
ENDBRANCH   2   3
BRANCH   2   6
ATOM      6  O   UNL     1      -4.284  21.559  46.400  1.00  0.00    -0.393 OA
ATOM      7  H   UNL     1      -4.758  20.884  45.848  1.00  0.00     0.210 HD
ENDBRANCH   2   6
ENDBRANCH   1   2
BRANCH   1   8
ATOM      8  C   UNL     1      -4.860  23.418  49.364  1.00  0.00     0.029 C 
BRANCH   8   9
ATOM      9  C   UNL     1      -5.646  24.609  49.849  1.00  0.00    -0.035 C 
ATOM     10  C   UNL     1      -6.774  25.000  49.251  1.00  0.00     0.004 C 
ENDBRANCH   8   9
ENDBRANCH   1   8
TORSDOF 6
ENDMDL
MODEL 7
REMARK VINA RESULT:    -3.883      3.221      6.183
REMARK INTER + INTRA:          -5.392
REMARK INTER:                  -5.155
REMARK INTRA:                  -0.237
REMARK UNBOUND:                -0.261
REMARK SMILES C=CCC[C@@H](O)CCC
REMARK SMILES IDX 4 1 5 2 7 3 8 4 9 5 6 6 3 8 2 9 1 10
REMARK H PARENT 6 7
REMARK Flexibility Score: inf
ROOT
ATOM      1  C   UNL     1      -5.358  21.994  47.758  1.00  0.00     0.036 C 
ENDROOT
BRANCH   1   2
ATOM      2  C   UNL     1      -5.096  23.514  47.687  1.00  0.00     0.114 C 
BRANCH   2   3
ATOM      3  C   UNL     1      -5.883  24.280  48.771  1.00  0.00     0.031 C 
BRANCH   3   4
ATOM      4  C   UNL     1      -4.969  25.007  49.770  1.00  0.00    -0.001 C 
ATOM      5  C   UNL     1      -4.987  24.318  51.132  1.00  0.00     0.004 C 
ENDBRANCH   3   4
ENDBRANCH   2   3
BRANCH   2   6
ATOM      6  O   UNL     1      -5.484  23.986  46.422  1.00  0.00    -0.393 OA
ATOM      7  H   UNL     1      -4.684  23.938  45.836  1.00  0.00     0.210 HD
ENDBRANCH   2   6
ENDBRANCH   1   2
BRANCH   1   8
ATOM      8  C   UNL     1      -4.281  21.238  48.554  1.00  0.00     0.029 C 
BRANCH   8   9
ATOM      9  C   UNL     1      -3.945  19.903  47.942  1.00  0.00    -0.035 C 
ATOM     10  C   UNL     1      -4.274  18.752  48.536  1.00  0.00     0.004 C 
ENDBRANCH   8   9
ENDBRANCH   1   8
TORSDOF 6
ENDMDL
MODEL 8
REMARK VINA RESULT:    -3.872      2.002      2.650
REMARK INTER + INTRA:          -5.378
REMARK INTER:                  -4.989
REMARK INTRA:                  -0.389
REMARK UNBOUND:                -0.261
REMARK SMILES C=CCC[C@@H](O)CCC
REMARK SMILES IDX 4 1 5 2 7 3 8 4 9 5 6 6 3 8 2 9 1 10
REMARK H PARENT 6 7
REMARK Flexibility Score: inf
ROOT
ATOM      1  C   UNL     1      -2.963  17.947  48.323  1.00  0.00     0.036 C 
ENDROOT
BRANCH   1   2
ATOM      2  C   UNL     1      -2.784  17.354  46.909  1.00  0.00     0.114 C 
BRANCH   2   3
ATOM      3  C   UNL     1      -1.424  17.748  46.294  1.00  0.00     0.031 C 
BRANCH   3   4
ATOM      4  C   UNL     1      -0.780  18.955  46.993  1.00  0.00    -0.001 C 
ATOM      5  C   UNL     1       0.684  18.679  47.326  1.00  0.00     0.004 C 
ENDBRANCH   3   4
ENDBRANCH   2   3
BRANCH   2   6
ATOM      6  O   UNL     1      -3.814  17.830  46.080  1.00  0.00    -0.393 OA
ATOM      7  H   UNL     1      -4.379  17.049  45.841  1.00  0.00     0.210 HD
ENDBRANCH   2   6
ENDBRANCH   1   2
BRANCH   1   8
ATOM      8  C   UNL     1      -4.246  18.785  48.462  1.00  0.00     0.029 C 
BRANCH   8   9
ATOM      9  C   UNL     1      -3.963  20.262  48.531  1.00  0.00    -0.035 C 
ATOM     10  C   UNL     1      -4.719  21.156  47.887  1.00  0.00     0.004 C 
ENDBRANCH   8   9
ENDBRANCH   1   8
TORSDOF 6
ENDMDL
MODEL 9
REMARK VINA RESULT:    -3.799      2.242      4.615
REMARK INTER + INTRA:          -5.281
REMARK INTER:                  -4.854
REMARK INTRA:                  -0.428
REMARK UNBOUND:                -0.261
REMARK SMILES C=CCC[C@@H](O)CCC
REMARK SMILES IDX 4 1 5 2 7 3 8 4 9 5 6 6 3 8 2 9 1 10
REMARK H PARENT 6 7
REMARK Flexibility Score: inf
ROOT
ATOM      1  C   UNL     1      -1.684  19.535  46.453  1.00  0.00     0.036 C 
ENDROOT
BRANCH   1   2
ATOM      2  C   UNL     1      -2.490  20.846  46.333  1.00  0.00     0.114 C 
BRANCH   2   3
ATOM      3  C   UNL     1      -3.113  21.257  47.684  1.00  0.00     0.031 C 
BRANCH   3   4
ATOM      4  C   UNL     1      -4.629  21.011  47.742  1.00  0.00    -0.001 C 
ATOM      5  C   UNL     1      -5.398  22.329  47.778  1.00  0.00     0.004 C 
ENDBRANCH   3   4
ENDBRANCH   2   3
BRANCH   2   6
ATOM      6  O   UNL     1      -3.519  20.665  45.393  1.00  0.00    -0.393 OA
ATOM      7  H   UNL     1      -3.095  20.331  44.560  1.00  0.00     0.210 HD
ENDBRANCH   2   6
ENDBRANCH   1   2
BRANCH   1   8
ATOM      8  C   UNL     1      -2.502  18.292  46.062  1.00  0.00     0.029 C 
BRANCH   8   9
ATOM      9  C   UNL     1      -2.556  17.269  47.167  1.00  0.00    -0.035 C 
ATOM     10  C   UNL     1      -2.716  17.621  48.446  1.00  0.00     0.004 C 
ENDBRANCH   8   9
ENDBRANCH   1   8
TORSDOF 6
ENDMDL
