MODEL 1
REMARK VINA RESULT:    -7.532      0.000      0.000
REMARK INTER + INTRA:          -8.207
REMARK INTER:                  -7.973
REMARK INTRA:                  -0.235
REMARK UNBOUND:                -0.235
REMARK SMILES O=c1cc(-c2ccccc2)oc2ccccc12
REMARK SMILES IDX 4 1 3 2 2 3 1 4 17 5 16 6 15 7 14 8 13 9 12 10 11 11 5 12
REMARK SMILES IDX 8 13 7 14 9 15 6 16 10 17
REMARK H PARENT
REMARK Flexibility Score: inf
ROOT
ATOM      1  C   UNL     1     166.028 144.892 149.948  1.00  0.00     0.138 A 
ATOM      2  C   UNL     1     166.743 143.743 149.549  1.00  0.00     0.100 A 
ATOM      3  C   UNL     1     166.295 142.481 149.946  1.00  0.00     0.193 A 
ATOM      4  O   UNL     1     166.933 141.454 149.590  1.00  0.00    -0.289 OA
ATOM      5  C   UNL     1     165.140 142.375 150.734  1.00  0.00     0.065 A 
ATOM      6  C   UNL     1     164.635 141.135 151.168  1.00  0.00     0.016 A 
ATOM      7  C   UNL     1     163.479 141.087 151.953  1.00  0.00     0.001 A 
ATOM      8  C   UNL     1     162.822 142.267 152.310  1.00  0.00     0.004 A 
ATOM      9  C   UNL     1     163.316 143.502 151.883  1.00  0.00     0.048 A 
ATOM     10  C   UNL     1     164.472 143.564 151.098  1.00  0.00     0.138 A 
ATOM     11  O   UNL     1     164.934 144.744 150.698  1.00  0.00    -0.456 OA
ENDROOT
BRANCH   1  12
ATOM     12  C   UNL     1     166.439 146.279 149.567  1.00  0.00     0.017 A 
ATOM     13  C   UNL     1     167.126 148.909 148.803  1.00  0.00     0.000 A 
ATOM     14  C   UNL     1     168.032 148.131 149.525  1.00  0.00     0.001 A 
ATOM     15  C   UNL     1     165.880 148.385 148.460  1.00  0.00     0.001 A 
ATOM     16  C   UNL     1     167.696 146.828 149.906  1.00  0.00     0.012 A 
ATOM     17  C   UNL     1     165.538 147.083 148.836  1.00  0.00     0.012 A 
ENDBRANCH   1  12
TORSDOF 1
ENDMDL
MODEL 2
REMARK VINA RESULT:    -7.210      1.285      5.841
REMARK INTER + INTRA:          -7.866
REMARK INTER:                  -7.610
REMARK INTRA:                  -0.256
REMARK UNBOUND:                -0.235
REMARK SMILES O=c1cc(-c2ccccc2)oc2ccccc12
REMARK SMILES IDX 4 1 3 2 2 3 1 4 17 5 16 6 15 7 14 8 13 9 12 10 11 11 5 12
REMARK SMILES IDX 8 13 7 14 9 15 6 16 10 17
REMARK H PARENT
REMARK Flexibility Score: inf
ROOT
ATOM      1  C   UNL     1     165.717 144.357 150.233  1.00  0.00     0.138 A 
ATOM      2  C   UNL     1     167.088 144.205 149.937  1.00  0.00     0.100 A 
ATOM      3  C   UNL     1     167.798 145.278 149.391  1.00  0.00     0.193 A 
ATOM      4  O   UNL     1     169.023 145.143 149.127  1.00  0.00    -0.289 OA
ATOM      5  C   UNL     1     167.137 146.490 149.147  1.00  0.00     0.065 A 
ATOM      6  C   UNL     1     167.792 147.609 148.600  1.00  0.00     0.016 A 
ATOM      7  C   UNL     1     167.084 148.794 148.376  1.00  0.00     0.001 A 
ATOM      8  C   UNL     1     165.726 148.872 148.695  1.00  0.00     0.004 A 
ATOM      9  C   UNL     1     165.067 147.767 149.239  1.00  0.00     0.048 A 
ATOM     10  C   UNL     1     165.764 146.575 149.467  1.00  0.00     0.138 A 
ATOM     11  O   UNL     1     165.129 145.529 149.984  1.00  0.00    -0.456 OA
ENDROOT
BRANCH   1  12
ATOM     12  C   UNL     1     164.885 143.261 150.818  1.00  0.00     0.017 A 
ATOM     13  C   UNL     1     163.258 141.260 151.967  1.00  0.00     0.000 A 
ATOM     14  C   UNL     1     164.323 140.904 151.139  1.00  0.00     0.001 A 
ATOM     15  C   UNL     1     162.999 142.605 152.226  1.00  0.00     0.001 A 
ATOM     16  C   UNL     1     165.132 141.892 150.566  1.00  0.00     0.012 A 
ATOM     17  C   UNL     1     163.803 143.598 151.659  1.00  0.00     0.012 A 
ENDBRANCH   1  12
TORSDOF 1
ENDMDL
MODEL 3
REMARK VINA RESULT:    -6.970      1.155      1.606
REMARK INTER + INTRA:          -7.612
REMARK INTER:                  -7.376
REMARK INTRA:                  -0.237
REMARK UNBOUND:                -0.235
REMARK SMILES O=c1cc(-c2ccccc2)oc2ccccc12
REMARK SMILES IDX 4 1 3 2 2 3 1 4 17 5 16 6 15 7 14 8 13 9 12 10 11 11 5 12
REMARK SMILES IDX 8 13 7 14 9 15 6 16 10 17
REMARK H PARENT
REMARK Flexibility Score: inf
ROOT
ATOM      1  C   UNL     1     166.538 146.295 149.400  1.00  0.00     0.138 A 
ATOM      2  C   UNL     1     167.156 145.197 148.763  1.00  0.00     0.100 A 
ATOM      3  C   UNL     1     166.744 143.899 149.074  1.00  0.00     0.193 A 
ATOM      4  O   UNL     1     167.296 142.919 148.506  1.00  0.00    -0.289 OA
ATOM      5  C   UNL     1     165.722 143.707 150.014  1.00  0.00     0.065 A 
ATOM      6  C   UNL     1     165.259 142.427 150.373  1.00  0.00     0.016 A 
ATOM      7  C   UNL     1     164.237 142.291 151.316  1.00  0.00     0.001 A 
ATOM      8  C   UNL     1     163.670 143.424 151.907  1.00  0.00     0.004 A 
ATOM      9  C   UNL     1     164.123 144.699 151.556  1.00  0.00     0.048 A 
ATOM     10  C   UNL     1     165.146 144.847 150.613  1.00  0.00     0.138 A 
ATOM     11  O   UNL     1     165.569 146.064 150.288  1.00  0.00    -0.456 OA
ENDROOT
BRANCH   1  12
ATOM     12  C   UNL     1     166.918 147.714 149.124  1.00  0.00     0.017 A 
ATOM     13  C   UNL     1     167.542 150.414 148.581  1.00  0.00     0.000 A 
ATOM     14  C   UNL     1     168.541 149.538 149.006  1.00  0.00     0.001 A 
ATOM     15  C   UNL     1     166.234 149.954 148.426  1.00  0.00     0.001 A 
ATOM     16  C   UNL     1     168.237 148.199 149.277  1.00  0.00     0.012 A 
ATOM     17  C   UNL     1     165.924 148.618 148.693  1.00  0.00     0.012 A 
ENDBRANCH   1  12
TORSDOF 1
ENDMDL
MODEL 4
REMARK VINA RESULT:    -6.825      1.450      2.574
REMARK INTER + INTRA:          -7.458
REMARK INTER:                  -7.225
REMARK INTRA:                  -0.234
REMARK UNBOUND:                -0.235
REMARK SMILES O=c1cc(-c2ccccc2)oc2ccccc12
REMARK SMILES IDX 4 1 3 2 2 3 1 4 17 5 16 6 15 7 14 8 13 9 12 10 11 11 5 12
REMARK SMILES IDX 8 13 7 14 9 15 6 16 10 17
REMARK H PARENT
REMARK Flexibility Score: inf
ROOT
ATOM      1  C   UNL     1     166.148 145.821 149.846  1.00  0.00     0.138 A 
ATOM      2  C   UNL     1     165.085 145.664 150.761  1.00  0.00     0.100 A 
ATOM      3  C   UNL     1     164.632 144.381 151.077  1.00  0.00     0.193 A 
ATOM      4  O   UNL     1     163.683 144.241 151.895  1.00  0.00    -0.289 OA
ATOM      5  C   UNL     1     165.239 143.268 150.480  1.00  0.00     0.065 A 
ATOM      6  C   UNL     1     164.832 141.949 150.753  1.00  0.00     0.016 A 
ATOM      7  C   UNL     1     165.472 140.875 150.130  1.00  0.00     0.001 A 
ATOM      8  C   UNL     1     166.519 141.105 149.233  1.00  0.00     0.004 A 
ATOM      9  C   UNL     1     166.931 142.411 148.955  1.00  0.00     0.048 A 
ATOM     10  C   UNL     1     166.297 143.495 149.573  1.00  0.00     0.138 A 
ATOM     11  O   UNL     1     166.696 144.733 149.302  1.00  0.00    -0.456 OA
ENDROOT
BRANCH   1  12
ATOM     12  C   UNL     1     166.693 147.157 149.454  1.00  0.00     0.017 A 
ATOM     13  C   UNL     1     167.632 149.705 148.681  1.00  0.00     0.000 A 
ATOM     14  C   UNL     1     168.506 148.784 149.262  1.00  0.00     0.001 A 
ATOM     15  C   UNL     1     166.295 149.364 148.484  1.00  0.00     0.001 A 
ATOM     16  C   UNL     1     168.045 147.521 149.647  1.00  0.00     0.012 A 
ATOM     17  C   UNL     1     165.828 148.103 148.865  1.00  0.00     0.012 A 
ENDBRANCH   1  12
TORSDOF 1
ENDMDL
MODEL 5
REMARK VINA RESULT:    -6.798      1.790      6.187
REMARK INTER + INTRA:          -7.430
REMARK INTER:                  -7.170
REMARK INTRA:                  -0.260
REMARK UNBOUND:                -0.235
REMARK SMILES O=c1cc(-c2ccccc2)oc2ccccc12
REMARK SMILES IDX 4 1 3 2 2 3 1 4 17 5 16 6 15 7 14 8 13 9 12 10 11 11 5 12
REMARK SMILES IDX 8 13 7 14 9 15 6 16 10 17
REMARK H PARENT
REMARK Flexibility Score: inf
ROOT
ATOM      1  C   UNL     1     165.922 144.234 150.271  1.00  0.00     0.138 A 
ATOM      2  C   UNL     1     165.558 145.574 150.024  1.00  0.00     0.100 A 
ATOM      3  C   UNL     1     166.504 146.459 149.499  1.00  0.00     0.193 A 
ATOM      4  O   UNL     1     166.180 147.656 149.278  1.00  0.00    -0.289 OA
ATOM      5  C   UNL     1     167.800 146.000 149.224  1.00  0.00     0.065 A 
ATOM      6  C   UNL     1     168.799 146.837 148.695  1.00  0.00     0.016 A 
ATOM      7  C   UNL     1     170.076 146.328 148.439  1.00  0.00     0.001 A 
ATOM      8  C   UNL     1     170.365 144.988 148.708  1.00  0.00     0.004 A 
ATOM      9  C   UNL     1     169.379 144.149 149.233  1.00  0.00     0.048 A 
ATOM     10  C   UNL     1     168.097 144.647 149.494  1.00  0.00     0.138 A 
ATOM     11  O   UNL     1     167.167 143.841 149.994  1.00  0.00    -0.456 OA
ENDROOT
BRANCH   1  12
ATOM     12  C   UNL     1     164.972 143.223 150.831  1.00  0.00     0.017 A 
ATOM     13  C   UNL     1     163.235 141.244 151.848  1.00  0.00     0.000 A 
ATOM     14  C   UNL     1     162.981 142.593 152.100  1.00  0.00     0.001 A 
ATOM     15  C   UNL     1     164.348 140.875 151.094  1.00  0.00     0.001 A 
ATOM     16  C   UNL     1     163.839 143.577 151.598  1.00  0.00     0.012 A 
ATOM     17  C   UNL     1     165.209 141.853 150.589  1.00  0.00     0.012 A 
ENDBRANCH   1  12
TORSDOF 1
ENDMDL
MODEL 6
REMARK VINA RESULT:    -6.782      4.755      8.508
REMARK INTER + INTRA:          -7.413
REMARK INTER:                  -7.173
REMARK INTRA:                  -0.240
REMARK UNBOUND:                -0.235
REMARK SMILES O=c1cc(-c2ccccc2)oc2ccccc12
REMARK SMILES IDX 4 1 3 2 2 3 1 4 17 5 16 6 15 7 14 8 13 9 12 10 11 11 5 12
REMARK SMILES IDX 8 13 7 14 9 15 6 16 10 17
REMARK H PARENT
REMARK Flexibility Score: inf
ROOT
ATOM      1  C   UNL     1     166.997 149.671 148.210  1.00  0.00     0.138 A 
ATOM      2  C   UNL     1     166.101 150.717 148.515  1.00  0.00     0.100 A 
ATOM      3  C   UNL     1     166.594 151.916 149.035  1.00  0.00     0.193 A 
ATOM      4  O   UNL     1     165.794 152.852 149.307  1.00  0.00    -0.289 OA
ATOM      5  C   UNL     1     167.972 152.062 149.246  1.00  0.00     0.065 A 
ATOM      6  C   UNL     1     168.534 153.242 149.767  1.00  0.00     0.016 A 
ATOM      7  C   UNL     1     169.916 153.334 149.958  1.00  0.00     0.001 A 
ATOM      8  C   UNL     1     170.744 152.257 149.634  1.00  0.00     0.004 A 
ATOM      9  C   UNL     1     170.195 151.081 149.116  1.00  0.00     0.048 A 
ATOM     10  C   UNL     1     168.813 150.976 148.920  1.00  0.00     0.138 A 
ATOM     11  O   UNL     1     168.301 149.854 148.428  1.00  0.00    -0.456 OA
ENDROOT
BRANCH   1  12
ATOM     12  C   UNL     1     166.553 148.357 147.651  1.00  0.00     0.017 A 
ATOM     13  C   UNL     1     165.782 145.886 146.522  1.00  0.00     0.000 A 
ATOM     14  C   UNL     1     165.160 146.349 147.682  1.00  0.00     0.001 A 
ATOM     15  C   UNL     1     166.785 146.646 145.921  1.00  0.00     0.001 A 
ATOM     16  C   UNL     1     165.539 147.572 148.246  1.00  0.00     0.012 A 
ATOM     17  C   UNL     1     167.169 147.869 146.478  1.00  0.00     0.012 A 
ENDBRANCH   1  12
TORSDOF 1
ENDMDL
MODEL 7
REMARK VINA RESULT:    -6.757      2.021      6.461
REMARK INTER + INTRA:          -7.387
REMARK INTER:                  -7.139
REMARK INTRA:                  -0.248
REMARK UNBOUND:                -0.235
REMARK SMILES O=c1cc(-c2ccccc2)oc2ccccc12
REMARK SMILES IDX 4 1 3 2 2 3 1 4 17 5 16 6 15 7 14 8 13 9 12 10 11 11 5 12
REMARK SMILES IDX 8 13 7 14 9 15 6 16 10 17
REMARK H PARENT
REMARK Flexibility Score: inf
ROOT
ATOM      1  C   UNL     1     166.807 146.209 149.800  1.00  0.00     0.138 A 
ATOM      2  C   UNL     1     168.209 146.075 149.727  1.00  0.00     0.100 A 
ATOM      3  C   UNL     1     168.977 147.133 149.233  1.00  0.00     0.193 A 
ATOM      4  O   UNL     1     170.230 147.013 149.167  1.00  0.00    -0.289 OA
ATOM      5  C   UNL     1     168.342 148.311 148.817  1.00  0.00     0.065 A 
ATOM      6  C   UNL     1     169.055 149.413 148.310  1.00  0.00     0.016 A 
ATOM      7  C   UNL     1     168.371 150.565 147.909  1.00  0.00     0.001 A 
ATOM      8  C   UNL     1     166.979 150.627 148.011  1.00  0.00     0.004 A 
ATOM      9  C   UNL     1     166.262 149.538 148.514  1.00  0.00     0.048 A 
ATOM     10  C   UNL     1     166.935 148.379 148.917  1.00  0.00     0.138 A 
ATOM     11  O   UNL     1     166.245 147.349 149.394  1.00  0.00    -0.456 OA
ENDROOT
BRANCH   1  12
ATOM     12  C   UNL     1     165.912 145.127 150.316  1.00  0.00     0.017 A 
ATOM     13  C   UNL     1     164.281 143.018 151.243  1.00  0.00     0.000 A 
ATOM     14  C   UNL     1     163.993 144.334 151.605  1.00  0.00     0.001 A 
ATOM     15  C   UNL     1     165.375 142.746 150.423  1.00  0.00     0.001 A 
ATOM     16  C   UNL     1     164.799 145.383 151.149  1.00  0.00     0.012 A 
ATOM     17  C   UNL     1     166.184 143.788 149.962  1.00  0.00     0.012 A 
ENDBRANCH   1  12
TORSDOF 1
ENDMDL
MODEL 8
REMARK VINA RESULT:    -6.728      1.883      3.105
REMARK INTER + INTRA:          -7.356
REMARK INTER:                  -7.135
REMARK INTRA:                  -0.221
REMARK UNBOUND:                -0.235
REMARK SMILES O=c1cc(-c2ccccc2)oc2ccccc12
REMARK SMILES IDX 4 1 3 2 2 3 1 4 17 5 16 6 15 7 14 8 13 9 12 10 11 11 5 12
REMARK SMILES IDX 8 13 7 14 9 15 6 16 10 17
REMARK H PARENT
REMARK Flexibility Score: inf
ROOT
ATOM      1  C   UNL     1     166.627 144.774 149.744  1.00  0.00     0.138 A 
ATOM      2  C   UNL     1     165.777 145.671 150.425  1.00  0.00     0.100 A 
ATOM      3  C   UNL     1     164.711 145.172 151.177  1.00  0.00     0.193 A 
ATOM      4  O   UNL     1     163.951 145.972 151.786  1.00  0.00    -0.289 OA
ATOM      5  C   UNL     1     164.502 143.787 151.244  1.00  0.00     0.065 A 
ATOM      6  C   UNL     1     163.447 143.219 151.982  1.00  0.00     0.016 A 
ATOM      7  C   UNL     1     163.284 141.831 152.015  1.00  0.00     0.001 A 
ATOM      8  C   UNL     1     164.166 141.003 151.315  1.00  0.00     0.004 A 
ATOM      9  C   UNL     1     165.216 141.558 150.580  1.00  0.00     0.048 A 
ATOM     10  C   UNL     1     165.390 142.946 150.539  1.00  0.00     0.138 A 
ATOM     11  O   UNL     1     166.391 143.464 149.836  1.00  0.00    -0.456 OA
ENDROOT
BRANCH   1  12
ATOM     12  C   UNL     1     167.790 145.224 148.919  1.00  0.00     0.017 A 
ATOM     13  C   UNL     1     170.047 146.053 147.437  1.00  0.00     0.000 A 
ATOM     14  C   UNL     1     168.775 146.108 146.864  1.00  0.00     0.001 A 
ATOM     15  C   UNL     1     170.201 145.587 148.743  1.00  0.00     0.001 A 
ATOM     16  C   UNL     1     167.655 145.699 147.594  1.00  0.00     0.012 A 
ATOM     17  C   UNL     1     169.086 145.177 149.478  1.00  0.00     0.012 A 
ENDBRANCH   1  12
TORSDOF 1
ENDMDL
