MODEL 1
REMARK VINA RESULT:    -4.545      0.000      0.000
REMARK INTER + INTRA:          -7.808
REMARK INTER:                  -6.537
REMARK INTRA:                  -1.270
REMARK UNBOUND:                -1.270
REMARK SMILES O=C(CO)[C@H](O)[C@@H](O)[C@@H](O)CO
REMARK SMILES IDX 7 1 9 2 11 3 12 4 10 6 5 8 2 9 1 10 3 11 4 12 6 14 8 16
REMARK H PARENT 12 5 10 7 4 13 6 15 8 17
REMARK Flexibility Score: inf
ROOT
ATOM      1  C   UNL     1       2.498   0.782  14.811  1.00  0.00     0.181 C 
ENDROOT
BRANCH   1   2
ATOM      2  C   UNL     1       1.475  -0.314  15.217  1.00  0.00     0.171 C 
BRANCH   2   3
ATOM      3  C   UNL     1       2.043  -1.733  15.024  1.00  0.00     0.190 C 
BRANCH   3   4
ATOM      4  O   UNL     1       2.888  -2.091  16.086  1.00  0.00    -0.394 OA
ATOM      5  H   UNL     1       3.569  -2.709  15.713  1.00  0.00     0.210 HD
ENDBRANCH   3   4
ENDBRANCH   2   3
BRANCH   2   6
ATOM      6  O   UNL     1       0.304  -0.182  14.453  1.00  0.00    -0.388 OA
ATOM      7  H   UNL     1       0.277   0.755  14.124  1.00  0.00     0.211 HD
ENDBRANCH   2   6
ENDBRANCH   1   2
BRANCH   1   8
ATOM      8  C   UNL     1       2.821   1.809  15.927  1.00  0.00     0.214 C 
BRANCH   8   9
ATOM      9  C   UNL     1       4.284   1.808  16.347  1.00  0.00     0.189 C 
ATOM     10  O   UNL     1       5.117   2.394  15.673  1.00  0.00    -0.294 OA
BRANCH   9  11
ATOM     11  C   UNL     1       4.733   1.085  17.589  1.00  0.00     0.234 C 
BRANCH  11  12
ATOM     12  O   UNL     1       4.369  -0.266  17.520  1.00  0.00    -0.388 OA
ATOM     13  H   UNL     1       5.111  -0.734  17.054  1.00  0.00     0.211 HD
ENDBRANCH  11  12
ENDBRANCH   9  11
ENDBRANCH   8   9
BRANCH   8  14
ATOM     14  O   UNL     1       1.953   1.679  17.029  1.00  0.00    -0.382 OA
ATOM     15  H   UNL     1       1.020   1.633  16.698  1.00  0.00     0.211 HD
ENDBRANCH   8  14
ENDBRANCH   1   8
BRANCH   1  16
ATOM     16  O   UNL     1       3.705   0.181  14.406  1.00  0.00    -0.387 OA
ATOM     17  H   UNL     1       4.036   0.681  13.614  1.00  0.00     0.211 HD
ENDBRANCH   1  16
TORSDOF 10
ENDMDL
MODEL 2
REMARK VINA RESULT:    -4.429      1.905      3.649
REMARK INTER + INTRA:          -7.641
REMARK INTER:                  -7.139
REMARK INTRA:                  -0.502
REMARK UNBOUND:                -1.270
REMARK SMILES O=C(CO)[C@H](O)[C@@H](O)[C@@H](O)CO
REMARK SMILES IDX 7 1 9 2 11 3 12 4 10 6 5 8 2 9 1 10 3 11 4 12 6 14 8 16
REMARK H PARENT 12 5 10 7 4 13 6 15 8 17
REMARK Flexibility Score: inf
ROOT
ATOM      1  C   UNL     1       4.058   1.644  17.188  1.00  0.00     0.181 C 
ENDROOT
BRANCH   1   2
ATOM      2  C   UNL     1       5.044   0.561  17.704  1.00  0.00     0.171 C 
BRANCH   2   3
ATOM      3  C   UNL     1       5.025  -0.703  16.823  1.00  0.00     0.190 C 
BRANCH   3   4
ATOM      4  O   UNL     1       4.294  -1.736  17.431  1.00  0.00    -0.394 OA
ATOM      5  H   UNL     1       3.334  -1.522  17.297  1.00  0.00     0.210 HD
ENDBRANCH   3   4
ENDBRANCH   2   3
BRANCH   2   6
ATOM      6  O   UNL     1       4.718   0.204  19.022  1.00  0.00    -0.388 OA
ATOM      7  H   UNL     1       5.134   0.882  19.617  1.00  0.00     0.211 HD
ENDBRANCH   2   6
ENDBRANCH   1   2
BRANCH   1   8
ATOM      8  C   UNL     1       3.257   1.238  15.924  1.00  0.00     0.214 C 
BRANCH   8   9
ATOM      9  C   UNL     1       3.566   2.102  14.709  1.00  0.00     0.189 C 
ATOM     10  O   UNL     1       4.027   1.596  13.697  1.00  0.00    -0.294 OA
BRANCH   9  11
ATOM     11  C   UNL     1       3.318   3.586  14.730  1.00  0.00     0.234 C 
BRANCH  11  12
ATOM     12  O   UNL     1       1.978   3.847  15.043  1.00  0.00    -0.388 OA
ATOM     13  H   UNL     1       1.445   3.576  14.250  1.00  0.00     0.211 HD
ENDBRANCH  11  12
ENDBRANCH   9  11
ENDBRANCH   8   9
BRANCH   8  14
ATOM     14  O   UNL     1       1.874   1.159  16.180  1.00  0.00    -0.382 OA
ATOM     15  H   UNL     1       1.410   0.885  15.348  1.00  0.00     0.211 HD
ENDBRANCH   8  14
ENDBRANCH   1   8
BRANCH   1  16
ATOM     16  O   UNL     1       3.139   1.974  18.202  1.00  0.00    -0.387 OA
ATOM     17  H   UNL     1       3.457   2.811  18.632  1.00  0.00     0.211 HD
ENDBRANCH   1  16
TORSDOF 10
ENDMDL
MODEL 3
REMARK VINA RESULT:    -4.387      0.636      3.857
REMARK INTER + INTRA:          -7.580
REMARK INTER:                  -6.281
REMARK INTRA:                  -1.299
REMARK UNBOUND:                -1.270
REMARK SMILES O=C(CO)[C@H](O)[C@@H](O)[C@@H](O)CO
REMARK SMILES IDX 7 1 9 2 11 3 12 4 10 6 5 8 2 9 1 10 3 11 4 12 6 14 8 16
REMARK H PARENT 12 5 10 7 4 13 6 15 8 17
REMARK Flexibility Score: inf
ROOT
ATOM      1  C   UNL     1       2.834   1.885  15.604  1.00  0.00     0.181 C 
ENDROOT
BRANCH   1   2
ATOM      2  C   UNL     1       4.222   2.246  16.199  1.00  0.00     0.171 C 
BRANCH   2   3
ATOM      3  C   UNL     1       4.383   1.727  17.641  1.00  0.00     0.190 C 
BRANCH   3   4
ATOM      4  O   UNL     1       4.416   0.324  17.675  1.00  0.00    -0.394 OA
ATOM      5  H   UNL     1       4.720   0.024  16.779  1.00  0.00     0.210 HD
ENDBRANCH   3   4
ENDBRANCH   2   3
BRANCH   2   6
ATOM      6  O   UNL     1       4.399   3.639  16.192  1.00  0.00    -0.388 OA
ATOM      7  H   UNL     1       5.376   3.807  16.258  1.00  0.00     0.211 HD
ENDBRANCH   2   6
ENDBRANCH   1   2
BRANCH   1   8
ATOM      8  C   UNL     1       2.846   0.693  14.612  1.00  0.00     0.214 C 
BRANCH   8   9
ATOM      9  C   UNL     1       1.787  -0.358  14.915  1.00  0.00     0.189 C 
ATOM     10  O   UNL     1       0.602  -0.063  14.881  1.00  0.00    -0.294 OA
BRANCH   9  11
ATOM     11  C   UNL     1       2.174  -1.770  15.265  1.00  0.00     0.234 C 
BRANCH  11  12
ATOM     12  O   UNL     1       3.152  -1.767  16.267  1.00  0.00    -0.388 OA
ATOM     13  H   UNL     1       3.258  -2.710  16.560  1.00  0.00     0.211 HD
ENDBRANCH  11  12
ENDBRANCH   9  11
ENDBRANCH   8   9
BRANCH   8  14
ATOM     14  O   UNL     1       4.130   0.130  14.483  1.00  0.00    -0.382 OA
ATOM     15  H   UNL     1       4.060  -0.853  14.585  1.00  0.00     0.211 HD
ENDBRANCH   8  14
ENDBRANCH   1   8
BRANCH   1  16
ATOM     16  O   UNL     1       1.934   1.582  16.643  1.00  0.00    -0.387 OA
ATOM     17  H   UNL     1       1.153   2.189  16.548  1.00  0.00     0.211 HD
ENDBRANCH   1  16
TORSDOF 10
ENDMDL
MODEL 4
REMARK VINA RESULT:    -4.377      2.128      3.557
REMARK INTER + INTRA:          -7.566
REMARK INTER:                  -7.116
REMARK INTRA:                  -0.450
REMARK UNBOUND:                -1.270
REMARK SMILES O=C(CO)[C@H](O)[C@@H](O)[C@@H](O)CO
REMARK SMILES IDX 7 1 9 2 11 3 12 4 10 6 5 8 2 9 1 10 3 11 4 12 6 14 8 16
REMARK H PARENT 12 5 10 7 4 13 6 15 8 17
REMARK Flexibility Score: inf
ROOT
ATOM      1  C   UNL     1       3.122   1.499  16.127  1.00  0.00     0.181 C 
ENDROOT
BRANCH   1   2
ATOM      2  C   UNL     1       3.246   2.604  15.042  1.00  0.00     0.171 C 
BRANCH   2   3
ATOM      3  C   UNL     1       4.583   3.363  15.143  1.00  0.00     0.190 C 
BRANCH   3   4
ATOM      4  O   UNL     1       4.465   4.493  15.967  1.00  0.00    -0.394 OA
ATOM      5  H   UNL     1       3.721   4.309  16.598  1.00  0.00     0.210 HD
ENDBRANCH   3   4
ENDBRANCH   2   3
BRANCH   2   6
ATOM      6  O   UNL     1       2.189   3.520  15.168  1.00  0.00    -0.388 OA
ATOM      7  H   UNL     1       1.570   3.155  15.854  1.00  0.00     0.211 HD
ENDBRANCH   2   6
ENDBRANCH   1   2
BRANCH   1   8
ATOM      8  C   UNL     1       4.421   1.237  16.932  1.00  0.00     0.214 C 
BRANCH   8   9
ATOM      9  C   UNL     1       5.171  -0.009  16.482  1.00  0.00     0.189 C 
ATOM     10  O   UNL     1       5.555  -0.111  15.327  1.00  0.00    -0.294 OA
BRANCH   9  11
ATOM     11  C   UNL     1       5.449  -1.136  17.441  1.00  0.00     0.234 C 
BRANCH  11  12
ATOM     12  O   UNL     1       4.250  -1.755  17.817  1.00  0.00    -0.388 OA
ATOM     13  H   UNL     1       3.517  -1.162  17.507  1.00  0.00     0.211 HD
ENDBRANCH  11  12
ENDBRANCH   9  11
ENDBRANCH   8   9
BRANCH   8  14
ATOM     14  O   UNL     1       4.189   1.243  18.321  1.00  0.00    -0.382 OA
ATOM     15  H   UNL     1       3.594   0.484  18.550  1.00  0.00     0.211 HD
ENDBRANCH   8  14
ENDBRANCH   1   8
BRANCH   1  16
ATOM     16  O   UNL     1       2.102   1.835  17.036  1.00  0.00    -0.387 OA
ATOM     17  H   UNL     1       2.205   1.248  17.830  1.00  0.00     0.211 HD
ENDBRANCH   1  16
TORSDOF 10
ENDMDL
MODEL 5
REMARK VINA RESULT:    -4.304      2.150      3.594
REMARK INTER + INTRA:          -7.462
REMARK INTER:                  -6.952
REMARK INTRA:                  -0.509
REMARK UNBOUND:                -1.270
REMARK SMILES O=C(CO)[C@H](O)[C@@H](O)[C@@H](O)CO
REMARK SMILES IDX 7 1 9 2 11 3 12 4 10 6 5 8 2 9 1 10 3 11 4 12 6 14 8 16
REMARK H PARENT 12 5 10 7 4 13 6 15 8 17
REMARK Flexibility Score: inf
ROOT
ATOM      1  C   UNL     1       4.724   1.546  16.880  1.00  0.00     0.181 C 
ENDROOT
BRANCH   1   2
ATOM      2  C   UNL     1       3.250   1.392  16.416  1.00  0.00     0.171 C 
BRANCH   2   3
ATOM      3  C   UNL     1       3.002   2.071  15.055  1.00  0.00     0.190 C 
BRANCH   3   4
ATOM      4  O   UNL     1       2.331   3.293  15.211  1.00  0.00    -0.394 OA
ATOM      5  H   UNL     1       1.444   3.083  15.603  1.00  0.00     0.210 HD
ENDBRANCH   3   4
ENDBRANCH   2   3
BRANCH   2   6
ATOM      6  O   UNL     1       2.386   1.952  17.370  1.00  0.00    -0.388 OA
ATOM      7  H   UNL     1       1.554   1.409  17.362  1.00  0.00     0.211 HD
ENDBRANCH   2   6
ENDBRANCH   1   2
BRANCH   1   8
ATOM      8  C   UNL     1       5.118   0.651  18.084  1.00  0.00     0.214 C 
BRANCH   8   9
ATOM      9  C   UNL     1       5.263  -0.821  17.722  1.00  0.00     0.189 C 
ATOM     10  O   UNL     1       4.606  -1.296  16.808  1.00  0.00    -0.294 OA
BRANCH   9  11
ATOM     11  C   UNL     1       6.206  -1.717  18.480  1.00  0.00     0.234 C 
BRANCH  11  12
ATOM     12  O   UNL     1       6.749  -1.031  19.573  1.00  0.00    -0.388 OA
ATOM     13  H   UNL     1       6.008  -0.505  19.973  1.00  0.00     0.211 HD
ENDBRANCH  11  12
ENDBRANCH   9  11
ENDBRANCH   8   9
BRANCH   8  14
ATOM     14  O   UNL     1       4.263   0.845  19.185  1.00  0.00    -0.382 OA
ATOM     15  H   UNL     1       4.139   1.818  19.329  1.00  0.00     0.211 HD
ENDBRANCH   8  14
ENDBRANCH   1   8
BRANCH   1  16
ATOM     16  O   UNL     1       5.594   1.254  15.813  1.00  0.00    -0.387 OA
ATOM     17  H   UNL     1       5.163   1.580  14.979  1.00  0.00     0.211 HD
ENDBRANCH   1  16
TORSDOF 10
ENDMDL
MODEL 6
REMARK VINA RESULT:    -4.220      1.301      4.454
REMARK INTER + INTRA:          -7.341
REMARK INTER:                  -6.718
REMARK INTRA:                  -0.622
REMARK UNBOUND:                -1.270
REMARK SMILES O=C(CO)[C@H](O)[C@@H](O)[C@@H](O)CO
REMARK SMILES IDX 7 1 9 2 11 3 12 4 10 6 5 8 2 9 1 10 3 11 4 12 6 14 8 16
REMARK H PARENT 12 5 10 7 4 13 6 15 8 17
REMARK Flexibility Score: inf
ROOT
ATOM      1  C   UNL     1       3.066   1.525  15.867  1.00  0.00     0.181 C 
ENDROOT
BRANCH   1   2
ATOM      2  C   UNL     1       4.293   2.437  16.138  1.00  0.00     0.171 C 
BRANCH   2   3
ATOM      3  C   UNL     1       4.243   3.732  15.303  1.00  0.00     0.190 C 
BRANCH   3   4
ATOM      4  O   UNL     1       2.920   4.145  15.084  1.00  0.00    -0.394 OA
ATOM      5  H   UNL     1       2.782   4.961  15.631  1.00  0.00     0.210 HD
ENDBRANCH   3   4
ENDBRANCH   2   3
BRANCH   2   6
ATOM      6  O   UNL     1       5.478   1.746  15.840  1.00  0.00    -0.388 OA
ATOM      7  H   UNL     1       5.695   1.188  16.632  1.00  0.00     0.211 HD
ENDBRANCH   2   6
ENDBRANCH   1   2
BRANCH   1   8
ATOM      8  C   UNL     1       3.401   0.017  15.725  1.00  0.00     0.214 C 
BRANCH   8   9
ATOM      9  C   UNL     1       2.226  -0.821  15.240  1.00  0.00     0.189 C 
ATOM     10  O   UNL     1       2.171  -2.012  15.504  1.00  0.00    -0.294 OA
BRANCH   9  11
ATOM     11  C   UNL     1       1.118  -0.206  14.428  1.00  0.00     0.234 C 
BRANCH  11  12
ATOM     12  O   UNL     1       0.037   0.123  15.257  1.00  0.00    -0.388 OA
ATOM     13  H   UNL     1       0.397   0.718  15.965  1.00  0.00     0.211 HD
ENDBRANCH  11  12
ENDBRANCH   9  11
ENDBRANCH   8   9
BRANCH   8  14
ATOM     14  O   UNL     1       3.976  -0.506  16.899  1.00  0.00    -0.382 OA
ATOM     15  H   UNL     1       4.661   0.129  17.231  1.00  0.00     0.211 HD
ENDBRANCH   8  14
ENDBRANCH   1   8
BRANCH   1  16
ATOM     16  O   UNL     1       2.125   1.670  16.904  1.00  0.00    -0.387 OA
ATOM     17  H   UNL     1       2.621   1.635  17.764  1.00  0.00     0.211 HD
ENDBRANCH   1  16
TORSDOF 10
ENDMDL
MODEL 7
REMARK VINA RESULT:    -4.164      1.458      2.096
REMARK INTER + INTRA:          -7.260
REMARK INTER:                  -6.214
REMARK INTRA:                  -1.046
REMARK UNBOUND:                -1.270
REMARK SMILES O=C(CO)[C@H](O)[C@@H](O)[C@@H](O)CO
REMARK SMILES IDX 7 1 9 2 11 3 12 4 10 6 5 8 2 9 1 10 3 11 4 12 6 14 8 16
REMARK H PARENT 12 5 10 7 4 13 6 15 8 17
REMARK Flexibility Score: inf
ROOT
ATOM      1  C   UNL     1       3.290   1.182  14.561  1.00  0.00     0.181 C 
ENDROOT
BRANCH   1   2
ATOM      2  C   UNL     1       2.347   0.362  15.482  1.00  0.00     0.171 C 
BRANCH   2   3
ATOM      3  C   UNL     1       1.202  -0.300  14.692  1.00  0.00     0.190 C 
BRANCH   3   4
ATOM      4  O   UNL     1      -0.049   0.161  15.127  1.00  0.00    -0.394 OA
ATOM      5  H   UNL     1      -0.624   0.230  14.320  1.00  0.00     0.210 HD
ENDBRANCH   3   4
ENDBRANCH   2   3
BRANCH   2   6
ATOM      6  O   UNL     1       1.799   1.195  16.470  1.00  0.00    -0.388 OA
ATOM      7  H   UNL     1       0.822   1.249  16.294  1.00  0.00     0.211 HD
ENDBRANCH   2   6
ENDBRANCH   1   2
BRANCH   1   8
ATOM      8  C   UNL     1       4.566   1.722  15.258  1.00  0.00     0.214 C 
BRANCH   8   9
ATOM      9  C   UNL     1       5.397   0.635  15.926  1.00  0.00     0.189 C 
ATOM     10  O   UNL     1       5.898  -0.254  15.254  1.00  0.00    -0.294 OA
BRANCH   9  11
ATOM     11  C   UNL     1       5.613   0.628  17.415  1.00  0.00     0.234 C 
BRANCH  11  12
ATOM     12  O   UNL     1       4.393   0.808  18.080  1.00  0.00    -0.388 OA
ATOM     13  H   UNL     1       4.055   1.702  17.813  1.00  0.00     0.211 HD
ENDBRANCH  11  12
ENDBRANCH   9  11
ENDBRANCH   8   9
BRANCH   8  14
ATOM     14  O   UNL     1       4.275   2.782  16.139  1.00  0.00    -0.382 OA
ATOM     15  H   UNL     1       4.965   3.486  16.032  1.00  0.00     0.211 HD
ENDBRANCH   8  14
ENDBRANCH   1   8
BRANCH   1  16
ATOM     16  O   UNL     1       3.689   0.395  13.465  1.00  0.00    -0.387 OA
ATOM     17  H   UNL     1       3.054  -0.366  13.396  1.00  0.00     0.211 HD
ENDBRANCH   1  16
TORSDOF 10
ENDMDL
MODEL 8
REMARK VINA RESULT:    -4.148      1.769      3.937
REMARK INTER + INTRA:          -7.237
REMARK INTER:                  -6.569
REMARK INTRA:                  -0.668
REMARK UNBOUND:                -1.270
REMARK SMILES O=C(CO)[C@H](O)[C@@H](O)[C@@H](O)CO
REMARK SMILES IDX 7 1 9 2 11 3 12 4 10 6 5 8 2 9 1 10 3 11 4 12 6 14 8 16
REMARK H PARENT 12 5 10 7 4 13 6 15 8 17
REMARK Flexibility Score: inf
ROOT
ATOM      1  C   UNL     1       5.591   0.201  16.462  1.00  0.00     0.181 C 
ENDROOT
BRANCH   1   2
ATOM      2  C   UNL     1       5.624   0.049  18.007  1.00  0.00     0.171 C 
BRANCH   2   3
ATOM      3  C   UNL     1       5.963  -1.391  18.436  1.00  0.00     0.190 C 
BRANCH   3   4
ATOM      4  O   UNL     1       6.924  -1.403  19.460  1.00  0.00    -0.394 OA
ATOM      5  H   UNL     1       7.748  -1.798  19.072  1.00  0.00     0.210 HD
ENDBRANCH   3   4
ENDBRANCH   2   3
BRANCH   2   6
ATOM      6  O   UNL     1       4.380   0.407  18.550  1.00  0.00    -0.388 OA
ATOM      7  H   UNL     1       4.560   0.834  19.429  1.00  0.00     0.211 HD
ENDBRANCH   2   6
ENDBRANCH   1   2
BRANCH   1   8
ATOM      8  C   UNL     1       4.418  -0.536  15.765  1.00  0.00     0.214 C 
BRANCH   8   9
ATOM      9  C   UNL     1       3.478   0.396  15.013  1.00  0.00     0.189 C 
ATOM     10  O   UNL     1       3.780   0.808  13.903  1.00  0.00    -0.294 OA
BRANCH   9  11
ATOM     11  C   UNL     1       2.171   0.833  15.617  1.00  0.00     0.234 C 
BRANCH  11  12
ATOM     12  O   UNL     1       2.402   1.611  16.758  1.00  0.00    -0.388 OA
ATOM     13  H   UNL     1       2.649   0.981  17.484  1.00  0.00     0.211 HD
ENDBRANCH  11  12
ENDBRANCH   9  11
ENDBRANCH   8   9
BRANCH   8  14
ATOM     14  O   UNL     1       3.726  -1.381  16.654  1.00  0.00    -0.382 OA
ATOM     15  H   UNL     1       4.070  -1.232  17.572  1.00  0.00     0.211 HD
ENDBRANCH   8  14
ENDBRANCH   1   8
BRANCH   1  16
ATOM     16  O   UNL     1       5.519   1.564  16.118  1.00  0.00    -0.387 OA
ATOM     17  H   UNL     1       6.442   1.870  15.914  1.00  0.00     0.211 HD
ENDBRANCH   1  16
TORSDOF 10
ENDMDL
MODEL 9
REMARK VINA RESULT:    -4.129      1.859      3.302
REMARK INTER + INTRA:          -7.210
REMARK INTER:                  -5.977
REMARK INTRA:                  -1.233
REMARK UNBOUND:                -1.270
REMARK SMILES O=C(CO)[C@H](O)[C@@H](O)[C@@H](O)CO
REMARK SMILES IDX 7 1 9 2 11 3 12 4 10 6 5 8 2 9 1 10 3 11 4 12 6 14 8 16
REMARK H PARENT 12 5 10 7 4 13 6 15 8 17
REMARK Flexibility Score: inf
ROOT
ATOM      1  C   UNL     1       3.806   0.211  16.246  1.00  0.00     0.181 C 
ENDROOT
BRANCH   1   2
ATOM      2  C   UNL     1       4.775   0.821  17.296  1.00  0.00     0.171 C 
BRANCH   2   3
ATOM      3  C   UNL     1       5.436  -0.263  18.169  1.00  0.00     0.190 C 
BRANCH   3   4
ATOM      4  O   UNL     1       4.649  -1.424  18.219  1.00  0.00    -0.394 OA
ATOM      5  H   UNL     1       5.223  -2.170  17.903  1.00  0.00     0.210 HD
ENDBRANCH   3   4
ENDBRANCH   2   3
BRANCH   2   6
ATOM      6  O   UNL     1       4.080   1.716  18.125  1.00  0.00    -0.388 OA
ATOM      7  H   UNL     1       3.576   2.331  17.530  1.00  0.00     0.211 HD
ENDBRANCH   2   6
ENDBRANCH   1   2
BRANCH   1   8
ATOM      8  C   UNL     1       2.977   1.252  15.451  1.00  0.00     0.214 C 
BRANCH   8   9
ATOM      9  C   UNL     1       3.825   2.152  14.564  1.00  0.00     0.189 C 
ATOM     10  O   UNL     1       4.512   1.669  13.676  1.00  0.00    -0.294 OA
BRANCH   9  11
ATOM     11  C   UNL     1       3.841   3.644  14.762  1.00  0.00     0.234 C 
BRANCH  11  12
ATOM     12  O   UNL     1       4.435   3.961  15.990  1.00  0.00    -0.388 OA
ATOM     13  H   UNL     1       4.205   4.909  16.178  1.00  0.00     0.211 HD
ENDBRANCH  11  12
ENDBRANCH   9  11
ENDBRANCH   8   9
BRANCH   8  14
ATOM     14  O   UNL     1       2.118   1.990  16.288  1.00  0.00    -0.382 OA
ATOM     15  H   UNL     1       2.496   2.003  17.204  1.00  0.00     0.211 HD
ENDBRANCH   8  14
ENDBRANCH   1   8
BRANCH   1  16
ATOM     16  O   UNL     1       4.531  -0.569  15.325  1.00  0.00    -0.387 OA
ATOM     17  H   UNL     1       5.383  -0.094  15.138  1.00  0.00     0.211 HD
ENDBRANCH   1  16
TORSDOF 10
ENDMDL
