MODEL 1
REMARK VINA RESULT:    -5.920      0.000      0.000
REMARK INTER + INTRA:          -6.346
REMARK INTER:                  -6.266
REMARK INTRA:                  -0.079
REMARK UNBOUND:                -0.079
REMARK SMILES CC(=O)c1cccc(C)c1
REMARK SMILES IDX 9 1 8 2 10 3 4 4 5 5 6 6 7 7 2 8 3 9 1 10
REMARK H PARENT
REMARK Flexibility Score: inf
ROOT
ATOM      1  C   UNL     1     126.979 125.220 128.891  1.00  0.00     0.044 C 
ATOM      2  C   UNL     1     128.277 124.973 128.181  1.00  0.00    -0.050 A 
ATOM      3  C   UNL     1     129.241 125.991 128.097  1.00  0.00     0.015 A 
ATOM      4  C   UNL     1     130.480 125.759 127.465  1.00  0.00     0.017 A 
ATOM      5  C   UNL     1     130.739 124.482 126.933  1.00  0.00     0.012 A 
ATOM      6  C   UNL     1     129.787 123.464 127.033  1.00  0.00     0.001 A 
ATOM      7  C   UNL     1     128.565 123.704 127.661  1.00  0.00     0.003 A 
ENDROOT
BRANCH   4   8
ATOM      8  C   UNL     1     131.507 126.831 127.358  1.00  0.00     0.159 C 
ATOM      9  O   UNL     1     131.312 127.942 127.923  1.00  0.00    -0.295 OA
ATOM     10  C   UNL     1     132.781 126.636 126.593  1.00  0.00     0.093 C 
ENDBRANCH   4   8
TORSDOF 1
ENDMDL
MODEL 2
REMARK VINA RESULT:    -5.784      1.826      3.966
REMARK INTER + INTRA:          -6.201
REMARK INTER:                  -6.127
REMARK INTRA:                  -0.074
REMARK UNBOUND:                -0.079
REMARK SMILES CC(=O)c1cccc(C)c1
REMARK SMILES IDX 9 1 8 2 10 3 4 4 5 5 6 6 7 7 2 8 3 9 1 10
REMARK H PARENT
REMARK Flexibility Score: inf
ROOT
ATOM      1  C   UNL     1     131.304 127.377 127.280  1.00  0.00     0.044 C 
ATOM      2  C   UNL     1     130.496 126.115 127.359  1.00  0.00    -0.050 A 
ATOM      3  C   UNL     1     129.294 126.091 128.083  1.00  0.00     0.015 A 
ATOM      4  C   UNL     1     128.507 124.922 128.134  1.00  0.00     0.017 A 
ATOM      5  C   UNL     1     128.944 123.782 127.431  1.00  0.00     0.012 A 
ATOM      6  C   UNL     1     130.131 123.813 126.695  1.00  0.00     0.001 A 
ATOM      7  C   UNL     1     130.901 124.975 126.652  1.00  0.00     0.003 A 
ENDROOT
BRANCH   4   8
ATOM      8  C   UNL     1     127.236 124.877 128.906  1.00  0.00     0.159 C 
ATOM      9  O   UNL     1     126.489 125.893 128.941  1.00  0.00    -0.295 OA
ATOM     10  C   UNL     1     126.804 123.651 129.654  1.00  0.00     0.093 C 
ENDBRANCH   4   8
TORSDOF 1
ENDMDL
MODEL 3
REMARK VINA RESULT:    -5.590      1.209      1.437
REMARK INTER + INTRA:          -5.996
REMARK INTER:                  -5.926
REMARK INTRA:                  -0.070
REMARK UNBOUND:                -0.079
REMARK SMILES CC(=O)c1cccc(C)c1
REMARK SMILES IDX 9 1 8 2 10 3 4 4 5 5 6 6 7 7 2 8 3 9 1 10
REMARK H PARENT
REMARK Flexibility Score: inf
ROOT
ATOM      1  C   UNL     1     126.967 124.396 128.924  1.00  0.00     0.044 C 
ATOM      2  C   UNL     1     128.198 124.575 128.085  1.00  0.00    -0.050 A 
ATOM      3  C   UNL     1     128.656 125.865 127.771  1.00  0.00     0.015 A 
ATOM      4  C   UNL     1     129.832 126.047 127.015  1.00  0.00     0.017 A 
ATOM      5  C   UNL     1     130.548 124.910 126.592  1.00  0.00     0.012 A 
ATOM      6  C   UNL     1     130.101 123.627 126.921  1.00  0.00     0.001 A 
ATOM      7  C   UNL     1     128.936 123.459 127.670  1.00  0.00     0.003 A 
ENDROOT
BRANCH   4   8
ATOM      8  C   UNL     1     130.325 127.407 126.665  1.00  0.00     0.159 C 
ATOM      9  O   UNL     1     131.516 127.728 126.929  1.00  0.00    -0.295 OA
ATOM     10  C   UNL     1     129.445 128.424 126.001  1.00  0.00     0.093 C 
ENDBRANCH   4   8
TORSDOF 1
ENDMDL
MODEL 4
REMARK VINA RESULT:    -5.513      1.960      4.051
REMARK INTER + INTRA:          -5.914
REMARK INTER:                  -5.838
REMARK INTRA:                  -0.077
REMARK UNBOUND:                -0.079
REMARK SMILES CC(=O)c1cccc(C)c1
REMARK SMILES IDX 9 1 8 2 10 3 4 4 5 5 6 6 7 7 2 8 3 9 1 10
REMARK H PARENT
REMARK Flexibility Score: inf
ROOT
ATOM      1  C   UNL     1     131.761 128.630 129.086  1.00  0.00     0.044 C 
ATOM      2  C   UNL     1     131.551 127.513 128.107  1.00  0.00    -0.050 A 
ATOM      3  C   UNL     1     130.427 126.679 128.220  1.00  0.00     0.015 A 
ATOM      4  C   UNL     1     130.199 125.648 127.285  1.00  0.00     0.017 A 
ATOM      5  C   UNL     1     131.112 125.481 126.226  1.00  0.00     0.012 A 
ATOM      6  C   UNL     1     132.220 126.323 126.104  1.00  0.00     0.001 A 
ATOM      7  C   UNL     1     132.436 127.340 127.035  1.00  0.00     0.003 A 
ENDROOT
BRANCH   4   8
ATOM      8  C   UNL     1     129.018 124.749 127.397  1.00  0.00     0.159 C 
ATOM      9  O   UNL     1     128.982 123.678 126.730  1.00  0.00    -0.295 OA
ATOM     10  C   UNL     1     127.854 125.073 128.284  1.00  0.00     0.093 C 
ENDBRANCH   4   8
TORSDOF 1
ENDMDL
MODEL 5
REMARK VINA RESULT:    -5.499      2.955      3.906
REMARK INTER + INTRA:          -5.900
REMARK INTER:                  -5.824
REMARK INTRA:                  -0.075
REMARK UNBOUND:                -0.079
REMARK SMILES CC(=O)c1cccc(C)c1
REMARK SMILES IDX 9 1 8 2 10 3 4 4 5 5 6 6 7 7 2 8 3 9 1 10
REMARK H PARENT
REMARK Flexibility Score: inf
ROOT
ATOM      1  C   UNL     1     130.119 123.685 126.997  1.00  0.00     0.044 C 
ATOM      2  C   UNL     1     130.106 125.157 126.703  1.00  0.00    -0.050 A 
ATOM      3  C   UNL     1     129.561 125.631 125.499  1.00  0.00     0.015 A 
ATOM      4  C   UNL     1     129.510 127.014 125.228  1.00  0.00     0.017 A 
ATOM      5  C   UNL     1     130.002 127.912 126.195  1.00  0.00     0.012 A 
ATOM      6  C   UNL     1     130.527 127.440 127.400  1.00  0.00     0.001 A 
ATOM      7  C   UNL     1     130.573 126.069 127.658  1.00  0.00     0.003 A 
ENDROOT
BRANCH   4   8
ATOM      8  C   UNL     1     128.946 127.532 123.952  1.00  0.00     0.159 C 
ATOM      9  O   UNL     1     129.300 128.665 123.526  1.00  0.00    -0.295 OA
ATOM     10  C   UNL     1     127.956 126.747 123.144  1.00  0.00     0.093 C 
ENDBRANCH   4   8
TORSDOF 1
ENDMDL
MODEL 6
REMARK VINA RESULT:    -5.464      4.039      4.857
REMARK INTER + INTRA:          -5.863
REMARK INTER:                  -5.796
REMARK INTRA:                  -0.067
REMARK UNBOUND:                -0.079
REMARK SMILES CC(=O)c1cccc(C)c1
REMARK SMILES IDX 9 1 8 2 10 3 4 4 5 5 6 6 7 7 2 8 3 9 1 10
REMARK H PARENT
REMARK Flexibility Score: inf
ROOT
ATOM      1  C   UNL     1     127.639 126.853 121.776  1.00  0.00     0.044 C 
ATOM      2  C   UNL     1     128.248 127.248 123.090  1.00  0.00    -0.050 A 
ATOM      3  C   UNL     1     128.415 126.293 124.105  1.00  0.00     0.015 A 
ATOM      4  C   UNL     1     129.018 126.643 125.331  1.00  0.00     0.017 A 
ATOM      5  C   UNL     1     129.465 127.966 125.511  1.00  0.00     0.012 A 
ATOM      6  C   UNL     1     129.316 128.911 124.493  1.00  0.00     0.001 A 
ATOM      7  C   UNL     1     128.717 128.554 123.284  1.00  0.00     0.003 A 
ENDROOT
BRANCH   4   8
ATOM      8  C   UNL     1     129.192 125.645 126.421  1.00  0.00     0.159 C 
ATOM      9  O   UNL     1     128.308 125.534 127.314  1.00  0.00    -0.295 OA
ATOM     10  C   UNL     1     130.397 124.756 126.499  1.00  0.00     0.093 C 
ENDBRANCH   4   8
TORSDOF 1
ENDMDL
MODEL 7
REMARK VINA RESULT:    -5.396      3.509      4.429
REMARK INTER + INTRA:          -5.791
REMARK INTER:                  -5.724
REMARK INTRA:                  -0.067
REMARK UNBOUND:                -0.079
REMARK SMILES CC(=O)c1cccc(C)c1
REMARK SMILES IDX 9 1 8 2 10 3 4 4 5 5 6 6 7 7 2 8 3 9 1 10
REMARK H PARENT
REMARK Flexibility Score: inf
ROOT
ATOM      1  C   UNL     1     131.118 127.768 128.131  1.00  0.00     0.044 C 
ATOM      2  C   UNL     1     131.065 127.221 126.735  1.00  0.00    -0.050 A 
ATOM      3  C   UNL     1     129.966 127.504 125.908  1.00  0.00     0.015 A 
ATOM      4  C   UNL     1     129.922 127.026 124.582  1.00  0.00     0.017 A 
ATOM      5  C   UNL     1     131.007 126.270 124.098  1.00  0.00     0.012 A 
ATOM      6  C   UNL     1     132.107 126.004 124.917  1.00  0.00     0.001 A 
ATOM      7  C   UNL     1     132.141 126.482 126.227  1.00  0.00     0.003 A 
ENDROOT
BRANCH   4   8
ATOM      8  C   UNL     1     128.760 127.309 123.696  1.00  0.00     0.159 C 
ATOM      9  O   UNL     1     127.869 126.431 123.532  1.00  0.00    -0.295 OA
ATOM     10  C   UNL     1     128.608 128.617 122.979  1.00  0.00     0.093 C 
ENDBRANCH   4   8
TORSDOF 1
ENDMDL
MODEL 8
REMARK VINA RESULT:    -5.248      1.794      2.743
REMARK INTER + INTRA:          -5.634
REMARK INTER:                  -5.568
REMARK INTRA:                  -0.066
REMARK UNBOUND:                -0.079
REMARK SMILES CC(=O)c1cccc(C)c1
REMARK SMILES IDX 9 1 8 2 10 3 4 4 5 5 6 6 7 7 2 8 3 9 1 10
REMARK H PARENT
REMARK Flexibility Score: inf
ROOT
ATOM      1  C   UNL     1     129.383 123.703 126.990  1.00  0.00     0.044 C 
ATOM      2  C   UNL     1     129.577 125.176 126.781  1.00  0.00    -0.050 A 
ATOM      3  C   UNL     1     130.580 125.863 127.483  1.00  0.00     0.015 A 
ATOM      4  C   UNL     1     130.796 127.240 127.268  1.00  0.00     0.017 A 
ATOM      5  C   UNL     1     129.996 127.910 126.323  1.00  0.00     0.012 A 
ATOM      6  C   UNL     1     129.011 127.222 125.611  1.00  0.00     0.001 A 
ATOM      7  C   UNL     1     128.806 125.860 125.832  1.00  0.00     0.003 A 
ENDROOT
BRANCH   4   8
ATOM      8  C   UNL     1     131.848 127.984 128.013  1.00  0.00     0.159 C 
ATOM      9  O   UNL     1     133.002 128.101 127.517  1.00  0.00    -0.295 OA
ATOM     10  C   UNL     1     131.583 128.608 129.350  1.00  0.00     0.093 C 
ENDBRANCH   4   8
TORSDOF 1
ENDMDL
MODEL 9
REMARK VINA RESULT:    -5.132      3.059      4.130
REMARK INTER + INTRA:          -5.511
REMARK INTER:                  -5.441
REMARK INTRA:                  -0.070
REMARK UNBOUND:                -0.079
REMARK SMILES CC(=O)c1cccc(C)c1
REMARK SMILES IDX 9 1 8 2 10 3 4 4 5 5 6 6 7 7 2 8 3 9 1 10
REMARK H PARENT
REMARK Flexibility Score: inf
ROOT
ATOM      1  C   UNL     1     128.275 127.768 123.490  1.00  0.00     0.044 C 
ATOM      2  C   UNL     1     129.177 126.918 124.335  1.00  0.00    -0.050 A 
ATOM      3  C   UNL     1     128.666 126.245 125.457  1.00  0.00     0.015 A 
ATOM      4  C   UNL     1     129.497 125.415 126.238  1.00  0.00     0.017 A 
ATOM      5  C   UNL     1     130.845 125.261 125.863  1.00  0.00     0.012 A 
ATOM      6  C   UNL     1     131.348 125.916 124.736  1.00  0.00     0.001 A 
ATOM      7  C   UNL     1     130.518 126.735 123.970  1.00  0.00     0.003 A 
ENDROOT
BRANCH   4   8
ATOM      8  C   UNL     1     128.973 124.703 127.435  1.00  0.00     0.159 C 
ATOM      9  O   UNL     1     129.161 123.462 127.558  1.00  0.00    -0.295 OA
ATOM     10  C   UNL     1     128.218 125.417 128.516  1.00  0.00     0.093 C 
ENDBRANCH   4   8
TORSDOF 1
ENDMDL
