MODEL 1
REMARK VINA RESULT:    -4.668      0.000      0.000
REMARK INTER + INTRA:          -5.223
REMARK INTER:                  -5.077
REMARK INTRA:                  -0.146
REMARK UNBOUND:                -0.146
REMARK SMILES C=C(C)[C@@H]1CC[C@H](C)C[C@@H]1O
REMARK SMILES IDX 8 1 7 2 6 3 5 4 4 5 10 6 9 7 11 8 2 10 1 11 3 12
REMARK H PARENT 11 9
REMARK Flexibility Score: inf
ROOT
ATOM      1  C   UNL     1     116.981 121.459 127.990  1.00  0.00     0.008 C 
ATOM      2  C   UNL     1     115.668 121.387 128.779  1.00  0.00    -0.012 C 
ATOM      3  C   UNL     1     115.409 119.950 129.306  1.00  0.00     0.004 C 
ATOM      4  C   UNL     1     115.812 119.796 130.776  1.00  0.00     0.011 C 
ATOM      5  C   UNL     1     114.970 120.727 131.683  1.00  0.00     0.043 C 
ATOM      6  C   UNL     1     114.653 122.105 131.014  1.00  0.00     0.121 C 
ATOM      7  C   UNL     1     115.659 122.455 129.902  1.00  0.00     0.035 C 
ENDROOT
BRANCH   6   8
ATOM      8  O   UNL     1     114.610 123.135 131.970  1.00  0.00    -0.392 OA
ATOM      9  H   UNL     1     113.659 123.254 132.227  1.00  0.00     0.210 HD
ENDBRANCH   6   8
BRANCH   5  10
ATOM     10  C   UNL     1     115.600 120.844 133.069  1.00  0.00    -0.075 C 
ATOM     11  C   UNL     1     114.880 120.634 134.185  1.00  0.00     0.008 C 
ATOM     12  C   UNL     1     117.058 121.199 133.213  1.00  0.00     0.039 C 
ENDBRANCH   5  10
TORSDOF 2
ENDMDL
MODEL 2
REMARK VINA RESULT:    -4.660      2.223      4.674
REMARK INTER + INTRA:          -5.215
REMARK INTER:                  -5.091
REMARK INTRA:                  -0.124
REMARK UNBOUND:                -0.146
REMARK SMILES C=C(C)[C@@H]1CC[C@H](C)C[C@@H]1O
REMARK SMILES IDX 8 1 7 2 6 3 5 4 4 5 10 6 9 7 11 8 2 10 1 11 3 12
REMARK H PARENT 11 9
REMARK Flexibility Score: inf
ROOT
ATOM      1  C   UNL     1     118.910 118.526 135.094  1.00  0.00     0.008 C 
ATOM      2  C   UNL     1     118.312 119.938 135.091  1.00  0.00    -0.012 C 
ATOM      3  C   UNL     1     118.860 120.776 133.905  1.00  0.00     0.004 C 
ATOM      4  C   UNL     1     117.882 120.813 132.727  1.00  0.00     0.011 C 
ATOM      5  C   UNL     1     116.550 121.492 133.133  1.00  0.00     0.043 C 
ATOM      6  C   UNL     1     116.123 121.166 134.602  1.00  0.00     0.121 C 
ATOM      7  C   UNL     1     116.764 119.864 135.116  1.00  0.00     0.035 C 
ENDROOT
BRANCH   6   8
ATOM      8  O   UNL     1     114.723 121.095 134.718  1.00  0.00    -0.392 OA
ATOM      9  H   UNL     1     114.352 121.145 133.799  1.00  0.00     0.210 HD
ENDBRANCH   6   8
BRANCH   5  10
ATOM     10  C   UNL     1     115.463 121.213 132.097  1.00  0.00    -0.075 C 
ATOM     11  C   UNL     1     115.181 119.960 131.700  1.00  0.00     0.008 C 
ATOM     12  C   UNL     1     114.678 122.351 131.496  1.00  0.00     0.039 C 
ENDBRANCH   5  10
TORSDOF 2
ENDMDL
MODEL 3
REMARK VINA RESULT:    -4.551     10.665     11.974
REMARK INTER + INTRA:          -5.095
REMARK INTER:                  -5.032
REMARK INTRA:                  -0.064
REMARK UNBOUND:                -0.146
REMARK SMILES C=C(C)[C@@H]1CC[C@H](C)C[C@@H]1O
REMARK SMILES IDX 8 1 7 2 6 3 5 4 4 5 10 6 9 7 11 8 2 10 1 11 3 12
REMARK H PARENT 11 9
REMARK Flexibility Score: inf
ROOT
ATOM      1  C   UNL     1     122.638 134.215 129.817  1.00  0.00     0.008 C 
ATOM      2  C   UNL     1     121.867 133.483 128.711  1.00  0.00    -0.012 C 
ATOM      3  C   UNL     1     122.650 132.239 128.210  1.00  0.00     0.004 C 
ATOM      4  C   UNL     1     122.137 130.944 128.846  1.00  0.00     0.011 C 
ATOM      5  C   UNL     1     120.659 130.685 128.461  1.00  0.00     0.043 C 
ATOM      6  C   UNL     1     119.813 131.998 128.372  1.00  0.00     0.121 C 
ATOM      7  C   UNL     1     120.434 133.143 129.192  1.00  0.00     0.035 C 
ENDROOT
BRANCH   6   8
ATOM      8  O   UNL     1     118.486 131.774 128.780  1.00  0.00    -0.392 OA
ATOM      9  H   UNL     1     117.953 132.554 128.475  1.00  0.00     0.210 HD
ENDBRANCH   6   8
BRANCH   5  10
ATOM     10  C   UNL     1     120.046 129.615 129.362  1.00  0.00    -0.075 C 
ATOM     11  C   UNL     1     119.608 128.446 128.862  1.00  0.00     0.008 C 
ATOM     12  C   UNL     1     119.922 129.852 130.846  1.00  0.00     0.039 C 
ENDBRANCH   5  10
TORSDOF 2
ENDMDL
MODEL 4
REMARK VINA RESULT:    -4.377     13.554     15.884
REMARK INTER + INTRA:          -4.907
REMARK INTER:                  -4.762
REMARK INTRA:                  -0.146
REMARK UNBOUND:                -0.146
REMARK SMILES C=C(C)[C@@H]1CC[C@H](C)C[C@@H]1O
REMARK SMILES IDX 8 1 7 2 6 3 5 4 4 5 10 6 9 7 11 8 2 10 1 11 3 12
REMARK H PARENT 11 9
REMARK Flexibility Score: inf
ROOT
ATOM      1  C   UNL     1     128.978 121.230 120.126  1.00  0.00     0.008 C 
ATOM      2  C   UNL     1     128.167 120.401 119.122  1.00  0.00    -0.012 C 
ATOM      3  C   UNL     1     128.189 118.893 119.493  1.00  0.00     0.004 C 
ATOM      4  C   UNL     1     126.919 118.466 120.234  1.00  0.00     0.011 C 
ATOM      5  C   UNL     1     125.666 118.654 119.344  1.00  0.00     0.043 C 
ATOM      6  C   UNL     1     125.750 119.925 118.435  1.00  0.00     0.121 C 
ATOM      7  C   UNL     1     126.731 120.971 118.993  1.00  0.00     0.035 C 
ENDROOT
BRANCH   6   8
ATOM      8  O   UNL     1     124.480 120.501 118.252  1.00  0.00    -0.392 OA
ATOM      9  H   UNL     1     123.833 119.754 118.160  1.00  0.00     0.210 HD
ENDBRANCH   6   8
BRANCH   5  10
ATOM     10  C   UNL     1     124.391 118.576 120.181  1.00  0.00    -0.075 C 
ATOM     11  C   UNL     1     123.369 117.778 119.826  1.00  0.00     0.008 C 
ATOM     12  C   UNL     1     124.257 119.399 121.437  1.00  0.00     0.039 C 
ENDBRANCH   5  10
TORSDOF 2
ENDMDL
MODEL 5
REMARK VINA RESULT:    -4.233     13.897     15.740
REMARK INTER + INTRA:          -4.750
REMARK INTER:                  -4.630
REMARK INTRA:                  -0.120
REMARK UNBOUND:                -0.146
REMARK SMILES C=C(C)[C@@H]1CC[C@H](C)C[C@@H]1O
REMARK SMILES IDX 8 1 7 2 6 3 5 4 4 5 10 6 9 7 11 8 2 10 1 11 3 12
REMARK H PARENT 11 9
REMARK Flexibility Score: inf
ROOT
ATOM      1  C   UNL     1     124.145 116.342 120.650  1.00  0.00     0.008 C 
ATOM      2  C   UNL     1     123.925 117.838 120.392  1.00  0.00    -0.012 C 
ATOM      3  C   UNL     1     124.570 118.700 121.511  1.00  0.00     0.004 C 
ATOM      4  C   UNL     1     125.934 119.257 121.093  1.00  0.00     0.011 C 
ATOM      5  C   UNL     1     125.798 120.199 119.871  1.00  0.00     0.043 C 
ATOM      6  C   UNL     1     124.710 119.723 118.853  1.00  0.00     0.121 C 
ATOM      7  C   UNL     1     124.423 118.216 118.974  1.00  0.00     0.035 C 
ENDROOT
BRANCH   6   8
ATOM      8  O   UNL     1     125.077 120.042 117.533  1.00  0.00    -0.392 OA
ATOM      9  H   UNL     1     125.326 121.002 117.525  1.00  0.00     0.210 HD
ENDBRANCH   6   8
BRANCH   5  10
ATOM     10  C   UNL     1     127.163 120.463 119.238  1.00  0.00    -0.075 C 
ATOM     11  C   UNL     1     127.973 119.454 118.875  1.00  0.00     0.008 C 
ATOM     12  C   UNL     1     127.629 121.878 119.004  1.00  0.00     0.039 C 
ENDBRANCH   5  10
TORSDOF 2
ENDMDL
MODEL 6
REMARK VINA RESULT:    -4.191      5.283      6.199
REMARK INTER + INTRA:          -4.704
REMARK INTER:                  -4.566
REMARK INTRA:                  -0.138
REMARK UNBOUND:                -0.146
REMARK SMILES C=C(C)[C@@H]1CC[C@H](C)C[C@@H]1O
REMARK SMILES IDX 8 1 7 2 6 3 5 4 4 5 10 6 9 7 11 8 2 10 1 11 3 12
REMARK H PARENT 11 9
REMARK Flexibility Score: inf
ROOT
ATOM      1  C   UNL     1     119.767 122.488 126.283  1.00  0.00     0.008 C 
ATOM      2  C   UNL     1     119.100 123.856 126.090  1.00  0.00    -0.012 C 
ATOM      3  C   UNL     1     117.579 123.785 126.388  1.00  0.00     0.004 C 
ATOM      4  C   UNL     1     117.245 124.289 127.794  1.00  0.00     0.011 C 
ATOM      5  C   UNL     1     117.629 125.781 127.954  1.00  0.00     0.043 C 
ATOM      6  C   UNL     1     118.940 126.159 127.189  1.00  0.00     0.121 C 
ATOM      7  C   UNL     1     119.833 124.932 126.931  1.00  0.00     0.035 C 
ENDROOT
BRANCH   6   8
ATOM      8  O   UNL     1     119.663 127.147 127.880  1.00  0.00    -0.392 OA
ATOM      9  H   UNL     1     119.734 126.849 128.824  1.00  0.00     0.210 HD
ENDBRANCH   6   8
BRANCH   5  10
ATOM     10  C   UNL     1     117.636 126.183 129.428  1.00  0.00    -0.075 C 
ATOM     11  C   UNL     1     117.040 127.312 129.849  1.00  0.00     0.008 C 
ATOM     12  C   UNL     1     118.316 125.307 130.449  1.00  0.00     0.039 C 
ENDBRANCH   5  10
TORSDOF 2
ENDMDL
MODEL 7
REMARK VINA RESULT:    -4.098     13.895     15.829
REMARK INTER + INTRA:          -4.603
REMARK INTER:                  -4.492
REMARK INTRA:                  -0.110
REMARK UNBOUND:                -0.146
REMARK SMILES C=C(C)[C@@H]1CC[C@H](C)C[C@@H]1O
REMARK SMILES IDX 8 1 7 2 6 3 5 4 4 5 10 6 9 7 11 8 2 10 1 11 3 12
REMARK H PARENT 11 9
REMARK Flexibility Score: inf
ROOT
ATOM      1  C   UNL     1     129.043 120.629 118.778  1.00  0.00     0.008 C 
ATOM      2  C   UNL     1     127.766 120.905 119.582  1.00  0.00    -0.012 C 
ATOM      3  C   UNL     1     126.590 121.299 118.649  1.00  0.00     0.004 C 
ATOM      4  C   UNL     1     125.657 120.118 118.370  1.00  0.00     0.011 C 
ATOM      5  C   UNL     1     124.997 119.611 119.676  1.00  0.00     0.043 C 
ATOM      6  C   UNL     1     125.954 119.683 120.911  1.00  0.00     0.121 C 
ATOM      7  C   UNL     1     127.436 119.696 120.494  1.00  0.00     0.035 C 
ENDROOT
BRANCH   6   8
ATOM      8  O   UNL     1     125.711 118.624 121.803  1.00  0.00    -0.392 OA
ATOM      9  H   UNL     1     126.554 118.466 122.303  1.00  0.00     0.210 HD
ENDBRANCH   6   8
BRANCH   5  10
ATOM     10  C   UNL     1     124.364 118.237 119.464  1.00  0.00    -0.075 C 
ATOM     11  C   UNL     1     124.958 117.303 118.701  1.00  0.00     0.008 C 
ATOM     12  C   UNL     1     123.048 117.899 120.118  1.00  0.00     0.039 C 
ENDBRANCH   5  10
TORSDOF 2
ENDMDL
MODEL 8
REMARK VINA RESULT:    -4.042      1.448      4.155
REMARK INTER + INTRA:          -4.542
REMARK INTER:                  -4.407
REMARK INTRA:                  -0.135
REMARK UNBOUND:                -0.146
REMARK SMILES C=C(C)[C@@H]1CC[C@H](C)C[C@@H]1O
REMARK SMILES IDX 8 1 7 2 6 3 5 4 4 5 10 6 9 7 11 8 2 10 1 11 3 12
REMARK H PARENT 11 9
REMARK Flexibility Score: inf
ROOT
ATOM      1  C   UNL     1     114.753 120.497 133.165  1.00  0.00     0.008 C 
ATOM      2  C   UNL     1     115.958 121.047 132.390  1.00  0.00    -0.012 C 
ATOM      3  C   UNL     1     116.388 120.074 131.260  1.00  0.00     0.004 C 
ATOM      4  C   UNL     1     115.845 120.504 129.894  1.00  0.00     0.011 C 
ATOM      5  C   UNL     1     116.406 121.888 129.485  1.00  0.00     0.043 C 
ATOM      6  C   UNL     1     116.567 122.864 130.697  1.00  0.00     0.121 C 
ATOM      7  C   UNL     1     115.655 122.477 131.876  1.00  0.00     0.035 C 
ENDROOT
BRANCH   6   8
ATOM      8  O   UNL     1     116.323 124.194 130.313  1.00  0.00    -0.392 OA
ATOM      9  H   UNL     1     116.949 124.765 130.829  1.00  0.00     0.210 HD
ENDBRANCH   6   8
BRANCH   5  10
ATOM     10  C   UNL     1     115.606 122.474 128.323  1.00  0.00    -0.075 C 
ATOM     11  C   UNL     1     116.217 123.031 127.263  1.00  0.00     0.008 C 
ATOM     12  C   UNL     1     114.099 122.433 128.343  1.00  0.00     0.039 C 
ENDBRANCH   5  10
TORSDOF 2
ENDMDL
MODEL 9
REMARK VINA RESULT:    -4.022      1.145      4.010
REMARK INTER + INTRA:          -4.520
REMARK INTER:                  -4.388
REMARK INTRA:                  -0.133
REMARK UNBOUND:                -0.146
REMARK SMILES C=C(C)[C@@H]1CC[C@H](C)C[C@@H]1O
REMARK SMILES IDX 8 1 7 2 6 3 5 4 4 5 10 6 9 7 11 8 2 10 1 11 3 12
REMARK H PARENT 11 9
REMARK Flexibility Score: inf
ROOT
ATOM      1  C   UNL     1     116.191 119.822 134.703  1.00  0.00     0.008 C 
ATOM      2  C   UNL     1     116.384 121.054 133.809  1.00  0.00    -0.012 C 
ATOM      3  C   UNL     1     117.677 120.931 132.958  1.00  0.00     0.004 C 
ATOM      4  C   UNL     1     117.382 120.462 131.531  1.00  0.00     0.011 C 
ATOM      5  C   UNL     1     116.490 121.485 130.784  1.00  0.00     0.043 C 
ATOM      6  C   UNL     1     115.422 122.154 131.711  1.00  0.00     0.121 C 
ATOM      7  C   UNL     1     115.116 121.298 132.953  1.00  0.00     0.035 C 
ENDROOT
BRANCH   6   8
ATOM      8  O   UNL     1     114.237 122.425 131.005  1.00  0.00    -0.392 OA
ATOM      9  H   UNL     1     114.489 122.564 130.055  1.00  0.00     0.210 HD
ENDBRANCH   6   8
BRANCH   5  10
ATOM     10  C   UNL     1     115.905 120.866 129.515  1.00  0.00    -0.075 C 
ATOM     11  C   UNL     1     115.422 119.611 129.507  1.00  0.00     0.008 C 
ATOM     12  C   UNL     1     115.857 121.662 128.236  1.00  0.00     0.039 C 
ENDBRANCH   5  10
TORSDOF 2
ENDMDL
