MODEL 1
REMARK VINA RESULT:    -4.511      0.000      0.000
REMARK INTER + INTRA:          -6.489
REMARK INTER:                  -5.961
REMARK INTRA:                  -0.528
REMARK UNBOUND:                -0.528
REMARK SMILES C=CCC[C@@H](O)CCC
REMARK SMILES IDX 4 1 5 2 7 3 8 4 9 5 6 6 3 8 2 9 1 10
REMARK H PARENT 6 7
REMARK Flexibility Score: inf
ROOT
ATOM      1  C   UNL     1     137.642 119.538 139.249  1.00  0.00     0.036 C 
ENDROOT
BRANCH   1   2
ATOM      2  C   UNL     1     137.202 120.597 140.283  1.00  0.00     0.114 C 
BRANCH   2   3
ATOM      3  C   UNL     1     136.147 121.546 139.675  1.00  0.00     0.031 C 
BRANCH   3   4
ATOM      4  C   UNL     1     134.923 121.764 140.581  1.00  0.00    -0.001 C 
ATOM      5  C   UNL     1     133.843 120.700 140.387  1.00  0.00     0.004 C 
ENDBRANCH   3   4
ENDBRANCH   2   3
BRANCH   2   6
ATOM      6  O   UNL     1     138.311 121.319 140.760  1.00  0.00    -0.393 OA
ATOM      7  H   UNL     1     139.118 120.967 140.300  1.00  0.00     0.210 HD
ENDBRANCH   2   6
ENDBRANCH   1   2
BRANCH   1   8
ATOM      8  C   UNL     1     136.824 119.596 137.947  1.00  0.00     0.029 C 
BRANCH   8   9
ATOM      9  C   UNL     1     135.919 118.405 137.782  1.00  0.00    -0.035 C 
ATOM     10  C   UNL     1     135.358 117.796 138.830  1.00  0.00     0.004 C 
ENDBRANCH   8   9
ENDBRANCH   1   8
TORSDOF 6
ENDMDL
MODEL 2
REMARK VINA RESULT:    -4.486      1.223      3.348
REMARK INTER + INTRA:          -6.456
REMARK INTER:                  -6.037
REMARK INTRA:                  -0.420
REMARK UNBOUND:                -0.528
REMARK SMILES C=CCC[C@@H](O)CCC
REMARK SMILES IDX 4 1 5 2 7 3 8 4 9 5 6 6 3 8 2 9 1 10
REMARK H PARENT 6 7
REMARK Flexibility Score: inf
ROOT
ATOM      1  C   UNL     1     136.718 119.623 140.336  1.00  0.00     0.036 C 
ENDROOT
BRANCH   1   2
ATOM      2  C   UNL     1     137.970 119.717 139.436  1.00  0.00     0.114 C 
BRANCH   2   3
ATOM      3  C   UNL     1     137.743 118.960 138.109  1.00  0.00     0.031 C 
BRANCH   3   4
ATOM      4  C   UNL     1     136.357 119.210 137.489  1.00  0.00    -0.001 C 
ATOM      5  C   UNL     1     135.667 117.922 137.040  1.00  0.00     0.004 C 
ENDBRANCH   3   4
ENDBRANCH   2   3
BRANCH   2   6
ATOM      6  O   UNL     1     139.104 119.224 140.107  1.00  0.00    -0.393 OA
ATOM      7  H   UNL     1     139.099 118.235 140.016  1.00  0.00     0.210 HD
ENDBRANCH   2   6
ENDBRANCH   1   2
BRANCH   1   8
ATOM      8  C   UNL     1     136.222 120.997 140.817  1.00  0.00     0.029 C 
BRANCH   8   9
ATOM      9  C   UNL     1     134.882 121.362 140.235  1.00  0.00    -0.035 C 
ATOM     10  C   UNL     1     133.801 120.601 140.427  1.00  0.00     0.004 C 
ENDBRANCH   8   9
ENDBRANCH   1   8
TORSDOF 6
ENDMDL
MODEL 3
REMARK VINA RESULT:    -4.429      2.336      3.117
REMARK INTER + INTRA:          -6.381
REMARK INTER:                  -5.891
REMARK INTRA:                  -0.490
REMARK UNBOUND:                -0.528
REMARK SMILES C=CCC[C@@H](O)CCC
REMARK SMILES IDX 4 1 5 2 7 3 8 4 9 5 6 6 3 8 2 9 1 10
REMARK H PARENT 6 7
REMARK Flexibility Score: inf
ROOT
ATOM      1  C   UNL     1     136.399 119.568 137.758  1.00  0.00     0.036 C 
ENDROOT
BRANCH   1   2
ATOM      2  C   UNL     1     135.711 119.218 139.096  1.00  0.00     0.114 C 
BRANCH   2   3
ATOM      3  C   UNL     1     136.763 118.985 140.203  1.00  0.00     0.031 C 
BRANCH   3   4
ATOM      4  C   UNL     1     137.953 119.958 140.133  1.00  0.00    -0.001 C 
ATOM      5  C   UNL     1     137.617 121.346 140.676  1.00  0.00     0.004 C 
ENDBRANCH   3   4
ENDBRANCH   2   3
BRANCH   2   6
ATOM      6  O   UNL     1     134.879 118.093 138.950  1.00  0.00    -0.393 OA
ATOM      7  H   UNL     1     134.852 117.625 139.826  1.00  0.00     0.210 HD
ENDBRANCH   2   6
ENDBRANCH   1   2
BRANCH   1   8
ATOM      8  C   UNL     1     136.416 118.390 136.768  1.00  0.00     0.029 C 
BRANCH   8   9
ATOM      9  C   UNL     1     137.750 117.694 136.726  1.00  0.00    -0.035 C 
ATOM     10  C   UNL     1     138.043 116.683 137.549  1.00  0.00     0.004 C 
ENDBRANCH   8   9
ENDBRANCH   1   8
TORSDOF 6
ENDMDL
MODEL 4
REMARK VINA RESULT:    -4.308      9.449     11.352
REMARK INTER + INTRA:          -6.221
REMARK INTER:                  -5.633
REMARK INTRA:                  -0.588
REMARK UNBOUND:                -0.528
REMARK SMILES C=CCC[C@@H](O)CCC
REMARK SMILES IDX 4 1 5 2 7 3 8 4 9 5 6 6 3 8 2 9 1 10
REMARK H PARENT 6 7
REMARK Flexibility Score: inf
ROOT
ATOM      1  C   UNL     1     135.062 126.773 148.293  1.00  0.00     0.036 C 
ENDROOT
BRANCH   1   2
ATOM      2  C   UNL     1     135.602 128.157 148.714  1.00  0.00     0.114 C 
BRANCH   2   3
ATOM      3  C   UNL     1     136.686 128.642 147.727  1.00  0.00     0.031 C 
BRANCH   3   4
ATOM      4  C   UNL     1     136.139 128.969 146.327  1.00  0.00    -0.001 C 
ATOM      5  C   UNL     1     135.001 129.989 146.358  1.00  0.00     0.004 C 
ENDBRANCH   3   4
ENDBRANCH   2   3
BRANCH   2   6
ATOM      6  O   UNL     1     136.102 128.118 150.029  1.00  0.00    -0.393 OA
ATOM      7  H   UNL     1     136.813 127.425 150.058  1.00  0.00     0.210 HD
ENDBRANCH   2   6
ENDBRANCH   1   2
BRANCH   1   8
ATOM      8  C   UNL     1     133.569 126.799 147.925  1.00  0.00     0.029 C 
BRANCH   8   9
ATOM      9  C   UNL     1     133.335 126.599 146.452  1.00  0.00    -0.035 C 
ATOM     10  C   UNL     1     134.221 125.967 145.678  1.00  0.00     0.004 C 
ENDBRANCH   8   9
ENDBRANCH   1   8
TORSDOF 6
ENDMDL
MODEL 5
REMARK VINA RESULT:    -4.186      2.226      4.275
REMARK INTER + INTRA:          -6.059
REMARK INTER:                  -5.686
REMARK INTRA:                  -0.374
REMARK UNBOUND:                -0.528
REMARK SMILES C=CCC[C@@H](O)CCC
REMARK SMILES IDX 4 1 5 2 7 3 8 4 9 5 6 6 3 8 2 9 1 10
REMARK H PARENT 6 7
REMARK Flexibility Score: inf
ROOT
ATOM      1  C   UNL     1     136.322 119.330 139.826  1.00  0.00     0.036 C 
ENDROOT
BRANCH   1   2
ATOM      2  C   UNL     1     135.979 118.182 138.851  1.00  0.00     0.114 C 
BRANCH   2   3
ATOM      3  C   UNL     1     136.305 118.587 137.397  1.00  0.00     0.031 C 
BRANCH   3   4
ATOM      4  C   UNL     1     137.641 118.019 136.887  1.00  0.00    -0.001 C 
ATOM      5  C   UNL     1     138.052 116.734 137.606  1.00  0.00     0.004 C 
ENDBRANCH   3   4
ENDBRANCH   2   3
BRANCH   2   6
ATOM      6  O   UNL     1     134.628 117.808 138.977  1.00  0.00    -0.393 OA
ATOM      7  H   UNL     1     134.265 118.265 139.781  1.00  0.00     0.210 HD
ENDBRANCH   2   6
ENDBRANCH   1   2
BRANCH   1   8
ATOM      8  C   UNL     1     135.925 120.714 139.285  1.00  0.00     0.029 C 
BRANCH   8   9
ATOM      9  C   UNL     1     134.890 121.392 140.142  1.00  0.00    -0.035 C 
ATOM     10  C   UNL     1     133.728 120.805 140.439  1.00  0.00     0.004 C 
ENDBRANCH   8   9
ENDBRANCH   1   8
TORSDOF 6
ENDMDL
MODEL 6
REMARK VINA RESULT:    -4.145      1.591      1.900
REMARK INTER + INTRA:          -6.006
REMARK INTER:                  -5.733
REMARK INTRA:                  -0.273
REMARK UNBOUND:                -0.528
REMARK SMILES C=CCC[C@@H](O)CCC
REMARK SMILES IDX 4 1 5 2 7 3 8 4 9 5 6 6 3 8 2 9 1 10
REMARK H PARENT 6 7
REMARK Flexibility Score: inf
ROOT
ATOM      1  C   UNL     1     135.801 118.361 138.776  1.00  0.00     0.036 C 
ENDROOT
BRANCH   1   2
ATOM      2  C   UNL     1     135.989 119.237 140.035  1.00  0.00     0.114 C 
BRANCH   2   3
ATOM      3  C   UNL     1     135.339 120.623 139.834  1.00  0.00     0.031 C 
BRANCH   3   4
ATOM      4  C   UNL     1     133.922 120.728 140.423  1.00  0.00    -0.001 C 
ATOM      5  C   UNL     1     133.233 122.049 140.083  1.00  0.00     0.004 C 
ENDBRANCH   3   4
ENDBRANCH   2   3
BRANCH   2   6
ATOM      6  O   UNL     1     137.353 119.363 140.356  1.00  0.00    -0.393 OA
ATOM      7  H   UNL     1     137.458 119.117 141.313  1.00  0.00     0.210 HD
ENDBRANCH   2   6
ENDBRANCH   1   2
BRANCH   1   8
ATOM      8  C   UNL     1     136.412 118.991 137.513  1.00  0.00     0.029 C 
BRANCH   8   9
ATOM      9  C   UNL     1     137.609 118.229 137.011  1.00  0.00    -0.035 C 
ATOM     10  C   UNL     1     137.992 117.075 137.564  1.00  0.00     0.004 C 
ENDBRANCH   8   9
ENDBRANCH   1   8
TORSDOF 6
ENDMDL
MODEL 7
REMARK VINA RESULT:    -4.026      9.833     11.834
REMARK INTER + INTRA:          -5.849
REMARK INTER:                  -5.250
REMARK INTRA:                  -0.599
REMARK UNBOUND:                -0.528
REMARK SMILES C=CCC[C@@H](O)CCC
REMARK SMILES IDX 4 1 5 2 7 3 8 4 9 5 6 6 3 8 2 9 1 10
REMARK H PARENT 6 7
REMARK Flexibility Score: inf
ROOT
ATOM      1  C   UNL     1     135.903 128.995 147.559  1.00  0.00     0.036 C 
ENDROOT
BRANCH   1   2
ATOM      2  C   UNL     1     135.738 128.002 148.731  1.00  0.00     0.114 C 
BRANCH   2   3
ATOM      3  C   UNL     1     134.831 126.822 148.321  1.00  0.00     0.031 C 
BRANCH   3   4
ATOM      4  C   UNL     1     135.154 126.255 146.928  1.00  0.00    -0.001 C 
ATOM      5  C   UNL     1     133.908 126.062 146.063  1.00  0.00     0.004 C 
ENDBRANCH   3   4
ENDBRANCH   2   3
BRANCH   2   6
ATOM      6  O   UNL     1     135.229 128.655 149.869  1.00  0.00    -0.393 OA
ATOM      7  H   UNL     1     135.924 129.292 150.184  1.00  0.00     0.210 HD
ENDBRANCH   2   6
ENDBRANCH   1   2
BRANCH   1   8
ATOM      8  C   UNL     1     134.693 129.929 147.391  1.00  0.00     0.029 C 
BRANCH   8   9
ATOM      9  C   UNL     1     134.090 129.850 146.014  1.00  0.00    -0.035 C 
ATOM     10  C   UNL     1     132.785 129.638 145.829  1.00  0.00     0.004 C 
ENDBRANCH   8   9
ENDBRANCH   1   8
TORSDOF 6
ENDMDL
MODEL 8
REMARK VINA RESULT:    -4.015      2.325      3.049
REMARK INTER + INTRA:          -5.834
REMARK INTER:                  -5.475
REMARK INTRA:                  -0.360
REMARK UNBOUND:                -0.528
REMARK SMILES C=CCC[C@@H](O)CCC
REMARK SMILES IDX 4 1 5 2 7 3 8 4 9 5 6 6 3 8 2 9 1 10
REMARK H PARENT 6 7
REMARK Flexibility Score: inf
ROOT
ATOM      1  C   UNL     1     135.532 120.405 140.700  1.00  0.00     0.036 C 
ENDROOT
BRANCH   1   2
ATOM      2  C   UNL     1     134.251 120.883 139.982  1.00  0.00     0.114 C 
BRANCH   2   3
ATOM      3  C   UNL     1     134.198 122.426 139.933  1.00  0.00     0.031 C 
BRANCH   3   4
ATOM      4  C   UNL     1     135.475 123.066 139.362  1.00  0.00    -0.001 C 
ATOM      5  C   UNL     1     135.211 124.403 138.671  1.00  0.00     0.004 C 
ENDBRANCH   3   4
ENDBRANCH   2   3
BRANCH   2   6
ATOM      6  O   UNL     1     133.104 120.361 140.608  1.00  0.00    -0.393 OA
ATOM      7  H   UNL     1     132.984 119.430 140.284  1.00  0.00     0.210 HD
ENDBRANCH   2   6
ENDBRANCH   1   2
BRANCH   1   8
ATOM      8  C   UNL     1     136.220 119.233 139.979  1.00  0.00     0.029 C 
BRANCH   8   9
ATOM      9  C   UNL     1     136.859 119.651 138.681  1.00  0.00    -0.035 C 
ATOM     10  C   UNL     1     136.390 119.237 137.501  1.00  0.00     0.004 C 
ENDBRANCH   8   9
ENDBRANCH   1   8
TORSDOF 6
ENDMDL
MODEL 9
REMARK VINA RESULT:    -3.989      1.210      3.695
REMARK INTER + INTRA:          -5.800
REMARK INTER:                  -5.400
REMARK INTRA:                  -0.400
REMARK UNBOUND:                -0.528
REMARK SMILES C=CCC[C@@H](O)CCC
REMARK SMILES IDX 4 1 5 2 7 3 8 4 9 5 6 6 3 8 2 9 1 10
REMARK H PARENT 6 7
REMARK Flexibility Score: inf
ROOT
ATOM      1  C   UNL     1     135.739 120.973 140.898  1.00  0.00     0.036 C 
ENDROOT
BRANCH   1   2
ATOM      2  C   UNL     1     136.946 120.424 140.104  1.00  0.00     0.114 C 
BRANCH   2   3
ATOM      3  C   UNL     1     136.849 118.890 139.958  1.00  0.00     0.031 C 
BRANCH   3   4
ATOM      4  C   UNL     1     135.809 118.437 138.919  1.00  0.00    -0.001 C 
ATOM      5  C   UNL     1     136.106 118.962 137.515  1.00  0.00     0.004 C 
ENDBRANCH   3   4
ENDBRANCH   2   3
BRANCH   2   6
ATOM      6  O   UNL     1     138.157 120.795 140.717  1.00  0.00    -0.393 OA
ATOM      7  H   UNL     1     138.237 120.274 141.559  1.00  0.00     0.210 HD
ENDBRANCH   2   6
ENDBRANCH   1   2
BRANCH   1   8
ATOM      8  C   UNL     1     134.743 121.744 140.015  1.00  0.00     0.029 C 
BRANCH   8   9
ATOM      9  C   UNL     1     135.380 122.912 139.313  1.00  0.00    -0.035 C 
ATOM     10  C   UNL     1     135.923 123.929 139.988  1.00  0.00     0.004 C 
ENDBRANCH   8   9
ENDBRANCH   1   8
TORSDOF 6
ENDMDL
