MODEL 1
REMARK VINA RESULT:     5.248      0.000      0.000
REMARK INTER + INTRA:           8.164
REMARK INTER:                   8.930
REMARK INTRA:                  -0.766
REMARK UNBOUND:                -0.766
REMARK SMILES CCCCCCCCCCCCCC(=O)[O-]
REMARK SMILES IDX 8 1 9 2 10 3 11 4 12 5 13 6 14 7 15 8 16 9 7 10 6 11 5 12
REMARK SMILES IDX 4 13 3 14 2 15 1 16
REMARK H PARENT
REMARK Flexibility Score: inf
ROOT
ATOM      1  C   UNL     1      34.481  15.939  43.723  1.00  0.00     0.000 C 
ENDROOT
BRANCH   1   2
ATOM      2  C   UNL     1      35.799  15.197  43.989  1.00  0.00     0.000 C 
BRANCH   2   3
ATOM      3  C   UNL     1      36.011  14.000  43.045  1.00  0.00     0.000 C 
BRANCH   3   4
ATOM      4  C   UNL     1      34.747  13.519  42.304  1.00  0.00     0.000 C 
BRANCH   4   5
ATOM      5  C   UNL     1      34.991  12.464  41.206  1.00  0.00     0.006 C 
BRANCH   5   6
ATOM      6  C   UNL     1      33.756  12.141  40.351  1.00  0.00     0.053 C 
BRANCH   6   7
ATOM      7  C   UNL     1      33.046  10.914  40.834  1.00  0.00     0.041 C 
ATOM      8  O   UNL     1      32.443  10.925  41.939  1.00  0.00    -0.550 OA
ATOM      9  O   UNL     1      33.079   9.747  40.080  1.00  0.00    -0.550 OA
ENDBRANCH   6   7
ENDBRANCH   5   6
ENDBRANCH   4   5
ENDBRANCH   3   4
ENDBRANCH   2   3
ENDBRANCH   1   2
BRANCH   1  10
ATOM     10  C   UNL     1      34.737  17.281  43.026  1.00  0.00     0.000 C 
BRANCH  10  11
ATOM     11  C   UNL     1      33.678  17.555  41.952  1.00  0.00    -0.000 C 
BRANCH  11  12
ATOM     12  C   UNL     1      34.133  17.024  40.583  1.00  0.00    -0.000 C 
BRANCH  12  13
ATOM     13  C   UNL     1      33.912  18.039  39.452  1.00  0.00    -0.000 C 
BRANCH  13  14
ATOM     14  C   UNL     1      32.450  18.496  39.341  1.00  0.00    -0.000 C 
BRANCH  14  15
ATOM     15  C   UNL     1      31.934  18.342  37.905  1.00  0.00    -0.003 C 
ATOM     16  C   UNL     1      31.132  19.565  37.473  1.00  0.00     0.004 C 
ENDBRANCH  14  15
ENDBRANCH  13  14
ENDBRANCH  12  13
ENDBRANCH  11  12
ENDBRANCH  10  11
ENDBRANCH   1  10
TORSDOF 12
ENDMDL
MODEL 2
REMARK VINA RESULT:     5.248     13.059     15.003
REMARK INTER + INTRA:           8.164
REMARK INTER:                   8.240
REMARK INTRA:                  -0.076
REMARK UNBOUND:                -0.766
REMARK SMILES CCCCCCCCCCCCCC(=O)[O-]
REMARK SMILES IDX 8 1 9 2 10 3 11 4 12 5 13 6 14 7 15 8 16 9 7 10 6 11 5 12
REMARK SMILES IDX 4 13 3 14 2 15 1 16
REMARK H PARENT
REMARK Flexibility Score: inf
ROOT
ATOM      1  C   UNL     1      22.506  22.028  45.417  1.00  0.00     0.000 C 
ENDROOT
BRANCH   1   2
ATOM      2  C   UNL     1      23.287  23.012  46.300  1.00  0.00     0.000 C 
BRANCH   2   3
ATOM      3  C   UNL     1      24.812  22.868  46.149  1.00  0.00     0.000 C 
BRANCH   3   4
ATOM      4  C   UNL     1      25.529  24.095  45.552  1.00  0.00     0.000 C 
BRANCH   4   5
ATOM      5  C   UNL     1      27.058  24.122  45.749  1.00  0.00     0.006 C 
BRANCH   5   6
ATOM      6  C   UNL     1      27.715  22.734  45.804  1.00  0.00     0.053 C 
BRANCH   6   7
ATOM      7  C   UNL     1      29.188  22.800  45.540  1.00  0.00     0.041 C 
ATOM      8  O   UNL     1      29.931  23.510  46.267  1.00  0.00    -0.550 OA
ATOM      9  O   UNL     1      29.735  22.105  44.468  1.00  0.00    -0.550 OA
ENDBRANCH   6   7
ENDBRANCH   5   6
ENDBRANCH   4   5
ENDBRANCH   3   4
ENDBRANCH   2   3
ENDBRANCH   1   2
BRANCH   1  10
ATOM     10  C   UNL     1      21.473  21.250  46.243  1.00  0.00     0.000 C 
BRANCH  10  11
ATOM     11  C   UNL     1      20.648  22.195  47.124  1.00  0.00    -0.000 C 
BRANCH  11  12
ATOM     12  C   UNL     1      19.247  22.415  46.533  1.00  0.00    -0.000 C 
BRANCH  12  13
ATOM     13  C   UNL     1      18.743  23.853  46.723  1.00  0.00    -0.000 C 
BRANCH  13  14
ATOM     14  C   UNL     1      17.349  24.079  46.119  1.00  0.00    -0.000 C 
BRANCH  14  15
ATOM     15  C   UNL     1      17.355  23.814  44.609  1.00  0.00    -0.003 C 
ATOM     16  C   UNL     1      18.754  23.983  44.025  1.00  0.00     0.004 C 
ENDBRANCH  14  15
ENDBRANCH  13  14
ENDBRANCH  12  13
ENDBRANCH  11  12
ENDBRANCH  10  11
ENDBRANCH   1  10
TORSDOF 12
ENDMDL
MODEL 3
REMARK VINA RESULT:     5.448      3.302      6.448
REMARK INTER + INTRA:           8.503
REMARK INTER:                   9.286
REMARK INTRA:                  -0.782
REMARK UNBOUND:                -0.766
REMARK SMILES CCCCCCCCCCCCCC(=O)[O-]
REMARK SMILES IDX 8 1 9 2 10 3 11 4 12 5 13 6 14 7 15 8 16 9 7 10 6 11 5 12
REMARK SMILES IDX 4 13 3 14 2 15 1 16
REMARK H PARENT
REMARK Flexibility Score: inf
ROOT
ATOM      1  C   UNL     1      34.344  15.837  43.435  1.00  0.00     0.000 C 
ENDROOT
BRANCH   1   2
ATOM      2  C   UNL     1      34.572  17.286  42.983  1.00  0.00     0.000 C 
BRANCH   2   3
ATOM      3  C   UNL     1      33.651  17.703  41.823  1.00  0.00     0.000 C 
BRANCH   3   4
ATOM      4  C   UNL     1      34.011  17.096  40.452  1.00  0.00     0.000 C 
BRANCH   4   5
ATOM      5  C   UNL     1      33.704  17.994  39.236  1.00  0.00     0.006 C 
BRANCH   5   6
ATOM      6  C   UNL     1      32.324  18.669  39.279  1.00  0.00     0.053 C 
BRANCH   6   7
ATOM      7  C   UNL     1      31.686  18.725  37.925  1.00  0.00     0.041 C 
ATOM      8  O   UNL     1      31.685  17.709  37.183  1.00  0.00    -0.550 OA
ATOM      9  O   UNL     1      31.124  19.912  37.468  1.00  0.00    -0.550 OA
ENDBRANCH   6   7
ENDBRANCH   5   6
ENDBRANCH   4   5
ENDBRANCH   3   4
ENDBRANCH   2   3
ENDBRANCH   1   2
BRANCH   1  10
ATOM     10  C   UNL     1      35.653  15.202  43.924  1.00  0.00     0.000 C 
BRANCH  10  11
ATOM     11  C   UNL     1      36.026  13.983  43.072  1.00  0.00    -0.000 C 
BRANCH  11  12
ATOM     12  C   UNL     1      34.771  13.318  42.486  1.00  0.00    -0.000 C 
BRANCH  12  13
ATOM     13  C   UNL     1      34.941  12.932  41.008  1.00  0.00    -0.000 C 
BRANCH  13  14
ATOM     14  C   UNL     1      33.671  12.313  40.407  1.00  0.00    -0.000 C 
BRANCH  14  15
ATOM     15  C   UNL     1      33.328  10.986  41.094  1.00  0.00    -0.003 C 
ATOM     16  C   UNL     1      33.087   9.881  40.070  1.00  0.00     0.004 C 
ENDBRANCH  14  15
ENDBRANCH  13  14
ENDBRANCH  12  13
ENDBRANCH  11  12
ENDBRANCH  10  11
ENDBRANCH   1  10
TORSDOF 12
ENDMDL
MODEL 4
REMARK VINA RESULT:     5.455      0.892      1.112
REMARK INTER + INTRA:           8.515
REMARK INTER:                   9.178
REMARK INTRA:                  -0.663
REMARK UNBOUND:                -0.766
REMARK SMILES CCCCCCCCCCCCCC(=O)[O-]
REMARK SMILES IDX 8 1 9 2 10 3 11 4 12 5 13 6 14 7 15 8 16 9 7 10 6 11 5 12
REMARK SMILES IDX 4 13 3 14 2 15 1 16
REMARK H PARENT
REMARK Flexibility Score: inf
ROOT
ATOM      1  C   UNL     1      34.751  15.485  43.914  1.00  0.00     0.000 C 
ENDROOT
BRANCH   1   2
ATOM      2  C   UNL     1      35.750  14.499  43.292  1.00  0.00     0.000 C 
BRANCH   2   3
ATOM      3  C   UNL     1      35.062  13.295  42.623  1.00  0.00     0.000 C 
BRANCH   3   4
ATOM      4  C   UNL     1      35.166  13.254  41.085  1.00  0.00     0.000 C 
BRANCH   4   5
ATOM      5  C   UNL     1      33.970  12.602  40.363  1.00  0.00     0.006 C 
BRANCH   5   6
ATOM      6  C   UNL     1      33.307  11.455  41.142  1.00  0.00     0.053 C 
BRANCH   6   7
ATOM      7  C   UNL     1      33.356  10.163  40.385  1.00  0.00     0.041 C 
ATOM      8  O   UNL     1      32.290   9.563  40.088  1.00  0.00    -0.550 OA
ATOM      9  O   UNL     1      34.580   9.604  40.039  1.00  0.00    -0.550 OA
ENDBRANCH   6   7
ENDBRANCH   5   6
ENDBRANCH   4   5
ENDBRANCH   3   4
ENDBRANCH   2   3
ENDBRANCH   1   2
BRANCH   1  10
ATOM     10  C   UNL     1      34.892  16.878  43.285  1.00  0.00     0.000 C 
BRANCH  10  11
ATOM     11  C   UNL     1      33.687  17.205  42.396  1.00  0.00    -0.000 C 
BRANCH  11  12
ATOM     12  C   UNL     1      34.122  17.984  41.145  1.00  0.00    -0.000 C 
BRANCH  12  13
ATOM     13  C   UNL     1      33.527  17.407  39.851  1.00  0.00    -0.000 C 
BRANCH  13  14
ATOM     14  C   UNL     1      33.271  18.481  38.785  1.00  0.00    -0.000 C 
BRANCH  14  15
ATOM     15  C   UNL     1      32.048  18.126  37.931  1.00  0.00    -0.003 C 
ATOM     16  C   UNL     1      31.165  19.348  37.696  1.00  0.00     0.004 C 
ENDBRANCH  14  15
ENDBRANCH  13  14
ENDBRANCH  12  13
ENDBRANCH  11  12
ENDBRANCH  10  11
ENDBRANCH   1  10
TORSDOF 12
ENDMDL
MODEL 5
REMARK VINA RESULT:     6.902     11.800     13.844
REMARK INTER + INTRA:          10.977
REMARK INTER:                   9.303
REMARK INTRA:                   1.675
REMARK UNBOUND:                -0.766
REMARK SMILES CCCCCCCCCCCCCC(=O)[O-]
REMARK SMILES IDX 8 1 9 2 10 3 11 4 12 5 13 6 14 7 15 8 16 9 7 10 6 11 5 12
REMARK SMILES IDX 4 13 3 14 2 15 1 16
REMARK H PARENT
REMARK Flexibility Score: inf
ROOT
ATOM      1  C   UNL     1      29.973  23.249  32.959  1.00  0.00     0.000 C 
ENDROOT
BRANCH   1   2
ATOM      2  C   UNL     1      30.328  24.090  31.725  1.00  0.00     0.000 C 
BRANCH   2   3
ATOM      3  C   UNL     1      31.832  24.063  31.397  1.00  0.00     0.000 C 
BRANCH   3   4
ATOM      4  C   UNL     1      32.172  24.040  29.893  1.00  0.00     0.000 C 
BRANCH   4   5
ATOM      5  C   UNL     1      31.194  23.239  29.011  1.00  0.00     0.006 C 
BRANCH   5   6
ATOM      6  C   UNL     1      31.874  22.310  27.993  1.00  0.00     0.053 C 
BRANCH   6   7
ATOM      7  C   UNL     1      33.332  22.615  27.843  1.00  0.00     0.041 C 
ATOM      8  O   UNL     1      33.987  22.123  26.887  1.00  0.00    -0.550 OA
ATOM      9  O   UNL     1      33.977  23.414  28.779  1.00  0.00    -0.550 OA
ENDBRANCH   6   7
ENDBRANCH   5   6
ENDBRANCH   4   5
ENDBRANCH   3   4
ENDBRANCH   2   3
ENDBRANCH   1   2
BRANCH   1  10
ATOM     10  C   UNL     1      29.953  24.114  34.226  1.00  0.00     0.000 C 
BRANCH  10  11
ATOM     11  C   UNL     1      31.217  23.891  35.065  1.00  0.00    -0.000 C 
BRANCH  11  12
ATOM     12  C   UNL     1      32.482  24.085  34.215  1.00  0.00    -0.000 C 
BRANCH  12  13
ATOM     13  C   UNL     1      33.773  23.962  35.038  1.00  0.00    -0.000 C 
BRANCH  13  14
ATOM     14  C   UNL     1      34.876  23.189  34.300  1.00  0.00    -0.000 C 
BRANCH  14  15
ATOM     15  C   UNL     1      36.016  24.124  33.881  1.00  0.00    -0.003 C 
ATOM     16  C   UNL     1      37.030  23.399  33.003  1.00  0.00     0.004 C 
ENDBRANCH  14  15
ENDBRANCH  13  14
ENDBRANCH  12  13
ENDBRANCH  11  12
ENDBRANCH  10  11
ENDBRANCH   1  10
TORSDOF 12
ENDMDL
MODEL 6
REMARK VINA RESULT:     6.905      3.245      6.324
REMARK INTER + INTRA:          10.984
REMARK INTER:                  11.905
REMARK INTRA:                  -0.921
REMARK UNBOUND:                -0.766
REMARK SMILES CCCCCCCCCCCCCC(=O)[O-]
REMARK SMILES IDX 8 1 9 2 10 3 11 4 12 5 13 6 14 7 15 8 16 9 7 10 6 11 5 12
REMARK SMILES IDX 4 13 3 14 2 15 1 16
REMARK H PARENT
REMARK Flexibility Score: inf
ROOT
ATOM      1  C   UNL     1      36.207  14.084  43.430  1.00  0.00     0.000 C 
ENDROOT
BRANCH   1   2
ATOM      2  C   UNL     1      35.825  15.387  44.146  1.00  0.00     0.000 C 
BRANCH   2   3
ATOM      3  C   UNL     1      34.502  15.985  43.632  1.00  0.00     0.000 C 
BRANCH   3   4
ATOM      4  C   UNL     1      34.618  17.393  43.016  1.00  0.00     0.000 C 
BRANCH   4   5
ATOM      5  C   UNL     1      33.543  17.740  41.966  1.00  0.00     0.006 C 
BRANCH   5   6
ATOM      6  C   UNL     1      33.778  17.108  40.585  1.00  0.00     0.053 C 
BRANCH   6   7
ATOM      7  C   UNL     1      33.835  18.139  39.500  1.00  0.00     0.041 C 
ATOM      8  O   UNL     1      34.920  18.716  39.231  1.00  0.00    -0.550 OA
ATOM      9  O   UNL     1      32.680  18.488  38.809  1.00  0.00    -0.550 OA
ENDBRANCH   6   7
ENDBRANCH   5   6
ENDBRANCH   4   5
ENDBRANCH   3   4
ENDBRANCH   2   3
ENDBRANCH   1   2
BRANCH   1  10
ATOM     10  C   UNL     1      34.967  13.395  42.845  1.00  0.00     0.000 C 
BRANCH  10  11
ATOM     11  C   UNL     1      35.288  12.735  41.499  1.00  0.00    -0.000 C 
BRANCH  11  12
ATOM     12  C   UNL     1      34.367  13.269  40.391  1.00  0.00    -0.000 C 
BRANCH  12  13
ATOM     13  C   UNL     1      33.245  12.284  40.028  1.00  0.00    -0.000 C 
BRANCH  13  14
ATOM     14  C   UNL     1      33.138  11.115  41.018  1.00  0.00    -0.000 C 
BRANCH  14  15
ATOM     15  C   UNL     1      32.938   9.787  40.279  1.00  0.00    -0.003 C 
ATOM     16  C   UNL     1      34.267   9.224  39.785  1.00  0.00     0.004 C 
ENDBRANCH  14  15
ENDBRANCH  13  14
ENDBRANCH  12  13
ENDBRANCH  11  12
ENDBRANCH  10  11
ENDBRANCH   1  10
TORSDOF 12
ENDMDL
MODEL 7
REMARK VINA RESULT:     7.524      3.886      6.398
REMARK INTER + INTRA:          12.036
REMARK INTER:                  12.584
REMARK INTRA:                  -0.548
REMARK UNBOUND:                -0.766
REMARK SMILES CCCCCCCCCCCCCC(=O)[O-]
REMARK SMILES IDX 8 1 9 2 10 3 11 4 12 5 13 6 14 7 15 8 16 9 7 10 6 11 5 12
REMARK SMILES IDX 4 13 3 14 2 15 1 16
REMARK H PARENT
REMARK Flexibility Score: inf
ROOT
ATOM      1  C   UNL     1      33.370  11.021  41.191  1.00  0.00     0.000 C 
ENDROOT
BRANCH   1   2
ATOM      2  C   UNL     1      33.541   9.745  40.354  1.00  0.00     0.000 C 
BRANCH   2   3
ATOM      3  C   UNL     1      32.211   9.225  39.779  1.00  0.00     0.000 C 
BRANCH   3   4
ATOM      4  C   UNL     1      31.140   8.866  40.830  1.00  0.00     0.000 C 
BRANCH   4   5
ATOM      5  C   UNL     1      30.290   7.622  40.502  1.00  0.00     0.006 C 
BRANCH   5   6
ATOM      6  C   UNL     1      29.303   7.219  41.609  1.00  0.00     0.053 C 
BRANCH   6   7
ATOM      7  C   UNL     1      29.574   5.839  42.126  1.00  0.00     0.041 C 
ATOM      8  O   UNL     1      28.874   5.363  43.057  1.00  0.00    -0.550 OA
ATOM      9  O   UNL     1      30.623   5.093  41.602  1.00  0.00    -0.550 OA
ENDBRANCH   6   7
ENDBRANCH   5   6
ENDBRANCH   4   5
ENDBRANCH   3   4
ENDBRANCH   2   3
ENDBRANCH   1   2
BRANCH   1  10
ATOM     10  C   UNL     1      33.178  12.247  40.288  1.00  0.00     0.000 C 
BRANCH  10  11
ATOM     11  C   UNL     1      34.429  13.133  40.291  1.00  0.00    -0.000 C 
BRANCH  11  12
ATOM     12  C   UNL     1      35.285  12.872  41.539  1.00  0.00    -0.000 C 
BRANCH  12  13
ATOM     13  C   UNL     1      34.959  13.832  42.693  1.00  0.00    -0.000 C 
BRANCH  13  14
ATOM     14  C   UNL     1      36.195  14.198  43.528  1.00  0.00    -0.000 C 
BRANCH  14  15
ATOM     15  C   UNL     1      36.070  15.614  44.103  1.00  0.00    -0.003 C 
ATOM     16  C   UNL     1      34.691  16.203  43.821  1.00  0.00     0.004 C 
ENDBRANCH  14  15
ENDBRANCH  13  14
ENDBRANCH  12  13
ENDBRANCH  11  12
ENDBRANCH  10  11
ENDBRANCH   1  10
TORSDOF 12
ENDMDL
MODEL 8
REMARK VINA RESULT:     7.965     11.996     14.107
REMARK INTER + INTRA:          12.787
REMARK INTER:                  13.442
REMARK INTRA:                  -0.655
REMARK UNBOUND:                -0.766
REMARK SMILES CCCCCCCCCCCCCC(=O)[O-]
REMARK SMILES IDX 8 1 9 2 10 3 11 4 12 5 13 6 14 7 15 8 16 9 7 10 6 11 5 12
REMARK SMILES IDX 4 13 3 14 2 15 1 16
REMARK H PARENT
REMARK Flexibility Score: inf
ROOT
ATOM      1  C   UNL     1      30.911  23.295  32.943  1.00  0.00     0.000 C 
ENDROOT
BRANCH   1   2
ATOM      2  C   UNL     1      30.786  24.125  31.657  1.00  0.00     0.000 C 
BRANCH   2   3
ATOM      3  C   UNL     1      31.111  23.315  30.389  1.00  0.00     0.000 C 
BRANCH   3   4
ATOM      4  C   UNL     1      32.597  23.311  29.979  1.00  0.00     0.000 C 
BRANCH   4   5
ATOM      5  C   UNL     1      32.883  23.799  28.544  1.00  0.00     0.006 C 
BRANCH   5   6
ATOM      6  C   UNL     1      31.683  23.699  27.589  1.00  0.00     0.053 C 
BRANCH   6   7
ATOM      7  C   UNL     1      31.230  22.284  27.404  1.00  0.00     0.041 C 
ATOM      8  O   UNL     1      30.027  21.973  27.603  1.00  0.00    -0.550 OA
ATOM      9  O   UNL     1      32.145  21.301  27.046  1.00  0.00    -0.550 OA
ENDBRANCH   6   7
ENDBRANCH   5   6
ENDBRANCH   4   5
ENDBRANCH   3   4
ENDBRANCH   2   3
ENDBRANCH   1   2
BRANCH   1  10
ATOM     10  C   UNL     1      31.537  24.124  34.072  1.00  0.00     0.000 C 
BRANCH  10  11
ATOM     11  C   UNL     1      32.924  23.588  34.444  1.00  0.00    -0.000 C 
BRANCH  11  12
ATOM     12  C   UNL     1      33.978  24.032  33.418  1.00  0.00    -0.000 C 
BRANCH  12  13
ATOM     13  C   UNL     1      35.389  24.124  34.019  1.00  0.00    -0.000 C 
BRANCH  13  14
ATOM     14  C   UNL     1      36.494  23.917  32.974  1.00  0.00    -0.000 C 
BRANCH  14  15
ATOM     15  C   UNL     1      35.951  24.111  31.554  1.00  0.00    -0.003 C 
ATOM     16  C   UNL     1      37.002  23.753  30.507  1.00  0.00     0.004 C 
ENDBRANCH  14  15
ENDBRANCH  13  14
ENDBRANCH  12  13
ENDBRANCH  11  12
ENDBRANCH  10  11
ENDBRANCH   1  10
TORSDOF 12
ENDMDL
MODEL 9
REMARK VINA RESULT:     8.217      4.098      8.243
REMARK INTER + INTRA:          13.215
REMARK INTER:                  13.721
REMARK INTRA:                  -0.506
REMARK UNBOUND:                -0.766
REMARK SMILES CCCCCCCCCCCCCC(=O)[O-]
REMARK SMILES IDX 8 1 9 2 10 3 11 4 12 5 13 6 14 7 15 8 16 9 7 10 6 11 5 12
REMARK SMILES IDX 4 13 3 14 2 15 1 16
REMARK H PARENT
REMARK Flexibility Score: inf
ROOT
ATOM      1  C   UNL     1      33.145  11.385  40.993  1.00  0.00     0.000 C 
ENDROOT
BRANCH   1   2
ATOM      2  C   UNL     1      33.620  12.639  40.246  1.00  0.00     0.000 C 
BRANCH   2   3
ATOM      3  C   UNL     1      34.926  13.218  40.821  1.00  0.00     0.000 C 
BRANCH   3   4
ATOM      4  C   UNL     1      35.003  13.254  42.360  1.00  0.00     0.000 C 
BRANCH   4   5
ATOM      5  C   UNL     1      36.204  14.027  42.939  1.00  0.00     0.006 C 
BRANCH   5   6
ATOM      6  C   UNL     1      35.874  14.880  44.174  1.00  0.00     0.053 C 
BRANCH   6   7
ATOM      7  C   UNL     1      34.917  15.987  43.852  1.00  0.00     0.041 C 
ATOM      8  O   UNL     1      35.336  17.054  43.333  1.00  0.00    -0.550 OA
ATOM      9  O   UNL     1      33.568  15.852  44.157  1.00  0.00    -0.550 OA
ENDBRANCH   6   7
ENDBRANCH   5   6
ENDBRANCH   4   5
ENDBRANCH   3   4
ENDBRANCH   2   3
ENDBRANCH   1   2
BRANCH   1  10
ATOM     10  C   UNL     1      33.712  10.114  40.347  1.00  0.00     0.000 C 
BRANCH  10  11
ATOM     11  C   UNL     1      32.589   9.229  39.794  1.00  0.00    -0.000 C 
BRANCH  11  12
ATOM     12  C   UNL     1      31.430   9.122  40.796  1.00  0.00    -0.000 C 
BRANCH  12  13
ATOM     13  C   UNL     1      30.345   8.132  40.343  1.00  0.00    -0.000 C 
BRANCH  13  14
ATOM     14  C   UNL     1      29.541   7.555  41.517  1.00  0.00    -0.000 C 
BRANCH  14  15
ATOM     15  C   UNL     1      29.867   6.072  41.729  1.00  0.00    -0.003 C 
ATOM     16  C   UNL     1      28.797   5.388  42.574  1.00  0.00     0.004 C 
ENDBRANCH  14  15
ENDBRANCH  13  14
ENDBRANCH  12  13
ENDBRANCH  11  12
ENDBRANCH  10  11
ENDBRANCH   1  10
TORSDOF 12
ENDMDL
