MODEL 1
REMARK VINA RESULT:    -4.069      0.000      0.000
REMARK INTER + INTRA:          -5.301
REMARK INTER:                  -5.020
REMARK INTRA:                  -0.280
REMARK UNBOUND:                -0.280
REMARK SMILES CCCCC=CC(C)=O
REMARK SMILES IDX 4 1 3 2 2 3 1 4 5 5 6 6 7 7 9 8 8 9
REMARK H PARENT
REMARK Flexibility Score: inf
ROOT
ATOM      1  C   UNL     1      -4.753  34.159   5.899  1.00  0.00     0.027 C 
ENDROOT
BRANCH   1   2
ATOM      2  C   UNL     1      -4.288  33.138   4.849  1.00  0.00     0.004 C 
BRANCH   2   3
ATOM      3  C   UNL     1      -4.487  31.686   5.312  1.00  0.00    -0.003 C 
ATOM      4  C   UNL     1      -5.312  30.860   4.327  1.00  0.00     0.004 C 
ENDBRANCH   2   3
ENDBRANCH   1   2
BRANCH   1   5
ATOM      5  C   UNL     1      -6.248  34.306   5.886  1.00  0.00    -0.023 C 
ATOM      6  C   UNL     1      -6.917  34.537   4.749  1.00  0.00     0.042 C 
BRANCH   6   7
ATOM      7  C   UNL     1      -8.384  34.700   4.690  1.00  0.00     0.152 C 
ATOM      8  O   UNL     1      -8.873  35.429   3.786  1.00  0.00    -0.295 OA
ATOM      9  C   UNL     1      -9.308  34.030   5.662  1.00  0.00     0.093 C 
ENDBRANCH   6   7
ENDBRANCH   1   5
TORSDOF 4
ENDMDL
MODEL 2
REMARK VINA RESULT:    -3.928      1.047      1.239
REMARK INTER + INTRA:          -5.126
REMARK INTER:                  -4.862
REMARK INTRA:                  -0.265
REMARK UNBOUND:                -0.280
REMARK SMILES CCCCC=CC(C)=O
REMARK SMILES IDX 4 1 3 2 2 3 1 4 5 5 6 6 7 7 9 8 8 9
REMARK H PARENT
REMARK Flexibility Score: inf
ROOT
ATOM      1  C   UNL     1      -4.879  34.155   5.573  1.00  0.00     0.027 C 
ENDROOT
BRANCH   1   2
ATOM      2  C   UNL     1      -4.195  33.017   4.800  1.00  0.00     0.004 C 
BRANCH   2   3
ATOM      3  C   UNL     1      -4.582  31.629   5.333  1.00  0.00    -0.003 C 
ATOM      4  C   UNL     1      -5.380  30.809   4.320  1.00  0.00     0.004 C 
ENDBRANCH   2   3
ENDBRANCH   1   2
BRANCH   1   5
ATOM      5  C   UNL     1      -6.226  34.474   4.987  1.00  0.00    -0.023 C 
ATOM      6  C   UNL     1      -7.355  34.228   5.662  1.00  0.00     0.042 C 
BRANCH   6   7
ATOM      7  C   UNL     1      -8.701  34.512   5.123  1.00  0.00     0.152 C 
ATOM      8  O   UNL     1      -9.697  33.971   5.671  1.00  0.00    -0.295 OA
ATOM      9  C   UNL     1      -8.922  35.421   3.950  1.00  0.00     0.093 C 
ENDBRANCH   6   7
ENDBRANCH   1   5
TORSDOF 4
ENDMDL
MODEL 3
REMARK VINA RESULT:    -3.921      3.332      4.797
REMARK INTER + INTRA:          -5.118
REMARK INTER:                  -4.935
REMARK INTRA:                  -0.183
REMARK UNBOUND:                -0.280
REMARK SMILES CCCCC=CC(C)=O
REMARK SMILES IDX 4 1 3 2 2 3 1 4 5 5 6 6 7 7 9 8 8 9
REMARK H PARENT
REMARK Flexibility Score: inf
ROOT
ATOM      1  C   UNL     1      -4.129  35.321   5.847  1.00  0.00     0.027 C 
ENDROOT
BRANCH   1   2
ATOM      2  C   UNL     1      -3.930  35.993   7.214  1.00  0.00     0.004 C 
BRANCH   2   3
ATOM      3  C   UNL     1      -3.992  34.990   8.377  1.00  0.00    -0.003 C 
ATOM      4  C   UNL     1      -3.959  35.670   9.745  1.00  0.00     0.004 C 
ENDBRANCH   2   3
ENDBRANCH   1   2
BRANCH   1   5
ATOM      5  C   UNL     1      -4.583  33.897   6.005  1.00  0.00    -0.023 C 
ATOM      6  C   UNL     1      -4.096  32.920   5.232  1.00  0.00     0.042 C 
BRANCH   6   7
ATOM      7  C   UNL     1      -4.520  31.509   5.342  1.00  0.00     0.152 C 
ATOM      8  O   UNL     1      -4.150  30.845   6.347  1.00  0.00    -0.295 OA
ATOM      9  C   UNL     1      -5.376  30.843   4.306  1.00  0.00     0.093 C 
ENDBRANCH   6   7
ENDBRANCH   1   5
TORSDOF 4
ENDMDL
MODEL 4
REMARK VINA RESULT:    -3.808      3.648      4.688
REMARK INTER + INTRA:          -4.979
REMARK INTER:                  -4.808
REMARK INTRA:                  -0.171
REMARK UNBOUND:                -0.280
REMARK SMILES CCCCC=CC(C)=O
REMARK SMILES IDX 4 1 3 2 2 3 1 4 5 5 6 6 7 7 9 8 8 9
REMARK H PARENT
REMARK Flexibility Score: inf
ROOT
ATOM      1  C   UNL     1      -5.383  33.938   6.122  1.00  0.00     0.027 C 
ENDROOT
BRANCH   1   2
ATOM      2  C   UNL     1      -4.340  33.105   5.359  1.00  0.00     0.004 C 
BRANCH   2   3
ATOM      3  C   UNL     1      -4.526  31.594   5.569  1.00  0.00    -0.003 C 
ATOM      4  C   UNL     1      -5.292  30.930   4.426  1.00  0.00     0.004 C 
ENDBRANCH   2   3
ENDBRANCH   1   2
BRANCH   1   5
ATOM      5  C   UNL     1      -4.887  34.300   7.493  1.00  0.00    -0.023 C 
ATOM      6  C   UNL     1      -3.723  34.936   7.669  1.00  0.00     0.042 C 
BRANCH   6   7
ATOM      7  C   UNL     1      -3.190  35.302   8.997  1.00  0.00     0.152 C 
ATOM      8  O   UNL     1      -1.954  35.175   9.207  1.00  0.00    -0.295 OA
ATOM      9  C   UNL     1      -4.064  35.818  10.100  1.00  0.00     0.093 C 
ENDBRANCH   6   7
ENDBRANCH   1   5
TORSDOF 4
ENDMDL
MODEL 5
REMARK VINA RESULT:    -3.784      3.381      4.582
REMARK INTER + INTRA:          -4.950
REMARK INTER:                  -4.732
REMARK INTRA:                  -0.217
REMARK UNBOUND:                -0.280
REMARK SMILES CCCCC=CC(C)=O
REMARK SMILES IDX 4 1 3 2 2 3 1 4 5 5 6 6 7 7 9 8 8 9
REMARK H PARENT
REMARK Flexibility Score: inf
ROOT
ATOM      1  C   UNL     1      -4.152  35.252   4.637  1.00  0.00     0.027 C 
ENDROOT
BRANCH   1   2
ATOM      2  C   UNL     1      -3.136  35.581   3.532  1.00  0.00     0.004 C 
BRANCH   2   3
ATOM      3  C   UNL     1      -1.784  34.885   3.750  1.00  0.00    -0.003 C 
ATOM      4  C   UNL     1      -1.127  35.273   5.073  1.00  0.00     0.004 C 
ENDBRANCH   2   3
ENDBRANCH   1   2
BRANCH   1   5
ATOM      5  C   UNL     1      -4.573  33.811   4.572  1.00  0.00    -0.023 C 
ATOM      6  C   UNL     1      -4.164  32.923   5.487  1.00  0.00     0.042 C 
BRANCH   6   7
ATOM      7  C   UNL     1      -4.543  31.496   5.457  1.00  0.00     0.152 C 
ATOM      8  O   UNL     1      -4.195  30.760   6.419  1.00  0.00    -0.295 OA
ATOM      9  C   UNL     1      -5.324  30.894   4.328  1.00  0.00     0.093 C 
ENDBRANCH   6   7
ENDBRANCH   1   5
TORSDOF 4
ENDMDL
MODEL 6
REMARK VINA RESULT:    -3.671      2.068      2.654
REMARK INTER + INTRA:          -4.809
REMARK INTER:                  -4.562
REMARK INTRA:                  -0.248
REMARK UNBOUND:                -0.280
REMARK SMILES CCCCC=CC(C)=O
REMARK SMILES IDX 4 1 3 2 2 3 1 4 5 5 6 6 7 7 9 8 8 9
REMARK H PARENT
REMARK Flexibility Score: inf
ROOT
ATOM      1  C   UNL     1      -5.735  33.832   5.442  1.00  0.00     0.027 C 
ENDROOT
BRANCH   1   2
ATOM      2  C   UNL     1      -4.413  33.263   4.904  1.00  0.00     0.004 C 
BRANCH   2   3
ATOM      3  C   UNL     1      -4.282  31.751   5.146  1.00  0.00    -0.003 C 
ATOM      4  C   UNL     1      -5.317  30.937   4.371  1.00  0.00     0.004 C 
ENDBRANCH   2   3
ENDBRANCH   1   2
BRANCH   1   5
ATOM      5  C   UNL     1      -6.358  34.778   4.454  1.00  0.00    -0.023 C 
ATOM      6  C   UNL     1      -5.729  35.118   3.322  1.00  0.00     0.042 C 
BRANCH   6   7
ATOM      7  C   UNL     1      -6.296  36.053   2.329  1.00  0.00     0.152 C 
ATOM      8  O   UNL     1      -6.985  37.025   2.739  1.00  0.00    -0.295 OA
ATOM      9  C   UNL     1      -6.081  35.888   0.854  1.00  0.00     0.093 C 
ENDBRANCH   6   7
ENDBRANCH   1   5
TORSDOF 4
ENDMDL
MODEL 7
REMARK VINA RESULT:    -3.636      8.327      9.513
REMARK INTER + INTRA:          -4.766
REMARK INTER:                  -4.558
REMARK INTRA:                  -0.209
REMARK UNBOUND:                -0.280
REMARK SMILES CCCCC=CC(C)=O
REMARK SMILES IDX 4 1 3 2 2 3 1 4 5 5 6 6 7 7 9 8 8 9
REMARK H PARENT
REMARK Flexibility Score: inf
ROOT
ATOM      1  C   UNL     1      -8.335  37.003  -2.161  1.00  0.00     0.027 C 
ENDROOT
BRANCH   1   2
ATOM      2  C   UNL     1      -8.419  36.018  -0.985  1.00  0.00     0.004 C 
BRANCH   2   3
ATOM      3  C   UNL     1      -9.817  35.397  -0.836  1.00  0.00    -0.003 C 
ATOM      4  C   UNL     1      -9.771  33.886  -0.619  1.00  0.00     0.004 C 
ENDBRANCH   2   3
ENDBRANCH   1   2
BRANCH   1   5
ATOM      5  C   UNL     1      -9.662  37.132  -2.854  1.00  0.00    -0.023 C 
ATOM      6  C   UNL     1      -9.747  37.203  -4.188  1.00  0.00     0.042 C 
BRANCH   6   7
ATOM      7  C   UNL     1     -11.027  37.342  -4.913  1.00  0.00     0.152 C 
ATOM      8  O   UNL     1     -11.841  36.380  -4.891  1.00  0.00    -0.295 OA
ATOM      9  C   UNL     1     -11.392  38.584  -5.670  1.00  0.00     0.093 C 
ENDBRANCH   6   7
ENDBRANCH   1   5
TORSDOF 4
ENDMDL
MODEL 8
REMARK VINA RESULT:    -3.569      3.123      4.664
REMARK INTER + INTRA:          -4.685
REMARK INTER:                  -4.474
REMARK INTRA:                  -0.211
REMARK UNBOUND:                -0.280
REMARK SMILES CCCCC=CC(C)=O
REMARK SMILES IDX 4 1 3 2 2 3 1 4 5 5 6 6 7 7 9 8 8 9
REMARK H PARENT
REMARK Flexibility Score: inf
ROOT
ATOM      1  C   UNL     1      -4.910  35.336   4.118  1.00  0.00     0.027 C 
ENDROOT
BRANCH   1   2
ATOM      2  C   UNL     1      -5.650  35.307   2.771  1.00  0.00     0.004 C 
BRANCH   2   3
ATOM      3  C   UNL     1      -5.194  36.430   1.826  1.00  0.00    -0.003 C 
ATOM      4  C   UNL     1      -3.682  36.643   1.849  1.00  0.00     0.004 C 
ENDBRANCH   2   3
ENDBRANCH   1   2
BRANCH   1   5
ATOM      5  C   UNL     1      -4.484  33.955   4.530  1.00  0.00    -0.023 C 
ATOM      6  C   UNL     1      -5.308  32.907   4.413  1.00  0.00     0.042 C 
BRANCH   6   7
ATOM      7  C   UNL     1      -4.938  31.535   4.816  1.00  0.00     0.152 C 
ATOM      8  O   UNL     1      -5.221  30.582   4.042  1.00  0.00    -0.295 OA
ATOM      9  C   UNL     1      -4.239  31.237   6.109  1.00  0.00     0.093 C 
ENDBRANCH   6   7
ENDBRANCH   1   5
TORSDOF 4
ENDMDL
MODEL 9
REMARK VINA RESULT:    -3.479      9.194     10.143
REMARK INTER + INTRA:          -4.573
REMARK INTER:                  -4.440
REMARK INTRA:                  -0.133
REMARK UNBOUND:                -0.280
REMARK SMILES CCCCC=CC(C)=O
REMARK SMILES IDX 4 1 3 2 2 3 1 4 5 5 6 6 7 7 9 8 8 9
REMARK H PARENT
REMARK Flexibility Score: inf
ROOT
ATOM      1  C   UNL     1      -7.459  37.670  -3.955  1.00  0.00     0.027 C 
ENDROOT
BRANCH   1   2
ATOM      2  C   UNL     1      -6.939  37.915  -2.530  1.00  0.00     0.004 C 
BRANCH   2   3
ATOM      3  C   UNL     1      -6.009  36.792  -2.043  1.00  0.00    -0.003 C 
ATOM      4  C   UNL     1      -6.577  36.036  -0.842  1.00  0.00     0.004 C 
ENDBRANCH   2   3
ENDBRANCH   1   2
BRANCH   1   5
ATOM      5  C   UNL     1      -8.961  37.666  -3.989  1.00  0.00    -0.023 C 
ATOM      6  C   UNL     1      -9.632  37.573  -5.144  1.00  0.00     0.042 C 
BRANCH   6   7
ATOM      7  C   UNL     1     -11.107  37.577  -5.228  1.00  0.00     0.152 C 
ATOM      8  O   UNL     1     -11.731  36.521  -4.939  1.00  0.00    -0.295 OA
ATOM      9  C   UNL     1     -11.886  38.790  -5.641  1.00  0.00     0.093 C 
ENDBRANCH   6   7
ENDBRANCH   1   5
TORSDOF 4
ENDMDL
