MODEL 1
REMARK VINA RESULT:    -3.594      0.000      0.000
REMARK INTER + INTRA:          -4.427
REMARK INTER:                  -4.224
REMARK INTRA:                  -0.203
REMARK UNBOUND:                -0.203
REMARK SMILES O=c1c(O)c(-c2ccc(O)c(O)c2)oc2cc(O)ccc12
REMARK SMILES IDX 5 1 3 2 2 3 1 4 21 5 15 6 14 7 16 8 17 9 19 10 20 11 6 12
REMARK SMILES IDX 7 13 8 14 9 15 13 16 11 17 10 18 12 20 4 22 18 24
REMARK H PARENT 10 19 12 21 4 23 18 25
REMARK Flexibility Score: inf
ROOT
ATOM      1  C   UNL     1     333.238 182.943  70.214  1.00  0.00     0.180 A 
ATOM      2  C   UNL     1     333.900 181.711  70.028  1.00  0.00     0.208 A 
ATOM      3  C   UNL     1     334.296 180.979  71.158  1.00  0.00     0.235 A 
ATOM      4  O   UNL     1     334.899 179.880  71.017  1.00  0.00    -0.285 OA
ATOM      5  C   UNL     1     334.009 181.476  72.440  1.00  0.00     0.069 A 
ATOM      6  C   UNL     1     333.322 182.705  72.541  1.00  0.00     0.142 A 
ATOM      7  O   UNL     1     332.972 183.372  71.447  1.00  0.00    -0.452 OA
ATOM      8  C   UNL     1     333.009 183.228  73.800  1.00  0.00     0.094 A 
ATOM      9  C   UNL     1     333.376 182.539  74.962  1.00  0.00     0.119 A 
ATOM     10  C   UNL     1     334.058 181.321  74.865  1.00  0.00     0.047 A 
ATOM     11  C   UNL     1     334.374 180.789  73.611  1.00  0.00     0.020 A 
ENDROOT
BRANCH   1  12
ATOM     12  C   UNL     1     332.805 183.782  69.075  1.00  0.00     0.025 A 
ATOM     13  C   UNL     1     333.404 185.026  68.812  1.00  0.00     0.016 A 
ATOM     14  C   UNL     1     332.963 185.812  67.745  1.00  0.00     0.051 A 
ATOM     15  C   UNL     1     331.909 185.377  66.935  1.00  0.00     0.157 A 
ATOM     16  C   UNL     1     331.734 183.358  68.272  1.00  0.00     0.062 A 
ATOM     17  C   UNL     1     331.289 184.145  67.200  1.00  0.00     0.158 A 
BRANCH  15  18
ATOM     18  O   UNL     1     331.492 186.183  65.875  1.00  0.00    -0.504 OA
ATOM     19  H   UNL     1     332.067 186.334  65.055  1.00  0.00     0.293 HD
ENDBRANCH  15  18
BRANCH  17  20
ATOM     20  O   UNL     1     330.233 183.708  66.400  1.00  0.00    -0.504 OA
ATOM     21  H   UNL     1     329.766 182.826  66.574  1.00  0.00     0.293 HD
ENDBRANCH  17  20
ENDBRANCH   1  12
BRANCH   2  22
ATOM     22  O   UNL     1     334.129 181.218  68.742  1.00  0.00    -0.502 OA
ATOM     23  H   UNL     1     334.273 180.233  68.557  1.00  0.00     0.293 HD
ENDBRANCH   2  22
BRANCH   9  24
ATOM     24  O   UNL     1     333.068 183.054  76.221  1.00  0.00    -0.508 OA
ATOM     25  H   UNL     1     332.197 182.828  76.687  1.00  0.00     0.293 HD
ENDBRANCH   9  24
TORSDOF 5
ENDMDL
MODEL 2
REMARK VINA RESULT:    -1.334     15.074     18.092
REMARK INTER + INTRA:          -1.771
REMARK INTER:                  -2.143
REMARK INTRA:                   0.372
REMARK UNBOUND:                -0.203
REMARK SMILES O=c1c(O)c(-c2ccc(O)c(O)c2)oc2cc(O)ccc12
REMARK SMILES IDX 5 1 3 2 2 3 1 4 21 5 15 6 14 7 16 8 17 9 19 10 20 11 6 12
REMARK SMILES IDX 7 13 8 14 9 15 13 16 11 17 10 18 12 20 4 22 18 24
REMARK H PARENT 10 19 12 21 4 23 18 25
REMARK Flexibility Score: inf
ROOT
ATOM      1  C   UNL     1     331.426 192.994  84.500  1.00  0.00     0.180 A 
ATOM      2  C   UNL     1     330.822 194.059  85.202  1.00  0.00     0.208 A 
ATOM      3  C   UNL     1     331.242 195.371  84.931  1.00  0.00     0.235 A 
ATOM      4  O   UNL     1     330.724 196.339  85.553  1.00  0.00    -0.285 OA
ATOM      5  C   UNL     1     332.233 195.593  83.961  1.00  0.00     0.069 A 
ATOM      6  C   UNL     1     332.771 194.476  83.287  1.00  0.00     0.142 A 
ATOM      7  O   UNL     1     332.352 193.250  83.578  1.00  0.00    -0.452 OA
ATOM      8  C   UNL     1     333.753 194.658  82.307  1.00  0.00     0.094 A 
ATOM      9  C   UNL     1     334.207 195.945  81.993  1.00  0.00     0.119 A 
ATOM     10  C   UNL     1     333.676 197.053  82.661  1.00  0.00     0.047 A 
ATOM     11  C   UNL     1     332.693 196.883  83.640  1.00  0.00     0.020 A 
ENDROOT
BRANCH   1  12
ATOM     12  C   UNL     1     331.052 191.582  84.741  1.00  0.00     0.025 A 
ATOM     13  C   UNL     1     330.371 191.194  85.908  1.00  0.00     0.016 A 
ATOM     14  C   UNL     1     330.049 189.852  86.125  1.00  0.00     0.051 A 
ATOM     15  C   UNL     1     330.414 188.877  85.191  1.00  0.00     0.157 A 
ATOM     16  C   UNL     1     331.435 190.599  83.816  1.00  0.00     0.062 A 
ATOM     17  C   UNL     1     331.113 189.251  84.031  1.00  0.00     0.158 A 
BRANCH  15  18
ATOM     18  O   UNL     1     330.078 187.546  85.434  1.00  0.00    -0.504 OA
ATOM     19  H   UNL     1     329.176 187.278  85.808  1.00  0.00     0.293 HD
ENDBRANCH  15  18
BRANCH  17  20
ATOM     20  O   UNL     1     331.487 188.283  83.099  1.00  0.00    -0.504 OA
ATOM     21  H   UNL     1     331.891 188.536  82.205  1.00  0.00     0.293 HD
ENDBRANCH  17  20
ENDBRANCH   1  12
BRANCH   2  22
ATOM     22  O   UNL     1     329.804 193.811  86.125  1.00  0.00    -0.502 OA
ATOM     23  H   UNL     1     329.915 193.159  86.891  1.00  0.00     0.293 HD
ENDBRANCH   2  22
BRANCH   9  24
ATOM     24  O   UNL     1     335.186 196.135  81.018  1.00  0.00    -0.508 OA
ATOM     25  H   UNL     1     334.944 196.402  80.071  1.00  0.00     0.293 HD
ENDBRANCH   9  24
TORSDOF 5
ENDMDL
MODEL 3
REMARK VINA RESULT:    -0.937      1.641      6.963
REMARK INTER + INTRA:          -1.304
REMARK INTER:                  -1.023
REMARK INTRA:                  -0.281
REMARK UNBOUND:                -0.203
REMARK SMILES O=c1c(O)c(-c2ccc(O)c(O)c2)oc2cc(O)ccc12
REMARK SMILES IDX 5 1 3 2 2 3 1 4 21 5 15 6 14 7 16 8 17 9 19 10 20 11 6 12
REMARK SMILES IDX 7 13 8 14 9 15 13 16 11 17 10 18 12 20 4 22 18 24
REMARK H PARENT 10 19 12 21 4 23 18 25
REMARK Flexibility Score: inf
ROOT
ATOM      1  C   UNL     1     332.995 183.209  69.647  1.00  0.00     0.180 A 
ATOM      2  C   UNL     1     333.651 184.390  69.242  1.00  0.00     0.208 A 
ATOM      3  C   UNL     1     333.101 185.144  68.194  1.00  0.00     0.235 A 
ATOM      4  O   UNL     1     333.675 186.199  67.808  1.00  0.00    -0.285 OA
ATOM      5  C   UNL     1     331.907 184.719  67.589  1.00  0.00     0.069 A 
ATOM      6  C   UNL     1     331.300 183.538  68.067  1.00  0.00     0.142 A 
ATOM      7  O   UNL     1     331.857 182.848  69.056  1.00  0.00    -0.452 OA
ATOM      8  C   UNL     1     330.105 183.087  67.497  1.00  0.00     0.094 A 
ATOM      9  C   UNL     1     329.508 183.802  66.450  1.00  0.00     0.119 A 
ATOM     10  C   UNL     1     330.109 184.971  65.974  1.00  0.00     0.047 A 
ATOM     11  C   UNL     1     331.303 185.432  66.539  1.00  0.00     0.020 A 
ENDROOT
BRANCH   1  12
ATOM     12  C   UNL     1     333.521 182.350  70.732  1.00  0.00     0.025 A 
ATOM     13  C   UNL     1     334.191 181.146  70.453  1.00  0.00     0.016 A 
ATOM     14  C   UNL     1     334.658 180.339  71.494  1.00  0.00     0.051 A 
ATOM     15  C   UNL     1     334.451 180.712  72.825  1.00  0.00     0.157 A 
ATOM     16  C   UNL     1     333.296 182.711  72.070  1.00  0.00     0.062 A 
ATOM     17  C   UNL     1     333.764 181.903  73.116  1.00  0.00     0.158 A 
BRANCH  15  18
ATOM     18  O   UNL     1     334.930 179.888  73.843  1.00  0.00    -0.504 OA
ATOM     19  H   UNL     1     335.761 179.321  73.729  1.00  0.00     0.293 HD
ENDBRANCH  15  18
BRANCH  17  20
ATOM     20  O   UNL     1     333.548 182.278  74.442  1.00  0.00    -0.504 OA
ATOM     21  H   UNL     1     332.943 183.055  74.681  1.00  0.00     0.293 HD
ENDBRANCH  17  20
ENDBRANCH   1  12
BRANCH   2  22
ATOM     22  O   UNL     1     334.810 184.815  69.896  1.00  0.00    -0.502 OA
ATOM     23  H   UNL     1     334.859 185.694  70.396  1.00  0.00     0.293 HD
ENDBRANCH   2  22
BRANCH   9  24
ATOM     24  O   UNL     1     328.318 183.359  65.875  1.00  0.00    -0.508 OA
ATOM     25  H   UNL     1     327.418 183.576  66.288  1.00  0.00     0.293 HD
ENDBRANCH   9  24
TORSDOF 5
ENDMDL
