MODEL 1
REMARK VINA RESULT:    -3.183      0.000      0.000
REMARK INTER + INTRA:          -3.183
REMARK INTER:                  -3.183
REMARK INTRA:                   0.000
REMARK UNBOUND:                 0.000
REMARK SMILES CC(=O)[O-]
REMARK SMILES IDX 1 1 2 2 3 3 4 4
REMARK H PARENT
REMARK Flexibility Score: inf
ROOT
ATOM      1  C   UNL     1       0.891   2.614  -4.243  1.00  0.00     0.063 C 
ATOM      2  C   UNL     1       0.296   3.349  -3.090  1.00  0.00     0.038 C 
ATOM      3  O   UNL     1       0.956   4.244  -2.502  1.00  0.00    -0.550 OA
ATOM      4  O   UNL     1      -1.010   3.083  -2.696  1.00  0.00    -0.550 OA
ENDROOT
TORSDOF 0
ENDMDL
MODEL 2
REMARK VINA RESULT:    -3.127      3.442      3.765
REMARK INTER + INTRA:          -3.127
REMARK INTER:                  -3.127
REMARK INTRA:                   0.000
REMARK UNBOUND:                 0.000
REMARK SMILES CC(=O)[O-]
REMARK SMILES IDX 1 1 2 2 3 3 4 4
REMARK H PARENT
REMARK Flexibility Score: inf
ROOT
ATOM      1  C   UNL     1      -1.153   1.949  -0.010  1.00  0.00     0.063 C 
ATOM      2  C   UNL     1      -2.135   2.486  -0.995  1.00  0.00     0.038 C 
ATOM      3  O   UNL     1      -2.114   2.090  -2.189  1.00  0.00    -0.550 OA
ATOM      4  O   UNL     1      -3.112   3.385  -0.584  1.00  0.00    -0.550 OA
ENDROOT
TORSDOF 0
ENDMDL
MODEL 3
REMARK VINA RESULT:    -3.091      3.350      3.701
REMARK INTER + INTRA:          -3.091
REMARK INTER:                  -3.091
REMARK INTRA:                   0.000
REMARK UNBOUND:                 0.000
REMARK SMILES CC(=O)[O-]
REMARK SMILES IDX 1 1 2 2 3 3 4 4
REMARK H PARENT
REMARK Flexibility Score: inf
ROOT
ATOM      1  C   UNL     1      -1.125   1.928   0.000  1.00  0.00     0.063 C 
ATOM      2  C   UNL     1      -2.070   2.440  -1.033  1.00  0.00     0.038 C 
ATOM      3  O   UNL     1      -2.970   3.259  -0.715  1.00  0.00    -0.550 OA
ATOM      4  O   UNL     1      -1.925   2.055  -2.360  1.00  0.00    -0.550 OA
ENDROOT
TORSDOF 0
ENDMDL
MODEL 4
REMARK VINA RESULT:    -2.906      1.343      1.771
REMARK INTER + INTRA:          -2.906
REMARK INTER:                  -2.906
REMARK INTRA:                   0.000
REMARK UNBOUND:                 0.000
REMARK SMILES CC(=O)[O-]
REMARK SMILES IDX 1 1 2 2 3 3 4 4
REMARK H PARENT
REMARK Flexibility Score: inf
ROOT
ATOM      1  C   UNL     1      -0.750   2.479  -2.710  1.00  0.00     0.063 C 
ATOM      2  C   UNL     1       0.484   3.210  -3.120  1.00  0.00     0.038 C 
ATOM      3  O   UNL     1       0.862   4.222  -2.475  1.00  0.00    -0.550 OA
ATOM      4  O   UNL     1       1.247   2.744  -4.183  1.00  0.00    -0.550 OA
ENDROOT
TORSDOF 0
ENDMDL
MODEL 5
REMARK VINA RESULT:    -2.869      1.379      1.969
REMARK INTER + INTRA:          -2.869
REMARK INTER:                  -2.869
REMARK INTRA:                   0.000
REMARK UNBOUND:                 0.000
REMARK SMILES CC(=O)[O-]
REMARK SMILES IDX 1 1 2 2 3 3 4 4
REMARK H PARENT
REMARK Flexibility Score: inf
ROOT
ATOM      1  C   UNL     1      -0.761   2.385  -2.728  1.00  0.00     0.063 C 
ATOM      2  C   UNL     1       0.500   3.063  -3.147  1.00  0.00     0.038 C 
ATOM      3  O   UNL     1       1.180   2.599  -4.098  1.00  0.00    -0.550 OA
ATOM      4  O   UNL     1       0.898   4.238  -2.523  1.00  0.00    -0.550 OA
ENDROOT
TORSDOF 0
ENDMDL
MODEL 6
REMARK VINA RESULT:    -2.766     15.296     15.826
REMARK INTER + INTRA:          -2.766
REMARK INTER:                  -2.766
REMARK INTRA:                   0.000
REMARK UNBOUND:                 0.000
REMARK SMILES CC(=O)[O-]
REMARK SMILES IDX 1 1 2 2 3 3 4 4
REMARK H PARENT
REMARK Flexibility Score: inf
ROOT
ATOM      1  C   UNL     1      -9.349  -5.098   7.963  1.00  0.00     0.063 C 
ATOM      2  C   UNL     1      -8.963  -3.750   7.456  1.00  0.00     0.038 C 
ATOM      3  O   UNL     1      -8.647  -2.838   8.263  1.00  0.00    -0.550 OA
ATOM      4  O   UNL     1      -8.901  -3.513   6.088  1.00  0.00    -0.550 OA
ENDROOT
TORSDOF 0
ENDMDL
MODEL 7
REMARK VINA RESULT:    -2.732      2.266      2.766
REMARK INTER + INTRA:          -2.732
REMARK INTER:                  -2.732
REMARK INTRA:                   0.000
REMARK UNBOUND:                 0.000
REMARK SMILES CC(=O)[O-]
REMARK SMILES IDX 1 1 2 2 3 3 4 4
REMARK H PARENT
REMARK Flexibility Score: inf
ROOT
ATOM      1  C   UNL     1      -2.246   2.691  -0.746  1.00  0.00     0.063 C 
ATOM      2  C   UNL     1      -1.051   2.843  -1.626  1.00  0.00     0.038 C 
ATOM      3  O   UNL     1       0.077   3.084  -1.124  1.00  0.00    -0.550 OA
ATOM      4  O   UNL     1      -1.172   2.666  -2.998  1.00  0.00    -0.550 OA
ENDROOT
TORSDOF 0
ENDMDL
MODEL 8
REMARK VINA RESULT:    -2.710     13.456     13.879
REMARK INTER + INTRA:          -2.710
REMARK INTER:                  -2.710
REMARK INTRA:                   0.000
REMARK UNBOUND:                 0.000
REMARK SMILES CC(=O)[O-]
REMARK SMILES IDX 1 1 2 2 3 3 4 4
REMARK H PARENT
REMARK Flexibility Score: inf
ROOT
ATOM      1  C   UNL     1      -2.099  -8.505   0.118  1.00  0.00     0.063 C 
ATOM      2  C   UNL     1      -1.993  -9.573   1.154  1.00  0.00     0.038 C 
ATOM      3  O   UNL     1      -3.033 -10.059   1.669  1.00  0.00    -0.550 OA
ATOM      4  O   UNL     1      -0.747 -10.072   1.513  1.00  0.00    -0.550 OA
ENDROOT
TORSDOF 0
ENDMDL
MODEL 9
REMARK VINA RESULT:    -2.596     12.187     12.694
REMARK INTER + INTRA:          -2.596
REMARK INTER:                  -2.596
REMARK INTRA:                   0.000
REMARK UNBOUND:                 0.000
REMARK SMILES CC(=O)[O-]
REMARK SMILES IDX 1 1 2 2 3 3 4 4
REMARK H PARENT
REMARK Flexibility Score: inf
ROOT
ATOM      1  C   UNL     1       7.423   2.374   8.395  1.00  0.00     0.063 C 
ATOM      2  C   UNL     1       7.687   2.681   6.960  1.00  0.00     0.038 C 
ATOM      3  O   UNL     1       8.428   1.927   6.278  1.00  0.00    -0.550 OA
ATOM      4  O   UNL     1       7.071   3.771   6.357  1.00  0.00    -0.550 OA
ENDROOT
TORSDOF 0
ENDMDL
