MODEL 1
REMARK VINA RESULT:    -6.129      0.000      0.000
REMARK INTER + INTRA:          -6.833
REMARK INTER:                  -6.667
REMARK INTRA:                  -0.166
REMARK UNBOUND:                -0.166
REMARK SMILES CC1=CC[C@H](C(C)(C)O)CC1
REMARK SMILES IDX 6 1 7 2 8 3 5 4 1 5 2 6 3 7 11 8 4 9 10 10 9 11
REMARK H PARENT 9 12
REMARK Flexibility Score: inf
ROOT
ATOM      1  C   UNL     1      58.428  -2.154   5.965  1.00  0.00     0.062 C 
ATOM      2  C   UNL     1      58.871  -3.576   6.368  1.00  0.00     0.042 C 
ATOM      3  C   UNL     1      59.582  -1.532   5.139  1.00  0.00     0.042 C 
ENDROOT
BRANCH   1   4
ATOM      4  C   UNL     1      57.092  -2.217   5.132  1.00  0.00     0.024 C 
ATOM      5  C   UNL     1      53.626  -3.510   2.731  1.00  0.00     0.039 C 
ATOM      6  C   UNL     1      54.839  -3.197   3.565  1.00  0.00    -0.077 C 
ATOM      7  C   UNL     1      56.035  -3.062   2.961  1.00  0.00    -0.028 C 
ATOM      8  C   UNL     1      54.663  -2.919   5.040  1.00  0.00     0.031 C 
ATOM      9  C   UNL     1      57.315  -2.790   3.710  1.00  0.00     0.034 C 
ATOM     10  C   UNL     1      55.975  -3.032   5.823  1.00  0.00     0.011 C 
ENDBRANCH   1   4
BRANCH   1  11
ATOM     11  O   UNL     1      58.241  -1.419   7.153  1.00  0.00    -0.390 OA
ATOM     12  H   UNL     1      58.023  -2.054   7.883  1.00  0.00     0.211 HD
ENDBRANCH   1  11
TORSDOF 2
ENDMDL
MODEL 2
REMARK VINA RESULT:    -5.779      0.356      1.550
REMARK INTER + INTRA:          -6.451
REMARK INTER:                  -6.310
REMARK INTRA:                  -0.141
REMARK UNBOUND:                -0.166
REMARK SMILES CC1=CC[C@H](C(C)(C)O)CC1
REMARK SMILES IDX 6 1 7 2 8 3 5 4 1 5 2 6 3 7 11 8 4 9 10 10 9 11
REMARK H PARENT 9 12
REMARK Flexibility Score: inf
ROOT
ATOM      1  C   UNL     1      58.479  -2.294   5.951  1.00  0.00     0.062 C 
ATOM      2  C   UNL     1      59.192  -3.437   6.704  1.00  0.00     0.042 C 
ATOM      3  C   UNL     1      59.527  -1.636   5.019  1.00  0.00     0.042 C 
ENDROOT
BRANCH   1   4
ATOM      4  C   UNL     1      57.258  -2.861   5.134  1.00  0.00     0.024 C 
ATOM      5  C   UNL     1      53.534  -3.339   2.818  1.00  0.00     0.039 C 
ATOM      6  C   UNL     1      54.789  -3.045   3.594  1.00  0.00    -0.077 C 
ATOM      7  C   UNL     1      54.707  -2.834   4.922  1.00  0.00    -0.028 C 
ATOM      8  C   UNL     1      56.123  -3.118   2.886  1.00  0.00     0.031 C 
ATOM      9  C   UNL     1      55.899  -2.492   5.781  1.00  0.00     0.034 C 
ATOM     10  C   UNL     1      57.240  -2.406   3.656  1.00  0.00     0.011 C 
ENDBRANCH   1   4
BRANCH   1  11
ATOM     11  O   UNL     1      58.044  -1.363   6.915  1.00  0.00    -0.390 OA
ATOM     12  H   UNL     1      57.968  -1.827   7.788  1.00  0.00     0.211 HD
ENDBRANCH   1  11
TORSDOF 2
ENDMDL
MODEL 3
REMARK VINA RESULT:    -5.455      2.246      4.497
REMARK INTER + INTRA:          -6.099
REMARK INTER:                  -5.946
REMARK INTRA:                  -0.153
REMARK UNBOUND:                -0.166
REMARK SMILES CC1=CC[C@H](C(C)(C)O)CC1
REMARK SMILES IDX 6 1 7 2 8 3 5 4 1 5 2 6 3 7 11 8 4 9 10 10 9 11
REMARK H PARENT 9 12
REMARK Flexibility Score: inf
ROOT
ATOM      1  C   UNL     1      54.756  -3.161   2.964  1.00  0.00     0.062 C 
ATOM      2  C   UNL     1      53.520  -3.985   3.380  1.00  0.00     0.042 C 
ATOM      3  C   UNL     1      54.280  -1.703   2.743  1.00  0.00     0.042 C 
ENDROOT
BRANCH   1   4
ATOM      4  C   UNL     1      55.864  -3.242   4.081  1.00  0.00     0.024 C 
ATOM      5  C   UNL     1      59.197  -2.402   6.844  1.00  0.00     0.039 C 
ATOM      6  C   UNL     1      58.065  -2.561   5.866  1.00  0.00    -0.077 C 
ATOM      7  C   UNL     1      58.343  -2.853   4.581  1.00  0.00    -0.028 C 
ATOM      8  C   UNL     1      56.643  -2.514   6.376  1.00  0.00     0.031 C 
ATOM      9  C   UNL     1      57.284  -2.991   3.515  1.00  0.00     0.034 C 
ATOM     10  C   UNL     1      55.623  -2.270   5.259  1.00  0.00     0.011 C 
ENDBRANCH   1   4
BRANCH   1  11
ATOM     11  O   UNL     1      55.231  -3.699   1.751  1.00  0.00    -0.390 OA
ATOM     12  H   UNL     1      56.178  -3.429   1.637  1.00  0.00     0.211 HD
ENDBRANCH   1  11
TORSDOF 2
ENDMDL
MODEL 4
REMARK VINA RESULT:    -5.406      2.199      3.327
REMARK INTER + INTRA:          -6.046
REMARK INTER:                  -5.907
REMARK INTRA:                  -0.139
REMARK UNBOUND:                -0.166
REMARK SMILES CC1=CC[C@H](C(C)(C)O)CC1
REMARK SMILES IDX 6 1 7 2 8 3 5 4 1 5 2 6 3 7 11 8 4 9 10 10 9 11
REMARK H PARENT 9 12
REMARK Flexibility Score: inf
ROOT
ATOM      1  C   UNL     1      60.915  -1.402   4.186  1.00  0.00     0.062 C 
ATOM      2  C   UNL     1      60.952  -1.818   2.700  1.00  0.00     0.042 C 
ATOM      3  C   UNL     1      61.386   0.071   4.261  1.00  0.00     0.042 C 
ENDROOT
BRANCH   1   4
ATOM      4  C   UNL     1      59.459  -1.573   4.761  1.00  0.00     0.024 C 
ATOM      5  C   UNL     1      55.646  -3.168   6.302  1.00  0.00     0.039 C 
ATOM      6  C   UNL     1      56.994  -2.747   5.783  1.00  0.00    -0.077 C 
ATOM      7  C   UNL     1      57.235  -2.803   4.459  1.00  0.00    -0.028 C 
ATOM      8  C   UNL     1      57.998  -2.155   6.744  1.00  0.00     0.031 C 
ATOM      9  C   UNL     1      58.565  -2.443   3.843  1.00  0.00     0.034 C 
ATOM     10  C   UNL     1      59.426  -2.166   6.189  1.00  0.00     0.011 C 
ENDBRANCH   1   4
BRANCH   1  11
ATOM     11  O   UNL     1      61.823  -2.231   4.876  1.00  0.00    -0.390 OA
ATOM     12  H   UNL     1      62.000  -3.034   4.322  1.00  0.00     0.211 HD
ENDBRANCH   1  11
TORSDOF 2
ENDMDL
MODEL 5
REMARK VINA RESULT:    -5.324      1.558      4.366
REMARK INTER + INTRA:          -5.957
REMARK INTER:                  -5.779
REMARK INTRA:                  -0.178
REMARK UNBOUND:                -0.166
REMARK SMILES CC1=CC[C@H](C(C)(C)O)CC1
REMARK SMILES IDX 6 1 7 2 8 3 5 4 1 5 2 6 3 7 11 8 4 9 10 10 9 11
REMARK H PARENT 9 12
REMARK Flexibility Score: inf
ROOT
ATOM      1  C   UNL     1      56.110  -2.409   5.531  1.00  0.00     0.062 C 
ATOM      2  C   UNL     1      55.248  -3.251   4.567  1.00  0.00     0.042 C 
ATOM      3  C   UNL     1      56.389  -3.284   6.779  1.00  0.00     0.042 C 
ENDROOT
BRANCH   1   4
ATOM      4  C   UNL     1      57.447  -1.971   4.823  1.00  0.00     0.024 C 
ATOM      5  C   UNL     1      61.615  -1.650   3.417  1.00  0.00     0.039 C 
ATOM      6  C   UNL     1      60.227  -1.876   3.951  1.00  0.00    -0.077 C 
ATOM      7  C   UNL     1      59.927  -1.463   5.198  1.00  0.00    -0.028 C 
ATOM      8  C   UNL     1      59.171  -2.445   3.032  1.00  0.00     0.031 C 
ATOM      9  C   UNL     1      58.579  -1.679   5.840  1.00  0.00     0.034 C 
ATOM     10  C   UNL     1      57.964  -3.002   3.793  1.00  0.00     0.011 C 
ENDBRANCH   1   4
BRANCH   1  11
ATOM     11  O   UNL     1      55.348  -1.280   5.899  1.00  0.00    -0.390 OA
ATOM     12  H   UNL     1      54.954  -1.445   6.793  1.00  0.00     0.211 HD
ENDBRANCH   1  11
TORSDOF 2
ENDMDL
MODEL 6
REMARK VINA RESULT:    -5.289      1.999      4.371
REMARK INTER + INTRA:          -5.919
REMARK INTER:                  -5.745
REMARK INTRA:                  -0.174
REMARK UNBOUND:                -0.166
REMARK SMILES CC1=CC[C@H](C(C)(C)O)CC1
REMARK SMILES IDX 6 1 7 2 8 3 5 4 1 5 2 6 3 7 11 8 4 9 10 10 9 11
REMARK H PARENT 9 12
REMARK Flexibility Score: inf
ROOT
ATOM      1  C   UNL     1      55.632  -3.007   4.656  1.00  0.00     0.062 C 
ATOM      2  C   UNL     1      55.003  -2.831   6.054  1.00  0.00     0.042 C 
ATOM      3  C   UNL     1      55.029  -1.912   3.742  1.00  0.00     0.042 C 
ENDROOT
BRANCH   1   4
ATOM      4  C   UNL     1      57.200  -2.885   4.746  1.00  0.00     0.024 C 
ATOM      5  C   UNL     1      61.386  -1.517   4.515  1.00  0.00     0.039 C 
ATOM      6  C   UNL     1      59.922  -1.861   4.557  1.00  0.00    -0.077 C 
ATOM      7  C   UNL     1      59.317  -2.296   3.435  1.00  0.00    -0.028 C 
ATOM      8  C   UNL     1      59.199  -1.831   5.884  1.00  0.00     0.031 C 
ATOM      9  C   UNL     1      57.847  -2.627   3.362  1.00  0.00     0.034 C 
ATOM     10  C   UNL     1      57.676  -1.787   5.726  1.00  0.00     0.011 C 
ENDBRANCH   1   4
BRANCH   1  11
ATOM     11  O   UNL     1      55.258  -4.283   4.185  1.00  0.00    -0.390 OA
ATOM     12  H   UNL     1      54.275  -4.295   4.059  1.00  0.00     0.211 HD
ENDBRANCH   1  11
TORSDOF 2
ENDMDL
MODEL 7
REMARK VINA RESULT:    -4.686      6.349      8.901
REMARK INTER + INTRA:          -5.263
REMARK INTER:                  -5.104
REMARK INTRA:                  -0.160
REMARK UNBOUND:                -0.166
REMARK SMILES CC1=CC[C@H](C(C)(C)O)CC1
REMARK SMILES IDX 6 1 7 2 8 3 5 4 1 5 2 6 3 7 11 8 4 9 10 10 9 11
REMARK H PARENT 9 12
REMARK Flexibility Score: inf
ROOT
ATOM      1  C   UNL     1      62.329   1.771   4.096  1.00  0.00     0.062 C 
ATOM      2  C   UNL     1      61.397   0.620   4.531  1.00  0.00     0.042 C 
ATOM      3  C   UNL     1      61.695   2.424   2.843  1.00  0.00     0.042 C 
ENDROOT
BRANCH   1   4
ATOM      4  C   UNL     1      62.492   2.810   5.269  1.00  0.00     0.024 C 
ATOM      5  C   UNL     1      62.466   4.873   9.167  1.00  0.00     0.039 C 
ATOM      6  C   UNL     1      62.438   4.059   7.902  1.00  0.00    -0.077 C 
ATOM      7  C   UNL     1      61.285   3.955   7.213  1.00  0.00    -0.028 C 
ATOM      8  C   UNL     1      63.731   3.485   7.369  1.00  0.00     0.031 C 
ATOM      9  C   UNL     1      61.142   3.131   5.958  1.00  0.00     0.034 C 
ATOM     10  C   UNL     1      63.504   2.365   6.350  1.00  0.00     0.011 C 
ENDBRANCH   1   4
BRANCH   1  11
ATOM     11  O   UNL     1      63.573   1.199   3.761  1.00  0.00    -0.390 OA
ATOM     12  H   UNL     1      64.091   1.860   3.233  1.00  0.00     0.211 HD
ENDBRANCH   1  11
TORSDOF 2
ENDMDL
MODEL 8
REMARK VINA RESULT:    -4.596     11.421     13.270
REMARK INTER + INTRA:          -5.165
REMARK INTER:                  -5.007
REMARK INTRA:                  -0.158
REMARK UNBOUND:                -0.166
REMARK SMILES CC1=CC[C@H](C(C)(C)O)CC1
REMARK SMILES IDX 6 1 7 2 8 3 5 4 1 5 2 6 3 7 11 8 4 9 10 10 9 11
REMARK H PARENT 9 12
REMARK Flexibility Score: inf
ROOT
ATOM      1  C   UNL     1      67.336   2.333  -4.254  1.00  0.00     0.062 C 
ATOM      2  C   UNL     1      68.236   1.280  -3.576  1.00  0.00     0.042 C 
ATOM      3  C   UNL     1      67.063   1.841  -5.697  1.00  0.00     0.042 C 
ENDROOT
BRANCH   1   4
ATOM      4  C   UNL     1      65.999   2.509  -3.441  1.00  0.00     0.024 C 
ATOM      5  C   UNL     1      62.875   2.516  -0.327  1.00  0.00     0.039 C 
ATOM      6  C   UNL     1      64.026   2.476  -1.295  1.00  0.00    -0.077 C 
ATOM      7  C   UNL     1      64.319   1.319  -1.920  1.00  0.00    -0.028 C 
ATOM      8  C   UNL     1      64.744   3.762  -1.636  1.00  0.00     0.031 C 
ATOM      9  C   UNL     1      65.476   1.165  -2.876  1.00  0.00     0.034 C 
ATOM     10  C   UNL     1      66.113   3.522  -2.279  1.00  0.00     0.011 C 
ENDBRANCH   1   4
BRANCH   1  11
ATOM     11  O   UNL     1      68.060   3.543  -4.290  1.00  0.00    -0.390 OA
ATOM     12  H   UNL     1      67.614   4.194  -3.689  1.00  0.00     0.211 HD
ENDBRANCH   1  11
TORSDOF 2
ENDMDL
MODEL 9
REMARK VINA RESULT:    -4.543      2.104      4.801
REMARK INTER + INTRA:          -5.108
REMARK INTER:                  -4.960
REMARK INTRA:                  -0.148
REMARK UNBOUND:                -0.166
REMARK SMILES CC1=CC[C@H](C(C)(C)O)CC1
REMARK SMILES IDX 6 1 7 2 8 3 5 4 1 5 2 6 3 7 11 8 4 9 10 10 9 11
REMARK H PARENT 9 12
REMARK Flexibility Score: inf
ROOT
ATOM      1  C   UNL     1      54.080  -3.214   3.445  1.00  0.00     0.062 C 
ATOM      2  C   UNL     1      53.393  -2.079   2.657  1.00  0.00     0.042 C 
ATOM      3  C   UNL     1      54.422  -4.334   2.431  1.00  0.00     0.042 C 
ENDROOT
BRANCH   1   4
ATOM      4  C   UNL     1      55.373  -2.671   4.162  1.00  0.00     0.024 C 
ATOM      5  C   UNL     1      59.105  -2.257   6.475  1.00  0.00     0.039 C 
ATOM      6  C   UNL     1      57.846  -2.530   5.699  1.00  0.00    -0.077 C 
ATOM      7  C   UNL     1      56.681  -2.663   6.362  1.00  0.00    -0.028 C 
ATOM      8  C   UNL     1      57.899  -2.522   4.188  1.00  0.00     0.031 C 
ATOM      9  C   UNL     1      55.372  -2.978   5.681  1.00  0.00     0.034 C 
ATOM     10  C   UNL     1      56.688  -3.209   3.551  1.00  0.00     0.011 C 
ENDBRANCH   1   4
BRANCH   1  11
ATOM     11  O   UNL     1      53.149  -3.692   4.390  1.00  0.00    -0.390 OA
ATOM     12  H   UNL     1      53.088  -3.035   5.130  1.00  0.00     0.211 HD
ENDBRANCH   1  11
TORSDOF 2
ENDMDL
