MODEL 1
REMARK VINA RESULT:    -4.498      0.000      0.000
REMARK INTER + INTRA:          -7.245
REMARK INTER:                  -6.207
REMARK INTRA:                  -1.038
REMARK UNBOUND:                -1.038
REMARK SMILES CCCCc1cccc(O)c1CCCC
REMARK SMILES IDX 5 1 11 2 9 3 8 4 7 5 6 6 4 7 3 8 2 9 1 10 12 11 13 12 14 13
REMARK SMILES IDX 15 14 10 15
REMARK H PARENT 10 16
REMARK Flexibility Score: inf
ROOT
ATOM      1  C   UNL     1    -108.393 -14.988  52.942  1.00  0.00    -0.041 A 
ATOM      2  C   UNL     1    -108.219 -13.902  53.857  1.00  0.00    -0.003 A 
ATOM      3  C   UNL     1    -107.064 -13.077  53.720  1.00  0.00     0.119 A 
ATOM      4  C   UNL     1    -106.179 -13.281  52.660  1.00  0.00     0.046 A 
ATOM      5  C   UNL     1    -106.396 -14.295  51.736  1.00  0.00     0.004 A 
ATOM      6  C   UNL     1    -107.488 -15.142  51.877  1.00  0.00     0.004 A 
ENDROOT
BRANCH   1   7
ATOM      7  C   UNL     1    -109.492 -16.029  53.071  1.00  0.00     0.036 C 
BRANCH   7   8
ATOM      8  C   UNL     1    -109.460 -17.053  51.919  1.00  0.00     0.004 C 
BRANCH   8   9
ATOM      9  C   UNL     1    -109.065 -18.463  52.381  1.00  0.00    -0.003 C 
ATOM     10  C   UNL     1    -107.824 -18.955  51.644  1.00  0.00     0.004 C 
ENDBRANCH   8   9
ENDBRANCH   7   8
ENDBRANCH   1   7
BRANCH   2  11
ATOM     11  C   UNL     1    -109.278 -13.569  54.905  1.00  0.00     0.040 C 
BRANCH  11  12
ATOM     12  C   UNL     1    -110.235 -12.432  54.505  1.00  0.00     0.005 C 
BRANCH  12  13
ATOM     13  C   UNL     1    -111.414 -12.901  53.640  1.00  0.00    -0.003 C 
ATOM     14  C   UNL     1    -111.178 -12.575  52.169  1.00  0.00     0.004 C 
ENDBRANCH  12  13
ENDBRANCH  11  12
ENDBRANCH   2  11
BRANCH   3  15
ATOM     15  O   UNL     1    -106.750 -12.047  54.611  1.00  0.00    -0.508 OA
ATOM     16  H   UNL     1    -106.893 -11.064  54.428  1.00  0.00     0.293 HD
ENDBRANCH   3  15
TORSDOF 7
ENDMDL
MODEL 2
REMARK VINA RESULT:    -4.475     13.386     15.354
REMARK INTER + INTRA:          -7.213
REMARK INTER:                  -5.954
REMARK INTRA:                  -1.259
REMARK UNBOUND:                -1.038
REMARK SMILES CCCCc1cccc(O)c1CCCC
REMARK SMILES IDX 5 1 11 2 9 3 8 4 7 5 6 6 4 7 3 8 2 9 1 10 12 11 13 12 14 13
REMARK SMILES IDX 15 14 10 15
REMARK H PARENT 10 16
REMARK Flexibility Score: inf
ROOT
ATOM      1  C   UNL     1    -101.477  -1.989  46.420  1.00  0.00    -0.041 A 
ATOM      2  C   UNL     1    -102.357  -2.856  47.141  1.00  0.00    -0.003 A 
ATOM      3  C   UNL     1    -102.042  -3.170  48.496  1.00  0.00     0.119 A 
ATOM      4  C   UNL     1    -100.946  -2.568  49.118  1.00  0.00     0.046 A 
ATOM      5  C   UNL     1    -100.138  -1.674  48.427  1.00  0.00     0.004 A 
ATOM      6  C   UNL     1    -100.397  -1.390  47.092  1.00  0.00     0.004 A 
ENDROOT
BRANCH   1   7
ATOM      7  C   UNL     1    -101.613  -1.698  44.935  1.00  0.00     0.036 C 
BRANCH   7   8
ATOM      8  C   UNL     1    -100.397  -2.201  44.131  1.00  0.00     0.004 C 
BRANCH   8   9
ATOM      9  C   UNL     1    -100.196  -3.719  44.233  1.00  0.00    -0.003 C 
ATOM     10  C   UNL     1     -99.843  -4.319  42.875  1.00  0.00     0.004 C 
ENDBRANCH   8   9
ENDBRANCH   7   8
ENDBRANCH   1   7
BRANCH   2  11
ATOM     11  C   UNL     1    -103.652  -3.370  46.518  1.00  0.00     0.040 C 
BRANCH  11  12
ATOM     12  C   UNL     1    -103.538  -4.759  45.865  1.00  0.00     0.005 C 
BRANCH  12  13
ATOM     13  C   UNL     1    -103.749  -4.740  44.345  1.00  0.00    -0.003 C 
ATOM     14  C   UNL     1    -103.147  -5.979  43.691  1.00  0.00     0.004 C 
ENDBRANCH  12  13
ENDBRANCH  11  12
ENDBRANCH   2  11
BRANCH   3  15
ATOM     15  O   UNL     1    -102.782  -4.073  49.264  1.00  0.00    -0.508 OA
ATOM     16  H   UNL     1    -103.744  -3.943  49.538  1.00  0.00     0.293 HD
ENDBRANCH   3  15
TORSDOF 7
ENDMDL
MODEL 3
REMARK VINA RESULT:    -4.439      1.443      2.332
REMARK INTER + INTRA:          -7.164
REMARK INTER:                  -5.972
REMARK INTRA:                  -1.192
REMARK UNBOUND:                -1.038
REMARK SMILES CCCCc1cccc(O)c1CCCC
REMARK SMILES IDX 5 1 11 2 9 3 8 4 7 5 6 6 4 7 3 8 2 9 1 10 12 11 13 12 14 13
REMARK SMILES IDX 15 14 10 15
REMARK H PARENT 10 16
REMARK Flexibility Score: inf
ROOT
ATOM      1  C   UNL     1    -108.515 -15.073  52.988  1.00  0.00    -0.041 A 
ATOM      2  C   UNL     1    -108.233 -13.981  53.868  1.00  0.00    -0.003 A 
ATOM      3  C   UNL     1    -107.052 -13.215  53.643  1.00  0.00     0.119 A 
ATOM      4  C   UNL     1    -106.244 -13.481  52.535  1.00  0.00     0.046 A 
ATOM      5  C   UNL     1    -106.566 -14.500  51.648  1.00  0.00     0.004 A 
ATOM      6  C   UNL     1    -107.686 -15.291  51.873  1.00  0.00     0.004 A 
ENDROOT
BRANCH   1   7
ATOM      7  C   UNL     1    -109.652 -16.057  53.206  1.00  0.00     0.036 C 
BRANCH   7   8
ATOM      8  C   UNL     1    -110.702 -15.991  52.079  1.00  0.00     0.004 C 
BRANCH   8   9
ATOM      9  C   UNL     1    -111.530 -14.699  52.105  1.00  0.00    -0.003 C 
ATOM     10  C   UNL     1    -112.556 -14.726  53.235  1.00  0.00     0.004 C 
ENDBRANCH   8   9
ENDBRANCH   7   8
ENDBRANCH   1   7
BRANCH   2  11
ATOM     11  C   UNL     1    -109.208 -13.578  54.971  1.00  0.00     0.040 C 
BRANCH  11  12
ATOM     12  C   UNL     1    -110.053 -12.332  54.650  1.00  0.00     0.005 C 
BRANCH  12  13
ATOM     13  C   UNL     1    -111.210 -12.108  55.634  1.00  0.00    -0.003 C 
ATOM     14  C   UNL     1    -112.365 -11.372  54.963  1.00  0.00     0.004 C 
ENDBRANCH  12  13
ENDBRANCH  11  12
ENDBRANCH   2  11
BRANCH   3  15
ATOM     15  O   UNL     1    -106.634 -12.186  54.491  1.00  0.00    -0.508 OA
ATOM     16  H   UNL     1    -106.597 -11.210  54.236  1.00  0.00     0.293 HD
ENDBRANCH   3  15
TORSDOF 7
ENDMDL
MODEL 4
REMARK VINA RESULT:    -4.410     12.890     15.256
REMARK INTER + INTRA:          -7.123
REMARK INTER:                  -5.906
REMARK INTRA:                  -1.217
REMARK UNBOUND:                -1.038
REMARK SMILES CCCCc1cccc(O)c1CCCC
REMARK SMILES IDX 5 1 11 2 9 3 8 4 7 5 6 6 4 7 3 8 2 9 1 10 12 11 13 12 14 13
REMARK SMILES IDX 15 14 10 15
REMARK H PARENT 10 16
REMARK Flexibility Score: inf
ROOT
ATOM      1  C   UNL     1    -101.402  -3.298  44.628  1.00  0.00    -0.041 A 
ATOM      2  C   UNL     1    -102.480  -4.228  44.493  1.00  0.00    -0.003 A 
ATOM      3  C   UNL     1    -102.327  -5.319  43.587  1.00  0.00     0.119 A 
ATOM      4  C   UNL     1    -101.116  -5.511  42.919  1.00  0.00     0.046 A 
ATOM      5  C   UNL     1    -100.051  -4.640  43.112  1.00  0.00     0.004 A 
ATOM      6  C   UNL     1    -100.193  -3.543  43.952  1.00  0.00     0.004 A 
ENDROOT
BRANCH   1   7
ATOM      7  C   UNL     1    -101.493  -2.017  45.437  1.00  0.00     0.036 C 
BRANCH   7   8
ATOM      8  C   UNL     1    -100.312  -1.862  46.415  1.00  0.00     0.004 C 
BRANCH   8   9
ATOM      9  C   UNL     1    -100.328  -2.900  47.546  1.00  0.00    -0.003 C 
ATOM     10  C   UNL     1    -100.689  -2.254  48.880  1.00  0.00     0.004 C 
ENDBRANCH   8   9
ENDBRANCH   7   8
ENDBRANCH   1   7
BRANCH   2  11
ATOM     11  C   UNL     1    -103.735  -4.120  45.355  1.00  0.00     0.040 C 
BRANCH  11  12
ATOM     12  C   UNL     1    -103.563  -4.628  46.798  1.00  0.00     0.005 C 
BRANCH  12  13
ATOM     13  C   UNL     1    -103.991  -3.608  47.861  1.00  0.00    -0.003 C 
ATOM     14  C   UNL     1    -103.918  -4.211  49.260  1.00  0.00     0.004 C 
ENDBRANCH  12  13
ENDBRANCH  11  12
ENDBRANCH   2  11
BRANCH   3  15
ATOM     15  O   UNL     1    -103.347  -6.234  43.311  1.00  0.00    -0.508 OA
ATOM     16  H   UNL     1    -104.208  -6.311  43.833  1.00  0.00     0.293 HD
ENDBRANCH   3  15
TORSDOF 7
ENDMDL
MODEL 5
REMARK VINA RESULT:    -4.368     12.872     15.136
REMARK INTER + INTRA:          -7.066
REMARK INTER:                  -5.933
REMARK INTRA:                  -1.133
REMARK UNBOUND:                -1.038
REMARK SMILES CCCCc1cccc(O)c1CCCC
REMARK SMILES IDX 5 1 11 2 9 3 8 4 7 5 6 6 4 7 3 8 2 9 1 10 12 11 13 12 14 13
REMARK SMILES IDX 15 14 10 15
REMARK H PARENT 10 16
REMARK Flexibility Score: inf
ROOT
ATOM      1  C   UNL     1    -102.688  -4.270  44.703  1.00  0.00    -0.041 A 
ATOM      2  C   UNL     1    -101.430  -3.645  44.434  1.00  0.00    -0.003 A 
ATOM      3  C   UNL     1    -100.517  -4.303  43.559  1.00  0.00     0.119 A 
ATOM      4  C   UNL     1    -100.890  -5.487  42.919  1.00  0.00     0.046 A 
ATOM      5  C   UNL     1    -102.142  -6.049  43.134  1.00  0.00     0.004 A 
ATOM      6  C   UNL     1    -103.030  -5.451  44.020  1.00  0.00     0.004 A 
ENDROOT
BRANCH   1   7
ATOM      7  C   UNL     1    -103.682  -3.754  45.729  1.00  0.00     0.036 C 
BRANCH   7   8
ATOM      8  C   UNL     1    -103.591  -4.519  47.064  1.00  0.00     0.004 C 
BRANCH   8   9
ATOM      9  C   UNL     1    -104.213  -3.753  48.239  1.00  0.00    -0.003 C 
ATOM     10  C   UNL     1    -104.059  -4.528  49.544  1.00  0.00     0.004 C 
ENDBRANCH   8   9
ENDBRANCH   7   8
ENDBRANCH   1   7
BRANCH   2  11
ATOM     11  C   UNL     1    -101.095  -2.264  44.992  1.00  0.00     0.040 C 
BRANCH  11  12
ATOM     12  C   UNL     1    -100.280  -2.285  46.298  1.00  0.00     0.005 C 
BRANCH  12  13
ATOM     13  C   UNL     1    -101.066  -1.786  47.518  1.00  0.00    -0.003 C 
ATOM     14  C   UNL     1    -100.773  -2.641  48.746  1.00  0.00     0.004 C 
ENDBRANCH  12  13
ENDBRANCH  11  12
ENDBRANCH   2  11
BRANCH   3  15
ATOM     15  O   UNL     1     -99.229  -3.828  43.298  1.00  0.00    -0.508 OA
ATOM     16  H   UNL     1     -98.843  -2.976  43.677  1.00  0.00     0.293 HD
ENDBRANCH   3  15
TORSDOF 7
ENDMDL
MODEL 6
REMARK VINA RESULT:    -4.356      1.608      2.408
REMARK INTER + INTRA:          -7.049
REMARK INTER:                  -6.215
REMARK INTRA:                  -0.834
REMARK UNBOUND:                -1.038
REMARK SMILES CCCCc1cccc(O)c1CCCC
REMARK SMILES IDX 5 1 11 2 9 3 8 4 7 5 6 6 4 7 3 8 2 9 1 10 12 11 13 12 14 13
REMARK SMILES IDX 15 14 10 15
REMARK H PARENT 10 16
REMARK Flexibility Score: inf
ROOT
ATOM      1  C   UNL     1    -107.509 -15.098  52.114  1.00  0.00    -0.041 A 
ATOM      2  C   UNL     1    -108.425 -14.878  53.190  1.00  0.00    -0.003 A 
ATOM      3  C   UNL     1    -108.136 -13.843  54.128  1.00  0.00     0.119 A 
ATOM      4  C   UNL     1    -107.027 -13.015  53.938  1.00  0.00     0.046 A 
ATOM      5  C   UNL     1    -106.183 -13.194  52.850  1.00  0.00     0.004 A 
ATOM      6  C   UNL     1    -106.418 -14.226  51.950  1.00  0.00     0.004 A 
ENDROOT
BRANCH   1   7
ATOM      7  C   UNL     1    -107.619 -16.258  51.140  1.00  0.00     0.036 C 
BRANCH   7   8
ATOM      8  C   UNL     1    -106.260 -16.615  50.506  1.00  0.00     0.004 C 
BRANCH   8   9
ATOM      9  C   UNL     1    -106.373 -17.672  49.399  1.00  0.00    -0.003 C 
ATOM     10  C   UNL     1    -107.774 -17.689  48.796  1.00  0.00     0.004 C 
ENDBRANCH   8   9
ENDBRANCH   7   8
ENDBRANCH   1   7
BRANCH   2  11
ATOM     11  C   UNL     1    -109.729 -15.663  53.296  1.00  0.00     0.040 C 
BRANCH  11  12
ATOM     12  C   UNL     1    -110.843 -15.183  52.348  1.00  0.00     0.005 C 
BRANCH  12  13
ATOM     13  C   UNL     1    -111.588 -13.942  52.860  1.00  0.00    -0.003 C 
ATOM     14  C   UNL     1    -111.125 -12.685  52.130  1.00  0.00     0.004 C 
ENDBRANCH  12  13
ENDBRANCH  11  12
ENDBRANCH   2  11
BRANCH   3  15
ATOM     15  O   UNL     1    -108.913 -13.600  55.264  1.00  0.00    -0.508 OA
ATOM     16  H   UNL     1    -108.776 -12.828  55.900  1.00  0.00     0.293 HD
ENDBRANCH   3  15
TORSDOF 7
ENDMDL
MODEL 7
REMARK VINA RESULT:    -4.333     12.001     14.256
REMARK INTER + INTRA:          -7.018
REMARK INTER:                  -6.233
REMARK INTRA:                  -0.785
REMARK UNBOUND:                -1.038
REMARK SMILES CCCCc1cccc(O)c1CCCC
REMARK SMILES IDX 5 1 11 2 9 3 8 4 7 5 6 6 4 7 3 8 2 9 1 10 12 11 13 12 14 13
REMARK SMILES IDX 15 14 10 15
REMARK H PARENT 10 16
REMARK Flexibility Score: inf
ROOT
ATOM      1  C   UNL     1    -102.720  -2.712  47.971  1.00  0.00    -0.041 A 
ATOM      2  C   UNL     1    -102.364  -2.970  46.610  1.00  0.00    -0.003 A 
ATOM      3  C   UNL     1    -100.999  -2.821  46.225  1.00  0.00     0.119 A 
ATOM      4  C   UNL     1    -100.030  -2.515  47.183  1.00  0.00     0.046 A 
ATOM      5  C   UNL     1    -100.378  -2.335  48.516  1.00  0.00     0.004 A 
ATOM      6  C   UNL     1    -101.708  -2.427  48.906  1.00  0.00     0.004 A 
ENDROOT
BRANCH   1   7
ATOM      7  C   UNL     1    -104.153  -2.685  48.476  1.00  0.00     0.036 C 
BRANCH   7   8
ATOM      8  C   UNL     1    -104.445  -3.838  49.456  1.00  0.00     0.004 C 
BRANCH   8   9
ATOM      9  C   UNL     1    -103.754  -5.151  49.063  1.00  0.00    -0.003 C 
ATOM     10  C   UNL     1    -103.751  -6.140  50.225  1.00  0.00     0.004 C 
ENDBRANCH   8   9
ENDBRANCH   7   8
ENDBRANCH   1   7
BRANCH   2  11
ATOM     11  C   UNL     1    -103.392  -3.479  45.603  1.00  0.00     0.040 C 
BRANCH  11  12
ATOM     12  C   UNL     1    -103.407  -5.007  45.424  1.00  0.00     0.005 C 
BRANCH  12  13
ATOM     13  C   UNL     1    -103.557  -5.451  43.962  1.00  0.00    -0.003 C 
ATOM     14  C   UNL     1    -102.336  -6.240  43.501  1.00  0.00     0.004 C 
ENDBRANCH  12  13
ENDBRANCH  11  12
ENDBRANCH   2  11
BRANCH   3  15
ATOM     15  O   UNL     1    -100.556  -2.961  44.907  1.00  0.00    -0.508 OA
ATOM     16  H   UNL     1    -101.086  -3.393  44.165  1.00  0.00     0.293 HD
ENDBRANCH   3  15
TORSDOF 7
ENDMDL
MODEL 8
REMARK VINA RESULT:    -4.317      2.128      4.185
REMARK INTER + INTRA:          -6.995
REMARK INTER:                  -5.914
REMARK INTRA:                  -1.081
REMARK UNBOUND:                -1.038
REMARK SMILES CCCCc1cccc(O)c1CCCC
REMARK SMILES IDX 5 1 11 2 9 3 8 4 7 5 6 6 4 7 3 8 2 9 1 10 12 11 13 12 14 13
REMARK SMILES IDX 15 14 10 15
REMARK H PARENT 10 16
REMARK Flexibility Score: inf
ROOT
ATOM      1  C   UNL     1    -108.750 -15.456  52.652  1.00  0.00    -0.041 A 
ATOM      2  C   UNL     1    -109.584 -15.847  53.746  1.00  0.00    -0.003 A 
ATOM      3  C   UNL     1    -110.091 -17.179  53.771  1.00  0.00     0.119 A 
ATOM      4  C   UNL     1    -109.706 -18.095  52.790  1.00  0.00     0.046 A 
ATOM      5  C   UNL     1    -108.840 -17.722  51.770  1.00  0.00     0.004 A 
ATOM      6  C   UNL     1    -108.371 -16.417  51.697  1.00  0.00     0.004 A 
ENDROOT
BRANCH   1   7
ATOM      7  C   UNL     1    -108.272 -14.032  52.426  1.00  0.00     0.036 C 
BRANCH   7   8
ATOM      8  C   UNL     1    -106.802 -13.980  51.963  1.00  0.00     0.004 C 
BRANCH   8   9
ATOM      9  C   UNL     1    -105.925 -13.083  52.848  1.00  0.00    -0.003 C 
ATOM     10  C   UNL     1    -106.571 -12.857  54.211  1.00  0.00     0.004 C 
ENDBRANCH   8   9
ENDBRANCH   7   8
ENDBRANCH   1   7
BRANCH   2  11
ATOM     11  C   UNL     1    -109.860 -14.901  54.912  1.00  0.00     0.040 C 
BRANCH  11  12
ATOM     12  C   UNL     1    -111.180 -14.119  54.800  1.00  0.00     0.005 C 
BRANCH  12  13
ATOM     13  C   UNL     1    -110.987 -12.642  54.430  1.00  0.00    -0.003 C 
ATOM     14  C   UNL     1    -109.996 -11.966  55.372  1.00  0.00     0.004 C 
ENDBRANCH  12  13
ENDBRANCH  11  12
ENDBRANCH   2  11
BRANCH   3  15
ATOM     15  O   UNL     1    -110.984 -17.640  54.744  1.00  0.00    -0.508 OA
ATOM     16  H   UNL     1    -111.317 -17.094  55.524  1.00  0.00     0.293 HD
ENDBRANCH   3  15
TORSDOF 7
ENDMDL
MODEL 9
REMARK VINA RESULT:    -4.316      1.950      3.789
REMARK INTER + INTRA:          -6.995
REMARK INTER:                  -6.062
REMARK INTRA:                  -0.933
REMARK UNBOUND:                -1.038
REMARK SMILES CCCCc1cccc(O)c1CCCC
REMARK SMILES IDX 5 1 11 2 9 3 8 4 7 5 6 6 4 7 3 8 2 9 1 10 12 11 13 12 14 13
REMARK SMILES IDX 15 14 10 15
REMARK H PARENT 10 16
REMARK Flexibility Score: inf
ROOT
ATOM      1  C   UNL     1    -109.353 -16.287  52.990  1.00  0.00    -0.041 A 
ATOM      2  C   UNL     1    -109.518 -15.077  53.735  1.00  0.00    -0.003 A 
ATOM      3  C   UNL     1    -110.370 -15.094  54.879  1.00  0.00     0.119 A 
ATOM      4  C   UNL     1    -110.953 -16.291  55.301  1.00  0.00     0.046 A 
ATOM      5  C   UNL     1    -110.729 -17.474  54.609  1.00  0.00     0.004 A 
ATOM      6  C   UNL     1    -109.943 -17.473  53.464  1.00  0.00     0.004 A 
ENDROOT
BRANCH   1   7
ATOM      7  C   UNL     1    -108.602 -16.368  51.673  1.00  0.00     0.036 C 
BRANCH   7   8
ATOM      8  C   UNL     1    -108.335 -17.825  51.245  1.00  0.00     0.004 C 
BRANCH   8   9
ATOM      9  C   UNL     1    -107.039 -17.986  50.438  1.00  0.00    -0.003 C 
ATOM     10  C   UNL     1    -106.220 -16.699  50.452  1.00  0.00     0.004 C 
ENDBRANCH   8   9
ENDBRANCH   7   8
ENDBRANCH   1   7
BRANCH   2  11
ATOM     11  C   UNL     1    -108.740 -13.813  53.380  1.00  0.00     0.040 C 
BRANCH  11  12
ATOM     12  C   UNL     1    -107.478 -13.582  54.229  1.00  0.00     0.005 C 
BRANCH  12  13
ATOM     13  C   UNL     1    -106.280 -13.068  53.418  1.00  0.00    -0.003 C 
ATOM     14  C   UNL     1    -106.470 -13.339  51.929  1.00  0.00     0.004 C 
ENDBRANCH  12  13
ENDBRANCH  11  12
ENDBRANCH   2  11
BRANCH   3  15
ATOM     15  O   UNL     1    -110.672 -13.952  55.626  1.00  0.00    -0.508 OA
ATOM     16  H   UNL     1    -111.494 -13.380  55.496  1.00  0.00     0.293 HD
ENDBRANCH   3  15
TORSDOF 7
ENDMDL
