MODEL 1
REMARK VINA RESULT:    -2.571      0.000      0.000
REMARK INTER + INTRA:          -2.571
REMARK INTER:                  -2.571
REMARK INTRA:                   0.000
REMARK UNBOUND:                 0.000
REMARK SMILES CC(=O)[O-]
REMARK SMILES IDX 1 1 2 2 3 3 4 4
REMARK H PARENT
REMARK Flexibility Score: inf
ROOT
ATOM      1  C   UNL     1      21.047 -25.028  13.460  1.00  0.00     0.063 C 
ATOM      2  C   UNL     1      20.237 -25.037  12.209  1.00  0.00     0.038 C 
ATOM      3  O   UNL     1      20.771 -24.735  11.109  1.00  0.00    -0.550 OA
ATOM      4  O   UNL     1      18.906 -25.431  12.243  1.00  0.00    -0.550 OA
ENDROOT
TORSDOF 0
ENDMDL
MODEL 2
REMARK VINA RESULT:    -2.341     10.139     10.445
REMARK INTER + INTRA:          -2.341
REMARK INTER:                  -2.341
REMARK INTRA:                   0.000
REMARK UNBOUND:                 0.000
REMARK SMILES CC(=O)[O-]
REMARK SMILES IDX 1 1 2 2 3 3 4 4
REMARK H PARENT
REMARK Flexibility Score: inf
ROOT
ATOM      1  C   UNL     1      23.280 -15.986  11.571  1.00  0.00     0.063 C 
ATOM      2  C   UNL     1      23.687 -15.328  12.846  1.00  0.00     0.038 C 
ATOM      3  O   UNL     1      24.407 -14.295  12.823  1.00  0.00    -0.550 OA
ATOM      4  O   UNL     1      23.228 -15.820  14.061  1.00  0.00    -0.550 OA
ENDROOT
TORSDOF 0
ENDMDL
MODEL 3
REMARK VINA RESULT:    -2.262      1.940      2.184
REMARK INTER + INTRA:          -2.262
REMARK INTER:                  -2.262
REMARK INTRA:                   0.000
REMARK UNBOUND:                 0.000
REMARK SMILES CC(=O)[O-]
REMARK SMILES IDX 1 1 2 2 3 3 4 4
REMARK H PARENT
REMARK Flexibility Score: inf
ROOT
ATOM      1  C   UNL     1      19.831 -25.175  12.230  1.00  0.00     0.063 C 
ATOM      2  C   UNL     1      20.975 -24.771  13.096  1.00  0.00     0.038 C 
ATOM      3  O   UNL     1      21.566 -23.677  12.895  1.00  0.00    -0.550 OA
ATOM      4  O   UNL     1      21.358 -25.574  14.163  1.00  0.00    -0.550 OA
ENDROOT
TORSDOF 0
ENDMDL
MODEL 4
REMARK VINA RESULT:    -2.234     10.405     10.742
REMARK INTER + INTRA:          -2.234
REMARK INTER:                  -2.234
REMARK INTRA:                   0.000
REMARK UNBOUND:                 0.000
REMARK SMILES CC(=O)[O-]
REMARK SMILES IDX 1 1 2 2 3 3 4 4
REMARK H PARENT
REMARK Flexibility Score: inf
ROOT
ATOM      1  C   UNL     1      22.807 -15.900  13.560  1.00  0.00     0.063 C 
ATOM      2  C   UNL     1      23.811 -15.302  14.485  1.00  0.00     0.038 C 
ATOM      3  O   UNL     1      24.480 -14.296  14.127  1.00  0.00    -0.550 OA
ATOM      4  O   UNL     1      23.973 -15.817  15.765  1.00  0.00    -0.550 OA
ENDROOT
TORSDOF 0
ENDMDL
MODEL 5
REMARK VINA RESULT:    -2.231     10.185     10.530
REMARK INTER + INTRA:          -2.231
REMARK INTER:                  -2.231
REMARK INTRA:                   0.000
REMARK UNBOUND:                 0.000
REMARK SMILES CC(=O)[O-]
REMARK SMILES IDX 1 1 2 2 3 3 4 4
REMARK H PARENT
REMARK Flexibility Score: inf
ROOT
ATOM      1  C   UNL     1      24.147 -15.991  15.802  1.00  0.00     0.063 C 
ATOM      2  C   UNL     1      23.736 -15.380  14.506  1.00  0.00     0.038 C 
ATOM      3  O   UNL     1      24.239 -14.287  14.134  1.00  0.00    -0.550 OA
ATOM      4  O   UNL     1      22.838 -16.042  13.678  1.00  0.00    -0.550 OA
ENDROOT
TORSDOF 0
ENDMDL
MODEL 6
REMARK VINA RESULT:    -1.985     17.971     18.607
REMARK INTER + INTRA:          -1.985
REMARK INTER:                  -1.985
REMARK INTRA:                   0.000
REMARK UNBOUND:                 0.000
REMARK SMILES CC(=O)[O-]
REMARK SMILES IDX 1 1 2 2 3 3 4 4
REMARK H PARENT
REMARK Flexibility Score: inf
ROOT
ATOM      1  C   UNL     1      24.858 -13.528  -1.128  1.00  0.00     0.063 C 
ATOM      2  C   UNL     1      23.933 -14.043  -2.177  1.00  0.00     0.038 C 
ATOM      3  O   UNL     1      23.252 -15.080  -1.966  1.00  0.00    -0.550 OA
ATOM      4  O   UNL     1      23.779 -13.349  -3.371  1.00  0.00    -0.550 OA
ENDROOT
TORSDOF 0
ENDMDL
MODEL 7
REMARK VINA RESULT:    -1.975     18.280     18.560
REMARK INTER + INTRA:          -1.975
REMARK INTER:                  -1.975
REMARK INTRA:                   0.000
REMARK UNBOUND:                 0.000
REMARK SMILES CC(=O)[O-]
REMARK SMILES IDX 1 1 2 2 3 3 4 4
REMARK H PARENT
REMARK Flexibility Score: inf
ROOT
ATOM      1  C   UNL     1      24.204 -13.864  -1.973  1.00  0.00     0.063 C 
ATOM      2  C   UNL     1      25.333 -13.436  -1.098  1.00  0.00     0.038 C 
ATOM      3  O   UNL     1      25.103 -12.797  -0.037  1.00  0.00    -0.550 OA
ATOM      4  O   UNL     1      26.637 -13.787  -1.421  1.00  0.00    -0.550 OA
ENDROOT
TORSDOF 0
ENDMDL
MODEL 8
REMARK VINA RESULT:    -1.950      9.772     10.168
REMARK INTER + INTRA:          -1.950
REMARK INTER:                  -1.950
REMARK INTRA:                   0.000
REMARK UNBOUND:                 0.000
REMARK SMILES CC(=O)[O-]
REMARK SMILES IDX 1 1 2 2 3 3 4 4
REMARK H PARENT
REMARK Flexibility Score: inf
ROOT
ATOM      1  C   UNL     1      24.330 -14.508  12.746  1.00  0.00     0.063 C 
ATOM      2  C   UNL     1      23.478 -15.623  12.242  1.00  0.00     0.038 C 
ATOM      3  O   UNL     1      22.625 -16.158  12.999  1.00  0.00    -0.550 OA
ATOM      4  O   UNL     1      23.583 -16.038  10.921  1.00  0.00    -0.550 OA
ENDROOT
TORSDOF 0
ENDMDL
MODEL 9
REMARK VINA RESULT:    -1.948     17.657     18.271
REMARK INTER + INTRA:          -1.948
REMARK INTER:                  -1.948
REMARK INTRA:                   0.000
REMARK UNBOUND:                 0.000
REMARK SMILES CC(=O)[O-]
REMARK SMILES IDX 1 1 2 2 3 3 4 4
REMARK H PARENT
REMARK Flexibility Score: inf
ROOT
ATOM      1  C   UNL     1      22.859 -15.777  -1.974  1.00  0.00     0.063 C 
ATOM      2  C   UNL     1      23.633 -14.534  -2.253  1.00  0.00     0.038 C 
ATOM      3  O   UNL     1      23.657 -14.052  -3.417  1.00  0.00    -0.550 OA
ATOM      4  O   UNL     1      24.286 -13.873  -1.221  1.00  0.00    -0.550 OA
ENDROOT
TORSDOF 0
ENDMDL
