MODEL 1
REMARK VINA RESULT:    -5.948      0.000      0.000
REMARK INTER + INTRA:         -13.129
REMARK INTER:                 -11.165
REMARK INTRA:                  -1.964
REMARK UNBOUND:                -1.964
REMARK SMILES O=C([O-])CCCCCCCCCCCCCCC(=O)[O-]
REMARK SMILES IDX 10 1 9 2 8 3 7 4 6 5 5 6 4 7 2 8 1 9 3 10 11 11 12 12 13 13
REMARK SMILES IDX 14 14 15 15 16 16 17 17 18 18 19 19 20 20
REMARK H PARENT
REMARK Flexibility Score: inf
ROOT
ATOM      1  C   UNL     1       6.574  14.760   0.288  1.00  0.00     0.000 C 
ENDROOT
BRANCH   1   2
ATOM      2  C   UNL     1       5.141  14.206   0.260  1.00  0.00     0.000 C 
BRANCH   2   3
ATOM      3  C   UNL     1       4.988  13.025   1.225  1.00  0.00     0.000 C 
BRANCH   3   4
ATOM      4  C   UNL     1       3.718  13.171   2.075  1.00  0.00     0.000 C 
BRANCH   4   5
ATOM      5  C   UNL     1       2.727  14.202   1.504  1.00  0.00     0.000 C 
BRANCH   5   6
ATOM      6  C   UNL     1       1.241  13.871   1.731  1.00  0.00     0.006 C 
BRANCH   6   7
ATOM      7  C   UNL     1       0.635  14.626   2.920  1.00  0.00     0.053 C 
BRANCH   7   8
ATOM      8  C   UNL     1      -0.735  14.109   3.224  1.00  0.00     0.041 C 
ATOM      9  O   UNL     1      -1.080  13.892   4.415  1.00  0.00    -0.550 OA
ATOM     10  O   UNL     1      -1.649  13.911   2.196  1.00  0.00    -0.550 OA
ENDBRANCH   7   8
ENDBRANCH   6   7
ENDBRANCH   5   6
ENDBRANCH   4   5
ENDBRANCH   3   4
ENDBRANCH   2   3
ENDBRANCH   1   2
BRANCH   1  11
ATOM     11  C   UNL     1       7.617  13.683   0.627  1.00  0.00     0.000 C 
BRANCH  11  12
ATOM     12  C   UNL     1       8.793  14.238   1.448  1.00  0.00     0.000 C 
BRANCH  12  13
ATOM     13  C   UNL     1       8.523  14.216   2.964  1.00  0.00     0.000 C 
BRANCH  13  14
ATOM     14  C   UNL     1       8.597  15.591   3.656  1.00  0.00     0.000 C 
BRANCH  14  15
ATOM     15  C   UNL     1       7.246  16.318   3.819  1.00  0.00     0.000 C 
BRANCH  15  16
ATOM     16  C   UNL     1       6.015  15.396   3.858  1.00  0.00     0.006 C 
BRANCH  16  17
ATOM     17  C   UNL     1       4.691  16.170   3.865  1.00  0.00     0.053 C 
BRANCH  17  18
ATOM     18  C   UNL     1       3.952  15.928   5.143  1.00  0.00     0.041 C 
ATOM     19  O   UNL     1       3.255  14.889   5.284  1.00  0.00    -0.550 OA
ATOM     20  O   UNL     1       4.074  16.825   6.198  1.00  0.00    -0.550 OA
ENDBRANCH  17  18
ENDBRANCH  16  17
ENDBRANCH  15  16
ENDBRANCH  14  15
ENDBRANCH  13  14
ENDBRANCH  12  13
ENDBRANCH  11  12
ENDBRANCH   1  11
TORSDOF 15
ENDMDL
MODEL 2
REMARK VINA RESULT:    -5.844      0.961      5.550
REMARK INTER + INTRA:         -12.932
REMARK INTER:                 -11.488
REMARK INTRA:                  -1.444
REMARK UNBOUND:                -1.964
REMARK SMILES O=C([O-])CCCCCCCCCCCCCCC(=O)[O-]
REMARK SMILES IDX 10 1 9 2 8 3 7 4 6 5 5 6 4 7 2 8 1 9 3 10 11 11 12 12 13 13
REMARK SMILES IDX 14 14 15 15 16 16 17 17 18 18 19 19 20 20
REMARK H PARENT
REMARK Flexibility Score: inf
ROOT
ATOM      1  C   UNL     1       6.327  14.068   0.594  1.00  0.00     0.000 C 
ENDROOT
BRANCH   1   2
ATOM      2  C   UNL     1       7.845  13.843   0.665  1.00  0.00     0.000 C 
BRANCH   2   3
ATOM      3  C   UNL     1       8.492  14.784   1.688  1.00  0.00     0.000 C 
BRANCH   3   4
ATOM      4  C   UNL     1       7.881  14.584   3.083  1.00  0.00     0.000 C 
BRANCH   4   5
ATOM      5  C   UNL     1       7.368  15.894   3.707  1.00  0.00     0.000 C 
BRANCH   5   6
ATOM      6  C   UNL     1       5.852  16.127   3.577  1.00  0.00     0.006 C 
BRANCH   6   7
ATOM      7  C   UNL     1       5.019  15.080   4.327  1.00  0.00     0.053 C 
BRANCH   7   8
ATOM      8  C   UNL     1       3.832  15.722   4.972  1.00  0.00     0.041 C 
ATOM      9  O   UNL     1       2.668  15.356   4.662  1.00  0.00    -0.550 OA
ATOM     10  O   UNL     1       4.010  16.690   5.952  1.00  0.00    -0.550 OA
ENDBRANCH   7   8
ENDBRANCH   6   7
ENDBRANCH   5   6
ENDBRANCH   4   5
ENDBRANCH   3   4
ENDBRANCH   2   3
ENDBRANCH   1   2
BRANCH   1  11
ATOM     11  C   UNL     1       5.526  12.824   1.008  1.00  0.00     0.000 C 
BRANCH  11  12
ATOM     12  C   UNL     1       4.183  13.179   1.670  1.00  0.00     0.000 C 
BRANCH  12  13
ATOM     13  C   UNL     1       3.475  14.360   0.980  1.00  0.00     0.000 C 
BRANCH  13  14
ATOM     14  C   UNL     1       1.960  14.170   0.765  1.00  0.00     0.000 C 
BRANCH  14  15
ATOM     15  C   UNL     1       1.189  13.614   1.981  1.00  0.00     0.000 C 
BRANCH  15  16
ATOM     16  C   UNL     1       0.011  14.483   2.453  1.00  0.00     0.006 C 
BRANCH  16  17
ATOM     17  C   UNL     1      -1.354  13.871   2.116  1.00  0.00     0.053 C 
BRANCH  17  18
ATOM     18  C   UNL     1      -2.325  14.116   3.227  1.00  0.00     0.041 C 
ATOM     19  O   UNL     1      -1.909  14.395   4.382  1.00  0.00    -0.550 OA
ATOM     20  O   UNL     1      -3.692  14.088   2.975  1.00  0.00    -0.550 OA
ENDBRANCH  17  18
ENDBRANCH  16  17
ENDBRANCH  15  16
ENDBRANCH  14  15
ENDBRANCH  13  14
ENDBRANCH  12  13
ENDBRANCH  11  12
ENDBRANCH   1  11
TORSDOF 15
ENDMDL
MODEL 3
REMARK VINA RESULT:    -5.716      1.803      5.968
REMARK INTER + INTRA:         -12.693
REMARK INTER:                 -11.478
REMARK INTRA:                  -1.215
REMARK UNBOUND:                -1.964
REMARK SMILES O=C([O-])CCCCCCCCCCCCCCC(=O)[O-]
REMARK SMILES IDX 10 1 9 2 8 3 7 4 6 5 5 6 4 7 2 8 1 9 3 10 11 11 12 12 13 13
REMARK SMILES IDX 14 14 15 15 16 16 17 17 18 18 19 19 20 20
REMARK H PARENT
REMARK Flexibility Score: inf
ROOT
ATOM      1  C   UNL     1       4.574  13.138   0.640  1.00  0.00     0.000 C 
ENDROOT
BRANCH   1   2
ATOM      2  C   UNL     1       5.866  13.948   0.457  1.00  0.00     0.000 C 
BRANCH   2   3
ATOM      3  C   UNL     1       7.075  13.189   1.017  1.00  0.00     0.000 C 
BRANCH   3   4
ATOM      4  C   UNL     1       8.374  13.972   0.780  1.00  0.00     0.000 C 
BRANCH   4   5
ATOM      5  C   UNL     1       8.660  15.009   1.881  1.00  0.00     0.000 C 
BRANCH   5   6
ATOM      6  C   UNL     1       7.950  14.746   3.221  1.00  0.00     0.006 C 
BRANCH   6   7
ATOM      7  C   UNL     1       7.388  16.022   3.860  1.00  0.00     0.053 C 
BRANCH   7   8
ATOM      8  C   UNL     1       5.904  16.085   3.682  1.00  0.00     0.041 C 
ATOM      9  O   UNL     1       5.411  16.644   2.667  1.00  0.00    -0.550 OA
ATOM     10  O   UNL     1       5.064  15.483   4.611  1.00  0.00    -0.550 OA
ENDBRANCH   7   8
ENDBRANCH   6   7
ENDBRANCH   5   6
ENDBRANCH   4   5
ENDBRANCH   3   4
ENDBRANCH   2   3
ENDBRANCH   1   2
BRANCH   1  11
ATOM     11  C   UNL     1       4.010  13.237   2.065  1.00  0.00     0.000 C 
BRANCH  11  12
ATOM     12  C   UNL     1       2.885  14.280   2.183  1.00  0.00     0.000 C 
BRANCH  12  13
ATOM     13  C   UNL     1       1.716  14.006   1.220  1.00  0.00     0.000 C 
BRANCH  13  14
ATOM     14  C   UNL     1       0.372  13.690   1.906  1.00  0.00     0.000 C 
BRANCH  14  15
ATOM     15  C   UNL     1       0.033  14.572   3.125  1.00  0.00     0.000 C 
BRANCH  15  16
ATOM     16  C   UNL     1      -0.411  13.802   4.380  1.00  0.00     0.006 C 
BRANCH  16  17
ATOM     17  C   UNL     1      -1.325  14.628   5.293  1.00  0.00     0.053 C 
BRANCH  17  18
ATOM     18  C   UNL     1      -0.736  14.733   6.664  1.00  0.00     0.041 C 
ATOM     19  O   UNL     1      -1.101  15.653   7.442  1.00  0.00    -0.550 OA
ATOM     20  O   UNL     1       0.180  13.783   7.102  1.00  0.00    -0.550 OA
ENDBRANCH  17  18
ENDBRANCH  16  17
ENDBRANCH  15  16
ENDBRANCH  14  15
ENDBRANCH  13  14
ENDBRANCH  12  13
ENDBRANCH  11  12
ENDBRANCH   1  11
TORSDOF 15
ENDMDL
MODEL 4
REMARK VINA RESULT:    -5.668      4.256      8.379
REMARK INTER + INTRA:         -12.602
REMARK INTER:                 -11.523
REMARK INTRA:                  -1.080
REMARK UNBOUND:                -1.964
REMARK SMILES O=C([O-])CCCCCCCCCCCCCCC(=O)[O-]
REMARK SMILES IDX 10 1 9 2 8 3 7 4 6 5 5 6 4 7 2 8 1 9 3 10 11 11 12 12 13 13
REMARK SMILES IDX 14 14 15 15 16 16 17 17 18 18 19 19 20 20
REMARK H PARENT
REMARK Flexibility Score: inf
ROOT
ATOM      1  C   UNL     1       9.748  14.246   1.704  1.00  0.00     0.000 C 
ENDROOT
BRANCH   1   2
ATOM      2  C   UNL     1      10.111  15.366   0.718  1.00  0.00     0.000 C 
BRANCH   2   3
ATOM      3  C   UNL     1      11.511  15.922   1.008  1.00  0.00     0.000 C 
BRANCH   3   4
ATOM      4  C   UNL     1      11.464  17.441   1.228  1.00  0.00     0.000 C 
BRANCH   4   5
ATOM      5  C   UNL     1      10.908  17.831   2.610  1.00  0.00     0.000 C 
BRANCH   5   6
ATOM      6  C   UNL     1      11.465  19.144   3.188  1.00  0.00     0.006 C 
BRANCH   6   7
ATOM      7  C   UNL     1      11.790  19.049   4.683  1.00  0.00     0.053 C 
BRANCH   7   8
ATOM      8  C   UNL     1      12.935  19.949   5.027  1.00  0.00     0.041 C 
ATOM      9  O   UNL     1      13.663  20.423   4.116  1.00  0.00    -0.550 OA
ATOM     10  O   UNL     1      13.169  20.305   6.349  1.00  0.00    -0.550 OA
ENDBRANCH   7   8
ENDBRANCH   6   7
ENDBRANCH   5   6
ENDBRANCH   4   5
ENDBRANCH   3   4
ENDBRANCH   2   3
ENDBRANCH   1   2
BRANCH   1  11
ATOM     11  C   UNL     1       8.274  14.294   2.135  1.00  0.00     0.000 C 
BRANCH  11  12
ATOM     12  C   UNL     1       7.307  14.215   0.942  1.00  0.00     0.000 C 
BRANCH  12  13
ATOM     13  C   UNL     1       6.161  13.213   1.169  1.00  0.00     0.000 C 
BRANCH  13  14
ATOM     14  C   UNL     1       4.788  13.666   0.633  1.00  0.00     0.000 C 
BRANCH  14  15
ATOM     15  C   UNL     1       3.609  13.485   1.610  1.00  0.00     0.000 C 
BRANCH  15  16
ATOM     16  C   UNL     1       3.269  14.726   2.453  1.00  0.00     0.006 C 
BRANCH  16  17
ATOM     17  C   UNL     1       4.150  14.858   3.701  1.00  0.00     0.053 C 
BRANCH  17  18
ATOM     18  C   UNL     1       5.146  15.960   3.524  1.00  0.00     0.041 C 
ATOM     19  O   UNL     1       6.048  16.143   4.383  1.00  0.00    -0.550 OA
ATOM     20  O   UNL     1       5.110  16.752   2.382  1.00  0.00    -0.550 OA
ENDBRANCH  17  18
ENDBRANCH  16  17
ENDBRANCH  15  16
ENDBRANCH  14  15
ENDBRANCH  13  14
ENDBRANCH  12  13
ENDBRANCH  11  12
ENDBRANCH   1  11
TORSDOF 15
ENDMDL
MODEL 5
REMARK VINA RESULT:    -5.664      1.300      6.038
REMARK INTER + INTRA:         -12.595
REMARK INTER:                 -11.204
REMARK INTRA:                  -1.391
REMARK UNBOUND:                -1.964
REMARK SMILES O=C([O-])CCCCCCCCCCCCCCC(=O)[O-]
REMARK SMILES IDX 10 1 9 2 8 3 7 4 6 5 5 6 4 7 2 8 1 9 3 10 11 11 12 12 13 13
REMARK SMILES IDX 14 14 15 15 16 16 17 17 18 18 19 19 20 20
REMARK H PARENT
REMARK Flexibility Score: inf
ROOT
ATOM      1  C   UNL     1       5.263  14.322   0.341  1.00  0.00     0.000 C 
ENDROOT
BRANCH   1   2
ATOM      2  C   UNL     1       6.743  14.723   0.257  1.00  0.00     0.000 C 
BRANCH   2   3
ATOM      3  C   UNL     1       7.654  13.499   0.414  1.00  0.00     0.000 C 
BRANCH   3   4
ATOM      4  C   UNL     1       8.893  13.840   1.256  1.00  0.00     0.000 C 
BRANCH   4   5
ATOM      5  C   UNL     1       8.709  15.109   2.109  1.00  0.00     0.000 C 
BRANCH   5   6
ATOM      6  C   UNL     1       8.028  14.883   3.471  1.00  0.00     0.006 C 
BRANCH   6   7
ATOM      7  C   UNL     1       7.320  16.135   4.001  1.00  0.00     0.053 C 
BRANCH   7   8
ATOM      8  C   UNL     1       5.845  16.038   3.772  1.00  0.00     0.041 C 
ATOM      9  O   UNL     1       5.127  15.355   4.547  1.00  0.00    -0.550 OA
ATOM     10  O   UNL     1       5.255  16.743   2.729  1.00  0.00    -0.550 OA
ENDBRANCH   7   8
ENDBRANCH   6   7
ENDBRANCH   5   6
ENDBRANCH   4   5
ENDBRANCH   3   4
ENDBRANCH   2   3
ENDBRANCH   1   2
BRANCH   1  11
ATOM     11  C   UNL     1       5.044  13.034   1.149  1.00  0.00     0.000 C 
BRANCH  11  12
ATOM     12  C   UNL     1       3.880  13.154   2.147  1.00  0.00     0.000 C 
BRANCH  12  13
ATOM     13  C   UNL     1       2.960  14.353   1.848  1.00  0.00     0.000 C 
BRANCH  13  14
ATOM     14  C   UNL     1       1.642  13.995   1.134  1.00  0.00     0.000 C 
BRANCH  14  15
ATOM     15  C   UNL     1       0.514  13.487   2.055  1.00  0.00     0.000 C 
BRANCH  15  16
ATOM     16  C   UNL     1      -0.102  14.554   2.975  1.00  0.00     0.006 C 
BRANCH  16  17
ATOM     17  C   UNL     1      -0.938  13.950   4.111  1.00  0.00     0.053 C 
BRANCH  17  18
ATOM     18  C   UNL     1      -2.388  14.266   3.916  1.00  0.00     0.041 C 
ATOM     19  O   UNL     1      -3.047  14.811   4.841  1.00  0.00    -0.550 OA
ATOM     20  O   UNL     1      -2.998  14.006   2.695  1.00  0.00    -0.550 OA
ENDBRANCH  17  18
ENDBRANCH  16  17
ENDBRANCH  15  16
ENDBRANCH  14  15
ENDBRANCH  13  14
ENDBRANCH  12  13
ENDBRANCH  11  12
ENDBRANCH   1  11
TORSDOF 15
ENDMDL
MODEL 6
REMARK VINA RESULT:    -5.592      3.836      5.514
REMARK INTER + INTRA:         -12.459
REMARK INTER:                 -11.476
REMARK INTRA:                  -0.983
REMARK UNBOUND:                -1.964
REMARK SMILES O=C([O-])CCCCCCCCCCCCCCC(=O)[O-]
REMARK SMILES IDX 10 1 9 2 8 3 7 4 6 5 5 6 4 7 2 8 1 9 3 10 11 11 12 12 13 13
REMARK SMILES IDX 14 14 15 15 16 16 17 17 18 18 19 19 20 20
REMARK H PARENT
REMARK Flexibility Score: inf
ROOT
ATOM      1  C   UNL     1       8.299  13.837   0.692  1.00  0.00     0.000 C 
ENDROOT
BRANCH   1   2
ATOM      2  C   UNL     1       6.888  14.340   1.030  1.00  0.00     0.000 C 
BRANCH   2   3
ATOM      3  C   UNL     1       5.873  13.191   0.999  1.00  0.00     0.000 C 
BRANCH   3   4
ATOM      4  C   UNL     1       4.465  13.710   0.672  1.00  0.00     0.000 C 
BRANCH   4   5
ATOM      5  C   UNL     1       3.475  13.538   1.838  1.00  0.00     0.000 C 
BRANCH   5   6
ATOM      6  C   UNL     1       3.414  14.723   2.819  1.00  0.00     0.006 C 
BRANCH   6   7
ATOM      7  C   UNL     1       4.213  14.477   4.105  1.00  0.00     0.053 C 
BRANCH   7   8
ATOM      8  C   UNL     1       4.908  15.729   4.536  1.00  0.00     0.041 C 
ATOM      9  O   UNL     1       4.327  16.545   5.299  1.00  0.00    -0.550 OA
ATOM     10  O   UNL     1       6.215  15.973   4.135  1.00  0.00    -0.550 OA
ENDBRANCH   7   8
ENDBRANCH   6   7
ENDBRANCH   5   6
ENDBRANCH   4   5
ENDBRANCH   3   4
ENDBRANCH   2   3
ENDBRANCH   1   2
BRANCH   1  11
ATOM     11  C   UNL     1       9.372  14.413   1.629  1.00  0.00     0.000 C 
BRANCH  11  12
ATOM     12  C   UNL     1      10.773  13.850   1.338  1.00  0.00     0.000 C 
BRANCH  12  13
ATOM     13  C   UNL     1      11.725  14.901   0.737  1.00  0.00     0.000 C 
BRANCH  13  14
ATOM     14  C   UNL     1      11.078  16.270   0.448  1.00  0.00     0.000 C 
BRANCH  14  15
ATOM     15  C   UNL     1      11.642  17.449   1.268  1.00  0.00     0.000 C 
BRANCH  15  16
ATOM     16  C   UNL     1      10.922  17.714   2.602  1.00  0.00     0.006 C 
BRANCH  16  17
ATOM     17  C   UNL     1      11.112  19.150   3.106  1.00  0.00     0.053 C 
BRANCH  17  18
ATOM     18  C   UNL     1      12.279  19.225   4.039  1.00  0.00     0.041 C 
ATOM     19  O   UNL     1      12.096  19.207   5.285  1.00  0.00    -0.550 OA
ATOM     20  O   UNL     1      13.573  19.263   3.533  1.00  0.00    -0.550 OA
ENDBRANCH  17  18
ENDBRANCH  16  17
ENDBRANCH  15  16
ENDBRANCH  14  15
ENDBRANCH  13  14
ENDBRANCH  12  13
ENDBRANCH  11  12
ENDBRANCH   1  11
TORSDOF 15
ENDMDL
MODEL 7
REMARK VINA RESULT:    -5.590      1.419      2.313
REMARK INTER + INTRA:         -12.456
REMARK INTER:                 -10.977
REMARK INTRA:                  -1.479
REMARK UNBOUND:                -1.964
REMARK SMILES O=C([O-])CCCCCCCCCCCCCCC(=O)[O-]
REMARK SMILES IDX 10 1 9 2 8 3 7 4 6 5 5 6 4 7 2 8 1 9 3 10 11 11 12 12 13 13
REMARK SMILES IDX 14 14 15 15 16 16 17 17 18 18 19 19 20 20
REMARK H PARENT
REMARK Flexibility Score: inf
ROOT
ATOM      1  C   UNL     1       4.235  15.152   0.571  1.00  0.00     0.000 C 
ENDROOT
BRANCH   1   2
ATOM      2  C   UNL     1       3.560  13.805   0.870  1.00  0.00     0.000 C 
BRANCH   2   3
ATOM      3  C   UNL     1       2.039  13.905   0.713  1.00  0.00     0.000 C 
BRANCH   3   4
ATOM      4  C   UNL     1       1.364  14.193   2.062  1.00  0.00     0.000 C 
BRANCH   4   5
ATOM      5  C   UNL     1      -0.088  13.686   2.128  1.00  0.00     0.000 C 
BRANCH   5   6
ATOM      6  C   UNL     1      -0.775  13.858   3.495  1.00  0.00     0.006 C 
BRANCH   6   7
ATOM      7  C   UNL     1       0.161  14.427   4.568  1.00  0.00     0.053 C 
BRANCH   7   8
ATOM      8  C   UNL     1      -0.519  14.441   5.900  1.00  0.00     0.041 C 
ATOM      9  O   UNL     1       0.009  13.863   6.887  1.00  0.00    -0.550 OA
ATOM     10  O   UNL     1      -1.712  15.133   6.066  1.00  0.00    -0.550 OA
ENDBRANCH   7   8
ENDBRANCH   6   7
ENDBRANCH   5   6
ENDBRANCH   4   5
ENDBRANCH   3   4
ENDBRANCH   2   3
ENDBRANCH   1   2
BRANCH   1  11
ATOM     11  C   UNL     1       5.703  14.996   0.146  1.00  0.00     0.000 C 
BRANCH  11  12
ATOM     12  C   UNL     1       6.279  13.615   0.507  1.00  0.00     0.000 C 
BRANCH  12  13
ATOM     13  C   UNL     1       7.753  13.681   0.947  1.00  0.00     0.000 C 
BRANCH  13  14
ATOM     14  C   UNL     1       8.128  14.931   1.768  1.00  0.00     0.000 C 
BRANCH  14  15
ATOM     15  C   UNL     1       7.783  14.858   3.269  1.00  0.00     0.000 C 
BRANCH  15  16
ATOM     16  C   UNL     1       6.598  15.738   3.705  1.00  0.00     0.006 C 
BRANCH  16  17
ATOM     17  C   UNL     1       5.321  14.931   3.968  1.00  0.00     0.053 C 
BRANCH  17  18
ATOM     18  C   UNL     1       4.273  15.800   4.589  1.00  0.00     0.041 C 
ATOM     19  O   UNL     1       3.277  16.171   3.914  1.00  0.00    -0.550 OA
ATOM     20  O   UNL     1       4.371  16.157   5.929  1.00  0.00    -0.550 OA
ENDBRANCH  17  18
ENDBRANCH  16  17
ENDBRANCH  15  16
ENDBRANCH  14  15
ENDBRANCH  13  14
ENDBRANCH  12  13
ENDBRANCH  11  12
ENDBRANCH   1  11
TORSDOF 15
ENDMDL
MODEL 8
REMARK VINA RESULT:    -5.530      3.394      7.447
REMARK INTER + INTRA:         -12.344
REMARK INTER:                 -11.153
REMARK INTRA:                  -1.192
REMARK UNBOUND:                -1.964
REMARK SMILES O=C([O-])CCCCCCCCCCCCCCC(=O)[O-]
REMARK SMILES IDX 10 1 9 2 8 3 7 4 6 5 5 6 4 7 2 8 1 9 3 10 11 11 12 12 13 13
REMARK SMILES IDX 14 14 15 15 16 16 17 17 18 18 19 19 20 20
REMARK H PARENT
REMARK Flexibility Score: inf
ROOT
ATOM      1  C   UNL     1       8.447  13.518   0.583  1.00  0.00     0.000 C 
ENDROOT
BRANCH   1   2
ATOM      2  C   UNL     1       9.584  14.455   0.148  1.00  0.00     0.000 C 
BRANCH   2   3
ATOM      3  C   UNL     1      10.939  13.947   0.655  1.00  0.00     0.000 C 
BRANCH   3   4
ATOM      4  C   UNL     1      11.876  15.118   0.987  1.00  0.00     0.000 C 
BRANCH   4   5
ATOM      5  C   UNL     1      11.327  16.478   0.519  1.00  0.00     0.000 C 
BRANCH   5   6
ATOM      6  C   UNL     1      11.563  17.645   1.495  1.00  0.00     0.006 C 
BRANCH   6   7
ATOM      7  C   UNL     1      10.544  17.683   2.640  1.00  0.00     0.053 C 
BRANCH   7   8
ATOM      8  C   UNL     1      11.007  18.609   3.720  1.00  0.00     0.041 C 
ATOM      9  O   UNL     1      10.448  18.596   4.848  1.00  0.00    -0.550 OA
ATOM     10  O   UNL     1      12.089  19.451   3.499  1.00  0.00    -0.550 OA
ENDBRANCH   7   8
ENDBRANCH   6   7
ENDBRANCH   5   6
ENDBRANCH   4   5
ENDBRANCH   3   4
ENDBRANCH   2   3
ENDBRANCH   1   2
BRANCH   1  11
ATOM     11  C   UNL     1       7.167  14.279   0.962  1.00  0.00     0.000 C 
BRANCH  11  12
ATOM     12  C   UNL     1       5.988  13.338   1.262  1.00  0.00     0.000 C 
BRANCH  12  13
ATOM     13  C   UNL     1       4.803  13.544   0.301  1.00  0.00     0.000 C 
BRANCH  13  14
ATOM     14  C   UNL     1       3.442  13.771   0.989  1.00  0.00     0.000 C 
BRANCH  14  15
ATOM     15  C   UNL     1       3.477  13.763   2.531  1.00  0.00     0.000 C 
BRANCH  15  16
ATOM     16  C   UNL     1       2.968  15.052   3.197  1.00  0.00     0.006 C 
BRANCH  16  17
ATOM     17  C   UNL     1       3.935  15.598   4.255  1.00  0.00     0.053 C 
BRANCH  17  18
ATOM     18  C   UNL     1       5.155  16.167   3.601  1.00  0.00     0.041 C 
ATOM     19  O   UNL     1       6.263  16.142   4.199  1.00  0.00    -0.550 OA
ATOM     20  O   UNL     1       5.078  16.679   2.311  1.00  0.00    -0.550 OA
ENDBRANCH  17  18
ENDBRANCH  16  17
ENDBRANCH  15  16
ENDBRANCH  14  15
ENDBRANCH  13  14
ENDBRANCH  12  13
ENDBRANCH  11  12
ENDBRANCH   1  11
TORSDOF 15
ENDMDL
MODEL 9
REMARK VINA RESULT:    -5.528      4.150      5.469
REMARK INTER + INTRA:         -12.341
REMARK INTER:                 -11.312
REMARK INTRA:                  -1.029
REMARK UNBOUND:                -1.964
REMARK SMILES O=C([O-])CCCCCCCCCCCCCCC(=O)[O-]
REMARK SMILES IDX 10 1 9 2 8 3 7 4 6 5 5 6 4 7 2 8 1 9 3 10 11 11 12 12 13 13
REMARK SMILES IDX 14 14 15 15 16 16 17 17 18 18 19 19 20 20
REMARK H PARENT
REMARK Flexibility Score: inf
ROOT
ATOM      1  C   UNL     1       9.685  13.819   2.175  1.00  0.00     0.000 C 
ENDROOT
BRANCH   1   2
ATOM      2  C   UNL     1       8.237  14.292   1.975  1.00  0.00     0.000 C 
BRANCH   2   3
ATOM      3  C   UNL     1       7.718  13.902   0.586  1.00  0.00     0.000 C 
BRANCH   3   4
ATOM      4  C   UNL     1       6.197  14.095   0.494  1.00  0.00     0.000 C 
BRANCH   4   5
ATOM      5  C   UNL     1       5.497  14.014   1.863  1.00  0.00     0.000 C 
BRANCH   5   6
ATOM      6  C   UNL     1       4.259  13.100   1.907  1.00  0.00     0.006 C 
BRANCH   6   7
ATOM      7  C   UNL     1       3.095  13.629   1.060  1.00  0.00     0.053 C 
BRANCH   7   8
ATOM      8  C   UNL     1       2.003  14.149   1.940  1.00  0.00     0.041 C 
ATOM      9  O   UNL     1       0.804  13.840   1.712  1.00  0.00    -0.550 OA
ATOM     10  O   UNL     1       2.312  14.936   3.042  1.00  0.00    -0.550 OA
ENDBRANCH   7   8
ENDBRANCH   6   7
ENDBRANCH   5   6
ENDBRANCH   4   5
ENDBRANCH   3   4
ENDBRANCH   2   3
ENDBRANCH   1   2
BRANCH   1  11
ATOM     11  C   UNL     1      10.517  13.903   0.885  1.00  0.00     0.000 C 
BRANCH  11  12
ATOM     12  C   UNL     1      11.627  14.965   0.968  1.00  0.00     0.000 C 
BRANCH  12  13
ATOM     13  C   UNL     1      11.158  16.354   0.499  1.00  0.00     0.000 C 
BRANCH  13  14
ATOM     14  C   UNL     1      11.558  17.519   1.426  1.00  0.00     0.000 C 
BRANCH  14  15
ATOM     15  C   UNL     1      10.662  17.706   2.669  1.00  0.00     0.000 C 
BRANCH  15  16
ATOM     16  C   UNL     1      10.842  19.047   3.401  1.00  0.00     0.006 C 
BRANCH  16  17
ATOM     17  C   UNL     1      11.541  18.895   4.758  1.00  0.00     0.053 C 
BRANCH  17  18
ATOM     18  C   UNL     1      12.895  19.531   4.721  1.00  0.00     0.041 C 
ATOM     19  O   UNL     1      13.311  20.192   5.709  1.00  0.00    -0.550 OA
ATOM     20  O   UNL     1      13.718  19.351   3.616  1.00  0.00    -0.550 OA
ENDBRANCH  17  18
ENDBRANCH  16  17
ENDBRANCH  15  16
ENDBRANCH  14  15
ENDBRANCH  13  14
ENDBRANCH  12  13
ENDBRANCH  11  12
ENDBRANCH   1  11
TORSDOF 15
ENDMDL
