MODEL 1
REMARK VINA RESULT:    -6.648      0.000      0.000
REMARK INTER + INTRA:          -8.038
REMARK INTER:                  -7.813
REMARK INTRA:                  -0.224
REMARK UNBOUND:                -0.224
REMARK SMILES O=c1c(O)c(-c2ccc(O)cc2)oc2cc(O)cc(O)c12
REMARK SMILES IDX 5 1 3 2 2 3 1 4 21 5 19 6 18 7 16 8 15 9 14 10 13 11 6 12
REMARK SMILES IDX 7 13 8 14 9 15 12 16 11 17 10 18 4 20 20 22 17 24
REMARK H PARENT 10 19 4 21 20 23 17 25
REMARK Flexibility Score: inf
ROOT
ATOM      1  C   UNL     1      -4.747  -1.912  -4.877  1.00  0.00     0.180 A 
ATOM      2  C   UNL     1      -3.456  -2.346  -4.530  1.00  0.00     0.208 A 
ATOM      3  C   UNL     1      -3.165  -3.719  -4.573  1.00  0.00     0.238 A 
ATOM      4  O   UNL     1      -2.024  -4.107  -4.208  1.00  0.00    -0.285 OA
ATOM      5  C   UNL     1      -4.162  -4.639  -4.978  1.00  0.00     0.111 A 
ATOM      6  C   UNL     1      -3.965  -6.048  -5.097  1.00  0.00     0.134 A 
ATOM      7  C   UNL     1      -5.059  -6.875  -5.379  1.00  0.00     0.093 A 
ATOM      8  C   UNL     1      -6.328  -6.339  -5.612  1.00  0.00     0.123 A 
ATOM      9  C   UNL     1      -6.517  -4.961  -5.557  1.00  0.00     0.094 A 
ATOM     10  C   UNL     1      -5.453  -4.111  -5.242  1.00  0.00     0.146 A 
ATOM     11  O   UNL     1      -5.679  -2.805  -5.189  1.00  0.00    -0.452 OA
ENDROOT
BRANCH   1  12
ATOM     12  C   UNL     1      -5.122  -0.479  -4.881  1.00  0.00     0.021 A 
ATOM     13  C   UNL     1      -4.639   0.403  -5.866  1.00  0.00     0.016 A 
ATOM     14  C   UNL     1      -5.027   1.746  -5.862  1.00  0.00     0.047 A 
ATOM     15  C   UNL     1      -5.910   2.222  -4.888  1.00  0.00     0.115 A 
ATOM     16  C   UNL     1      -6.024   0.002  -3.917  1.00  0.00     0.016 A 
ATOM     17  C   UNL     1      -6.409   1.346  -3.916  1.00  0.00     0.047 A 
BRANCH  15  18
ATOM     18  O   UNL     1      -6.285   3.563  -4.896  1.00  0.00    -0.508 OA
ATOM     19  H   UNL     1      -6.816   3.969  -4.134  1.00  0.00     0.293 HD
ENDBRANCH  15  18
ENDBRANCH   1  12
BRANCH   2  20
ATOM     20  O   UNL     1      -2.492  -1.423  -4.113  1.00  0.00    -0.502 OA
ATOM     21  H   UNL     1      -2.055  -1.469  -3.200  1.00  0.00     0.293 HD
ENDBRANCH   2  20
BRANCH   6  22
ATOM     22  O   UNL     1      -2.723  -6.675  -4.974  1.00  0.00    -0.507 OA
ATOM     23  H   UNL     1      -2.361  -7.365  -5.615  1.00  0.00     0.293 HD
ENDBRANCH   6  22
BRANCH   8  24
ATOM     24  O   UNL     1      -7.407  -7.169  -5.908  1.00  0.00    -0.508 OA
ATOM     25  H   UNL     1      -7.853  -7.154  -6.818  1.00  0.00     0.293 HD
ENDBRANCH   8  24
TORSDOF 5
ENDMDL
MODEL 2
REMARK VINA RESULT:    -6.600      2.937      7.070
REMARK INTER + INTRA:          -7.982
REMARK INTER:                  -7.720
REMARK INTRA:                  -0.263
REMARK UNBOUND:                -0.224
REMARK SMILES O=c1c(O)c(-c2ccc(O)cc2)oc2cc(O)cc(O)c12
REMARK SMILES IDX 5 1 3 2 2 3 1 4 21 5 19 6 18 7 16 8 15 9 14 10 13 11 6 12
REMARK SMILES IDX 7 13 8 14 9 15 12 16 11 17 10 18 4 20 20 22 17 24
REMARK H PARENT 10 19 4 21 20 23 17 25
REMARK Flexibility Score: inf
ROOT
ATOM      1  C   UNL     1      -2.153  -4.703  -4.488  1.00  0.00     0.180 A 
ATOM      2  C   UNL     1      -3.389  -5.365  -4.594  1.00  0.00     0.208 A 
ATOM      3  C   UNL     1      -4.543  -4.613  -4.865  1.00  0.00     0.238 A 
ATOM      4  O   UNL     1      -5.654  -5.203  -4.904  1.00  0.00    -0.285 OA
ATOM      5  C   UNL     1      -4.445  -3.212  -5.045  1.00  0.00     0.111 A 
ATOM      6  C   UNL     1      -5.543  -2.356  -5.364  1.00  0.00     0.134 A 
ATOM      7  C   UNL     1      -5.352  -0.969  -5.388  1.00  0.00     0.093 A 
ATOM      8  C   UNL     1      -4.090  -0.411  -5.171  1.00  0.00     0.123 A 
ATOM      9  C   UNL     1      -3.001  -1.241  -4.918  1.00  0.00     0.094 A 
ATOM     10  C   UNL     1      -3.167  -2.627  -4.851  1.00  0.00     0.146 A 
ATOM     11  O   UNL     1      -2.104  -3.381  -4.597  1.00  0.00    -0.452 OA
ENDROOT
BRANCH   1  12
ATOM     12  C   UNL     1      -0.890  -5.431  -4.229  1.00  0.00     0.021 A 
ATOM     13  C   UNL     1       0.015  -5.723  -5.267  1.00  0.00     0.016 A 
ATOM     14  C   UNL     1       1.213  -6.390  -4.993  1.00  0.00     0.047 A 
ATOM     15  C   UNL     1       1.530  -6.760  -3.683  1.00  0.00     0.115 A 
ATOM     16  C   UNL     1      -0.555  -5.788  -2.912  1.00  0.00     0.016 A 
ATOM     17  C   UNL     1       0.643  -6.455  -2.642  1.00  0.00     0.047 A 
BRANCH  15  18
ATOM     18  O   UNL     1       2.726  -7.425  -3.426  1.00  0.00    -0.508 OA
ATOM     19  H   UNL     1       2.740  -8.390  -3.119  1.00  0.00     0.293 HD
ENDBRANCH  15  18
ENDBRANCH   1  12
BRANCH   2  20
ATOM     20  O   UNL     1      -3.467  -6.746  -4.392  1.00  0.00    -0.502 OA
ATOM     21  H   UNL     1      -4.012  -7.157  -3.643  1.00  0.00     0.293 HD
ENDBRANCH   2  20
BRANCH   6  22
ATOM     22  O   UNL     1      -6.822  -2.817  -5.687  1.00  0.00    -0.507 OA
ATOM     23  H   UNL     1      -7.523  -2.275  -6.170  1.00  0.00     0.293 HD
ENDBRANCH   6  22
BRANCH   8  24
ATOM     24  O   UNL     1      -3.907   0.969  -5.214  1.00  0.00    -0.508 OA
ATOM     25  H   UNL     1      -4.652   1.595  -5.497  1.00  0.00     0.293 HD
ENDBRANCH   8  24
TORSDOF 5
ENDMDL
MODEL 3
REMARK VINA RESULT:    -6.486      2.151      6.334
REMARK INTER + INTRA:          -7.848
REMARK INTER:                  -7.560
REMARK INTRA:                  -0.288
REMARK UNBOUND:                -0.224
REMARK SMILES O=c1c(O)c(-c2ccc(O)cc2)oc2cc(O)cc(O)c12
REMARK SMILES IDX 5 1 3 2 2 3 1 4 21 5 19 6 18 7 16 8 15 9 14 10 13 11 6 12
REMARK SMILES IDX 7 13 8 14 9 15 12 16 11 17 10 18 4 20 20 22 17 24
REMARK H PARENT 10 19 4 21 20 23 17 25
REMARK Flexibility Score: inf
ROOT
ATOM      1  C   UNL     1      -4.285  -2.112  -5.106  1.00  0.00     0.180 A 
ATOM      2  C   UNL     1      -3.720  -0.846  -5.336  1.00  0.00     0.208 A 
ATOM      3  C   UNL     1      -4.533   0.293  -5.223  1.00  0.00     0.238 A 
ATOM      4  O   UNL     1      -4.035   1.420  -5.484  1.00  0.00    -0.285 OA
ATOM      5  C   UNL     1      -5.895   0.155  -4.863  1.00  0.00     0.111 A 
ATOM      6  C   UNL     1      -6.800   1.243  -4.680  1.00  0.00     0.134 A 
ATOM      7  C   UNL     1      -8.157   0.981  -4.454  1.00  0.00     0.093 A 
ATOM      8  C   UNL     1      -8.629  -0.328  -4.338  1.00  0.00     0.123 A 
ATOM      9  C   UNL     1      -7.743  -1.396  -4.457  1.00  0.00     0.094 A 
ATOM     10  C   UNL     1      -6.389  -1.167  -4.719  1.00  0.00     0.146 A 
ATOM     11  O   UNL     1      -5.581  -2.214  -4.835  1.00  0.00    -0.452 OA
ENDROOT
BRANCH   1  12
ATOM     12  C   UNL     1      -3.487  -3.357  -5.182  1.00  0.00     0.021 A 
ATOM     13  C   UNL     1      -2.710  -3.798  -4.094  1.00  0.00     0.016 A 
ATOM     14  C   UNL     1      -1.984  -4.990  -4.182  1.00  0.00     0.047 A 
ATOM     15  C   UNL     1      -2.034  -5.761  -5.347  1.00  0.00     0.115 A 
ATOM     16  C   UNL     1      -3.548  -4.147  -6.342  1.00  0.00     0.016 A 
ATOM     17  C   UNL     1      -2.820  -5.338  -6.427  1.00  0.00     0.047 A 
BRANCH  15  18
ATOM     18  O   UNL     1      -1.304  -6.945  -5.420  1.00  0.00    -0.508 OA
ATOM     19  H   UNL     1      -1.673  -7.767  -5.883  1.00  0.00     0.293 HD
ENDBRANCH  15  18
ENDBRANCH   1  12
BRANCH   2  20
ATOM     20  O   UNL     1      -2.378  -0.732  -5.711  1.00  0.00    -0.502 OA
ATOM     21  H   UNL     1      -1.617  -0.843  -5.051  1.00  0.00     0.293 HD
ENDBRANCH   2  20
BRANCH   6  22
ATOM     22  O   UNL     1      -6.416   2.587  -4.684  1.00  0.00    -0.507 OA
ATOM     23  H   UNL     1      -5.465   2.912  -4.774  1.00  0.00     0.293 HD
ENDBRANCH   6  22
BRANCH   8  24
ATOM     24  O   UNL     1      -9.978  -0.579  -4.097  1.00  0.00    -0.508 OA
ATOM     25  H   UNL     1     -10.636  -0.715  -4.856  1.00  0.00     0.293 HD
ENDBRANCH   8  24
TORSDOF 5
ENDMDL
MODEL 4
REMARK VINA RESULT:    -6.451      3.356      5.726
REMARK INTER + INTRA:          -7.806
REMARK INTER:                  -7.815
REMARK INTRA:                   0.008
REMARK UNBOUND:                -0.224
REMARK SMILES O=c1c(O)c(-c2ccc(O)cc2)oc2cc(O)cc(O)c12
REMARK SMILES IDX 5 1 3 2 2 3 1 4 21 5 19 6 18 7 16 8 15 9 14 10 13 11 6 12
REMARK SMILES IDX 7 13 8 14 9 15 12 16 11 17 10 18 4 20 20 22 17 24
REMARK H PARENT 10 19 4 21 20 23 17 25
REMARK Flexibility Score: inf
ROOT
ATOM      1  C   UNL     1      -6.766   2.643  -5.189  1.00  0.00     0.180 A 
ATOM      2  C   UNL     1      -7.432   1.776  -4.306  1.00  0.00     0.208 A 
ATOM      3  C   UNL     1      -6.867   0.521  -4.026  1.00  0.00     0.238 A 
ATOM      4  O   UNL     1      -7.496  -0.273  -3.279  1.00  0.00    -0.285 OA
ATOM      5  C   UNL     1      -5.634   0.156  -4.619  1.00  0.00     0.111 A 
ATOM      6  C   UNL     1      -4.950  -1.073  -4.375  1.00  0.00     0.134 A 
ATOM      7  C   UNL     1      -3.804  -1.383  -5.117  1.00  0.00     0.093 A 
ATOM      8  C   UNL     1      -3.280  -0.481  -6.045  1.00  0.00     0.123 A 
ATOM      9  C   UNL     1      -3.907   0.746  -6.247  1.00  0.00     0.094 A 
ATOM     10  C   UNL     1      -5.073   1.069  -5.548  1.00  0.00     0.146 A 
ATOM     11  O   UNL     1      -5.644   2.245  -5.779  1.00  0.00    -0.452 OA
ENDROOT
BRANCH   1  12
ATOM     12  C   UNL     1      -7.286   3.991  -5.512  1.00  0.00     0.021 A 
ATOM     13  C   UNL     1      -7.519   4.386  -6.843  1.00  0.00     0.016 A 
ATOM     14  C   UNL     1      -8.035   5.656  -7.122  1.00  0.00     0.047 A 
ATOM     15  C   UNL     1      -8.337   6.538  -6.081  1.00  0.00     0.115 A 
ATOM     16  C   UNL     1      -7.611   4.875  -4.470  1.00  0.00     0.016 A 
ATOM     17  C   UNL     1      -8.125   6.144  -4.753  1.00  0.00     0.047 A 
BRANCH  15  18
ATOM     18  O   UNL     1      -8.848   7.800  -6.375  1.00  0.00    -0.508 OA
ATOM     19  H   UNL     1      -8.406   8.644  -6.029  1.00  0.00     0.293 HD
ENDBRANCH  15  18
ENDBRANCH   1  12
BRANCH   2  20
ATOM     20  O   UNL     1      -8.660   2.147  -3.748  1.00  0.00    -0.502 OA
ATOM     21  H   UNL     1      -8.728   2.693  -2.897  1.00  0.00     0.293 HD
ENDBRANCH   2  20
BRANCH   6  22
ATOM     22  O   UNL     1      -5.337  -2.002  -3.405  1.00  0.00    -0.507 OA
ATOM     23  H   UNL     1      -6.285  -2.310  -3.251  1.00  0.00     0.293 HD
ENDBRANCH   6  22
BRANCH   8  24
ATOM     24  O   UNL     1      -2.129  -0.791  -6.767  1.00  0.00    -0.508 OA
ATOM     25  H   UNL     1      -1.820  -0.217  -7.543  1.00  0.00     0.293 HD
ENDBRANCH   8  24
TORSDOF 5
ENDMDL
MODEL 5
REMARK VINA RESULT:    -6.439      2.460      5.782
REMARK INTER + INTRA:          -7.793
REMARK INTER:                  -7.526
REMARK INTRA:                  -0.267
REMARK UNBOUND:                -0.224
REMARK SMILES O=c1c(O)c(-c2ccc(O)cc2)oc2cc(O)cc(O)c12
REMARK SMILES IDX 5 1 3 2 2 3 1 4 21 5 19 6 18 7 16 8 15 9 14 10 13 11 6 12
REMARK SMILES IDX 7 13 8 14 9 15 12 16 11 17 10 18 4 20 20 22 17 24
REMARK H PARENT 10 19 4 21 20 23 17 25
REMARK Flexibility Score: inf
ROOT
ATOM      1  C   UNL     1      -3.516  -3.156  -4.974  1.00  0.00     0.180 A 
ATOM      2  C   UNL     1      -3.527  -1.839  -4.484  1.00  0.00     0.208 A 
ATOM      3  C   UNL     1      -4.744  -1.142  -4.431  1.00  0.00     0.238 A 
ATOM      4  O   UNL     1      -4.739   0.056  -4.043  1.00  0.00    -0.285 OA
ATOM      5  C   UNL     1      -5.938  -1.774  -4.854  1.00  0.00     0.111 A 
ATOM      6  C   UNL     1      -7.234  -1.176  -4.806  1.00  0.00     0.134 A 
ATOM      7  C   UNL     1      -8.324  -1.847  -5.374  1.00  0.00     0.093 A 
ATOM      8  C   UNL     1      -8.179  -3.122  -5.926  1.00  0.00     0.123 A 
ATOM      9  C   UNL     1      -6.930  -3.739  -5.923  1.00  0.00     0.094 A 
ATOM     10  C   UNL     1      -5.815  -3.079  -5.398  1.00  0.00     0.146 A 
ATOM     11  O   UNL     1      -4.642  -3.699  -5.425  1.00  0.00    -0.452 OA
ENDROOT
BRANCH   1  12
ATOM     12  C   UNL     1      -2.277  -3.963  -5.037  1.00  0.00     0.021 A 
ATOM     13  C   UNL     1      -1.362  -3.822  -6.098  1.00  0.00     0.016 A 
ATOM     14  C   UNL     1      -0.186  -4.579  -6.121  1.00  0.00     0.047 A 
ATOM     15  C   UNL     1       0.098  -5.471  -5.084  1.00  0.00     0.115 A 
ATOM     16  C   UNL     1      -1.974  -4.847  -3.988  1.00  0.00     0.016 A 
ATOM     17  C   UNL     1      -0.798  -5.603  -4.015  1.00  0.00     0.047 A 
BRANCH  15  18
ATOM     18  O   UNL     1       1.273  -6.219  -5.123  1.00  0.00    -0.508 OA
ATOM     19  H   UNL     1       2.162  -5.823  -4.841  1.00  0.00     0.293 HD
ENDBRANCH  15  18
ENDBRANCH   1  12
BRANCH   2  20
ATOM     20  O   UNL     1      -2.334  -1.225  -4.091  1.00  0.00    -0.502 OA
ATOM     21  H   UNL     1      -1.927  -0.451  -4.603  1.00  0.00     0.293 HD
ENDBRANCH   2  20
BRANCH   6  22
ATOM     22  O   UNL     1      -7.504   0.051  -4.196  1.00  0.00    -0.507 OA
ATOM     23  H   UNL     1      -7.852   0.868  -4.677  1.00  0.00     0.293 HD
ENDBRANCH   6  22
BRANCH   8  24
ATOM     24  O   UNL     1      -9.272  -3.789  -6.473  1.00  0.00    -0.508 OA
ATOM     25  H   UNL     1     -10.118  -3.949  -5.937  1.00  0.00     0.293 HD
ENDBRANCH   8  24
TORSDOF 5
ENDMDL
MODEL 6
REMARK VINA RESULT:    -6.429      4.028      6.029
REMARK INTER + INTRA:          -7.781
REMARK INTER:                  -7.506
REMARK INTRA:                  -0.275
REMARK UNBOUND:                -0.224
REMARK SMILES O=c1c(O)c(-c2ccc(O)cc2)oc2cc(O)cc(O)c12
REMARK SMILES IDX 5 1 3 2 2 3 1 4 21 5 19 6 18 7 16 8 15 9 14 10 13 11 6 12
REMARK SMILES IDX 7 13 8 14 9 15 12 16 11 17 10 18 4 20 20 22 17 24
REMARK H PARENT 10 19 4 21 20 23 17 25
REMARK Flexibility Score: inf
ROOT
ATOM      1  C   UNL     1      -1.600  -5.216  -4.268  1.00  0.00     0.180 A 
ATOM      2  C   UNL     1      -0.525  -5.141  -5.170  1.00  0.00     0.208 A 
ATOM      3  C   UNL     1       0.658  -5.839  -4.879  1.00  0.00     0.238 A 
ATOM      4  O   UNL     1       1.637  -5.724  -5.663  1.00  0.00    -0.285 OA
ATOM      5  C   UNL     1       0.747  -6.616  -3.699  1.00  0.00     0.111 A 
ATOM      6  C   UNL     1       1.882  -7.396  -3.325  1.00  0.00     0.134 A 
ATOM      7  C   UNL     1       1.908  -8.019  -2.071  1.00  0.00     0.093 A 
ATOM      8  C   UNL     1       0.813  -7.946  -1.207  1.00  0.00     0.123 A 
ATOM      9  C   UNL     1      -0.323  -7.237  -1.588  1.00  0.00     0.094 A 
ATOM     10  C   UNL     1      -0.364  -6.573  -2.818  1.00  0.00     0.146 A 
ATOM     11  O   UNL     1      -1.463  -5.900  -3.137  1.00  0.00    -0.452 OA
ENDROOT
BRANCH   1  12
ATOM     12  C   UNL     1      -2.887  -4.529  -4.518  1.00  0.00     0.021 A 
ATOM     13  C   UNL     1      -3.989  -5.213  -5.066  1.00  0.00     0.016 A 
ATOM     14  C   UNL     1      -5.202  -4.548  -5.270  1.00  0.00     0.047 A 
ATOM     15  C   UNL     1      -5.336  -3.201  -4.918  1.00  0.00     0.115 A 
ATOM     16  C   UNL     1      -3.035  -3.181  -4.148  1.00  0.00     0.016 A 
ATOM     17  C   UNL     1      -4.249  -2.520  -4.354  1.00  0.00     0.047 A 
BRANCH  15  18
ATOM     18  O   UNL     1      -6.550  -2.552  -5.129  1.00  0.00    -0.508 OA
ATOM     19  H   UNL     1      -6.686  -1.925  -5.913  1.00  0.00     0.293 HD
ENDBRANCH  15  18
ENDBRANCH   1  12
BRANCH   2  20
ATOM     20  O   UNL     1      -0.625  -4.351  -6.319  1.00  0.00    -0.502 OA
ATOM     21  H   UNL     1      -1.287  -3.589  -6.399  1.00  0.00     0.293 HD
ENDBRANCH   2  20
BRANCH   6  22
ATOM     22  O   UNL     1       2.989  -7.610  -4.151  1.00  0.00    -0.507 OA
ATOM     23  H   UNL     1       3.459  -6.890  -4.679  1.00  0.00     0.293 HD
ENDBRANCH   6  22
BRANCH   8  24
ATOM     24  O   UNL     1       0.841  -8.583   0.032  1.00  0.00    -0.508 OA
ATOM     25  H   UNL     1       1.184  -9.532   0.132  1.00  0.00     0.293 HD
ENDBRANCH   8  24
TORSDOF 5
ENDMDL
MODEL 7
REMARK VINA RESULT:    -6.374      2.156      6.574
REMARK INTER + INTRA:          -7.716
REMARK INTER:                  -7.517
REMARK INTRA:                  -0.200
REMARK UNBOUND:                -0.224
REMARK SMILES O=c1c(O)c(-c2ccc(O)cc2)oc2cc(O)cc(O)c12
REMARK SMILES IDX 5 1 3 2 2 3 1 4 21 5 19 6 18 7 16 8 15 9 14 10 13 11 6 12
REMARK SMILES IDX 7 13 8 14 9 15 12 16 11 17 10 18 4 20 20 22 17 24
REMARK H PARENT 10 19 4 21 20 23 17 25
REMARK Flexibility Score: inf
ROOT
ATOM      1  C   UNL     1      -3.338  -3.328  -4.750  1.00  0.00     0.180 A 
ATOM      2  C   UNL     1      -2.611  -2.386  -5.497  1.00  0.00     0.208 A 
ATOM      3  C   UNL     1      -3.128  -1.089  -5.646  1.00  0.00     0.238 A 
ATOM      4  O   UNL     1      -2.499  -0.266  -6.362  1.00  0.00    -0.285 OA
ATOM      5  C   UNL     1      -4.356  -0.744  -5.033  1.00  0.00     0.111 A 
ATOM      6  C   UNL     1      -4.953   0.551  -5.084  1.00  0.00     0.134 A 
ATOM      7  C   UNL     1      -6.234   0.741  -4.551  1.00  0.00     0.093 A 
ATOM      8  C   UNL     1      -6.911  -0.299  -3.911  1.00  0.00     0.123 A 
ATOM      9  C   UNL     1      -6.312  -1.552  -3.804  1.00  0.00     0.094 A 
ATOM     10  C   UNL     1      -5.049  -1.783  -4.358  1.00  0.00     0.146 A 
ATOM     11  O   UNL     1      -4.519  -2.994  -4.242  1.00  0.00    -0.452 OA
ENDROOT
BRANCH   1  12
ATOM     12  C   UNL     1      -2.846  -4.707  -4.528  1.00  0.00     0.021 A 
ATOM     13  C   UNL     1      -3.421  -5.806  -5.193  1.00  0.00     0.016 A 
ATOM     14  C   UNL     1      -2.922  -7.096  -4.985  1.00  0.00     0.047 A 
ATOM     15  C   UNL     1      -1.839  -7.303  -4.125  1.00  0.00     0.115 A 
ATOM     16  C   UNL     1      -1.745  -4.920  -3.681  1.00  0.00     0.016 A 
ATOM     17  C   UNL     1      -1.250  -6.211  -3.475  1.00  0.00     0.047 A 
BRANCH  15  18
ATOM     18  O   UNL     1      -1.355  -8.594  -3.927  1.00  0.00    -0.508 OA
ATOM     19  H   UNL     1      -1.964  -9.348  -3.632  1.00  0.00     0.293 HD
ENDBRANCH  15  18
ENDBRANCH   1  12
BRANCH   2  20
ATOM     20  O   UNL     1      -1.410  -2.752  -6.113  1.00  0.00    -0.502 OA
ATOM     21  H   UNL     1      -1.173  -2.467  -7.056  1.00  0.00     0.293 HD
ENDBRANCH   2  20
BRANCH   6  22
ATOM     22  O   UNL     1      -4.325   1.679  -5.618  1.00  0.00    -0.507 OA
ATOM     23  H   UNL     1      -3.746   2.318  -5.092  1.00  0.00     0.293 HD
ENDBRANCH   6  22
BRANCH   8  24
ATOM     24  O   UNL     1      -8.179  -0.096  -3.370  1.00  0.00    -0.508 OA
ATOM     25  H   UNL     1      -8.849  -0.853  -3.290  1.00  0.00     0.293 HD
ENDBRANCH   8  24
TORSDOF 5
ENDMDL
MODEL 8
REMARK VINA RESULT:    -6.293      2.219      4.009
REMARK INTER + INTRA:          -7.621
REMARK INTER:                  -7.327
REMARK INTRA:                  -0.294
REMARK UNBOUND:                -0.224
REMARK SMILES O=c1c(O)c(-c2ccc(O)cc2)oc2cc(O)cc(O)c12
REMARK SMILES IDX 5 1 3 2 2 3 1 4 21 5 19 6 18 7 16 8 15 9 14 10 13 11 6 12
REMARK SMILES IDX 7 13 8 14 9 15 12 16 11 17 10 18 4 20 20 22 17 24
REMARK H PARENT 10 19 4 21 20 23 17 25
REMARK Flexibility Score: inf
ROOT
ATOM      1  C   UNL     1      -3.253  -3.542  -5.073  1.00  0.00     0.180 A 
ATOM      2  C   UNL     1      -3.754  -4.531  -5.937  1.00  0.00     0.208 A 
ATOM      3  C   UNL     1      -3.338  -5.861  -5.764  1.00  0.00     0.238 A 
ATOM      4  O   UNL     1      -3.747  -6.733  -6.575  1.00  0.00    -0.285 OA
ATOM      5  C   UNL     1      -2.440  -6.188  -4.720  1.00  0.00     0.111 A 
ATOM      6  C   UNL     1      -1.983  -7.509  -4.427  1.00  0.00     0.134 A 
ATOM      7  C   UNL     1      -0.994  -7.696  -3.454  1.00  0.00     0.093 A 
ATOM      8  C   UNL     1      -0.494  -6.620  -2.717  1.00  0.00     0.123 A 
ATOM      9  C   UNL     1      -0.976  -5.336  -2.955  1.00  0.00     0.094 A 
ATOM     10  C   UNL     1      -1.937  -5.111  -3.945  1.00  0.00     0.146 A 
ATOM     11  O   UNL     1      -2.362  -3.870  -4.145  1.00  0.00    -0.452 OA
ENDROOT
BRANCH   1  12
ATOM     12  C   UNL     1      -3.664  -2.123  -5.178  1.00  0.00     0.021 A 
ATOM     13  C   UNL     1      -4.751  -1.619  -4.439  1.00  0.00     0.016 A 
ATOM     14  C   UNL     1      -5.105  -0.269  -4.536  1.00  0.00     0.047 A 
ATOM     15  C   UNL     1      -4.373   0.594  -5.357  1.00  0.00     0.115 A 
ATOM     16  C   UNL     1      -2.921  -1.245  -5.985  1.00  0.00     0.016 A 
ATOM     17  C   UNL     1      -3.278   0.103  -6.080  1.00  0.00     0.047 A 
BRANCH  15  18
ATOM     18  O   UNL     1      -4.739   1.935  -5.444  1.00  0.00    -0.508 OA
ATOM     19  H   UNL     1      -5.693   2.211  -5.645  1.00  0.00     0.293 HD
ENDBRANCH  15  18
ENDBRANCH   1  12
BRANCH   2  20
ATOM     20  O   UNL     1      -4.623  -4.183  -6.976  1.00  0.00    -0.502 OA
ATOM     21  H   UNL     1      -5.621  -4.078  -6.837  1.00  0.00     0.293 HD
ENDBRANCH   2  20
BRANCH   6  22
ATOM     22  O   UNL     1      -2.484  -8.661  -5.039  1.00  0.00    -0.507 OA
ATOM     23  H   UNL     1      -1.926  -9.329  -5.549  1.00  0.00     0.293 HD
ENDBRANCH   6  22
BRANCH   8  24
ATOM     24  O   UNL     1       0.479  -6.819  -1.740  1.00  0.00    -0.508 OA
ATOM     25  H   UNL     1       1.383  -7.219  -1.964  1.00  0.00     0.293 HD
ENDBRANCH   8  24
TORSDOF 5
ENDMDL
MODEL 9
REMARK VINA RESULT:    -6.124      6.746      9.893
REMARK INTER + INTRA:          -7.423
REMARK INTER:                  -7.208
REMARK INTRA:                  -0.214
REMARK UNBOUND:                -0.224
REMARK SMILES O=c1c(O)c(-c2ccc(O)cc2)oc2cc(O)cc(O)c12
REMARK SMILES IDX 5 1 3 2 2 3 1 4 21 5 19 6 18 7 16 8 15 9 14 10 13 11 6 12
REMARK SMILES IDX 7 13 8 14 9 15 12 16 11 17 10 18 4 20 20 22 17 24
REMARK H PARENT 10 19 4 21 20 23 17 25
REMARK Flexibility Score: inf
ROOT
ATOM      1  C   UNL     1       1.886  -7.326  -1.799  1.00  0.00     0.180 A 
ATOM      2  C   UNL     1       2.570  -7.678  -2.975  1.00  0.00     0.208 A 
ATOM      3  C   UNL     1       2.099  -7.196  -4.207  1.00  0.00     0.238 A 
ATOM      4  O   UNL     1       2.683  -7.559  -5.262  1.00  0.00    -0.285 OA
ATOM      5  C   UNL     1       0.960  -6.356  -4.247  1.00  0.00     0.111 A 
ATOM      6  C   UNL     1       0.419  -5.778  -5.435  1.00  0.00     0.134 A 
ATOM      7  C   UNL     1      -0.787  -5.071  -5.370  1.00  0.00     0.093 A 
ATOM      8  C   UNL     1      -1.437  -4.863  -4.151  1.00  0.00     0.123 A 
ATOM      9  C   UNL     1      -0.886  -5.372  -2.978  1.00  0.00     0.094 A 
ATOM     10  C   UNL     1       0.298  -6.114  -3.015  1.00  0.00     0.146 A 
ATOM     11  O   UNL     1       0.783  -6.590  -1.875  1.00  0.00    -0.452 OA
ENDROOT
BRANCH   1  12
ATOM     12  C   UNL     1       2.337  -7.774  -0.461  1.00  0.00     0.021 A 
ATOM     13  C   UNL     1       3.509  -7.262   0.126  1.00  0.00     0.016 A 
ATOM     14  C   UNL     1       3.901  -7.683   1.401  1.00  0.00     0.047 A 
ATOM     15  C   UNL     1       3.124  -8.605   2.109  1.00  0.00     0.115 A 
ATOM     16  C   UNL     1       1.550  -8.684   0.264  1.00  0.00     0.016 A 
ATOM     17  C   UNL     1       1.946  -9.103   1.538  1.00  0.00     0.047 A 
BRANCH  15  18
ATOM     18  O   UNL     1       3.529  -9.015   3.377  1.00  0.00    -0.508 OA
ATOM     19  H   UNL     1       2.857  -9.193   4.115  1.00  0.00     0.293 HD
ENDBRANCH  15  18
ENDBRANCH   1  12
BRANCH   2  20
ATOM     20  O   UNL     1       3.680  -8.526  -2.917  1.00  0.00    -0.502 OA
ATOM     21  H   UNL     1       4.556  -8.247  -2.492  1.00  0.00     0.293 HD
ENDBRANCH   2  20
BRANCH   6  22
ATOM     22  O   UNL     1       1.037  -5.848  -6.687  1.00  0.00    -0.507 OA
ATOM     23  H   UNL     1       0.953  -6.624  -7.326  1.00  0.00     0.293 HD
ENDBRANCH   6  22
BRANCH   8  24
ATOM     24  O   UNL     1      -2.628  -4.143  -4.094  1.00  0.00    -0.508 OA
ATOM     25  H   UNL     1      -3.152  -4.052  -3.231  1.00  0.00     0.293 HD
ENDBRANCH   8  24
TORSDOF 5
ENDMDL
