MODEL 1
REMARK VINA RESULT:    -4.365      0.000      0.000
REMARK INTER + INTRA:         -11.202
REMARK INTER:                  -8.448
REMARK INTRA:                  -2.755
REMARK UNBOUND:                -2.755
REMARK SMILES CCCCCCCCCCCCCCCCCC(=O)[O-]
REMARK SMILES IDX 10 1 11 2 12 3 13 4 14 5 15 6 16 7 17 8 18 9 19 10 20 11
REMARK SMILES IDX 9 12 8 13 7 14 6 15 5 16 4 17 3 18 2 19 1 20
REMARK H PARENT
REMARK Flexibility Score: inf
ROOT
ATOM      1  C   UNL     1     -17.823  43.931  31.539  1.00  0.00     0.000 C 
ENDROOT
BRANCH   1   2
ATOM      2  C   UNL     1     -17.148  45.061  30.746  1.00  0.00     0.000 C 
BRANCH   2   3
ATOM      3  C   UNL     1     -16.308  44.497  29.594  1.00  0.00     0.000 C 
BRANCH   3   4
ATOM      4  C   UNL     1     -14.900  44.116  30.073  1.00  0.00     0.000 C 
BRANCH   4   5
ATOM      5  C   UNL     1     -14.413  42.788  29.456  1.00  0.00     0.000 C 
BRANCH   5   6
ATOM      6  C   UNL     1     -14.754  41.553  30.308  1.00  0.00     0.000 C 
BRANCH   6   7
ATOM      7  C   UNL     1     -16.150  40.985  30.004  1.00  0.00     0.006 C 
BRANCH   7   8
ATOM      8  C   UNL     1     -16.719  40.183  31.182  1.00  0.00     0.053 C 
BRANCH   8   9
ATOM      9  C   UNL     1     -16.730  38.713  30.896  1.00  0.00     0.041 C 
ATOM     10  O   UNL     1     -17.749  38.023  31.158  1.00  0.00    -0.550 OA
ATOM     11  O   UNL     1     -15.599  38.098  30.372  1.00  0.00    -0.550 OA
ENDBRANCH   8   9
ENDBRANCH   7   8
ENDBRANCH   6   7
ENDBRANCH   5   6
ENDBRANCH   4   5
ENDBRANCH   3   4
ENDBRANCH   2   3
ENDBRANCH   1   2
BRANCH   1  12
ATOM     12  C   UNL     1     -17.430  43.940  33.025  1.00  0.00     0.000 C 
BRANCH  12  13
ATOM     13  C   UNL     1     -16.340  42.905  33.356  1.00  0.00    -0.000 C 
BRANCH  13  14
ATOM     14  C   UNL     1     -15.227  43.500  34.245  1.00  0.00    -0.000 C 
BRANCH  14  15
ATOM     15  C   UNL     1     -14.890  44.964  33.912  1.00  0.00    -0.000 C 
BRANCH  15  16
ATOM     16  C   UNL     1     -13.574  45.114  33.136  1.00  0.00    -0.000 C 
BRANCH  16  17
ATOM     17  C   UNL     1     -12.675  43.888  33.333  1.00  0.00    -0.000 C 
BRANCH  17  18
ATOM     18  C   UNL     1     -11.532  43.874  32.305  1.00  0.00    -0.000 C 
BRANCH  18  19
ATOM     19  C   UNL     1     -11.451  42.550  31.530  1.00  0.00    -0.003 C 
ATOM     20  C   UNL     1     -10.949  41.391  32.390  1.00  0.00     0.004 C 
ENDBRANCH  18  19
ENDBRANCH  17  18
ENDBRANCH  16  17
ENDBRANCH  15  16
ENDBRANCH  14  15
ENDBRANCH  13  14
ENDBRANCH  12  13
ENDBRANCH   1  12
TORSDOF 16
ENDMDL
MODEL 2
REMARK VINA RESULT:    -4.346      1.259      3.602
REMARK INTER + INTRA:         -11.165
REMARK INTER:                  -8.920
REMARK INTRA:                  -2.246
REMARK UNBOUND:                -2.755
REMARK SMILES CCCCCCCCCCCCCCCCCC(=O)[O-]
REMARK SMILES IDX 10 1 11 2 12 3 13 4 14 5 15 6 16 7 17 8 18 9 19 10 20 11
REMARK SMILES IDX 9 12 8 13 7 14 6 15 5 16 4 17 3 18 2 19 1 20
REMARK H PARENT
REMARK Flexibility Score: inf
ROOT
ATOM      1  C   UNL     1     -16.323  44.364  29.394  1.00  0.00     0.000 C 
ENDROOT
BRANCH   1   2
ATOM      2  C   UNL     1     -17.125  45.139  30.450  1.00  0.00     0.000 C 
BRANCH   2   3
ATOM      3  C   UNL     1     -17.173  44.371  31.776  1.00  0.00     0.000 C 
BRANCH   3   4
ATOM      4  C   UNL     1     -18.616  43.997  32.145  1.00  0.00     0.000 C 
BRANCH   4   5
ATOM      5  C   UNL     1     -18.681  42.769  33.078  1.00  0.00     0.000 C 
BRANCH   5   6
ATOM      6  C   UNL     1     -17.310  42.348  33.634  1.00  0.00     0.000 C 
BRANCH   6   7
ATOM      7  C   UNL     1     -16.754  41.084  32.958  1.00  0.00     0.006 C 
BRANCH   7   8
ATOM      8  C   UNL     1     -17.838  40.312  32.192  1.00  0.00     0.053 C 
BRANCH   8   9
ATOM      9  C   UNL     1     -17.258  39.172  31.412  1.00  0.00     0.041 C 
ATOM     10  O   UNL     1     -17.916  38.111  31.255  1.00  0.00    -0.550 OA
ATOM     11  O   UNL     1     -15.975  39.270  30.888  1.00  0.00    -0.550 OA
ENDBRANCH   8   9
ENDBRANCH   7   8
ENDBRANCH   6   7
ENDBRANCH   5   6
ENDBRANCH   4   5
ENDBRANCH   3   4
ENDBRANCH   2   3
ENDBRANCH   1   2
BRANCH   1  12
ATOM     12  C   UNL     1     -15.716  43.067  29.952  1.00  0.00     0.000 C 
BRANCH  12  13
ATOM     13  C   UNL     1     -14.209  42.946  29.661  1.00  0.00    -0.000 C 
BRANCH  13  14
ATOM     14  C   UNL     1     -13.426  44.189  30.138  1.00  0.00    -0.000 C 
BRANCH  14  15
ATOM     15  C   UNL     1     -12.171  43.846  30.960  1.00  0.00    -0.000 C 
BRANCH  15  16
ATOM     16  C   UNL     1     -12.469  43.651  32.453  1.00  0.00    -0.000 C 
BRANCH  16  17
ATOM     17  C   UNL     1     -13.291  44.820  33.010  1.00  0.00    -0.000 C 
BRANCH  17  18
ATOM     18  C   UNL     1     -14.157  44.367  34.195  1.00  0.00    -0.000 C 
BRANCH  18  19
ATOM     19  C   UNL     1     -15.110  45.468  34.684  1.00  0.00    -0.003 C 
ATOM     20  C   UNL     1     -14.396  46.556  35.485  1.00  0.00     0.004 C 
ENDBRANCH  18  19
ENDBRANCH  17  18
ENDBRANCH  16  17
ENDBRANCH  15  16
ENDBRANCH  14  15
ENDBRANCH  13  14
ENDBRANCH  12  13
ENDBRANCH   1  12
TORSDOF 16
ENDMDL
MODEL 3
REMARK VINA RESULT:    -4.322      1.377      4.512
REMARK INTER + INTRA:         -11.118
REMARK INTER:                  -8.378
REMARK INTRA:                  -2.741
REMARK UNBOUND:                -2.755
REMARK SMILES CCCCCCCCCCCCCCCCCC(=O)[O-]
REMARK SMILES IDX 10 1 11 2 12 3 13 4 14 5 15 6 16 7 17 8 18 9 19 10 20 11
REMARK SMILES IDX 9 12 8 13 7 14 6 15 5 16 4 17 3 18 2 19 1 20
REMARK H PARENT
REMARK Flexibility Score: inf
ROOT
ATOM      1  C   UNL     1     -10.768  44.065  30.865  1.00  0.00     0.000 C 
ENDROOT
BRANCH   1   2
ATOM      2  C   UNL     1     -10.451  42.572  30.692  1.00  0.00     0.000 C 
BRANCH   2   3
ATOM      3  C   UNL     1     -10.480  41.844  32.041  1.00  0.00     0.000 C 
BRANCH   3   4
ATOM      4  C   UNL     1     -11.897  41.353  32.373  1.00  0.00     0.000 C 
BRANCH   4   5
ATOM      5  C   UNL     1     -12.698  40.983  31.107  1.00  0.00     0.000 C 
BRANCH   5   6
ATOM      6  C   UNL     1     -14.148  41.496  31.124  1.00  0.00     0.000 C 
BRANCH   6   7
ATOM      7  C   UNL     1     -15.174  40.396  30.809  1.00  0.00     0.006 C 
BRANCH   7   8
ATOM      8  C   UNL     1     -16.615  40.853  31.078  1.00  0.00     0.053 C 
BRANCH   8   9
ATOM      9  C   UNL     1     -17.328  39.917  32.005  1.00  0.00     0.041 C 
ATOM     10  O   UNL     1     -17.325  40.127  33.246  1.00  0.00    -0.550 OA
ATOM     11  O   UNL     1     -17.966  38.791  31.499  1.00  0.00    -0.550 OA
ENDBRANCH   8   9
ENDBRANCH   7   8
ENDBRANCH   6   7
ENDBRANCH   5   6
ENDBRANCH   4   5
ENDBRANCH   3   4
ENDBRANCH   2   3
ENDBRANCH   1   2
BRANCH   1  12
ATOM     12  C   UNL     1     -12.003  44.501  30.060  1.00  0.00     0.000 C 
BRANCH  12  13
ATOM     13  C   UNL     1     -13.239  44.726  30.949  1.00  0.00    -0.000 C 
BRANCH  13  14
ATOM     14  C   UNL     1     -12.870  44.815  32.445  1.00  0.00    -0.000 C 
BRANCH  14  15
ATOM     15  C   UNL     1     -14.083  45.028  33.367  1.00  0.00    -0.000 C 
BRANCH  15  16
ATOM     16  C   UNL     1     -14.481  43.761  34.136  1.00  0.00    -0.000 C 
BRANCH  16  17
ATOM     17  C   UNL     1     -15.922  43.347  33.810  1.00  0.00    -0.000 C 
BRANCH  17  18
ATOM     18  C   UNL     1     -16.765  44.567  33.406  1.00  0.00    -0.000 C 
BRANCH  18  19
ATOM     19  C   UNL     1     -17.637  44.297  32.169  1.00  0.00    -0.003 C 
ATOM     20  C   UNL     1     -17.016  44.833  30.880  1.00  0.00     0.004 C 
ENDBRANCH  18  19
ENDBRANCH  17  18
ENDBRANCH  16  17
ENDBRANCH  15  16
ENDBRANCH  14  15
ENDBRANCH  13  14
ENDBRANCH  12  13
ENDBRANCH   1  12
TORSDOF 16
ENDMDL
MODEL 4
REMARK VINA RESULT:    -4.317      3.225      5.134
REMARK INTER + INTRA:         -11.110
REMARK INTER:                  -8.263
REMARK INTRA:                  -2.847
REMARK UNBOUND:                -2.755
REMARK SMILES CCCCCCCCCCCCCCCCCC(=O)[O-]
REMARK SMILES IDX 10 1 11 2 12 3 13 4 14 5 15 6 16 7 17 8 18 9 19 10 20 11
REMARK SMILES IDX 9 12 8 13 7 14 6 15 5 16 4 17 3 18 2 19 1 20
REMARK H PARENT
REMARK Flexibility Score: inf
ROOT
ATOM      1  C   UNL     1     -19.188  43.636  33.636  1.00  0.00     0.000 C 
ENDROOT
BRANCH   1   2
ATOM      2  C   UNL     1     -18.338  44.404  32.612  1.00  0.00     0.000 C 
BRANCH   2   3
ATOM      3  C   UNL     1     -18.103  43.563  31.352  1.00  0.00     0.000 C 
BRANCH   3   4
ATOM      4  C   UNL     1     -16.964  44.146  30.504  1.00  0.00     0.000 C 
BRANCH   4   5
ATOM      5  C   UNL     1     -15.731  44.515  31.357  1.00  0.00     0.000 C 
BRANCH   5   6
ATOM      6  C   UNL     1     -14.780  43.332  31.606  1.00  0.00     0.000 C 
BRANCH   6   7
ATOM      7  C   UNL     1     -14.635  42.987  33.097  1.00  0.00     0.006 C 
BRANCH   7   8
ATOM      8  C   UNL     1     -15.139  44.117  34.006  1.00  0.00     0.053 C 
BRANCH   8   9
ATOM      9  C   UNL     1     -14.028  45.036  34.411  1.00  0.00     0.041 C 
ATOM     10  O   UNL     1     -14.263  46.030  35.148  1.00  0.00    -0.550 OA
ATOM     11  O   UNL     1     -12.737  44.813  33.947  1.00  0.00    -0.550 OA
ENDBRANCH   8   9
ENDBRANCH   7   8
ENDBRANCH   6   7
ENDBRANCH   5   6
ENDBRANCH   4   5
ENDBRANCH   3   4
ENDBRANCH   2   3
ENDBRANCH   1   2
BRANCH   1  12
ATOM     12  C   UNL     1     -19.045  42.112  33.495  1.00  0.00     0.000 C 
BRANCH  12  13
ATOM     13  C   UNL     1     -17.860  41.552  34.300  1.00  0.00    -0.000 C 
BRANCH  13  14
ATOM     14  C   UNL     1     -17.147  40.401  33.558  1.00  0.00    -0.000 C 
BRANCH  14  15
ATOM     15  C   UNL     1     -17.832  40.004  32.238  1.00  0.00    -0.000 C 
BRANCH  15  16
ATOM     16  C   UNL     1     -16.863  39.371  31.229  1.00  0.00    -0.000 C 
BRANCH  16  17
ATOM     17  C   UNL     1     -16.267  40.432  30.297  1.00  0.00    -0.000 C 
BRANCH  17  18
ATOM     18  C   UNL     1     -14.819  40.081  29.920  1.00  0.00    -0.000 C 
BRANCH  18  19
ATOM     19  C   UNL     1     -14.436  40.582  28.518  1.00  0.00    -0.003 C 
ATOM     20  C   UNL     1     -15.121  41.898  28.153  1.00  0.00     0.004 C 
ENDBRANCH  18  19
ENDBRANCH  17  18
ENDBRANCH  16  17
ENDBRANCH  15  16
ENDBRANCH  14  15
ENDBRANCH  13  14
ENDBRANCH  12  13
ENDBRANCH   1  12
TORSDOF 16
ENDMDL
MODEL 5
REMARK VINA RESULT:    -4.302      3.135      5.661
REMARK INTER + INTRA:         -11.081
REMARK INTER:                  -8.765
REMARK INTRA:                  -2.316
REMARK UNBOUND:                -2.755
REMARK SMILES CCCCCCCCCCCCCCCCCC(=O)[O-]
REMARK SMILES IDX 10 1 11 2 12 3 13 4 14 5 15 6 16 7 17 8 18 9 19 10 20 11
REMARK SMILES IDX 9 12 8 13 7 14 6 15 5 16 4 17 3 18 2 19 1 20
REMARK H PARENT
REMARK Flexibility Score: inf
ROOT
ATOM      1  C   UNL     1     -15.484  41.142  31.426  1.00  0.00     0.000 C 
ENDROOT
BRANCH   1   2
ATOM      2  C   UNL     1     -14.632  41.398  30.174  1.00  0.00     0.000 C 
BRANCH   2   3
ATOM      3  C   UNL     1     -13.166  41.648  30.548  1.00  0.00     0.000 C 
BRANCH   3   4
ATOM      4  C   UNL     1     -12.521  42.670  29.600  1.00  0.00     0.000 C 
BRANCH   4   5
ATOM      5  C   UNL     1     -12.848  44.124  30.000  1.00  0.00     0.000 C 
BRANCH   5   6
ATOM      6  C   UNL     1     -12.491  44.455  31.459  1.00  0.00     0.000 C 
BRANCH   6   7
ATOM      7  C   UNL     1     -13.719  44.840  32.301  1.00  0.00     0.006 C 
BRANCH   7   8
ATOM      8  C   UNL     1     -13.410  44.848  33.805  1.00  0.00     0.053 C 
BRANCH   8   9
ATOM      9  C   UNL     1     -14.507  45.498  34.591  1.00  0.00     0.041 C 
ATOM     10  O   UNL     1     -14.234  46.340  35.486  1.00  0.00    -0.550 OA
ATOM     11  O   UNL     1     -15.832  45.148  34.356  1.00  0.00    -0.550 OA
ENDBRANCH   8   9
ENDBRANCH   7   8
ENDBRANCH   6   7
ENDBRANCH   5   6
ENDBRANCH   4   5
ENDBRANCH   3   4
ENDBRANCH   2   3
ENDBRANCH   1   2
BRANCH   1  12
ATOM     12  C   UNL     1     -16.749  40.324  31.120  1.00  0.00     0.000 C 
BRANCH  12  13
ATOM     13  C   UNL     1     -17.680  40.196  32.338  1.00  0.00    -0.000 C 
BRANCH  13  14
ATOM     14  C   UNL     1     -17.074  40.843  33.602  1.00  0.00    -0.000 C 
BRANCH  14  15
ATOM     15  C   UNL     1     -18.001  41.872  34.272  1.00  0.00    -0.000 C 
BRANCH  15  16
ATOM     16  C   UNL     1     -19.092  42.398  33.328  1.00  0.00    -0.000 C 
BRANCH  16  17
ATOM     17  C   UNL     1     -18.718  43.775  32.767  1.00  0.00    -0.000 C 
BRANCH  17  18
ATOM     18  C   UNL     1     -18.100  43.648  31.366  1.00  0.00    -0.000 C 
BRANCH  18  19
ATOM     19  C   UNL     1     -17.119  44.788  31.049  1.00  0.00    -0.003 C 
ATOM     20  C   UNL     1     -16.630  44.761  29.601  1.00  0.00     0.004 C 
ENDBRANCH  18  19
ENDBRANCH  17  18
ENDBRANCH  16  17
ENDBRANCH  15  16
ENDBRANCH  14  15
ENDBRANCH  13  14
ENDBRANCH  12  13
ENDBRANCH   1  12
TORSDOF 16
ENDMDL
MODEL 6
REMARK VINA RESULT:    -4.184      2.402      4.847
REMARK INTER + INTRA:         -10.852
REMARK INTER:                  -8.353
REMARK INTRA:                  -2.500
REMARK UNBOUND:                -2.755
REMARK SMILES CCCCCCCCCCCCCCCCCC(=O)[O-]
REMARK SMILES IDX 10 1 11 2 12 3 13 4 14 5 15 6 16 7 17 8 18 9 19 10 20 11
REMARK SMILES IDX 9 12 8 13 7 14 6 15 5 16 4 17 3 18 2 19 1 20
REMARK H PARENT
REMARK Flexibility Score: inf
ROOT
ATOM      1  C   UNL     1     -16.651  40.047  31.181  1.00  0.00     0.000 C 
ENDROOT
BRANCH   1   2
ATOM      2  C   UNL     1     -16.360  41.431  30.580  1.00  0.00     0.000 C 
BRANCH   2   3
ATOM      3  C   UNL     1     -14.957  41.914  30.966  1.00  0.00     0.000 C 
BRANCH   3   4
ATOM      4  C   UNL     1     -14.326  42.736  29.833  1.00  0.00     0.000 C 
BRANCH   4   5
ATOM      5  C   UNL     1     -13.720  44.062  30.342  1.00  0.00     0.000 C 
BRANCH   5   6
ATOM      6  C   UNL     1     -12.259  44.275  29.910  1.00  0.00     0.000 C 
BRANCH   6   7
ATOM      7  C   UNL     1     -11.327  44.587  31.093  1.00  0.00     0.006 C 
BRANCH   7   8
ATOM      8  C   UNL     1     -11.513  43.599  32.253  1.00  0.00     0.053 C 
BRANCH   8   9
ATOM      9  C   UNL     1     -10.994  42.237  31.908  1.00  0.00     0.041 C 
ATOM     10  O   UNL     1     -11.651  41.209  32.221  1.00  0.00    -0.550 OA
ATOM     11  O   UNL     1      -9.767  42.101  31.271  1.00  0.00    -0.550 OA
ENDBRANCH   8   9
ENDBRANCH   7   8
ENDBRANCH   6   7
ENDBRANCH   5   6
ENDBRANCH   4   5
ENDBRANCH   3   4
ENDBRANCH   2   3
ENDBRANCH   1   2
BRANCH   1  12
ATOM     12  C   UNL     1     -17.712  40.100  32.292  1.00  0.00     0.000 C 
BRANCH  12  13
ATOM     13  C   UNL     1     -17.141  40.594  33.633  1.00  0.00    -0.000 C 
BRANCH  13  14
ATOM     14  C   UNL     1     -18.031  41.679  34.277  1.00  0.00    -0.000 C 
BRANCH  14  15
ATOM     15  C   UNL     1     -19.079  42.265  33.315  1.00  0.00    -0.000 C 
BRANCH  15  16
ATOM     16  C   UNL     1     -18.576  43.508  32.568  1.00  0.00    -0.000 C 
BRANCH  16  17
ATOM     17  C   UNL     1     -17.745  44.408  33.490  1.00  0.00    -0.000 C 
BRANCH  17  18
ATOM     18  C   UNL     1     -16.315  44.574  32.952  1.00  0.00    -0.000 C 
BRANCH  18  19
ATOM     19  C   UNL     1     -15.246  44.180  33.983  1.00  0.00    -0.003 C 
ATOM     20  C   UNL     1     -14.178  45.257  34.168  1.00  0.00     0.004 C 
ENDBRANCH  18  19
ENDBRANCH  17  18
ENDBRANCH  16  17
ENDBRANCH  15  16
ENDBRANCH  14  15
ENDBRANCH  13  14
ENDBRANCH  12  13
ENDBRANCH   1  12
TORSDOF 16
ENDMDL
MODEL 7
REMARK VINA RESULT:    -4.116      1.652      3.780
REMARK INTER + INTRA:         -10.721
REMARK INTER:                  -8.053
REMARK INTRA:                  -2.668
REMARK UNBOUND:                -2.755
REMARK SMILES CCCCCCCCCCCCCCCCCC(=O)[O-]
REMARK SMILES IDX 10 1 11 2 12 3 13 4 14 5 15 6 16 7 17 8 18 9 19 10 20 11
REMARK SMILES IDX 9 12 8 13 7 14 6 15 5 16 4 17 3 18 2 19 1 20
REMARK H PARENT
REMARK Flexibility Score: inf
ROOT
ATOM      1  C   UNL     1     -17.204  44.292  31.937  1.00  0.00     0.000 C 
ENDROOT
BRANCH   1   2
ATOM      2  C   UNL     1     -17.976  43.198  32.689  1.00  0.00     0.000 C 
BRANCH   2   3
ATOM      3  C   UNL     1     -17.063  42.462  33.677  1.00  0.00     0.000 C 
BRANCH   3   4
ATOM      4  C   UNL     1     -17.194  40.940  33.521  1.00  0.00     0.000 C 
BRANCH   4   5
ATOM      5  C   UNL     1     -17.740  40.541  32.134  1.00  0.00     0.000 C 
BRANCH   5   6
ATOM      6  C   UNL     1     -17.205  39.190  31.628  1.00  0.00     0.000 C 
BRANCH   6   7
ATOM      7  C   UNL     1     -16.387  39.320  30.333  1.00  0.00     0.006 C 
BRANCH   7   8
ATOM      8  C   UNL     1     -15.175  40.246  30.504  1.00  0.00     0.053 C 
BRANCH   8   9
ATOM      9  C   UNL     1     -13.889  39.533  30.218  1.00  0.00     0.041 C 
ATOM     10  O   UNL     1     -12.838  40.186  29.989  1.00  0.00    -0.550 OA
ATOM     11  O   UNL     1     -13.860  38.144  30.172  1.00  0.00    -0.550 OA
ENDBRANCH   8   9
ENDBRANCH   7   8
ENDBRANCH   6   7
ENDBRANCH   5   6
ENDBRANCH   4   5
ENDBRANCH   3   4
ENDBRANCH   2   3
ENDBRANCH   1   2
BRANCH   1  12
ATOM     12  C   UNL     1     -16.554  43.772  30.645  1.00  0.00     0.000 C 
BRANCH  12  13
ATOM     13  C   UNL     1     -15.323  44.596  30.228  1.00  0.00    -0.000 C 
BRANCH  13  14
ATOM     14  C   UNL     1     -14.085  43.707  29.985  1.00  0.00    -0.000 C 
BRANCH  14  15
ATOM     15  C   UNL     1     -13.073  43.731  31.145  1.00  0.00    -0.000 C 
BRANCH  15  16
ATOM     16  C   UNL     1     -13.509  42.867  32.336  1.00  0.00    -0.000 C 
BRANCH  16  17
ATOM     17  C   UNL     1     -13.406  43.649  33.652  1.00  0.00    -0.000 C 
BRANCH  17  18
ATOM     18  C   UNL     1     -13.877  45.100  33.466  1.00  0.00    -0.000 C 
BRANCH  18  19
ATOM     19  C   UNL     1     -14.850  45.550  34.567  1.00  0.00    -0.003 C 
ATOM     20  C   UNL     1     -14.218  46.538  35.547  1.00  0.00     0.004 C 
ENDBRANCH  18  19
ENDBRANCH  17  18
ENDBRANCH  16  17
ENDBRANCH  15  16
ENDBRANCH  14  15
ENDBRANCH  13  14
ENDBRANCH  12  13
ENDBRANCH   1  12
TORSDOF 16
ENDMDL
MODEL 8
REMARK VINA RESULT:    -4.092      1.432      2.317
REMARK INTER + INTRA:         -10.673
REMARK INTER:                  -7.763
REMARK INTRA:                  -2.911
REMARK UNBOUND:                -2.755
REMARK SMILES CCCCCCCCCCCCCCCCCC(=O)[O-]
REMARK SMILES IDX 10 1 11 2 12 3 13 4 14 5 15 6 16 7 17 8 18 9 19 10 20 11
REMARK SMILES IDX 9 12 8 13 7 14 6 15 5 16 4 17 3 18 2 19 1 20
REMARK H PARENT
REMARK Flexibility Score: inf
ROOT
ATOM      1  C   UNL     1     -16.533  44.426  33.499  1.00  0.00     0.000 C 
ENDROOT
BRANCH   1   2
ATOM      2  C   UNL     1     -17.794  43.813  32.872  1.00  0.00     0.000 C 
BRANCH   2   3
ATOM      3  C   UNL     1     -17.912  44.192  31.391  1.00  0.00     0.000 C 
BRANCH   3   4
ATOM      4  C   UNL     1     -16.538  44.540  30.799  1.00  0.00     0.000 C 
BRANCH   4   5
ATOM      5  C   UNL     1     -16.138  43.586  29.654  1.00  0.00     0.000 C 
BRANCH   5   6
ATOM      6  C   UNL     1     -14.864  42.775  29.946  1.00  0.00     0.000 C 
BRANCH   6   7
ATOM      7  C   UNL     1     -15.071  41.711  31.036  1.00  0.00     0.006 C 
BRANCH   7   8
ATOM      8  C   UNL     1     -16.290  40.822  30.754  1.00  0.00     0.053 C 
BRANCH   8   9
ATOM      9  C   UNL     1     -15.883  39.443  30.333  1.00  0.00     0.041 C 
ATOM     10  O   UNL     1     -16.733  38.516  30.288  1.00  0.00    -0.550 OA
ATOM     11  O   UNL     1     -14.556  39.175  30.022  1.00  0.00    -0.550 OA
ENDBRANCH   8   9
ENDBRANCH   7   8
ENDBRANCH   6   7
ENDBRANCH   5   6
ENDBRANCH   4   5
ENDBRANCH   3   4
ENDBRANCH   2   3
ENDBRANCH   1   2
BRANCH   1  12
ATOM     12  C   UNL     1     -15.657  43.378  34.203  1.00  0.00     0.000 C 
BRANCH  12  13
ATOM     13  C   UNL     1     -14.154  43.685  34.082  1.00  0.00    -0.000 C 
BRANCH  13  14
ATOM     14  C   UNL     1     -13.891  45.005  33.325  1.00  0.00    -0.000 C 
BRANCH  14  15
ATOM     15  C   UNL     1     -12.889  44.860  32.166  1.00  0.00    -0.000 C 
BRANCH  15  16
ATOM     16  C   UNL     1     -12.012  43.606  32.287  1.00  0.00    -0.000 C 
BRANCH  16  17
ATOM     17  C   UNL     1     -10.909  43.599  31.223  1.00  0.00    -0.000 C 
BRANCH  17  18
ATOM     18  C   UNL     1     -10.906  44.914  30.427  1.00  0.00    -0.000 C 
BRANCH  18  19
ATOM     19  C   UNL     1     -10.996  44.685  28.910  1.00  0.00    -0.003 C 
ATOM     20  C   UNL     1     -11.493  43.285  28.551  1.00  0.00     0.004 C 
ENDBRANCH  18  19
ENDBRANCH  17  18
ENDBRANCH  16  17
ENDBRANCH  15  16
ENDBRANCH  14  15
ENDBRANCH  13  14
ENDBRANCH  12  13
ENDBRANCH   1  12
TORSDOF 16
ENDMDL
MODEL 9
REMARK VINA RESULT:    -4.047      2.298      4.680
REMARK INTER + INTRA:         -10.588
REMARK INTER:                  -7.872
REMARK INTRA:                  -2.716
REMARK UNBOUND:                -2.755
REMARK SMILES CCCCCCCCCCCCCCCCCC(=O)[O-]
REMARK SMILES IDX 10 1 11 2 12 3 13 4 14 5 15 6 16 7 17 8 18 9 19 10 20 11
REMARK SMILES IDX 9 12 8 13 7 14 6 15 5 16 4 17 3 18 2 19 1 20
REMARK H PARENT
REMARK Flexibility Score: inf
ROOT
ATOM      1  C   UNL     1     -12.745  42.321  32.734  1.00  0.00     0.000 C 
ENDROOT
BRANCH   1   2
ATOM      2  C   UNL     1     -13.761  42.628  31.623  1.00  0.00     0.000 C 
BRANCH   2   3
ATOM      3  C   UNL     1     -14.231  44.086  31.697  1.00  0.00     0.000 C 
BRANCH   3   4
ATOM      4  C   UNL     1     -13.766  44.751  33.000  1.00  0.00     0.000 C 
BRANCH   4   5
ATOM      5  C   UNL     1     -14.936  45.005  33.975  1.00  0.00     0.000 C 
BRANCH   5   6
ATOM      6  C   UNL     1     -16.059  43.960  33.873  1.00  0.00     0.000 C 
BRANCH   6   7
ATOM      7  C   UNL     1     -17.403  44.569  33.440  1.00  0.00     0.006 C 
BRANCH   7   8
ATOM      8  C   UNL     1     -18.425  43.495  33.041  1.00  0.00     0.053 C 
BRANCH   8   9
ATOM      9  C   UNL     1     -17.907  42.621  31.940  1.00  0.00     0.041 C 
ATOM     10  O   UNL     1     -17.525  43.128  30.853  1.00  0.00    -0.550 OA
ATOM     11  O   UNL     1     -17.878  41.241  32.103  1.00  0.00    -0.550 OA
ENDBRANCH   8   9
ENDBRANCH   7   8
ENDBRANCH   6   7
ENDBRANCH   5   6
ENDBRANCH   4   5
ENDBRANCH   3   4
ENDBRANCH   2   3
ENDBRANCH   1   2
BRANCH   1  12
ATOM     12  C   UNL     1     -11.617  41.392  32.258  1.00  0.00     0.000 C 
BRANCH  12  13
ATOM     13  C   UNL     1     -10.272  42.123  32.104  1.00  0.00    -0.000 C 
BRANCH  13  14
ATOM     14  C   UNL     1     -10.412  43.645  32.323  1.00  0.00    -0.000 C 
BRANCH  14  15
ATOM     15  C   UNL     1      -9.890  44.487  31.145  1.00  0.00    -0.000 C 
BRANCH  15  16
ATOM     16  C   UNL     1     -11.013  45.000  30.233  1.00  0.00    -0.000 C 
BRANCH  16  17
ATOM     17  C   UNL     1     -10.903  44.396  28.828  1.00  0.00    -0.000 C 
BRANCH  17  18
ATOM     18  C   UNL     1     -11.947  43.288  28.623  1.00  0.00    -0.000 C 
BRANCH  18  19
ATOM     19  C   UNL     1     -11.315  41.889  28.548  1.00  0.00    -0.003 C 
ATOM     20  C   UNL     1      -9.797  41.934  28.384  1.00  0.00     0.004 C 
ENDBRANCH  18  19
ENDBRANCH  17  18
ENDBRANCH  16  17
ENDBRANCH  15  16
ENDBRANCH  14  15
ENDBRANCH  13  14
ENDBRANCH  12  13
ENDBRANCH   1  12
TORSDOF 16
ENDMDL
