MODEL 1
REMARK VINA RESULT:    -8.049      0.000      0.000
REMARK INTER + INTRA:          -8.755
REMARK INTER:                  -8.755
REMARK INTRA:                   0.000
REMARK UNBOUND:                 0.000
REMARK SMILES Cc1cc(O)c2c(c1)C(=O)c1cc(O)cc(O)c1C2=O
REMARK SMILES IDX 1 1 2 2 8 3 7 4 6 5 4 6 3 7 19 8 20 9 18 10 11 11 9 12 10 13
REMARK SMILES IDX 12 14 13 15 15 16 16 17 5 18 17 20 14 22
REMARK H PARENT 5 19 17 21 14 23
REMARK Flexibility Score: inf
ROOT
ATOM      1  C   UNL     1      28.607  58.792   2.558  1.00  0.00     0.044 C 
ATOM      2  C   UNL     1      29.166  58.864   1.166  1.00  0.00    -0.047 A 
ATOM      3  C   UNL     1      28.736  57.963   0.187  1.00  0.00     0.016 A 
ATOM      4  C   UNL     1      29.285  57.995  -1.107  1.00  0.00     0.038 A 
ATOM      5  C   UNL     1      30.302  58.925  -1.416  1.00  0.00     0.076 A 
ATOM      6  C   UNL     1      30.703  59.866  -0.432  1.00  0.00     0.127 A 
ATOM      7  C   UNL     1      30.155  59.802   0.853  1.00  0.00     0.050 A 
ATOM      8  C   UNL     1      30.960  58.829  -2.746  1.00  0.00     0.201 C 
ATOM      9  O   UNL     1      32.163  59.181  -2.877  1.00  0.00    -0.288 OA
ATOM     10  C   UNL     1      30.264  58.146  -3.866  1.00  0.00     0.076 A 
ATOM     11  C   UNL     1      29.247  57.214  -3.551  1.00  0.00     0.041 A 
ATOM     12  C   UNL     1      28.801  57.057  -2.147  1.00  0.00     0.194 C 
ATOM     13  O   UNL     1      27.988  56.141  -1.842  1.00  0.00    -0.289 OA
ATOM     14  C   UNL     1      28.662  56.448  -4.572  1.00  0.00     0.059 A 
ATOM     15  C   UNL     1      29.065  56.608  -5.901  1.00  0.00     0.120 A 
ATOM     16  C   UNL     1      30.039  57.553  -6.219  1.00  0.00     0.093 A 
ATOM     17  C   UNL     1      30.623  58.344  -5.224  1.00  0.00     0.131 A 
ENDROOT
BRANCH   6  18
ATOM     18  O   UNL     1      31.609  60.895  -0.695  1.00  0.00    -0.507 OA
ATOM     19  H   UNL     1      32.161  61.351   0.018  1.00  0.00     0.293 HD
ENDBRANCH   6  18
BRANCH  17  20
ATOM     20  O   UNL     1      31.524  59.331  -5.631  1.00  0.00    -0.507 OA
ATOM     21  H   UNL     1      32.085  59.264  -6.469  1.00  0.00     0.293 HD
ENDBRANCH  17  20
BRANCH  15  22
ATOM     22  O   UNL     1      28.497  55.841  -6.914  1.00  0.00    -0.508 OA
ATOM     23  H   UNL     1      28.978  55.039  -7.305  1.00  0.00     0.293 HD
ENDBRANCH  15  22
TORSDOF 3
ENDMDL
MODEL 2
REMARK VINA RESULT:    -7.609      1.369      5.481
REMARK INTER + INTRA:          -8.277
REMARK INTER:                  -8.277
REMARK INTRA:                   0.000
REMARK UNBOUND:                 0.000
REMARK SMILES Cc1cc(O)c2c(c1)C(=O)c1cc(O)cc(O)c1C2=O
REMARK SMILES IDX 1 1 2 2 8 3 7 4 6 5 4 6 3 7 19 8 20 9 18 10 11 11 9 12 10 13
REMARK SMILES IDX 12 14 13 15 15 16 16 17 5 18 17 20 14 22
REMARK H PARENT 5 19 17 21 14 23
REMARK Flexibility Score: inf
ROOT
ATOM      1  C   UNL     1      28.498  55.920  -7.011  1.00  0.00     0.044 C 
ATOM      2  C   UNL     1      29.123  56.675  -5.874  1.00  0.00    -0.047 A 
ATOM      3  C   UNL     1      28.677  56.472  -4.564  1.00  0.00     0.016 A 
ATOM      4  C   UNL     1      29.226  57.206  -3.498  1.00  0.00     0.038 A 
ATOM      5  C   UNL     1      30.218  58.178  -3.751  1.00  0.00     0.076 A 
ATOM      6  C   UNL     1      30.700  58.348  -5.076  1.00  0.00     0.127 A 
ATOM      7  C   UNL     1      30.124  57.619  -6.122  1.00  0.00     0.050 A 
ATOM      8  C   UNL     1      30.666  59.034  -2.622  1.00  0.00     0.201 C 
ATOM      9  O   UNL     1      31.060  60.210  -2.845  1.00  0.00    -0.288 OA
ATOM     10  C   UNL     1      30.472  58.573  -1.224  1.00  0.00     0.076 A 
ATOM     11  C   UNL     1      29.476  57.600  -0.975  1.00  0.00     0.041 A 
ATOM     12  C   UNL     1      28.769  56.962  -2.109  1.00  0.00     0.194 C 
ATOM     13  O   UNL     1      27.794  56.190  -1.892  1.00  0.00    -0.289 OA
ATOM     14  C   UNL     1      29.167  57.240   0.348  1.00  0.00     0.059 A 
ATOM     15  C   UNL     1      29.846  57.825   1.420  1.00  0.00     0.120 A 
ATOM     16  C   UNL     1      30.855  58.755   1.176  1.00  0.00     0.093 A 
ATOM     17  C   UNL     1      31.197  59.116  -0.131  1.00  0.00     0.131 A 
ENDROOT
BRANCH   6  18
ATOM     18  O   UNL     1      31.763  59.197  -5.391  1.00  0.00    -0.507 OA
ATOM     19  H   UNL     1      32.332  59.096  -6.220  1.00  0.00     0.293 HD
ENDBRANCH   6  18
BRANCH  17  20
ATOM     20  O   UNL     1      32.278  59.984  -0.299  1.00  0.00    -0.507 OA
ATOM     21  H   UNL     1      32.514  60.417  -1.181  1.00  0.00     0.293 HD
ENDBRANCH  17  20
BRANCH  15  22
ATOM     22  O   UNL     1      29.533  57.479   2.732  1.00  0.00    -0.508 OA
ATOM     23  H   UNL     1      29.216  56.548   2.974  1.00  0.00     0.293 HD
ENDBRANCH  15  22
TORSDOF 3
ENDMDL
MODEL 3
REMARK VINA RESULT:    -7.589      1.162      3.372
REMARK INTER + INTRA:          -8.254
REMARK INTER:                  -8.254
REMARK INTRA:                   0.000
REMARK UNBOUND:                 0.000
REMARK SMILES Cc1cc(O)c2c(c1)C(=O)c1cc(O)cc(O)c1C2=O
REMARK SMILES IDX 1 1 2 2 8 3 7 4 6 5 4 6 3 7 19 8 20 9 18 10 11 11 9 12 10 13
REMARK SMILES IDX 12 14 13 15 15 16 16 17 5 18 17 20 14 22
REMARK H PARENT 5 19 17 21 14 23
REMARK Flexibility Score: inf
ROOT
ATOM      1  C   UNL     1      29.533  59.318   3.367  1.00  0.00     0.044 C 
ATOM      2  C   UNL     1      29.342  58.698   2.013  1.00  0.00    -0.047 A 
ATOM      3  C   UNL     1      29.901  59.297   0.879  1.00  0.00     0.016 A 
ATOM      4  C   UNL     1      29.691  58.748  -0.398  1.00  0.00     0.038 A 
ATOM      5  C   UNL     1      28.885  57.598  -0.545  1.00  0.00     0.076 A 
ATOM      6  C   UNL     1      28.359  56.969   0.613  1.00  0.00     0.127 A 
ATOM      7  C   UNL     1      28.566  57.544   1.871  1.00  0.00     0.050 A 
ATOM      8  C   UNL     1      28.566  57.136  -1.921  1.00  0.00     0.201 C 
ATOM      9  O   UNL     1      27.476  56.545  -2.147  1.00  0.00    -0.288 OA
ATOM     10  C   UNL     1      29.438  57.536  -3.055  1.00  0.00     0.076 A 
ATOM     11  C   UNL     1      30.243  58.690  -2.903  1.00  0.00     0.041 A 
ATOM     12  C   UNL     1      30.313  59.372  -1.590  1.00  0.00     0.194 C 
ATOM     13  O   UNL     1      30.925  60.471  -1.482  1.00  0.00    -0.289 OA
ATOM     14  C   UNL     1      30.975  59.179  -3.998  1.00  0.00     0.059 A 
ATOM     15  C   UNL     1      30.928  58.526  -5.233  1.00  0.00     0.120 A 
ATOM     16  C   UNL     1      30.167  57.366  -5.374  1.00  0.00     0.093 A 
ATOM     17  C   UNL     1      29.445  56.847  -4.295  1.00  0.00     0.131 A 
ENDROOT
BRANCH   6  18
ATOM     18  O   UNL     1      27.658  55.762   0.565  1.00  0.00    -0.507 OA
ATOM     19  H   UNL     1      28.101  54.862   0.434  1.00  0.00     0.293 HD
ENDBRANCH   6  18
BRANCH  17  20
ATOM     20  O   UNL     1      28.781  55.633  -4.488  1.00  0.00    -0.507 OA
ATOM     21  H   UNL     1      29.181  54.852  -4.990  1.00  0.00     0.293 HD
ENDBRANCH  17  20
BRANCH  15  22
ATOM     22  O   UNL     1      31.642  59.016  -6.323  1.00  0.00    -0.508 OA
ATOM     23  H   UNL     1      31.993  59.966  -6.343  1.00  0.00     0.293 HD
ENDBRANCH  15  22
TORSDOF 3
ENDMDL
MODEL 4
REMARK VINA RESULT:    -7.463      2.475      5.388
REMARK INTER + INTRA:          -8.118
REMARK INTER:                  -8.118
REMARK INTRA:                   0.000
REMARK UNBOUND:                 0.000
REMARK SMILES Cc1cc(O)c2c(c1)C(=O)c1cc(O)cc(O)c1C2=O
REMARK SMILES IDX 1 1 2 2 8 3 7 4 6 5 4 6 3 7 19 8 20 9 18 10 11 11 9 12 10 13
REMARK SMILES IDX 12 14 13 15 15 16 16 17 5 18 17 20 14 22
REMARK H PARENT 5 19 17 21 14 23
REMARK Flexibility Score: inf
ROOT
ATOM      1  C   UNL     1      28.336  55.653   6.003  1.00  0.00     0.044 C 
ATOM      2  C   UNL     1      28.303  55.905   4.523  1.00  0.00    -0.047 A 
ATOM      3  C   UNL     1      28.856  57.077   3.997  1.00  0.00     0.016 A 
ATOM      4  C   UNL     1      28.792  57.342   2.617  1.00  0.00     0.038 A 
ATOM      5  C   UNL     1      28.137  56.434   1.756  1.00  0.00     0.076 A 
ATOM      6  C   UNL     1      27.617  55.226   2.290  1.00  0.00     0.127 A 
ATOM      7  C   UNL     1      27.677  54.993   3.668  1.00  0.00     0.050 A 
ATOM      8  C   UNL     1      27.960  56.821   0.332  1.00  0.00     0.201 C 
ATOM      9  O   UNL     1      26.962  56.399  -0.312  1.00  0.00    -0.288 OA
ATOM     10  C   UNL     1      28.847  57.848  -0.270  1.00  0.00     0.076 A 
ATOM     11  C   UNL     1      29.500  58.756   0.597  1.00  0.00     0.041 A 
ATOM     12  C   UNL     1      29.408  58.571   2.064  1.00  0.00     0.194 C 
ATOM     13  O   UNL     1      29.879  59.447   2.841  1.00  0.00    -0.289 OA
ATOM     14  C   UNL     1      30.236  59.826   0.060  1.00  0.00     0.059 A 
ATOM     15  C   UNL     1      30.342  59.992  -1.323  1.00  0.00     0.120 A 
ATOM     16  C   UNL     1      29.733  59.076  -2.179  1.00  0.00     0.093 A 
ATOM     17  C   UNL     1      29.011  57.991  -1.672  1.00  0.00     0.131 A 
ENDROOT
BRANCH   6  18
ATOM     18  O   UNL     1      27.067  54.222   1.491  1.00  0.00    -0.507 OA
ATOM     19  H   UNL     1      27.497  53.886   0.639  1.00  0.00     0.293 HD
ENDBRANCH   6  18
BRANCH  17  20
ATOM     20  O   UNL     1      28.507  57.066  -2.589  1.00  0.00    -0.507 OA
ATOM     21  H   UNL     1      28.117  56.172  -2.324  1.00  0.00     0.293 HD
ENDBRANCH  17  20
BRANCH  15  22
ATOM     22  O   UNL     1      31.060  61.059  -1.857  1.00  0.00    -0.508 OA
ATOM     23  H   UNL     1      30.708  61.595  -2.642  1.00  0.00     0.293 HD
ENDBRANCH  15  22
TORSDOF 3
ENDMDL
MODEL 5
REMARK VINA RESULT:    -7.415      1.638      5.635
REMARK INTER + INTRA:          -8.066
REMARK INTER:                  -8.066
REMARK INTRA:                   0.000
REMARK UNBOUND:                 0.000
REMARK SMILES Cc1cc(O)c2c(c1)C(=O)c1cc(O)cc(O)c1C2=O
REMARK SMILES IDX 1 1 2 2 8 3 7 4 6 5 4 6 3 7 19 8 20 9 18 10 11 11 9 12 10 13
REMARK SMILES IDX 12 14 13 15 15 16 16 17 5 18 17 20 14 22
REMARK H PARENT 5 19 17 21 14 23
REMARK Flexibility Score: inf
ROOT
ATOM      1  C   UNL     1      28.864  56.130  -5.891  1.00  0.00     0.044 C 
ATOM      2  C   UNL     1      29.348  56.956  -4.735  1.00  0.00    -0.047 A 
ATOM      3  C   UNL     1      28.775  56.799  -3.469  1.00  0.00     0.016 A 
ATOM      4  C   UNL     1      29.192  57.598  -2.390  1.00  0.00     0.038 A 
ATOM      5  C   UNL     1      30.176  58.591  -2.589  1.00  0.00     0.076 A 
ATOM      6  C   UNL     1      30.785  58.716  -3.865  1.00  0.00     0.127 A 
ATOM      7  C   UNL     1      30.341  57.921  -4.927  1.00  0.00     0.050 A 
ATOM      8  C   UNL     1      30.482  59.512  -1.464  1.00  0.00     0.201 C 
ATOM      9  O   UNL     1      30.862  60.690  -1.703  1.00  0.00    -0.288 OA
ATOM     10  C   UNL     1      30.158  59.109  -0.071  1.00  0.00     0.076 A 
ATOM     11  C   UNL     1      29.171  58.115   0.123  1.00  0.00     0.041 A 
ATOM     12  C   UNL     1      28.602  57.403  -1.044  1.00  0.00     0.194 C 
ATOM     13  O   UNL     1      27.633  56.609  -0.889  1.00  0.00    -0.289 OA
ATOM     14  C   UNL     1      28.739  57.806   1.424  1.00  0.00     0.059 A 
ATOM     15  C   UNL     1      29.287  58.462   2.529  1.00  0.00     0.120 A 
ATOM     16  C   UNL     1      30.289  59.413   2.343  1.00  0.00     0.093 A 
ATOM     17  C   UNL     1      30.752  59.725   1.061  1.00  0.00     0.131 A 
ENDROOT
BRANCH   6  18
ATOM     18  O   UNL     1      31.850  59.585  -4.112  1.00  0.00    -0.507 OA
ATOM     19  H   UNL     1      32.599  59.381  -4.760  1.00  0.00     0.293 HD
ENDBRANCH   6  18
BRANCH  17  20
ATOM     20  O   UNL     1      31.819  60.621   0.961  1.00  0.00    -0.507 OA
ATOM     21  H   UNL     1      31.834  61.524   1.414  1.00  0.00     0.293 HD
ENDBRANCH  17  20
BRANCH  15  22
ATOM     22  O   UNL     1      28.852  58.166   3.819  1.00  0.00    -0.508 OA
ATOM     23  H   UNL     1      29.463  57.726   4.497  1.00  0.00     0.293 HD
ENDBRANCH  15  22
TORSDOF 3
ENDMDL
MODEL 6
REMARK VINA RESULT:    -7.044      1.593      2.878
REMARK INTER + INTRA:          -7.662
REMARK INTER:                  -7.662
REMARK INTRA:                   0.000
REMARK UNBOUND:                 0.000
REMARK SMILES Cc1cc(O)c2c(c1)C(=O)c1cc(O)cc(O)c1C2=O
REMARK SMILES IDX 1 1 2 2 8 3 7 4 6 5 4 6 3 7 19 8 20 9 18 10 11 11 9 12 10 13
REMARK SMILES IDX 12 14 13 15 15 16 16 17 5 18 17 20 14 22
REMARK H PARENT 5 19 17 21 14 23
REMARK Flexibility Score: inf
ROOT
ATOM      1  C   UNL     1      25.876  57.325   3.125  1.00  0.00     0.044 C 
ATOM      2  C   UNL     1      27.064  57.797   2.337  1.00  0.00    -0.047 A 
ATOM      3  C   UNL     1      27.218  57.415   1.000  1.00  0.00     0.016 A 
ATOM      4  C   UNL     1      28.348  57.816   0.266  1.00  0.00     0.038 A 
ATOM      5  C   UNL     1      29.354  58.587   0.890  1.00  0.00     0.076 A 
ATOM      6  C   UNL     1      29.170  59.009   2.233  1.00  0.00     0.127 A 
ATOM      7  C   UNL     1      28.046  58.582   2.947  1.00  0.00     0.050 A 
ATOM      8  C   UNL     1      30.599  58.864   0.128  1.00  0.00     0.201 C 
ATOM      9  O   UNL     1      31.691  59.008   0.741  1.00  0.00    -0.288 OA
ATOM     10  C   UNL     1      30.591  58.783  -1.355  1.00  0.00     0.076 A 
ATOM     11  C   UNL     1      29.582  58.008  -1.975  1.00  0.00     0.041 A 
ATOM     12  C   UNL     1      28.488  57.433  -1.159  1.00  0.00     0.194 C 
ATOM     13  O   UNL     1      27.660  56.639  -1.683  1.00  0.00    -0.289 OA
ATOM     14  C   UNL     1      29.621  57.794  -3.363  1.00  0.00     0.059 A 
ATOM     15  C   UNL     1      30.640  58.352  -4.140  1.00  0.00     0.120 A 
ATOM     16  C   UNL     1      31.613  59.148  -3.537  1.00  0.00     0.093 A 
ATOM     17  C   UNL     1      31.586  59.394  -2.161  1.00  0.00     0.131 A 
ENDROOT
BRANCH   6  18
ATOM     18  O   UNL     1      30.055  59.873   2.881  1.00  0.00    -0.507 OA
ATOM     19  H   UNL     1      30.712  59.574   3.588  1.00  0.00     0.293 HD
ENDBRANCH   6  18
BRANCH  17  20
ATOM     20  O   UNL     1      32.540  60.274  -1.644  1.00  0.00    -0.507 OA
ATOM     21  H   UNL     1      33.532  60.187  -1.818  1.00  0.00     0.293 HD
ENDBRANCH  17  20
BRANCH  15  22
ATOM     22  O   UNL     1      30.688  58.130  -5.514  1.00  0.00    -0.508 OA
ATOM     23  H   UNL     1      31.330  58.639  -6.110  1.00  0.00     0.293 HD
ENDBRANCH  15  22
TORSDOF 3
ENDMDL
MODEL 7
REMARK VINA RESULT:    -7.013      2.157      5.586
REMARK INTER + INTRA:          -7.628
REMARK INTER:                  -7.628
REMARK INTRA:                   0.000
REMARK UNBOUND:                 0.000
REMARK SMILES Cc1cc(O)c2c(c1)C(=O)c1cc(O)cc(O)c1C2=O
REMARK SMILES IDX 1 1 2 2 8 3 7 4 6 5 4 6 3 7 19 8 20 9 18 10 11 11 9 12 10 13
REMARK SMILES IDX 12 14 13 15 15 16 16 17 5 18 17 20 14 22
REMARK H PARENT 5 19 17 21 14 23
REMARK Flexibility Score: inf
ROOT
ATOM      1  C   UNL     1      30.980  58.908  -5.268  1.00  0.00     0.044 C 
ATOM      2  C   UNL     1      30.791  58.812  -3.782  1.00  0.00    -0.047 A 
ATOM      3  C   UNL     1      29.797  57.983  -3.251  1.00  0.00     0.016 A 
ATOM      4  C   UNL     1      29.584  57.920  -1.863  1.00  0.00     0.038 A 
ATOM      5  C   UNL     1      30.360  58.720  -0.995  1.00  0.00     0.076 A 
ATOM      6  C   UNL     1      31.397  59.524  -1.537  1.00  0.00     0.127 A 
ATOM      7  C   UNL     1      31.577  59.585  -2.922  1.00  0.00     0.050 A 
ATOM      8  C   UNL     1      30.006  58.737   0.448  1.00  0.00     0.201 C 
ATOM      9  O   UNL     1      30.223  59.771   1.135  1.00  0.00    -0.288 OA
ATOM     10  C   UNL     1      29.231  57.612   1.031  1.00  0.00     0.076 A 
ATOM     11  C   UNL     1      28.454  56.814   0.159  1.00  0.00     0.041 A 
ATOM     12  C   UNL     1      28.550  57.016  -1.306  1.00  0.00     0.194 C 
ATOM     13  O   UNL     1      27.769  56.398  -2.081  1.00  0.00    -0.289 OA
ATOM     14  C   UNL     1      27.601  55.831   0.686  1.00  0.00     0.059 A 
ATOM     15  C   UNL     1      27.523  55.624   2.065  1.00  0.00     0.120 A 
ATOM     16  C   UNL     1      28.316  56.381   2.926  1.00  0.00     0.093 A 
ATOM     17  C   UNL     1      29.190  57.353   2.426  1.00  0.00     0.131 A 
ENDROOT
BRANCH   6  18
ATOM     18  O   UNL     1      32.287  60.247  -0.740  1.00  0.00    -0.507 OA
ATOM     19  H   UNL     1      32.753  61.090  -1.045  1.00  0.00     0.293 HD
ENDBRANCH   6  18
BRANCH  17  20
ATOM     20  O   UNL     1      30.018  58.008   3.340  1.00  0.00    -0.507 OA
ATOM     21  H   UNL     1      29.847  58.945   3.676  1.00  0.00     0.293 HD
ENDBRANCH  17  20
BRANCH  15  22
ATOM     22  O   UNL     1      26.668  54.658   2.592  1.00  0.00    -0.508 OA
ATOM     23  H   UNL     1      25.997  54.171   2.010  1.00  0.00     0.293 HD
ENDBRANCH  15  22
TORSDOF 3
ENDMDL
MODEL 8
REMARK VINA RESULT:    -6.915      1.869      6.632
REMARK INTER + INTRA:          -7.521
REMARK INTER:                  -7.521
REMARK INTRA:                   0.000
REMARK UNBOUND:                 0.000
REMARK SMILES Cc1cc(O)c2c(c1)C(=O)c1cc(O)cc(O)c1C2=O
REMARK SMILES IDX 1 1 2 2 8 3 7 4 6 5 4 6 3 7 19 8 20 9 18 10 11 11 9 12 10 13
REMARK SMILES IDX 12 14 13 15 15 16 16 17 5 18 17 20 14 22
REMARK H PARENT 5 19 17 21 14 23
REMARK Flexibility Score: inf
ROOT
ATOM      1  C   UNL     1      31.442  58.644  -5.358  1.00  0.00     0.044 C 
ATOM      2  C   UNL     1      30.721  58.402  -4.063  1.00  0.00    -0.047 A 
ATOM      3  C   UNL     1      31.185  58.985  -2.880  1.00  0.00     0.016 A 
ATOM      4  C   UNL     1      30.542  58.730  -1.656  1.00  0.00     0.038 A 
ATOM      5  C   UNL     1      29.435  57.853  -1.612  1.00  0.00     0.076 A 
ATOM      6  C   UNL     1      28.942  57.300  -2.823  1.00  0.00     0.127 A 
ATOM      7  C   UNL     1      29.610  57.555  -4.025  1.00  0.00     0.050 A 
ATOM      8  C   UNL     1      28.877  57.493  -0.283  1.00  0.00     0.201 C 
ATOM      9  O   UNL     1      28.338  56.366  -0.113  1.00  0.00    -0.288 OA
ATOM     10  C   UNL     1      29.123  58.377   0.885  1.00  0.00     0.076 A 
ATOM     11  C   UNL     1      30.233  59.252   0.837  1.00  0.00     0.041 A 
ATOM     12  C   UNL     1      31.020  59.377  -0.411  1.00  0.00     0.194 C 
ATOM     13  O   UNL     1      32.084  60.056  -0.421  1.00  0.00    -0.289 OA
ATOM     14  C   UNL     1      30.579  60.003   1.973  1.00  0.00     0.059 A 
ATOM     15  C   UNL     1      29.827  59.903   3.147  1.00  0.00     0.120 A 
ATOM     16  C   UNL     1      28.709  59.071   3.184  1.00  0.00     0.093 A 
ATOM     17  C   UNL     1      28.330  58.329   2.061  1.00  0.00     0.131 A 
ENDROOT
BRANCH   6  18
ATOM     18  O   UNL     1      27.782  56.526  -2.882  1.00  0.00    -0.507 OA
ATOM     19  H   UNL     1      27.289  56.193  -2.065  1.00  0.00     0.293 HD
ENDBRANCH   6  18
BRANCH  17  20
ATOM     20  O   UNL     1      27.149  57.590   2.146  1.00  0.00    -0.507 OA
ATOM     21  H   UNL     1      26.487  57.679   2.905  1.00  0.00     0.293 HD
ENDBRANCH  17  20
BRANCH  15  22
ATOM     22  O   UNL     1      30.176  60.636   4.279  1.00  0.00    -0.508 OA
ATOM     23  H   UNL     1      30.390  60.182   5.159  1.00  0.00     0.293 HD
ENDBRANCH  15  22
TORSDOF 3
ENDMDL
MODEL 9
REMARK VINA RESULT:    -6.853     14.011     15.497
REMARK INTER + INTRA:          -7.453
REMARK INTER:                  -7.453
REMARK INTRA:                   0.000
REMARK UNBOUND:                 0.000
REMARK SMILES Cc1cc(O)c2c(c1)C(=O)c1cc(O)cc(O)c1C2=O
REMARK SMILES IDX 1 1 2 2 8 3 7 4 6 5 4 6 3 7 19 8 20 9 18 10 11 11 9 12 10 13
REMARK SMILES IDX 12 14 13 15 15 16 16 17 5 18 17 20 14 22
REMARK H PARENT 5 19 17 21 14 23
REMARK Flexibility Score: inf
ROOT
ATOM      1  C   UNL     1      42.595  66.255   6.212  1.00  0.00     0.044 C 
ATOM      2  C   UNL     1      42.451  64.772   6.029  1.00  0.00    -0.047 A 
ATOM      3  C   UNL     1      41.629  64.033   6.886  1.00  0.00     0.016 A 
ATOM      4  C   UNL     1      41.522  62.638   6.749  1.00  0.00     0.038 A 
ATOM      5  C   UNL     1      42.272  61.969   5.757  1.00  0.00     0.076 A 
ATOM      6  C   UNL     1      43.070  62.729   4.862  1.00  0.00     0.127 A 
ATOM      7  C   UNL     1      43.175  64.113   5.030  1.00  0.00     0.050 A 
ATOM      8  C   UNL     1      42.246  60.483   5.741  1.00  0.00     0.201 C 
ATOM      9  O   UNL     1      43.250  59.843   5.328  1.00  0.00    -0.288 OA
ATOM     10  C   UNL     1      41.121  59.757   6.383  1.00  0.00     0.076 A 
ATOM     11  C   UNL     1      40.373  60.431   7.377  1.00  0.00     0.041 A 
ATOM     12  C   UNL     1      40.624  61.867   7.641  1.00  0.00     0.194 C 
ATOM     13  O   UNL     1      40.052  62.440   8.610  1.00  0.00    -0.289 OA
ATOM     14  C   UNL     1      39.392  59.736   8.103  1.00  0.00     0.059 A 
ATOM     15  C   UNL     1      39.138  58.387   7.843  1.00  0.00     0.120 A 
ATOM     16  C   UNL     1      39.846  57.730   6.837  1.00  0.00     0.093 A 
ATOM     17  C   UNL     1      40.813  58.404   6.085  1.00  0.00     0.131 A 
ENDROOT
BRANCH   6  18
ATOM     18  O   UNL     1      43.743  62.158   3.779  1.00  0.00    -0.507 OA
ATOM     19  H   UNL     1      44.750  62.139   3.694  1.00  0.00     0.293 HD
ENDBRANCH   6  18
BRANCH  17  20
ATOM     20  O   UNL     1      41.415  57.707   5.035  1.00  0.00    -0.507 OA
ATOM     21  H   UNL     1      41.135  57.801   4.069  1.00  0.00     0.293 HD
ENDBRANCH  17  20
BRANCH  15  22
ATOM     22  O   UNL     1      38.175  57.691   8.571  1.00  0.00    -0.508 OA
ATOM     23  H   UNL     1      37.578  57.000   8.134  1.00  0.00     0.293 HD
ENDBRANCH  15  22
TORSDOF 3
ENDMDL
