MODEL 1
REMARK VINA RESULT:    -5.072      0.000      0.000
REMARK INTER + INTRA:         -10.314
REMARK INTER:                  -8.926
REMARK INTRA:                  -1.388
REMARK UNBOUND:                -1.388
REMARK SMILES CCCCCCC=CCCCCCCCC(=O)[O-]
REMARK SMILES IDX 10 1 11 2 12 3 13 4 14 5 15 6 16 7 17 8 18 9 9 10 8 11 7 12
REMARK SMILES IDX 6 13 5 14 4 15 3 16 2 17 1 18
REMARK H PARENT
REMARK Flexibility Score: inf
ROOT
ATOM      1  C   UNL     1     -19.430 -24.268  14.870  1.00  0.00     0.004 C 
ENDROOT
BRANCH   1   2
ATOM      2  C   UNL     1     -20.568 -24.586  13.886  1.00  0.00     0.000 C 
BRANCH   2   3
ATOM      3  C   UNL     1     -21.039 -23.346  13.107  1.00  0.00     0.000 C 
BRANCH   3   4
ATOM      4  C   UNL     1     -20.473 -23.290  11.676  1.00  0.00     0.000 C 
BRANCH   4   5
ATOM      5  C   UNL     1     -19.164 -22.493  11.529  1.00  0.00     0.006 C 
BRANCH   5   6
ATOM      6  C   UNL     1     -19.318 -21.248  10.646  1.00  0.00     0.053 C 
BRANCH   6   7
ATOM      7  C   UNL     1     -19.949 -21.609   9.339  1.00  0.00     0.041 C 
ATOM      8  O   UNL     1     -19.459 -22.527   8.631  1.00  0.00    -0.550 OA
ATOM      9  O   UNL     1     -21.052 -20.899   8.880  1.00  0.00    -0.550 OA
ENDBRANCH   6   7
ENDBRANCH   5   6
ENDBRANCH   4   5
ENDBRANCH   3   4
ENDBRANCH   2   3
ENDBRANCH   1   2
BRANCH   1  10
ATOM     10  C   UNL     1     -18.234 -25.219  14.715  1.00  0.00     0.027 C 
BRANCH  10  11
ATOM     11  C   UNL     1     -17.867 -25.395  13.268  1.00  0.00    -0.031 C 
ATOM     12  C   UNL     1     -16.605 -25.657  12.890  1.00  0.00    -0.031 C 
BRANCH  12  13
ATOM     13  C   UNL     1     -16.241 -25.852  11.444  1.00  0.00     0.027 C 
BRANCH  13  14
ATOM     14  C   UNL     1     -17.494 -25.957  10.566  1.00  0.00     0.004 C 
BRANCH  14  15
ATOM     15  C   UNL     1     -17.142 -26.476   9.166  1.00  0.00     0.000 C 
BRANCH  15  16
ATOM     16  C   UNL     1     -15.628 -26.406   8.919  1.00  0.00    -0.000 C 
BRANCH  16  17
ATOM     17  C   UNL     1     -15.282 -25.818   7.543  1.00  0.00    -0.003 C 
ATOM     18  C   UNL     1     -16.520 -25.448   6.728  1.00  0.00     0.004 C 
ENDBRANCH  16  17
ENDBRANCH  15  16
ENDBRANCH  14  15
ENDBRANCH  13  14
ENDBRANCH  12  13
ENDBRANCH  10  11
ENDBRANCH   1  10
TORSDOF 13
ENDMDL
MODEL 2
REMARK VINA RESULT:    -5.067      9.281     11.502
REMARK INTER + INTRA:         -10.307
REMARK INTER:                  -9.218
REMARK INTRA:                  -1.088
REMARK UNBOUND:                -1.388
REMARK SMILES CCCCCCC=CCCCCCCCC(=O)[O-]
REMARK SMILES IDX 10 1 11 2 12 3 13 4 14 5 15 6 16 7 17 8 18 9 9 10 8 11 7 12
REMARK SMILES IDX 6 13 5 14 4 15 3 16 2 17 1 18
REMARK H PARENT
REMARK Flexibility Score: inf
ROOT
ATOM      1  C   UNL     1     -22.582 -24.064   1.378  1.00  0.00     0.004 C 
ENDROOT
BRANCH   1   2
ATOM      2  C   UNL     1     -22.415 -25.193   0.348  1.00  0.00     0.000 C 
BRANCH   2   3
ATOM      3  C   UNL     1     -21.366 -24.860  -0.728  1.00  0.00     0.000 C 
BRANCH   3   4
ATOM      4  C   UNL     1     -20.119 -25.759  -0.642  1.00  0.00     0.000 C 
BRANCH   4   5
ATOM      5  C   UNL     1     -20.183 -26.855   0.437  1.00  0.00     0.006 C 
BRANCH   5   6
ATOM      6  C   UNL     1     -19.316 -26.539   1.663  1.00  0.00     0.053 C 
BRANCH   6   7
ATOM      7  C   UNL     1     -18.006 -27.254   1.575  1.00  0.00     0.041 C 
ATOM      8  O   UNL     1     -17.017 -26.849   2.239  1.00  0.00    -0.550 OA
ATOM      9  O   UNL     1     -17.864 -28.343   0.722  1.00  0.00    -0.550 OA
ENDBRANCH   6   7
ENDBRANCH   5   6
ENDBRANCH   4   5
ENDBRANCH   3   4
ENDBRANCH   2   3
ENDBRANCH   1   2
BRANCH   1  10
ATOM     10  C   UNL     1     -23.231 -24.549   2.683  1.00  0.00     0.027 C 
BRANCH  10  11
ATOM     11  C   UNL     1     -22.839 -25.968   2.987  1.00  0.00    -0.031 C 
ATOM     12  C   UNL     1     -23.328 -26.619   4.055  1.00  0.00    -0.031 C 
BRANCH  12  13
ATOM     13  C   UNL     1     -22.952 -28.046   4.348  1.00  0.00     0.027 C 
BRANCH  13  14
ATOM     14  C   UNL     1     -24.129 -28.994   4.091  1.00  0.00     0.004 C 
BRANCH  14  15
ATOM     15  C   UNL     1     -24.719 -29.509   5.410  1.00  0.00     0.000 C 
BRANCH  15  16
ATOM     16  C   UNL     1     -25.964 -28.702   5.806  1.00  0.00    -0.000 C 
BRANCH  16  17
ATOM     17  C   UNL     1     -26.960 -29.523   6.639  1.00  0.00    -0.003 C 
ATOM     18  C   UNL     1     -27.421 -28.793   7.900  1.00  0.00     0.004 C 
ENDBRANCH  16  17
ENDBRANCH  15  16
ENDBRANCH  14  15
ENDBRANCH  13  14
ENDBRANCH  12  13
ENDBRANCH  10  11
ENDBRANCH   1  10
TORSDOF 13
ENDMDL
MODEL 3
REMARK VINA RESULT:    -5.046      3.968      6.173
REMARK INTER + INTRA:         -10.269
REMARK INTER:                  -8.562
REMARK INTRA:                  -1.707
REMARK UNBOUND:                -1.388
REMARK SMILES CCCCCCC=CCCCCCCCC(=O)[O-]
REMARK SMILES IDX 10 1 11 2 12 3 13 4 14 5 15 6 16 7 17 8 18 9 9 10 8 11 7 12
REMARK SMILES IDX 6 13 5 14 4 15 3 16 2 17 1 18
REMARK H PARENT
REMARK Flexibility Score: inf
ROOT
ATOM      1  C   UNL     1     -19.533 -24.343  14.643  1.00  0.00     0.004 C 
ENDROOT
BRANCH   1   2
ATOM      2  C   UNL     1     -18.376 -25.349  14.758  1.00  0.00     0.000 C 
BRANCH   2   3
ATOM      3  C   UNL     1     -18.117 -26.105  13.443  1.00  0.00     0.000 C 
BRANCH   3   4
ATOM      4  C   UNL     1     -18.498 -27.595  13.526  1.00  0.00     0.000 C 
BRANCH   4   5
ATOM      5  C   UNL     1     -19.948 -27.916  13.124  1.00  0.00     0.006 C 
BRANCH   5   6
ATOM      6  C   UNL     1     -20.718 -28.671  14.215  1.00  0.00     0.053 C 
BRANCH   6   7
ATOM      7  C   UNL     1     -21.154 -27.730  15.293  1.00  0.00     0.041 C 
ATOM      8  O   UNL     1     -22.042 -26.869  15.062  1.00  0.00    -0.550 OA
ATOM      9  O   UNL     1     -20.545 -27.774  16.541  1.00  0.00    -0.550 OA
ENDBRANCH   6   7
ENDBRANCH   5   6
ENDBRANCH   4   5
ENDBRANCH   3   4
ENDBRANCH   2   3
ENDBRANCH   1   2
BRANCH   1  10
ATOM     10  C   UNL     1     -19.997 -24.143  13.192  1.00  0.00     0.027 C 
BRANCH  10  11
ATOM     11  C   UNL     1     -19.925 -22.695  12.796  1.00  0.00    -0.031 C 
ATOM     12  C   UNL     1     -19.123 -22.277  11.803  1.00  0.00    -0.031 C 
BRANCH  12  13
ATOM     13  C   UNL     1     -19.065 -20.831  11.393  1.00  0.00     0.027 C 
BRANCH  13  14
ATOM     14  C   UNL     1     -19.857 -20.589  10.103  1.00  0.00     0.004 C 
BRANCH  14  15
ATOM     15  C   UNL     1     -19.878 -21.847   9.226  1.00  0.00     0.000 C 
BRANCH  15  16
ATOM     16  C   UNL     1     -21.126 -21.872   8.331  1.00  0.00    -0.000 C 
BRANCH  16  17
ATOM     17  C   UNL     1     -22.314 -22.585   8.995  1.00  0.00    -0.003 C 
ATOM     18  C   UNL     1     -21.897 -23.840   9.761  1.00  0.00     0.004 C 
ENDBRANCH  16  17
ENDBRANCH  15  16
ENDBRANCH  14  15
ENDBRANCH  13  14
ENDBRANCH  12  13
ENDBRANCH  10  11
ENDBRANCH   1  10
TORSDOF 13
ENDMDL
MODEL 4
REMARK VINA RESULT:    -5.019      9.190     10.614
REMARK INTER + INTRA:         -10.221
REMARK INTER:                  -8.790
REMARK INTRA:                  -1.431
REMARK UNBOUND:                -1.388
REMARK SMILES CCCCCCC=CCCCCCCCC(=O)[O-]
REMARK SMILES IDX 10 1 11 2 12 3 13 4 14 5 15 6 16 7 17 8 18 9 9 10 8 11 7 12
REMARK SMILES IDX 6 13 5 14 4 15 3 16 2 17 1 18
REMARK H PARENT
REMARK Flexibility Score: inf
ROOT
ATOM      1  C   UNL     1     -23.000 -30.199   3.934  1.00  0.00     0.004 C 
ENDROOT
BRANCH   1   2
ATOM      2  C   UNL     1     -24.018 -29.098   3.597  1.00  0.00     0.000 C 
BRANCH   2   3
ATOM      3  C   UNL     1     -24.225 -28.109   4.758  1.00  0.00     0.000 C 
BRANCH   3   4
ATOM      4  C   UNL     1     -25.617 -28.233   5.405  1.00  0.00     0.000 C 
BRANCH   4   5
ATOM      5  C   UNL     1     -25.869 -29.556   6.150  1.00  0.00     0.006 C 
BRANCH   5   6
ATOM      6  C   UNL     1     -27.127 -29.518   7.027  1.00  0.00     0.053 C 
BRANCH   6   7
ATOM      7  C   UNL     1     -26.861 -28.761   8.289  1.00  0.00     0.041 C 
ATOM      8  O   UNL     1     -27.625 -27.824   8.639  1.00  0.00    -0.550 OA
ATOM      9  O   UNL     1     -25.741 -29.060   9.056  1.00  0.00    -0.550 OA
ENDBRANCH   6   7
ENDBRANCH   5   6
ENDBRANCH   4   5
ENDBRANCH   3   4
ENDBRANCH   2   3
ENDBRANCH   1   2
BRANCH   1  10
ATOM     10  C   UNL     1     -21.970 -30.412   2.815  1.00  0.00     0.027 C 
BRANCH  10  11
ATOM     11  C   UNL     1     -21.359 -29.107   2.386  1.00  0.00    -0.031 C 
ATOM     12  C   UNL     1     -20.250 -28.625   2.970  1.00  0.00    -0.031 C 
BRANCH  12  13
ATOM     13  C   UNL     1     -19.628 -27.329   2.528  1.00  0.00     0.027 C 
BRANCH  13  14
ATOM     14  C   UNL     1     -19.639 -27.201   1.000  1.00  0.00     0.004 C 
BRANCH  14  15
ATOM     15  C   UNL     1     -20.220 -25.849   0.566  1.00  0.00     0.000 C 
BRANCH  15  16
ATOM     16  C   UNL     1     -21.745 -25.933   0.407  1.00  0.00    -0.000 C 
BRANCH  16  17
ATOM     17  C   UNL     1     -22.487 -24.907   1.276  1.00  0.00    -0.003 C 
ATOM     18  C   UNL     1     -22.770 -25.420   2.687  1.00  0.00     0.004 C 
ENDBRANCH  16  17
ENDBRANCH  15  16
ENDBRANCH  14  15
ENDBRANCH  13  14
ENDBRANCH  12  13
ENDBRANCH  10  11
ENDBRANCH   1  10
TORSDOF 13
ENDMDL
MODEL 5
REMARK VINA RESULT:    -5.014      7.968     10.408
REMARK INTER + INTRA:         -10.212
REMARK INTER:                  -9.106
REMARK INTRA:                  -1.106
REMARK UNBOUND:                -1.388
REMARK SMILES CCCCCCC=CCCCCCCCC(=O)[O-]
REMARK SMILES IDX 10 1 11 2 12 3 13 4 14 5 15 6 16 7 17 8 18 9 9 10 8 11 7 12
REMARK SMILES IDX 6 13 5 14 4 15 3 16 2 17 1 18
REMARK H PARENT
REMARK Flexibility Score: inf
ROOT
ATOM      1  C   UNL     1     -26.364 -25.342  15.779  1.00  0.00     0.004 C 
ENDROOT
BRANCH   1   2
ATOM      2  C   UNL     1     -27.213 -24.176  15.248  1.00  0.00     0.000 C 
BRANCH   2   3
ATOM      3  C   UNL     1     -28.074 -23.525  16.345  1.00  0.00     0.000 C 
BRANCH   3   4
ATOM      4  C   UNL     1     -29.525 -23.274  15.894  1.00  0.00     0.000 C 
BRANCH   4   5
ATOM      5  C   UNL     1     -30.469 -22.770  17.001  1.00  0.00     0.006 C 
BRANCH   5   6
ATOM      6  C   UNL     1     -29.772 -21.841  18.004  1.00  0.00     0.053 C 
BRANCH   6   7
ATOM      7  C   UNL     1     -30.011 -20.410  17.642  1.00  0.00     0.041 C 
ATOM      8  O   UNL     1     -30.715 -20.118  16.641  1.00  0.00    -0.550 OA
ATOM      9  O   UNL     1     -29.416 -19.397  18.385  1.00  0.00    -0.550 OA
ENDBRANCH   6   7
ENDBRANCH   5   6
ENDBRANCH   4   5
ENDBRANCH   3   4
ENDBRANCH   2   3
ENDBRANCH   1   2
BRANCH   1  10
ATOM     10  C   UNL     1     -24.856 -25.075  15.660  1.00  0.00     0.027 C 
BRANCH  10  11
ATOM     11  C   UNL     1     -24.144 -25.411  16.940  1.00  0.00    -0.031 C 
ATOM     12  C   UNL     1     -24.434 -26.521  17.636  1.00  0.00    -0.031 C 
BRANCH  12  13
ATOM     13  C   UNL     1     -23.709 -26.867  18.907  1.00  0.00     0.027 C 
BRANCH  13  14
ATOM     14  C   UNL     1     -23.162 -28.299  18.862  1.00  0.00     0.004 C 
BRANCH  14  15
ATOM     15  C   UNL     1     -22.924 -28.751  17.416  1.00  0.00     0.000 C 
BRANCH  15  16
ATOM     16  C   UNL     1     -21.425 -28.944  17.141  1.00  0.00    -0.000 C 
BRANCH  16  17
ATOM     17  C   UNL     1     -20.886 -27.960  16.092  1.00  0.00    -0.003 C 
ATOM     18  C   UNL     1     -20.664 -26.557  16.655  1.00  0.00     0.004 C 
ENDBRANCH  16  17
ENDBRANCH  15  16
ENDBRANCH  14  15
ENDBRANCH  13  14
ENDBRANCH  12  13
ENDBRANCH  10  11
ENDBRANCH   1  10
TORSDOF 13
ENDMDL
MODEL 6
REMARK VINA RESULT:    -5.007      8.298      9.799
REMARK INTER + INTRA:         -10.201
REMARK INTER:                  -8.345
REMARK INTRA:                  -1.856
REMARK UNBOUND:                -1.388
REMARK SMILES CCCCCCC=CCCCCCCCC(=O)[O-]
REMARK SMILES IDX 10 1 11 2 12 3 13 4 14 5 15 6 16 7 17 8 18 9 9 10 8 11 7 12
REMARK SMILES IDX 6 13 5 14 4 15 3 16 2 17 1 18
REMARK H PARENT
REMARK Flexibility Score: inf
ROOT
ATOM      1  C   UNL     1     -24.614 -28.059   6.189  1.00  0.00     0.004 C 
ENDROOT
BRANCH   1   2
ATOM      2  C   UNL     1     -25.268 -29.052   7.163  1.00  0.00     0.000 C 
BRANCH   2   3
ATOM      3  C   UNL     1     -26.770 -29.244   6.890  1.00  0.00     0.000 C 
BRANCH   3   4
ATOM      4  C   UNL     1     -27.659 -28.644   7.994  1.00  0.00     0.000 C 
BRANCH   4   5
ATOM      5  C   UNL     1     -26.893 -28.026   9.178  1.00  0.00     0.006 C 
BRANCH   5   6
ATOM      6  C   UNL     1     -27.340 -26.594   9.498  1.00  0.00     0.053 C 
BRANCH   6   7
ATOM      7  C   UNL     1     -26.156 -25.683   9.577  1.00  0.00     0.041 C 
ATOM      8  O   UNL     1     -25.368 -25.583   8.601  1.00  0.00    -0.550 OA
ATOM      9  O   UNL     1     -25.898 -24.978  10.747  1.00  0.00    -0.550 OA
ENDBRANCH   6   7
ENDBRANCH   5   6
ENDBRANCH   4   5
ENDBRANCH   3   4
ENDBRANCH   2   3
ENDBRANCH   1   2
BRANCH   1  10
ATOM     10  C   UNL     1     -25.198 -28.152   4.771  1.00  0.00     0.027 C 
BRANCH  10  11
ATOM     11  C   UNL     1     -24.353 -29.033   3.894  1.00  0.00    -0.031 C 
ATOM     12  C   UNL     1     -23.097 -28.695   3.560  1.00  0.00    -0.031 C 
BRANCH  12  13
ATOM     13  C   UNL     1     -22.245 -29.586   2.698  1.00  0.00     0.027 C 
BRANCH  13  14
ATOM     14  C   UNL     1     -22.579 -31.065   2.928  1.00  0.00     0.004 C 
BRANCH  14  15
ATOM     15  C   UNL     1     -21.850 -31.608   4.164  1.00  0.00     0.000 C 
BRANCH  15  16
ATOM     16  C   UNL     1     -22.842 -32.234   5.155  1.00  0.00    -0.000 C 
BRANCH  16  17
ATOM     17  C   UNL     1     -22.828 -31.538   6.524  1.00  0.00    -0.003 C 
ATOM     18  C   UNL     1     -21.704 -30.510   6.655  1.00  0.00     0.004 C 
ENDBRANCH  16  17
ENDBRANCH  15  16
ENDBRANCH  14  15
ENDBRANCH  13  14
ENDBRANCH  12  13
ENDBRANCH  10  11
ENDBRANCH   1  10
TORSDOF 13
ENDMDL
MODEL 7
REMARK VINA RESULT:    -4.995      3.401      6.566
REMARK INTER + INTRA:         -10.178
REMARK INTER:                  -8.705
REMARK INTRA:                  -1.474
REMARK UNBOUND:                -1.388
REMARK SMILES CCCCCCC=CCCCCCCCC(=O)[O-]
REMARK SMILES IDX 10 1 11 2 12 3 13 4 14 5 15 6 16 7 17 8 18 9 9 10 8 11 7 12
REMARK SMILES IDX 6 13 5 14 4 15 3 16 2 17 1 18
REMARK H PARENT
REMARK Flexibility Score: inf
ROOT
ATOM      1  C   UNL     1     -19.257 -26.708  15.035  1.00  0.00     0.004 C 
ENDROOT
BRANCH   1   2
ATOM      2  C   UNL     1     -18.742 -25.370  14.478  1.00  0.00     0.000 C 
BRANCH   2   3
ATOM      3  C   UNL     1     -19.702 -24.202  14.764  1.00  0.00     0.000 C 
BRANCH   3   4
ATOM      4  C   UNL     1     -20.143 -23.466  13.486  1.00  0.00     0.000 C 
BRANCH   4   5
ATOM      5  C   UNL     1     -19.064 -23.365  12.392  1.00  0.00     0.006 C 
BRANCH   5   6
ATOM      6  C   UNL     1     -19.083 -22.018  11.657  1.00  0.00     0.053 C 
BRANCH   6   7
ATOM      7  C   UNL     1     -19.639 -22.183  10.279  1.00  0.00     0.041 C 
ATOM      8  O   UNL     1     -19.437 -23.246   9.637  1.00  0.00    -0.550 OA
ATOM      9  O   UNL     1     -20.343 -21.142   9.685  1.00  0.00    -0.550 OA
ENDBRANCH   6   7
ENDBRANCH   5   6
ENDBRANCH   4   5
ENDBRANCH   3   4
ENDBRANCH   2   3
ENDBRANCH   1   2
BRANCH   1  10
ATOM     10  C   UNL     1     -19.933 -27.572  13.960  1.00  0.00     0.027 C 
BRANCH  10  11
ATOM     11  C   UNL     1     -20.991 -28.454  14.562  1.00  0.00    -0.031 C 
ATOM     12  C   UNL     1     -21.119 -28.591  15.891  1.00  0.00    -0.031 C 
BRANCH  12  13
ATOM     13  C   UNL     1     -22.190 -29.459  16.494  1.00  0.00     0.027 C 
BRANCH  13  14
ATOM     14  C   UNL     1     -22.955 -28.712  17.594  1.00  0.00     0.004 C 
BRANCH  14  15
ATOM     15  C   UNL     1     -22.814 -27.194  17.427  1.00  0.00     0.000 C 
BRANCH  15  16
ATOM     16  C   UNL     1     -24.192 -26.517  17.379  1.00  0.00    -0.000 C 
BRANCH  16  17
ATOM     17  C   UNL     1     -24.258 -25.384  16.345  1.00  0.00    -0.003 C 
ATOM     18  C   UNL     1     -23.170 -25.492  15.277  1.00  0.00     0.004 C 
ENDBRANCH  16  17
ENDBRANCH  15  16
ENDBRANCH  14  15
ENDBRANCH  13  14
ENDBRANCH  12  13
ENDBRANCH  10  11
ENDBRANCH   1  10
TORSDOF 13
ENDMDL
MODEL 8
REMARK VINA RESULT:    -4.980      5.328      7.730
REMARK INTER + INTRA:         -10.152
REMARK INTER:                  -8.651
REMARK INTRA:                  -1.501
REMARK UNBOUND:                -1.388
REMARK SMILES CCCCCCC=CCCCCCCCC(=O)[O-]
REMARK SMILES IDX 10 1 11 2 12 3 13 4 14 5 15 6 16 7 17 8 18 9 9 10 8 11 7 12
REMARK SMILES IDX 6 13 5 14 4 15 3 16 2 17 1 18
REMARK H PARENT
REMARK Flexibility Score: inf
ROOT
ATOM      1  C   UNL     1     -23.929 -25.278  17.002  1.00  0.00     0.004 C 
ENDROOT
BRANCH   1   2
ATOM      2  C   UNL     1     -24.702 -26.449  17.631  1.00  0.00     0.000 C 
BRANCH   2   3
ATOM      3  C   UNL     1     -24.078 -26.927  18.953  1.00  0.00     0.000 C 
BRANCH   3   4
ATOM      4  C   UNL     1     -22.921 -27.921  18.741  1.00  0.00     0.000 C 
BRANCH   4   5
ATOM      5  C   UNL     1     -22.942 -28.660  17.391  1.00  0.00     0.006 C 
BRANCH   5   6
ATOM      6  C   UNL     1     -21.726 -29.575  17.191  1.00  0.00     0.053 C 
BRANCH   6   7
ATOM      7  C   UNL     1     -21.786 -30.237  15.851  1.00  0.00     0.041 C 
ATOM      8  O   UNL     1     -22.246 -31.403  15.741  1.00  0.00    -0.550 OA
ATOM      9  O   UNL     1     -21.290 -29.583  14.730  1.00  0.00    -0.550 OA
ENDBRANCH   6   7
ENDBRANCH   5   6
ENDBRANCH   4   5
ENDBRANCH   3   4
ENDBRANCH   2   3
ENDBRANCH   1   2
BRANCH   1  10
ATOM     10  C   UNL     1     -23.856 -25.376  15.471  1.00  0.00     0.027 C 
BRANCH  10  11
ATOM     11  C   UNL     1     -22.437 -25.554  15.008  1.00  0.00    -0.031 C 
ATOM     12  C   UNL     1     -21.432 -25.745  15.878  1.00  0.00    -0.031 C 
BRANCH  12  13
ATOM     13  C   UNL     1     -20.015 -25.943  15.413  1.00  0.00     0.027 C 
BRANCH  13  14
ATOM     14  C   UNL     1     -19.362 -24.606  15.042  1.00  0.00     0.004 C 
BRANCH  14  15
ATOM     15  C   UNL     1     -18.898 -24.608  13.580  1.00  0.00     0.000 C 
BRANCH  15  16
ATOM     16  C   UNL     1     -20.005 -24.086  12.652  1.00  0.00    -0.000 C 
BRANCH  16  17
ATOM     17  C   UNL     1     -20.064 -22.551  12.608  1.00  0.00    -0.003 C 
ATOM     18  C   UNL     1     -19.102 -21.951  11.583  1.00  0.00     0.004 C 
ENDBRANCH  16  17
ENDBRANCH  15  16
ENDBRANCH  14  15
ENDBRANCH  13  14
ENDBRANCH  12  13
ENDBRANCH  10  11
ENDBRANCH   1  10
TORSDOF 13
ENDMDL
MODEL 9
REMARK VINA RESULT:    -4.974      4.801      7.078
REMARK INTER + INTRA:         -10.141
REMARK INTER:                  -9.082
REMARK INTRA:                  -1.059
REMARK UNBOUND:                -1.388
REMARK SMILES CCCCCCC=CCCCCCCCC(=O)[O-]
REMARK SMILES IDX 10 1 11 2 12 3 13 4 14 5 15 6 16 7 17 8 18 9 9 10 8 11 7 12
REMARK SMILES IDX 6 13 5 14 4 15 3 16 2 17 1 18
REMARK H PARENT
REMARK Flexibility Score: inf
ROOT
ATOM      1  C   UNL     1     -22.355 -26.681  16.940  1.00  0.00     0.004 C 
ENDROOT
BRANCH   1   2
ATOM      2  C   UNL     1     -22.233 -28.138  17.415  1.00  0.00     0.000 C 
BRANCH   2   3
ATOM      3  C   UNL     1     -21.342 -28.987  16.492  1.00  0.00     0.000 C 
BRANCH   3   4
ATOM      4  C   UNL     1     -21.893 -30.408  16.274  1.00  0.00     0.000 C 
BRANCH   4   5
ATOM      5  C   UNL     1     -22.045 -30.825  14.800  1.00  0.00     0.006 C 
BRANCH   5   6
ATOM      6  C   UNL     1     -21.156 -30.007  13.853  1.00  0.00     0.053 C 
BRANCH   6   7
ATOM      7  C   UNL     1     -21.005 -30.710  12.542  1.00  0.00     0.041 C 
ATOM      8  O   UNL     1     -20.698 -31.930  12.508  1.00  0.00    -0.550 OA
ATOM      9  O   UNL     1     -21.159 -30.005  11.354  1.00  0.00    -0.550 OA
ENDBRANCH   6   7
ENDBRANCH   5   6
ENDBRANCH   4   5
ENDBRANCH   3   4
ENDBRANCH   2   3
ENDBRANCH   1   2
BRANCH   1  10
ATOM     10  C   UNL     1     -22.497 -26.568  15.415  1.00  0.00     0.027 C 
BRANCH  10  11
ATOM     11  C   UNL     1     -21.652 -25.448  14.874  1.00  0.00    -0.031 C 
ATOM     12  C   UNL     1     -20.368 -25.298  15.237  1.00  0.00    -0.031 C 
BRANCH  12  13
ATOM     13  C   UNL     1     -19.517 -24.190  14.681  1.00  0.00     0.027 C 
BRANCH  13  14
ATOM     14  C   UNL     1     -20.147 -23.587  13.419  1.00  0.00     0.004 C 
BRANCH  14  15
ATOM     15  C   UNL     1     -19.077 -23.280  12.364  1.00  0.00     0.000 C 
BRANCH  15  16
ATOM     16  C   UNL     1     -19.697 -22.596  11.136  1.00  0.00    -0.000 C 
BRANCH  16  17
ATOM     17  C   UNL     1     -19.059 -21.231  10.836  1.00  0.00    -0.003 C 
ATOM     18  C   UNL     1     -19.387 -20.179  11.895  1.00  0.00     0.004 C 
ENDBRANCH  16  17
ENDBRANCH  15  16
ENDBRANCH  14  15
ENDBRANCH  13  14
ENDBRANCH  12  13
ENDBRANCH  10  11
ENDBRANCH   1  10
TORSDOF 13
ENDMDL
