MODEL 1
REMARK VINA RESULT:    -4.327      0.000      0.000
REMARK INTER + INTRA:          -8.434
REMARK INTER:                  -6.857
REMARK INTRA:                  -1.577
REMARK UNBOUND:                -1.577
REMARK SMILES CCCCCCCCCCCC(=O)[O-]
REMARK SMILES IDX 7 1 8 2 9 3 10 4 11 5 12 6 13 7 14 8 6 9 5 10 4 11 3 12 2 13
REMARK SMILES IDX 1 14
REMARK H PARENT
REMARK Flexibility Score: inf
ROOT
ATOM      1  C   UNL     1      39.777  62.418   8.358  1.00  0.00     0.000 C 
ENDROOT
BRANCH   1   2
ATOM      2  C   UNL     1      40.600  63.639   8.801  1.00  0.00     0.000 C 
BRANCH   2   3
ATOM      3  C   UNL     1      40.506  64.807   7.807  1.00  0.00     0.000 C 
BRANCH   3   4
ATOM      4  C   UNL     1      39.218  64.763   6.964  1.00  0.00     0.006 C 
BRANCH   4   5
ATOM      5  C   UNL     1      39.320  65.638   5.707  1.00  0.00     0.053 C 
BRANCH   5   6
ATOM      6  C   UNL     1      38.082  66.453   5.495  1.00  0.00     0.041 C 
ATOM      7  O   UNL     1      37.894  67.051   4.402  1.00  0.00    -0.550 OA
ATOM      8  O   UNL     1      37.120  66.530   6.495  1.00  0.00    -0.550 OA
ENDBRANCH   5   6
ENDBRANCH   4   5
ENDBRANCH   3   4
ENDBRANCH   2   3
ENDBRANCH   1   2
BRANCH   1   9
ATOM      9  C   UNL     1      40.597  61.117   8.349  1.00  0.00     0.000 C 
BRANCH   9  10
ATOM     10  C   UNL     1      41.100  60.710   6.948  1.00  0.00    -0.000 C 
BRANCH  10  11
ATOM     11  C   UNL     1      40.263  61.340   5.824  1.00  0.00    -0.000 C 
BRANCH  11  12
ATOM     12  C   UNL     1      41.151  62.104   4.836  1.00  0.00    -0.000 C 
BRANCH  12  13
ATOM     13  C   UNL     1      42.449  62.566   5.506  1.00  0.00    -0.003 C 
ATOM     14  C   UNL     1      42.776  64.010   5.138  1.00  0.00     0.004 C 
ENDBRANCH  12  13
ENDBRANCH  11  12
ENDBRANCH  10  11
ENDBRANCH   9  10
ENDBRANCH   1   9
TORSDOF 10
ENDMDL
MODEL 2
REMARK VINA RESULT:    -4.306      4.540      6.786
REMARK INTER + INTRA:          -8.399
REMARK INTER:                  -7.845
REMARK INTRA:                  -0.554
REMARK UNBOUND:                -1.577
REMARK SMILES CCCCCCCCCCCC(=O)[O-]
REMARK SMILES IDX 7 1 8 2 9 3 10 4 11 5 12 6 13 7 14 8 6 9 5 10 4 11 3 12 2 13
REMARK SMILES IDX 1 14
REMARK H PARENT
REMARK Flexibility Score: inf
ROOT
ATOM      1  C   UNL     1      41.043  61.925   8.012  1.00  0.00     0.000 C 
ENDROOT
BRANCH   1   2
ATOM      2  C   UNL     1      39.748  61.226   7.568  1.00  0.00     0.000 C 
BRANCH   2   3
ATOM      3  C   UNL     1      39.696  59.751   7.997  1.00  0.00     0.000 C 
BRANCH   3   4
ATOM      4  C   UNL     1      41.073  59.211   8.424  1.00  0.00     0.006 C 
BRANCH   4   5
ATOM      5  C   UNL     1      41.084  57.681   8.535  1.00  0.00     0.053 C 
BRANCH   5   6
ATOM      6  C   UNL     1      42.004  57.057   7.532  1.00  0.00     0.041 C 
ATOM      7  O   UNL     1      41.978  55.813   7.333  1.00  0.00    -0.550 OA
ATOM      8  O   UNL     1      42.871  57.853   6.793  1.00  0.00    -0.550 OA
ENDBRANCH   5   6
ENDBRANCH   4   5
ENDBRANCH   3   4
ENDBRANCH   2   3
ENDBRANCH   1   2
BRANCH   1   9
ATOM      9  C   UNL     1      40.792  63.316   8.619  1.00  0.00     0.000 C 
BRANCH   9  10
ATOM     10  C   UNL     1      39.297  63.662   8.782  1.00  0.00    -0.000 C 
BRANCH  10  11
ATOM     11  C   UNL     1      38.970  65.076   8.279  1.00  0.00    -0.000 C 
BRANCH  11  12
ATOM     12  C   UNL     1      38.662  65.071   6.778  1.00  0.00    -0.000 C 
BRANCH  12  13
ATOM     13  C   UNL     1      37.565  66.086   6.437  1.00  0.00    -0.003 C 
ATOM     14  C   UNL     1      37.860  66.795   5.119  1.00  0.00     0.004 C 
ENDBRANCH  12  13
ENDBRANCH  11  12
ENDBRANCH  10  11
ENDBRANCH   9  10
ENDBRANCH   1   9
TORSDOF 10
ENDMDL
MODEL 3
REMARK VINA RESULT:    -4.261      3.297      4.739
REMARK INTER + INTRA:          -8.328
REMARK INTER:                  -6.968
REMARK INTRA:                  -1.360
REMARK UNBOUND:                -1.577
REMARK SMILES CCCCCCCCCCCC(=O)[O-]
REMARK SMILES IDX 7 1 8 2 9 3 10 4 11 5 12 6 13 7 14 8 6 9 5 10 4 11 3 12 2 13
REMARK SMILES IDX 1 14
REMARK H PARENT
REMARK Flexibility Score: inf
ROOT
ATOM      1  C   UNL     1      39.122  65.066   8.152  1.00  0.00     0.000 C 
ENDROOT
BRANCH   1   2
ATOM      2  C   UNL     1      39.368  63.720   8.853  1.00  0.00     0.000 C 
BRANCH   2   3
ATOM      3  C   UNL     1      40.835  63.269   8.768  1.00  0.00     0.000 C 
BRANCH   3   4
ATOM      4  C   UNL     1      40.975  61.784   8.386  1.00  0.00     0.006 C 
BRANCH   4   5
ATOM      5  C   UNL     1      39.823  61.306   7.492  1.00  0.00     0.053 C 
BRANCH   5   6
ATOM      6  C   UNL     1      39.736  59.812   7.449  1.00  0.00     0.041 C 
ATOM      7  O   UNL     1      39.234  59.233   6.448  1.00  0.00    -0.550 OA
ATOM      8  O   UNL     1      40.235  59.055   8.502  1.00  0.00    -0.550 OA
ENDBRANCH   5   6
ENDBRANCH   4   5
ENDBRANCH   3   4
ENDBRANCH   2   3
ENDBRANCH   1   2
BRANCH   1   9
ATOM      9  C   UNL     1      38.821  64.911   6.652  1.00  0.00     0.000 C 
BRANCH   9  10
ATOM     10  C   UNL     1      39.968  65.391   5.737  1.00  0.00    -0.000 C 
BRANCH  10  11
ATOM     11  C   UNL     1      40.803  64.224   5.191  1.00  0.00    -0.000 C 
BRANCH  11  12
ATOM     12  C   UNL     1      42.269  64.344   5.624  1.00  0.00    -0.000 C 
BRANCH  12  13
ATOM     13  C   UNL     1      42.512  65.649   6.388  1.00  0.00    -0.003 C 
ATOM     14  C   UNL     1      43.581  66.497   5.706  1.00  0.00     0.004 C 
ENDBRANCH  12  13
ENDBRANCH  11  12
ENDBRANCH  10  11
ENDBRANCH   9  10
ENDBRANCH   1   9
TORSDOF 10
ENDMDL
MODEL 4
REMARK VINA RESULT:    -4.179     15.910     17.206
REMARK INTER + INTRA:          -8.199
REMARK INTER:                  -7.880
REMARK INTRA:                  -0.319
REMARK UNBOUND:                -1.577
REMARK SMILES CCCCCCCCCCCC(=O)[O-]
REMARK SMILES IDX 7 1 8 2 9 3 10 4 11 5 12 6 13 7 14 8 6 9 5 10 4 11 3 12 2 13
REMARK SMILES IDX 1 14
REMARK H PARENT
REMARK Flexibility Score: inf
ROOT
ATOM      1  C   UNL     1      30.213  57.743  -5.466  1.00  0.00     0.000 C 
ENDROOT
BRANCH   1   2
ATOM      2  C   UNL     1      29.269  56.534  -5.563  1.00  0.00     0.000 C 
BRANCH   2   3
ATOM      3  C   UNL     1      28.559  56.448  -6.924  1.00  0.00     0.000 C 
BRANCH   3   4
ATOM      4  C   UNL     1      28.828  57.678  -7.810  1.00  0.00     0.006 C 
BRANCH   4   5
ATOM      5  C   UNL     1      28.119  57.578  -9.167  1.00  0.00     0.053 C 
BRANCH   5   6
ATOM      6  C   UNL     1      28.137  58.883  -9.901  1.00  0.00     0.041 C 
ATOM      7  O   UNL     1      28.479  58.926 -11.113  1.00  0.00    -0.550 OA
ATOM      8  O   UNL     1      27.746  60.050  -9.255  1.00  0.00    -0.550 OA
ENDBRANCH   5   6
ENDBRANCH   4   5
ENDBRANCH   3   4
ENDBRANCH   2   3
ENDBRANCH   1   2
BRANCH   1   9
ATOM      9  C   UNL     1      30.735  57.980  -4.038  1.00  0.00     0.000 C 
BRANCH   9  10
ATOM     10  C   UNL     1      31.110  59.448  -3.750  1.00  0.00    -0.000 C 
BRANCH  10  11
ATOM     11  C   UNL     1      31.974  59.590  -2.487  1.00  0.00    -0.000 C 
BRANCH  11  12
ATOM     12  C   UNL     1      31.168  60.197  -1.333  1.00  0.00    -0.000 C 
BRANCH  12  13
ATOM     13  C   UNL     1      31.576  59.578   0.008  1.00  0.00    -0.003 C 
ATOM     14  C   UNL     1      31.495  60.603   1.136  1.00  0.00     0.004 C 
ENDBRANCH  12  13
ENDBRANCH  11  12
ENDBRANCH  10  11
ENDBRANCH   9  10
ENDBRANCH   1   9
TORSDOF 10
ENDMDL
MODEL 5
REMARK VINA RESULT:    -4.127      1.683      3.078
REMARK INTER + INTRA:          -8.116
REMARK INTER:                  -7.454
REMARK INTRA:                  -0.662
REMARK UNBOUND:                -1.577
REMARK SMILES CCCCCCCCCCCC(=O)[O-]
REMARK SMILES IDX 7 1 8 2 9 3 10 4 11 5 12 6 13 7 14 8 6 9 5 10 4 11 3 12 2 13
REMARK SMILES IDX 1 14
REMARK H PARENT
REMARK Flexibility Score: inf
ROOT
ATOM      1  C   UNL     1      41.159  63.554   6.853  1.00  0.00     0.000 C 
ENDROOT
BRANCH   1   2
ATOM      2  C   UNL     1      40.683  64.296   8.113  1.00  0.00     0.000 C 
BRANCH   2   3
ATOM      3  C   UNL     1      39.217  64.746   8.014  1.00  0.00     0.000 C 
BRANCH   3   4
ATOM      4  C   UNL     1      38.846  65.244   6.605  1.00  0.00     0.006 C 
BRANCH   4   5
ATOM      5  C   UNL     1      37.515  66.007   6.595  1.00  0.00     0.053 C 
BRANCH   5   6
ATOM      6  C   UNL     1      37.513  67.109   5.580  1.00  0.00     0.041 C 
ATOM      7  O   UNL     1      36.851  68.161   5.786  1.00  0.00    -0.550 OA
ATOM      8  O   UNL     1      38.266  66.987   4.419  1.00  0.00    -0.550 OA
ENDBRANCH   5   6
ENDBRANCH   4   5
ENDBRANCH   3   4
ENDBRANCH   2   3
ENDBRANCH   1   2
BRANCH   1   9
ATOM      9  C   UNL     1      41.406  62.056   7.100  1.00  0.00     0.000 C 
BRANCH   9  10
ATOM     10  C   UNL     1      40.724  61.517   8.376  1.00  0.00    -0.000 C 
BRANCH  10  11
ATOM     11  C   UNL     1      39.647  60.467   8.059  1.00  0.00    -0.000 C 
BRANCH  11  12
ATOM     12  C   UNL     1      39.704  60.044   6.587  1.00  0.00    -0.000 C 
BRANCH  12  13
ATOM     13  C   UNL     1      38.812  58.825   6.330  1.00  0.00    -0.003 C 
ATOM     14  C   UNL     1      38.167  58.331   7.621  1.00  0.00     0.004 C 
ENDBRANCH  12  13
ENDBRANCH  11  12
ENDBRANCH  10  11
ENDBRANCH   9  10
ENDBRANCH   1   9
TORSDOF 10
ENDMDL
MODEL 6
REMARK VINA RESULT:    -4.077      4.298      6.103
REMARK INTER + INTRA:          -8.037
REMARK INTER:                  -7.083
REMARK INTRA:                  -0.954
REMARK UNBOUND:                -1.577
REMARK SMILES CCCCCCCCCCCC(=O)[O-]
REMARK SMILES IDX 7 1 8 2 9 3 10 4 11 5 12 6 13 7 14 8 6 9 5 10 4 11 3 12 2 13
REMARK SMILES IDX 1 14
REMARK H PARENT
REMARK Flexibility Score: inf
ROOT
ATOM      1  C   UNL     1      39.809  62.261   8.171  1.00  0.00     0.000 C 
ENDROOT
BRANCH   1   2
ATOM      2  C   UNL     1      41.237  61.716   8.338  1.00  0.00     0.000 C 
BRANCH   2   3
ATOM      3  C   UNL     1      41.379  60.271   7.835  1.00  0.00     0.000 C 
BRANCH   3   4
ATOM      4  C   UNL     1      40.282  59.342   8.385  1.00  0.00     0.006 C 
BRANCH   4   5
ATOM      5  C   UNL     1      40.812  57.933   8.682  1.00  0.00     0.053 C 
BRANCH   5   6
ATOM      6  C   UNL     1      41.215  57.216   7.431  1.00  0.00     0.041 C 
ATOM      7  O   UNL     1      42.301  56.578   7.385  1.00  0.00    -0.550 OA
ATOM      8  O   UNL     1      40.376  57.225   6.323  1.00  0.00    -0.550 OA
ENDBRANCH   5   6
ENDBRANCH   4   5
ENDBRANCH   3   4
ENDBRANCH   2   3
ENDBRANCH   1   2
BRANCH   1   9
ATOM      9  C   UNL     1      39.589  63.594   8.907  1.00  0.00     0.000 C 
BRANCH   9  10
ATOM     10  C   UNL     1      39.196  64.759   7.974  1.00  0.00    -0.000 C 
BRANCH  10  11
ATOM     11  C   UNL     1      39.875  64.658   6.600  1.00  0.00    -0.000 C 
BRANCH  11  12
ATOM     12  C   UNL     1      41.346  65.080   6.678  1.00  0.00    -0.000 C 
BRANCH  12  13
ATOM     13  C   UNL     1      42.172  64.406   5.577  1.00  0.00    -0.003 C 
ATOM     14  C   UNL     1      41.376  63.301   4.889  1.00  0.00     0.004 C 
ENDBRANCH  12  13
ENDBRANCH  11  12
ENDBRANCH  10  11
ENDBRANCH   9  10
ENDBRANCH   1   9
TORSDOF 10
ENDMDL
MODEL 7
REMARK VINA RESULT:    -4.052      3.761      5.265
REMARK INTER + INTRA:          -7.997
REMARK INTER:                  -6.534
REMARK INTRA:                  -1.463
REMARK UNBOUND:                -1.577
REMARK SMILES CCCCCCCCCCCC(=O)[O-]
REMARK SMILES IDX 7 1 8 2 9 3 10 4 11 5 12 6 13 7 14 8 6 9 5 10 4 11 3 12 2 13
REMARK SMILES IDX 1 14
REMARK H PARENT
REMARK Flexibility Score: inf
ROOT
ATOM      1  C   UNL     1      40.051  63.615   8.704  1.00  0.00     0.000 C 
ENDROOT
BRANCH   1   2
ATOM      2  C   UNL     1      39.931  62.138   8.296  1.00  0.00     0.000 C 
BRANCH   2   3
ATOM      3  C   UNL     1      41.282  61.405   8.327  1.00  0.00     0.000 C 
BRANCH   3   4
ATOM      4  C   UNL     1      41.230  60.039   7.620  1.00  0.00     0.006 C 
BRANCH   4   5
ATOM      5  C   UNL     1      39.798  59.642   7.235  1.00  0.00     0.053 C 
BRANCH   5   6
ATOM      6  C   UNL     1      39.346  58.414   7.963  1.00  0.00     0.041 C 
ATOM      7  O   UNL     1      38.135  58.066   7.931  1.00  0.00    -0.550 OA
ATOM      8  O   UNL     1      40.267  57.636   8.653  1.00  0.00    -0.550 OA
ENDBRANCH   5   6
ENDBRANCH   4   5
ENDBRANCH   3   4
ENDBRANCH   2   3
ENDBRANCH   1   2
BRANCH   1   9
ATOM      9  C   UNL     1      41.265  64.313   8.067  1.00  0.00     0.000 C 
BRANCH   9  10
ATOM     10  C   UNL     1      40.974  64.919   6.677  1.00  0.00    -0.000 C 
BRANCH  10  11
ATOM     11  C   UNL     1      41.837  64.285   5.575  1.00  0.00    -0.000 C 
BRANCH  11  12
ATOM     12  C   UNL     1      41.054  63.213   4.809  1.00  0.00    -0.000 C 
BRANCH  12  13
ATOM     13  C   UNL     1      41.934  61.993   4.516  1.00  0.00    -0.003 C 
ATOM     14  C   UNL     1      43.277  62.097   5.232  1.00  0.00     0.004 C 
ENDBRANCH  12  13
ENDBRANCH  11  12
ENDBRANCH  10  11
ENDBRANCH   9  10
ENDBRANCH   1   9
TORSDOF 10
ENDMDL
MODEL 8
REMARK VINA RESULT:    -4.047      3.701      5.467
REMARK INTER + INTRA:          -7.990
REMARK INTER:                  -6.628
REMARK INTRA:                  -1.363
REMARK UNBOUND:                -1.577
REMARK SMILES CCCCCCCCCCCC(=O)[O-]
REMARK SMILES IDX 7 1 8 2 9 3 10 4 11 5 12 6 13 7 14 8 6 9 5 10 4 11 3 12 2 13
REMARK SMILES IDX 1 14
REMARK H PARENT
REMARK Flexibility Score: inf
ROOT
ATOM      1  C   UNL     1      39.887  62.144   8.270  1.00  0.00     0.000 C 
ENDROOT
BRANCH   1   2
ATOM      2  C   UNL     1      41.263  61.466   8.379  1.00  0.00     0.000 C 
BRANCH   2   3
ATOM      3  C   UNL     1      41.595  60.605   7.150  1.00  0.00     0.000 C 
BRANCH   3   4
ATOM      4  C   UNL     1      40.336  60.054   6.457  1.00  0.00     0.006 C 
BRANCH   4   5
ATOM      5  C   UNL     1      40.241  58.526   6.560  1.00  0.00     0.053 C 
BRANCH   5   6
ATOM      6  C   UNL     1      39.620  58.093   7.853  1.00  0.00     0.041 C 
ATOM      7  O   UNL     1      40.347  57.743   8.821  1.00  0.00    -0.550 OA
ATOM      8  O   UNL     1      38.239  58.106   7.999  1.00  0.00    -0.550 OA
ENDBRANCH   5   6
ENDBRANCH   4   5
ENDBRANCH   3   4
ENDBRANCH   2   3
ENDBRANCH   1   2
BRANCH   1   9
ATOM      9  C   UNL     1      39.869  63.557   8.877  1.00  0.00     0.000 C 
BRANCH   9  10
ATOM     10  C   UNL     1      39.305  64.634   7.925  1.00  0.00    -0.000 C 
BRANCH  10  11
ATOM     11  C   UNL     1      39.924  64.551   6.522  1.00  0.00    -0.000 C 
BRANCH  11  12
ATOM     12  C   UNL     1      41.417  64.898   6.556  1.00  0.00    -0.000 C 
BRANCH  12  13
ATOM     13  C   UNL     1      42.208  64.023   5.578  1.00  0.00    -0.003 C 
ATOM     14  C   UNL     1      41.275  63.234   4.665  1.00  0.00     0.004 C 
ENDBRANCH  12  13
ENDBRANCH  11  12
ENDBRANCH  10  11
ENDBRANCH   9  10
ENDBRANCH   1   9
TORSDOF 10
ENDMDL
MODEL 9
REMARK VINA RESULT:    -3.955      2.302      3.746
REMARK INTER + INTRA:          -7.843
REMARK INTER:                  -6.353
REMARK INTRA:                  -1.491
REMARK UNBOUND:                -1.577
REMARK SMILES CCCCCCCCCCCC(=O)[O-]
REMARK SMILES IDX 7 1 8 2 9 3 10 4 11 5 12 6 13 7 14 8 6 9 5 10 4 11 3 12 2 13
REMARK SMILES IDX 1 14
REMARK H PARENT
REMARK Flexibility Score: inf
ROOT
ATOM      1  C   UNL     1      41.644  61.300   6.942  1.00  0.00     0.000 C 
ENDROOT
BRANCH   1   2
ATOM      2  C   UNL     1      41.193  61.693   8.358  1.00  0.00     0.000 C 
BRANCH   2   3
ATOM      3  C   UNL     1      39.758  62.242   8.389  1.00  0.00     0.000 C 
BRANCH   3   4
ATOM      4  C   UNL     1      39.680  63.658   8.990  1.00  0.00     0.006 C 
BRANCH   4   5
ATOM      5  C   UNL     1      39.283  64.708   7.944  1.00  0.00     0.053 C 
BRANCH   5   6
ATOM      6  C   UNL     1      40.394  64.978   6.977  1.00  0.00     0.041 C 
ATOM      7  O   UNL     1      40.148  65.110   5.748  1.00  0.00    -0.550 OA
ATOM      8  O   UNL     1      41.698  65.113   7.435  1.00  0.00    -0.550 OA
ENDBRANCH   5   6
ENDBRANCH   4   5
ENDBRANCH   3   4
ENDBRANCH   2   3
ENDBRANCH   1   2
BRANCH   1   9
ATOM      9  C   UNL     1      40.508  61.389   5.908  1.00  0.00     0.000 C 
BRANCH   9  10
ATOM     10  C   UNL     1      40.044  60.016   5.377  1.00  0.00    -0.000 C 
BRANCH  10  11
ATOM     11  C   UNL     1      38.643  59.641   5.884  1.00  0.00    -0.000 C 
BRANCH  11  12
ATOM     12  C   UNL     1      38.718  58.925   7.237  1.00  0.00    -0.000 C 
BRANCH  12  13
ATOM     13  C   UNL     1      39.910  57.965   7.286  1.00  0.00    -0.003 C 
ATOM     14  C   UNL     1      40.552  57.953   8.670  1.00  0.00     0.004 C 
ENDBRANCH  12  13
ENDBRANCH  11  12
ENDBRANCH  10  11
ENDBRANCH   9  10
ENDBRANCH   1   9
TORSDOF 10
ENDMDL
