MODEL 1
REMARK VINA RESULT:    -3.505      0.000      0.000
REMARK INTER + INTRA:          -5.888
REMARK INTER:                  -4.939
REMARK INTRA:                  -0.949
REMARK UNBOUND:                -0.949
REMARK SMILES CC(=O)OCC[C@@H](C)CCC=C(C)C
REMARK SMILES IDX 8 1 7 2 9 3 10 4 11 5 12 6 13 7 14 8 6 9 5 10 4 11 2 12 3 13
REMARK SMILES IDX 1 14
REMARK H PARENT
REMARK Flexibility Score: inf
ROOT
ATOM      1  C   UNL     1     105.925  96.338  27.362  1.00  0.00     0.008 C 
ATOM      2  C   UNL     1     106.774  95.418  26.467  1.00  0.00    -0.011 C 
ENDROOT
BRANCH   2   3
ATOM      3  C   UNL     1     105.883  94.279  25.913  1.00  0.00     0.007 C 
BRANCH   3   4
ATOM      4  C   UNL     1     105.792  94.278  24.378  1.00  0.00     0.027 C 
BRANCH   4   5
ATOM      5  C   UNL     1     104.355  94.172  23.928  1.00  0.00    -0.028 C 
ATOM      6  C   UNL     1     103.590  95.223  23.560  1.00  0.00    -0.080 C 
ATOM      7  C   UNL     1     104.101  96.644  23.620  1.00  0.00     0.039 C 
ATOM      8  C   UNL     1     102.182  94.960  23.094  1.00  0.00     0.039 C 
ENDBRANCH   4   5
ENDBRANCH   3   4
ENDBRANCH   2   3
BRANCH   2   9
ATOM      9  C   UNL     1     107.455  96.209  25.321  1.00  0.00     0.045 C 
BRANCH   9  10
ATOM     10  C   UNL     1     108.942  95.873  25.136  1.00  0.00     0.233 C 
BRANCH  10  11
ATOM     11  O   UNL     1     109.174  95.372  23.822  1.00  0.00    -0.466 OA
BRANCH  11  12
ATOM     12  C   UNL     1     109.746  94.120  23.583  1.00  0.00     0.302 C 
ATOM     13  O   UNL     1     110.100  93.784  22.420  1.00  0.00    -0.253 OA
ATOM     14  C   UNL     1     109.890  93.152  24.707  1.00  0.00     0.139 C 
ENDBRANCH  11  12
ENDBRANCH  10  11
ENDBRANCH   9  10
ENDBRANCH   2   9
TORSDOF 7
ENDMDL
MODEL 2
REMARK VINA RESULT:    -3.330      2.409      4.320
REMARK INTER + INTRA:          -5.641
REMARK INTER:                  -5.059
REMARK INTRA:                  -0.582
REMARK UNBOUND:                -0.949
REMARK SMILES CC(=O)OCC[C@@H](C)CCC=C(C)C
REMARK SMILES IDX 8 1 7 2 9 3 10 4 11 5 12 6 13 7 14 8 6 9 5 10 4 11 2 12 3 13
REMARK SMILES IDX 1 14
REMARK H PARENT
REMARK Flexibility Score: inf
ROOT
ATOM      1  C   UNL     1     110.424  92.872  24.745  1.00  0.00     0.008 C 
ATOM      2  C   UNL     1     109.793  94.015  23.931  1.00  0.00    -0.011 C 
ENDROOT
BRANCH   2   3
ATOM      3  C   UNL     1     109.940  95.342  24.715  1.00  0.00     0.007 C 
BRANCH   3   4
ATOM      4  C   UNL     1     108.589  95.963  25.108  1.00  0.00     0.027 C 
BRANCH   4   5
ATOM      5  C   UNL     1     107.466  94.976  24.900  1.00  0.00    -0.028 C 
ATOM      6  C   UNL     1     106.383  94.871  25.700  1.00  0.00    -0.080 C 
ATOM      7  C   UNL     1     106.220  95.720  26.940  1.00  0.00     0.039 C 
ATOM      8  C   UNL     1     105.320  93.865  25.344  1.00  0.00     0.039 C 
ENDBRANCH   4   5
ENDBRANCH   3   4
ENDBRANCH   2   3
BRANCH   2   9
ATOM      9  C   UNL     1     110.423  94.123  22.518  1.00  0.00     0.045 C 
BRANCH   9  10
ATOM     10  C   UNL     1     111.227  95.412  22.297  1.00  0.00     0.233 C 
BRANCH  10  11
ATOM     11  O   UNL     1     112.107  95.260  21.188  1.00  0.00    -0.466 OA
BRANCH  11  12
ATOM     12  C   UNL     1     113.240  94.443  21.230  1.00  0.00     0.302 C 
ATOM     13  O   UNL     1     114.104  94.584  22.137  1.00  0.00    -0.253 OA
ATOM     14  C   UNL     1     113.454  93.429  20.157  1.00  0.00     0.139 C 
ENDBRANCH  11  12
ENDBRANCH  10  11
ENDBRANCH   9  10
ENDBRANCH   2   9
TORSDOF 7
ENDMDL
MODEL 3
REMARK VINA RESULT:    -3.217     12.068     13.347
REMARK INTER + INTRA:          -5.483
REMARK INTER:                  -4.451
REMARK INTRA:                  -1.031
REMARK UNBOUND:                -0.949
REMARK SMILES CC(=O)OCC[C@@H](C)CCC=C(C)C
REMARK SMILES IDX 8 1 7 2 9 3 10 4 11 5 12 6 13 7 14 8 6 9 5 10 4 11 2 12 3 13
REMARK SMILES IDX 1 14
REMARK H PARENT
REMARK Flexibility Score: inf
ROOT
ATOM      1  C   UNL     1     102.819  82.746  22.750  1.00  0.00     0.008 C 
ATOM      2  C   UNL     1     104.198  82.899  23.416  1.00  0.00    -0.011 C 
ENDROOT
BRANCH   2   3
ATOM      3  C   UNL     1     104.705  81.507  23.866  1.00  0.00     0.007 C 
BRANCH   3   4
ATOM      4  C   UNL     1     104.272  81.141  25.296  1.00  0.00     0.027 C 
BRANCH   4   5
ATOM      5  C   UNL     1     104.855  82.109  26.296  1.00  0.00    -0.028 C 
ATOM      6  C   UNL     1     104.124  82.944  27.067  1.00  0.00    -0.080 C 
ATOM      7  C   UNL     1     102.619  83.023  26.956  1.00  0.00     0.039 C 
ATOM      8  C   UNL     1     104.843  83.828  28.052  1.00  0.00     0.039 C 
ENDBRANCH   4   5
ENDBRANCH   3   4
ENDBRANCH   2   3
BRANCH   2   9
ATOM      9  C   UNL     1     105.214  83.589  22.470  1.00  0.00     0.045 C 
BRANCH   9  10
ATOM     10  C   UNL     1     104.700  83.765  21.034  1.00  0.00     0.233 C 
BRANCH  10  11
ATOM     11  O   UNL     1     105.501  83.012  20.128  1.00  0.00    -0.466 OA
BRANCH  11  12
ATOM     12  C   UNL     1     105.744  81.645  20.294  1.00  0.00     0.302 C 
ATOM     13  O   UNL     1     106.907  81.223  20.540  1.00  0.00    -0.253 OA
ATOM     14  C   UNL     1     104.626  80.675  20.126  1.00  0.00     0.139 C 
ENDBRANCH  11  12
ENDBRANCH  10  11
ENDBRANCH   9  10
ENDBRANCH   2   9
TORSDOF 7
ENDMDL
MODEL 4
REMARK VINA RESULT:    -3.159      2.261      5.263
REMARK INTER + INTRA:          -5.401
REMARK INTER:                  -4.519
REMARK INTRA:                  -0.882
REMARK UNBOUND:                -0.949
REMARK SMILES CC(=O)OCC[C@@H](C)CCC=C(C)C
REMARK SMILES IDX 8 1 7 2 9 3 10 4 11 5 12 6 13 7 14 8 6 9 5 10 4 11 2 12 3 13
REMARK SMILES IDX 1 14
REMARK H PARENT
REMARK Flexibility Score: inf
ROOT
ATOM      1  C   UNL     1     108.228  97.189  24.262  1.00  0.00     0.008 C 
ATOM      2  C   UNL     1     107.955  95.777  24.809  1.00  0.00    -0.011 C 
ENDROOT
BRANCH   2   3
ATOM      3  C   UNL     1     109.303  95.064  25.078  1.00  0.00     0.007 C 
BRANCH   3   4
ATOM      4  C   UNL     1     109.463  93.756  24.284  1.00  0.00     0.027 C 
BRANCH   4   5
ATOM      5  C   UNL     1     110.514  93.907  23.211  1.00  0.00    -0.028 C 
ATOM      6  C   UNL     1     110.255  94.260  21.933  1.00  0.00    -0.080 C 
ATOM      7  C   UNL     1     108.847  94.489  21.436  1.00  0.00     0.039 C 
ATOM      8  C   UNL     1     111.412  94.412  20.980  1.00  0.00     0.039 C 
ENDBRANCH   4   5
ENDBRANCH   3   4
ENDBRANCH   2   3
BRANCH   2   9
ATOM      9  C   UNL     1     107.077  95.820  26.086  1.00  0.00     0.045 C 
BRANCH   9  10
ATOM     10  C   UNL     1     106.033  94.696  26.156  1.00  0.00     0.233 C 
BRANCH  10  11
ATOM     11  O   UNL     1     105.803  94.155  24.859  1.00  0.00    -0.466 OA
BRANCH  11  12
ATOM     12  C   UNL     1     104.624  94.383  24.145  1.00  0.00     0.302 C 
ATOM     13  O   UNL     1     103.843  93.432  23.870  1.00  0.00    -0.253 OA
ATOM     14  C   UNL     1     104.315  95.757  23.658  1.00  0.00     0.139 C 
ENDBRANCH  11  12
ENDBRANCH  10  11
ENDBRANCH   9  10
ENDBRANCH   2   9
TORSDOF 7
ENDMDL
MODEL 5
REMARK VINA RESULT:    -3.114      2.635      6.468
REMARK INTER + INTRA:          -5.337
REMARK INTER:                  -4.661
REMARK INTRA:                  -0.676
REMARK UNBOUND:                -0.949
REMARK SMILES CC(=O)OCC[C@@H](C)CCC=C(C)C
REMARK SMILES IDX 8 1 7 2 9 3 10 4 11 5 12 6 13 7 14 8 6 9 5 10 4 11 2 12 3 13
REMARK SMILES IDX 1 14
REMARK H PARENT
REMARK Flexibility Score: inf
ROOT
ATOM      1  C   UNL     1     110.258  92.711  24.661  1.00  0.00     0.008 C 
ATOM      2  C   UNL     1     110.206  94.110  24.023  1.00  0.00    -0.011 C 
ENDROOT
BRANCH   2   3
ATOM      3  C   UNL     1     109.546  94.009  22.625  1.00  0.00     0.007 C 
BRANCH   3   4
ATOM      4  C   UNL     1     110.472  94.468  21.487  1.00  0.00     0.027 C 
BRANCH   4   5
ATOM      5  C   UNL     1     111.881  94.667  21.990  1.00  0.00    -0.028 C 
ATOM      6  C   UNL     1     112.993  94.341  21.296  1.00  0.00    -0.080 C 
ATOM      7  C   UNL     1     112.924  93.681  19.939  1.00  0.00     0.039 C 
ATOM      8  C   UNL     1     114.337  94.636  21.911  1.00  0.00     0.039 C 
ENDBRANCH   4   5
ENDBRANCH   3   4
ENDBRANCH   2   3
BRANCH   2   9
ATOM      9  C   UNL     1     109.456  95.121  24.927  1.00  0.00     0.045 C 
BRANCH   9  10
ATOM     10  C   UNL     1     108.625  96.150  24.147  1.00  0.00     0.233 C 
BRANCH  10  11
ATOM     11  O   UNL     1     107.368  96.354  24.786  1.00  0.00    -0.466 OA
BRANCH  11  12
ATOM     12  C   UNL     1     106.579  95.300  25.254  1.00  0.00     0.302 C 
ATOM     13  O   UNL     1     106.173  94.401  24.468  1.00  0.00    -0.253 OA
ATOM     14  C   UNL     1     106.170  95.269  26.687  1.00  0.00     0.139 C 
ENDBRANCH  11  12
ENDBRANCH  10  11
ENDBRANCH   9  10
ENDBRANCH   2   9
TORSDOF 7
ENDMDL
MODEL 6
REMARK VINA RESULT:    -3.072      2.747      5.369
REMARK INTER + INTRA:          -5.278
REMARK INTER:                  -4.230
REMARK INTRA:                  -1.048
REMARK UNBOUND:                -0.949
REMARK SMILES CC(=O)OCC[C@@H](C)CCC=C(C)C
REMARK SMILES IDX 8 1 7 2 9 3 10 4 11 5 12 6 13 7 14 8 6 9 5 10 4 11 2 12 3 13
REMARK SMILES IDX 1 14
REMARK H PARENT
REMARK Flexibility Score: inf
ROOT
ATOM      1  C   UNL     1     107.194  95.704  22.003  1.00  0.00     0.008 C 
ATOM      2  C   UNL     1     107.607  96.463  23.276  1.00  0.00    -0.011 C 
ENDROOT
BRANCH   2   3
ATOM      3  C   UNL     1     109.070  96.949  23.130  1.00  0.00     0.007 C 
BRANCH   3   4
ATOM      4  C   UNL     1     109.972  96.507  24.295  1.00  0.00     0.027 C 
BRANCH   4   5
ATOM      5  C   UNL     1     109.629  95.105  24.735  1.00  0.00    -0.028 C 
ATOM      6  C   UNL     1     110.050  93.984  24.109  1.00  0.00    -0.080 C 
ATOM      7  C   UNL     1     110.881  94.036  22.848  1.00  0.00     0.039 C 
ATOM      8  C   UNL     1     109.661  92.648  24.687  1.00  0.00     0.039 C 
ENDBRANCH   4   5
ENDBRANCH   3   4
ENDBRANCH   2   3
BRANCH   2   9
ATOM      9  C   UNL     1     106.648  97.645  23.571  1.00  0.00     0.045 C 
BRANCH   9  10
ATOM     10  C   UNL     1     105.982  97.571  24.952  1.00  0.00     0.233 C 
BRANCH  10  11
ATOM     11  O   UNL     1     106.746  96.744  25.824  1.00  0.00    -0.466 OA
BRANCH  11  12
ATOM     12  C   UNL     1     106.172  95.732  26.599  1.00  0.00     0.302 C 
ATOM     13  O   UNL     1     105.685  95.987  27.734  1.00  0.00    -0.253 OA
ATOM     14  C   UNL     1     106.186  94.328  26.099  1.00  0.00     0.139 C 
ENDBRANCH  11  12
ENDBRANCH  10  11
ENDBRANCH   9  10
ENDBRANCH   2   9
TORSDOF 7
ENDMDL
MODEL 7
REMARK VINA RESULT:    -3.036      2.989      5.009
REMARK INTER + INTRA:          -5.227
REMARK INTER:                  -4.787
REMARK INTRA:                  -0.440
REMARK UNBOUND:                -0.949
REMARK SMILES CC(=O)OCC[C@@H](C)CCC=C(C)C
REMARK SMILES IDX 8 1 7 2 9 3 10 4 11 5 12 6 13 7 14 8 6 9 5 10 4 11 2 12 3 13
REMARK SMILES IDX 1 14
REMARK H PARENT
REMARK Flexibility Score: inf
ROOT
ATOM      1  C   UNL     1     108.697  94.912  21.865  1.00  0.00     0.008 C 
ATOM      2  C   UNL     1     110.035  95.313  22.508  1.00  0.00    -0.011 C 
ENDROOT
BRANCH   2   3
ATOM      3  C   UNL     1     109.792  95.721  23.982  1.00  0.00     0.007 C 
BRANCH   3   4
ATOM      4  C   UNL     1     108.720  94.864  24.676  1.00  0.00     0.027 C 
BRANCH   4   5
ATOM      5  C   UNL     1     107.856  95.713  25.576  1.00  0.00    -0.028 C 
ATOM      6  C   UNL     1     106.706  95.295  26.148  1.00  0.00    -0.080 C 
ATOM      7  C   UNL     1     106.138  93.919  25.887  1.00  0.00     0.039 C 
ATOM      8  C   UNL     1     105.968  96.242  27.058  1.00  0.00     0.039 C 
ENDBRANCH   4   5
ENDBRANCH   3   4
ENDBRANCH   2   3
BRANCH   2   9
ATOM      9  C   UNL     1     111.082  94.174  22.405  1.00  0.00     0.045 C 
BRANCH   9  10
ATOM     10  C   UNL     1     112.161  94.421  21.342  1.00  0.00     0.233 C 
BRANCH  10  11
ATOM     11  O   UNL     1     113.458  94.259  21.909  1.00  0.00    -0.466 OA
BRANCH  11  12
ATOM     12  C   UNL     1     114.465  95.219  21.775  1.00  0.00     0.302 C 
ATOM     13  O   UNL     1     115.630  94.886  21.426  1.00  0.00    -0.253 OA
ATOM     14  C   UNL     1     114.169  96.643  22.100  1.00  0.00     0.139 C 
ENDBRANCH  11  12
ENDBRANCH  10  11
ENDBRANCH   9  10
ENDBRANCH   2   9
TORSDOF 7
ENDMDL
MODEL 8
REMARK VINA RESULT:    -2.994     12.024     13.023
REMARK INTER + INTRA:          -5.168
REMARK INTER:                  -4.563
REMARK INTRA:                  -0.605
REMARK UNBOUND:                -0.949
REMARK SMILES CC(=O)OCC[C@@H](C)CCC=C(C)C
REMARK SMILES IDX 8 1 7 2 9 3 10 4 11 5 12 6 13 7 14 8 6 9 5 10 4 11 2 12 3 13
REMARK SMILES IDX 1 14
REMARK H PARENT
REMARK Flexibility Score: inf
ROOT
ATOM      1  C   UNL     1     102.866  83.447  22.919  1.00  0.00     0.008 C 
ATOM      2  C   UNL     1     104.351  83.212  23.243  1.00  0.00    -0.011 C 
ENDROOT
BRANCH   2   3
ATOM      3  C   UNL     1     104.556  81.733  23.656  1.00  0.00     0.007 C 
BRANCH   3   4
ATOM      4  C   UNL     1     103.951  81.401  25.030  1.00  0.00     0.027 C 
BRANCH   4   5
ATOM      5  C   UNL     1     104.609  82.219  26.115  1.00  0.00    -0.028 C 
ATOM      6  C   UNL     1     103.939  82.938  27.042  1.00  0.00    -0.080 C 
ATOM      7  C   UNL     1     102.430  83.032  27.044  1.00  0.00     0.039 C 
ATOM      8  C   UNL     1     104.730  83.674  28.092  1.00  0.00     0.039 C 
ENDBRANCH   4   5
ENDBRANCH   3   4
ENDBRANCH   2   3
BRANCH   2   9
ATOM      9  C   UNL     1     105.262  83.594  22.048  1.00  0.00     0.045 C 
BRANCH   9  10
ATOM     10  C   UNL     1     104.546  83.567  20.691  1.00  0.00     0.233 C 
BRANCH  10  11
ATOM     11  O   UNL     1     105.450  83.171  19.664  1.00  0.00    -0.466 OA
BRANCH  11  12
ATOM     12  C   UNL     1     105.285  83.545  18.328  1.00  0.00     0.302 C 
ATOM     13  O   UNL     1     105.156  82.674  17.425  1.00  0.00    -0.253 OA
ATOM     14  C   UNL     1     105.315  84.990  17.962  1.00  0.00     0.139 C 
ENDBRANCH  11  12
ENDBRANCH  10  11
ENDBRANCH   9  10
ENDBRANCH   2   9
TORSDOF 7
ENDMDL
MODEL 9
REMARK VINA RESULT:    -2.937     12.126     13.379
REMARK INTER + INTRA:          -5.088
REMARK INTER:                  -4.094
REMARK INTRA:                  -0.995
REMARK UNBOUND:                -0.949
REMARK SMILES CC(=O)OCC[C@@H](C)CCC=C(C)C
REMARK SMILES IDX 8 1 7 2 9 3 10 4 11 5 12 6 13 7 14 8 6 9 5 10 4 11 2 12 3 13
REMARK SMILES IDX 1 14
REMARK H PARENT
REMARK Flexibility Score: inf
ROOT
ATOM      1  C   UNL     1     105.591  83.240  22.523  1.00  0.00     0.008 C 
ATOM      2  C   UNL     1     104.222  83.884  22.805  1.00  0.00    -0.011 C 
ENDROOT
BRANCH   2   3
ATOM      3  C   UNL     1     103.817  84.770  21.601  1.00  0.00     0.007 C 
BRANCH   3   4
ATOM      4  C   UNL     1     104.485  84.340  20.284  1.00  0.00     0.027 C 
BRANCH   4   5
ATOM      5  C   UNL     1     103.512  83.586  19.412  1.00  0.00    -0.028 C 
ATOM      6  C   UNL     1     103.699  82.321  18.975  1.00  0.00    -0.080 C 
ATOM      7  C   UNL     1     104.959  81.546  19.284  1.00  0.00     0.039 C 
ATOM      8  C   UNL     1     102.619  81.680  18.143  1.00  0.00     0.039 C 
ENDBRANCH   4   5
ENDBRANCH   3   4
ENDBRANCH   2   3
BRANCH   2   9
ATOM      9  C   UNL     1     103.140  82.814  23.105  1.00  0.00     0.045 C 
BRANCH   9  10
ATOM     10  C   UNL     1     102.632  82.840  24.553  1.00  0.00     0.233 C 
BRANCH  10  11
ATOM     11  O   UNL     1     103.177  81.746  25.286  1.00  0.00    -0.466 OA
BRANCH  11  12
ATOM     12  C   UNL     1     104.451  81.783  25.860  1.00  0.00     0.302 C 
ATOM     13  O   UNL     1     105.256  80.825  25.704  1.00  0.00    -0.253 OA
ATOM     14  C   UNL     1     104.839  82.945  26.709  1.00  0.00     0.139 C 
ENDBRANCH  11  12
ENDBRANCH  10  11
ENDBRANCH   9  10
ENDBRANCH   2   9
TORSDOF 7
ENDMDL
