MODEL 1
REMARK VINA RESULT:    -4.233      0.000      0.000
REMARK INTER + INTRA:          -4.233
REMARK INTER:                  -4.233
REMARK INTRA:                   0.000
REMARK UNBOUND:                 0.000
REMARK SMILES CC1=CC(=O)[C@@H]2C[C@H]1C2(C)C
REMARK SMILES IDX 1 1 2 2 3 3 4 4 5 5 6 6 7 7 8 8 9 9 10 10 11 11
REMARK H PARENT
REMARK Flexibility Score: inf
ROOT
ATOM      1  C   UNL     1       2.403 -12.846 -44.650  1.00  0.00     0.040 C 
ATOM      2  C   UNL     1       2.051 -11.675 -43.788  1.00  0.00    -0.066 C 
ATOM      3  C   UNL     1       1.895 -10.429 -44.313  1.00  0.00     0.047 C 
ATOM      4  C   UNL     1       1.513  -9.346 -43.351  1.00  0.00     0.159 C 
ATOM      5  O   UNL     1       1.302  -8.161 -43.721  1.00  0.00    -0.295 OA
ATOM      6  C   UNL     1       1.396  -9.780 -41.890  1.00  0.00     0.067 C 
ATOM      7  C   UNL     1       2.657 -10.638 -41.649  1.00  0.00     0.021 C 
ATOM      8  C   UNL     1       1.866 -11.816 -42.262  1.00  0.00     0.022 C 
ATOM      9  C   UNL     1       0.559 -11.090 -41.829  1.00  0.00    -0.019 C 
ATOM     10  C   UNL     1       0.135 -11.451 -40.383  1.00  0.00     0.012 C 
ATOM     11  C   UNL     1      -0.689 -11.213 -42.748  1.00  0.00     0.012 C 
ENDROOT
TORSDOF 0
ENDMDL
MODEL 2
REMARK VINA RESULT:    -4.092     13.629     15.412
REMARK INTER + INTRA:          -4.092
REMARK INTER:                  -4.092
REMARK INTRA:                   0.000
REMARK UNBOUND:                 0.000
REMARK SMILES CC1=CC(=O)[C@@H]2C[C@H]1C2(C)C
REMARK SMILES IDX 1 1 2 2 3 3 4 4 5 5 6 6 7 7 8 8 9 9 10 10 11 11
REMARK H PARENT
REMARK Flexibility Score: inf
ROOT
ATOM      1  C   UNL     1       0.337 -22.798 -44.735  1.00  0.00     0.040 C 
ATOM      2  C   UNL     1       0.149 -24.051 -45.530  1.00  0.00    -0.066 C 
ATOM      3  C   UNL     1       1.210 -24.729 -46.048  1.00  0.00     0.047 C 
ATOM      4  C   UNL     1       0.892 -25.986 -46.799  1.00  0.00     0.159 C 
ATOM      5  O   UNL     1       1.789 -26.720 -47.290  1.00  0.00    -0.295 OA
ATOM      6  C   UNL     1      -0.596 -26.314 -46.924  1.00  0.00     0.067 C 
ATOM      7  C   UNL     1      -1.246 -24.973 -47.324  1.00  0.00     0.021 C 
ATOM      8  C   UNL     1      -1.254 -24.627 -45.818  1.00  0.00     0.022 C 
ATOM      9  C   UNL     1      -1.257 -26.155 -45.525  1.00  0.00    -0.019 C 
ATOM     10  C   UNL     1      -2.690 -26.745 -45.481  1.00  0.00     0.012 C 
ATOM     11  C   UNL     1      -0.481 -26.666 -44.278  1.00  0.00     0.012 C 
ENDROOT
TORSDOF 0
ENDMDL
MODEL 3
REMARK VINA RESULT:    -4.033      2.943      4.278
REMARK INTER + INTRA:          -4.033
REMARK INTER:                  -4.033
REMARK INTRA:                   0.000
REMARK UNBOUND:                 0.000
REMARK SMILES CC1=CC(=O)[C@@H]2C[C@H]1C2(C)C
REMARK SMILES IDX 1 1 2 2 3 3 4 4 5 5 6 6 7 7 8 8 9 9 10 10 11 11
REMARK H PARENT
REMARK Flexibility Score: inf
ROOT
ATOM      1  C   UNL     1       1.435  -9.338 -42.705  1.00  0.00     0.040 C 
ATOM      2  C   UNL     1       0.234  -9.855 -41.979  1.00  0.00    -0.066 C 
ATOM      3  C   UNL     1       0.332 -10.876 -41.084  1.00  0.00     0.047 C 
ATOM      4  C   UNL     1      -0.938 -11.284 -40.400  1.00  0.00     0.159 C 
ATOM      5  O   UNL     1      -0.970 -12.187 -39.525  1.00  0.00    -0.295 OA
ATOM      6  C   UNL     1      -2.190 -10.524 -40.840  1.00  0.00     0.067 C 
ATOM      7  C   UNL     1      -2.097 -10.503 -42.380  1.00  0.00     0.021 C 
ATOM      8  C   UNL     1      -1.175  -9.273 -42.222  1.00  0.00     0.022 C 
ATOM      9  C   UNL     1      -1.866  -9.003 -40.854  1.00  0.00    -0.019 C 
ATOM     10  C   UNL     1      -3.139  -8.130 -40.998  1.00  0.00     0.012 C 
ATOM     11  C   UNL     1      -1.005  -8.419 -39.697  1.00  0.00     0.012 C 
ENDROOT
TORSDOF 0
ENDMDL
MODEL 4
REMARK VINA RESULT:    -4.025      2.530      4.304
REMARK INTER + INTRA:          -4.025
REMARK INTER:                  -4.025
REMARK INTRA:                   0.000
REMARK UNBOUND:                 0.000
REMARK SMILES CC1=CC(=O)[C@@H]2C[C@H]1C2(C)C
REMARK SMILES IDX 1 1 2 2 3 3 4 4 5 5 6 6 7 7 8 8 9 9 10 10 11 11
REMARK H PARENT
REMARK Flexibility Score: inf
ROOT
ATOM      1  C   UNL     1      -0.882  -9.643 -38.544  1.00  0.00     0.040 C 
ATOM      2  C   UNL     1      -0.788 -10.283 -39.892  1.00  0.00    -0.066 C 
ATOM      3  C   UNL     1      -1.766 -11.112 -40.353  1.00  0.00     0.047 C 
ATOM      4  C   UNL     1      -1.571 -11.667 -41.731  1.00  0.00     0.159 C 
ATOM      5  O   UNL     1      -2.422 -12.412 -42.282  1.00  0.00    -0.295 OA
ATOM      6  C   UNL     1      -0.268 -11.262 -42.420  1.00  0.00     0.067 C 
ATOM      7  C   UNL     1       0.811 -11.458 -41.334  1.00  0.00     0.021 C 
ATOM      8  C   UNL     1       0.424 -10.053 -40.819  1.00  0.00     0.022 C 
ATOM      9  C   UNL     1      -0.077  -9.727 -42.256  1.00  0.00    -0.019 C 
ATOM     10  C   UNL     1       1.051  -9.173 -43.163  1.00  0.00     0.012 C 
ATOM     11  C   UNL     1      -1.321  -8.807 -42.410  1.00  0.00     0.012 C 
ENDROOT
TORSDOF 0
ENDMDL
MODEL 5
REMARK VINA RESULT:    -3.977      2.431      3.786
REMARK INTER + INTRA:          -3.977
REMARK INTER:                  -3.977
REMARK INTRA:                   0.000
REMARK UNBOUND:                 0.000
REMARK SMILES CC1=CC(=O)[C@@H]2C[C@H]1C2(C)C
REMARK SMILES IDX 1 1 2 2 3 3 4 4 5 5 6 6 7 7 8 8 9 9 10 10 11 11
REMARK H PARENT
REMARK Flexibility Score: inf
ROOT
ATOM      1  C   UNL     1      -2.639  -8.740 -42.909  1.00  0.00     0.040 C 
ATOM      2  C   UNL     1      -1.578  -9.459 -42.137  1.00  0.00    -0.066 C 
ATOM      3  C   UNL     1      -0.256  -9.270 -42.402  1.00  0.00     0.047 C 
ATOM      4  C   UNL     1       0.709 -10.025 -41.539  1.00  0.00     0.159 C 
ATOM      5  O   UNL     1       1.955  -9.904 -41.661  1.00  0.00    -0.295 OA
ATOM      6  C   UNL     1       0.072 -10.949 -40.501  1.00  0.00     0.067 C 
ATOM      7  C   UNL     1      -1.031 -11.693 -41.283  1.00  0.00     0.021 C 
ATOM      8  C   UNL     1      -1.928 -10.462 -41.017  1.00  0.00     0.022 C 
ATOM      9  C   UNL     1      -1.052 -10.167 -39.765  1.00  0.00    -0.019 C 
ATOM     10  C   UNL     1      -1.557 -10.910 -38.502  1.00  0.00     0.012 C 
ATOM     11  C   UNL     1      -0.791  -8.682 -39.384  1.00  0.00     0.012 C 
ENDROOT
TORSDOF 0
ENDMDL
MODEL 6
REMARK VINA RESULT:    -3.950      2.283      3.610
REMARK INTER + INTRA:          -3.950
REMARK INTER:                  -3.950
REMARK INTRA:                   0.000
REMARK UNBOUND:                 0.000
REMARK SMILES CC1=CC(=O)[C@@H]2C[C@H]1C2(C)C
REMARK SMILES IDX 1 1 2 2 3 3 4 4 5 5 6 6 7 7 8 8 9 9 10 10 11 11
REMARK H PARENT
REMARK Flexibility Score: inf
ROOT
ATOM      1  C   UNL     1      -2.905 -12.551 -41.813  1.00  0.00     0.040 C 
ATOM      2  C   UNL     1      -1.833 -11.526 -41.621  1.00  0.00    -0.066 C 
ATOM      3  C   UNL     1      -0.829 -11.372 -42.528  1.00  0.00     0.047 C 
ATOM      4  C   UNL     1       0.167 -10.290 -42.238  1.00  0.00     0.159 C 
ATOM      5  O   UNL     1       1.117 -10.024 -43.019  1.00  0.00    -0.295 OA
ATOM      6  C   UNL     1      -0.053  -9.532 -40.928  1.00  0.00     0.067 C 
ATOM      7  C   UNL     1      -0.334 -10.642 -39.892  1.00  0.00     0.021 C 
ATOM      8  C   UNL     1      -1.800 -10.607 -40.381  1.00  0.00     0.022 C 
ATOM      9  C   UNL     1      -1.555  -9.137 -40.832  1.00  0.00    -0.019 C 
ATOM     10  C   UNL     1      -1.824  -8.119 -39.695  1.00  0.00     0.012 C 
ATOM     11  C   UNL     1      -2.270  -8.633 -42.117  1.00  0.00     0.012 C 
ENDROOT
TORSDOF 0
ENDMDL
MODEL 7
REMARK VINA RESULT:    -3.931      2.166      3.360
REMARK INTER + INTRA:          -3.931
REMARK INTER:                  -3.931
REMARK INTRA:                   0.000
REMARK UNBOUND:                 0.000
REMARK SMILES CC1=CC(=O)[C@@H]2C[C@H]1C2(C)C
REMARK SMILES IDX 1 1 2 2 3 3 4 4 5 5 6 6 7 7 8 8 9 9 10 10 11 11
REMARK H PARENT
REMARK Flexibility Score: inf
ROOT
ATOM      1  C   UNL     1       1.614 -10.546 -43.434  1.00  0.00     0.040 C 
ATOM      2  C   UNL     1       0.577 -10.470 -42.359  1.00  0.00    -0.066 C 
ATOM      3  C   UNL     1       0.760  -9.703 -41.249  1.00  0.00     0.047 C 
ATOM      4  C   UNL     1      -0.365  -9.688 -40.259  1.00  0.00     0.159 C 
ATOM      5  O   UNL     1      -0.331  -8.987 -39.214  1.00  0.00    -0.295 OA
ATOM      6  C   UNL     1      -1.556 -10.580 -40.610  1.00  0.00     0.067 C 
ATOM      7  C   UNL     1      -0.912 -11.913 -41.049  1.00  0.00     0.021 C 
ATOM      8  C   UNL     1      -0.740 -11.270 -42.444  1.00  0.00     0.022 C 
ATOM      9  C   UNL     1      -1.936 -10.336 -42.098  1.00  0.00    -0.019 C 
ATOM     10  C   UNL     1      -3.303 -10.967 -42.467  1.00  0.00     0.012 C 
ATOM     11  C   UNL     1      -1.911  -8.878 -42.637  1.00  0.00     0.012 C 
ENDROOT
TORSDOF 0
ENDMDL
MODEL 8
REMARK VINA RESULT:    -3.900      2.608      4.283
REMARK INTER + INTRA:          -3.900
REMARK INTER:                  -3.900
REMARK INTRA:                   0.000
REMARK UNBOUND:                 0.000
REMARK SMILES CC1=CC(=O)[C@@H]2C[C@H]1C2(C)C
REMARK SMILES IDX 1 1 2 2 3 3 4 4 5 5 6 6 7 7 8 8 9 9 10 10 11 11
REMARK H PARENT
REMARK Flexibility Score: inf
ROOT
ATOM      1  C   UNL     1      -2.781 -12.492 -42.045  1.00  0.00     0.040 C 
ATOM      2  C   UNL     1      -1.967 -11.418 -41.395  1.00  0.00    -0.066 C 
ATOM      3  C   UNL     1      -1.868 -11.326 -40.040  1.00  0.00     0.047 C 
ATOM      4  C   UNL     1      -0.999 -10.225 -39.512  1.00  0.00     0.159 C 
ATOM      5  O   UNL     1      -0.796 -10.061 -38.281  1.00  0.00    -0.295 OA
ATOM      6  C   UNL     1      -0.376  -9.318 -40.573  1.00  0.00     0.067 C 
ATOM      7  C   UNL     1      -1.542  -9.007 -41.536  1.00  0.00     0.021 C 
ATOM      8  C   UNL     1      -1.219 -10.352 -42.224  1.00  0.00     0.022 C 
ATOM      9  C   UNL     1       0.236 -10.210 -41.690  1.00  0.00    -0.019 C 
ATOM     10  C   UNL     1       1.143  -9.406 -42.656  1.00  0.00     0.012 C 
ATOM     11  C   UNL     1       0.996 -11.501 -41.271  1.00  0.00     0.012 C 
ENDROOT
TORSDOF 0
ENDMDL
MODEL 9
REMARK VINA RESULT:    -3.853      2.459      4.044
REMARK INTER + INTRA:          -3.853
REMARK INTER:                  -3.853
REMARK INTRA:                   0.000
REMARK UNBOUND:                 0.000
REMARK SMILES CC1=CC(=O)[C@@H]2C[C@H]1C2(C)C
REMARK SMILES IDX 1 1 2 2 3 3 4 4 5 5 6 6 7 7 8 8 9 9 10 10 11 11
REMARK H PARENT
REMARK Flexibility Score: inf
ROOT
ATOM      1  C   UNL     1      -2.296  -8.754 -43.074  1.00  0.00     0.040 C 
ATOM      2  C   UNL     1      -1.538  -9.680 -42.177  1.00  0.00    -0.066 C 
ATOM      3  C   UNL     1      -2.073 -10.862 -41.762  1.00  0.00     0.047 C 
ATOM      4  C   UNL     1      -1.203 -11.715 -40.891  1.00  0.00     0.159 C 
ATOM      5  O   UNL     1      -1.569 -12.845 -40.476  1.00  0.00    -0.295 OA
ATOM      6  C   UNL     1       0.161 -11.118 -40.544  1.00  0.00     0.067 C 
ATOM      7  C   UNL     1      -0.154  -9.658 -40.152  1.00  0.00     0.021 C 
ATOM      8  C   UNL     1      -0.123  -9.337 -41.664  1.00  0.00     0.022 C 
ATOM      9  C   UNL     1       0.808 -10.571 -41.848  1.00  0.00    -0.019 C 
ATOM     10  C   UNL     1       2.304 -10.214 -41.659  1.00  0.00     0.012 C 
ATOM     11  C   UNL     1       0.668 -11.409 -43.151  1.00  0.00     0.012 C 
ENDROOT
TORSDOF 0
ENDMDL
