MODEL 1
REMARK VINA RESULT:    -6.215      0.000      0.000
REMARK INTER + INTRA:          -6.215
REMARK INTER:                  -6.215
REMARK INTRA:                   0.000
REMARK UNBOUND:                 0.000
REMARK SMILES O=c1ccc2ccccc2o1
REMARK SMILES IDX 7 1 8 2 9 3 10 4 5 5 6 6 4 7 3 8 2 9 1 10 11 11
REMARK H PARENT
REMARK Flexibility Score: inf
ROOT
ATOM      1  C   UNL     1     -24.043 -23.953 -13.379  1.00  0.00     0.001 A 
ATOM      2  C   UNL     1     -25.393 -23.602 -13.267  1.00  0.00     0.004 A 
ATOM      3  C   UNL     1     -25.776 -22.257 -13.289  1.00  0.00     0.048 A 
ATOM      4  C   UNL     1     -24.807 -21.256 -13.423  1.00  0.00     0.138 A 
ATOM      5  C   UNL     1     -23.445 -21.609 -13.535  1.00  0.00     0.018 A 
ATOM      6  C   UNL     1     -23.067 -22.960 -13.513  1.00  0.00     0.012 A 
ATOM      7  C   UNL     1     -22.499 -20.587 -13.668  1.00  0.00     0.019 A 
ATOM      8  C   UNL     1     -22.926 -19.259 -13.685  1.00  0.00     0.094 A 
ATOM      9  C   UNL     1     -24.293 -18.984 -13.568  1.00  0.00     0.336 A 
ATOM     10  O   UNL     1     -24.697 -17.792 -13.582  1.00  0.00    -0.246 OA
ATOM     11  O   UNL     1     -25.172 -19.976 -13.444  1.00  0.00    -0.423 OA
ENDROOT
TORSDOF 0
ENDMDL
MODEL 2
REMARK VINA RESULT:    -6.168      1.512      1.748
REMARK INTER + INTRA:          -6.168
REMARK INTER:                  -6.168
REMARK INTRA:                   0.000
REMARK UNBOUND:                 0.000
REMARK SMILES O=c1ccc2ccccc2o1
REMARK SMILES IDX 7 1 8 2 9 3 10 4 5 5 6 6 4 7 3 8 2 9 1 10 11 11
REMARK H PARENT
REMARK Flexibility Score: inf
ROOT
ATOM      1  C   UNL     1     -24.033 -25.120 -14.287  1.00  0.00     0.001 A 
ATOM      2  C   UNL     1     -25.051 -24.863 -15.213  1.00  0.00     0.004 A 
ATOM      3  C   UNL     1     -25.507 -23.557 -15.413  1.00  0.00     0.048 A 
ATOM      4  C   UNL     1     -24.947 -22.500 -14.687  1.00  0.00     0.138 A 
ATOM      5  C   UNL     1     -23.920 -22.759 -13.752  1.00  0.00     0.018 A 
ATOM      6  C   UNL     1     -23.466 -24.071 -13.556  1.00  0.00     0.012 A 
ATOM      7  C   UNL     1     -23.379 -21.683 -13.041  1.00  0.00     0.019 A 
ATOM      8  C   UNL     1     -23.865 -20.396 -13.273  1.00  0.00     0.094 A 
ATOM      9  C   UNL     1     -24.885 -20.215 -14.214  1.00  0.00     0.336 A 
ATOM     10  O   UNL     1     -25.336 -19.061 -14.438  1.00  0.00    -0.246 OA
ATOM     11  O   UNL     1     -25.381 -21.257 -14.878  1.00  0.00    -0.423 OA
ENDROOT
TORSDOF 0
ENDMDL
MODEL 3
REMARK VINA RESULT:    -6.134      1.484      1.557
REMARK INTER + INTRA:          -6.134
REMARK INTER:                  -6.134
REMARK INTRA:                   0.000
REMARK UNBOUND:                 0.000
REMARK SMILES O=c1ccc2ccccc2o1
REMARK SMILES IDX 7 1 8 2 9 3 10 4 5 5 6 6 4 7 3 8 2 9 1 10 11 11
REMARK H PARENT
REMARK Flexibility Score: inf
ROOT
ATOM      1  C   UNL     1     -23.837 -23.784 -14.304  1.00  0.00     0.001 A 
ATOM      2  C   UNL     1     -25.201 -23.911 -14.020  1.00  0.00     0.004 A 
ATOM      3  C   UNL     1     -25.859 -22.929 -13.272  1.00  0.00     0.048 A 
ATOM      4  C   UNL     1     -25.152 -21.814 -12.805  1.00  0.00     0.138 A 
ATOM      5  C   UNL     1     -23.775 -21.686 -13.091  1.00  0.00     0.018 A 
ATOM      6  C   UNL     1     -23.121 -22.675 -13.842  1.00  0.00     0.012 A 
ATOM      7  C   UNL     1     -23.095 -20.562 -12.612  1.00  0.00     0.019 A 
ATOM      8  C   UNL     1     -23.791 -19.607 -11.870  1.00  0.00     0.094 A 
ATOM      9  C   UNL     1     -25.155 -19.801 -11.624  1.00  0.00     0.336 A 
ATOM     10  O   UNL     1     -25.800 -18.950 -10.958  1.00  0.00    -0.246 OA
ATOM     11  O   UNL     1     -25.778 -20.880 -12.094  1.00  0.00    -0.423 OA
ENDROOT
TORSDOF 0
ENDMDL
MODEL 4
REMARK VINA RESULT:    -6.128      2.130      4.377
REMARK INTER + INTRA:          -6.128
REMARK INTER:                  -6.128
REMARK INTRA:                   0.000
REMARK UNBOUND:                 0.000
REMARK SMILES O=c1ccc2ccccc2o1
REMARK SMILES IDX 7 1 8 2 9 3 10 4 5 5 6 6 4 7 3 8 2 9 1 10 11 11
REMARK H PARENT
REMARK Flexibility Score: inf
ROOT
ATOM      1  C   UNL     1     -24.484 -19.374 -12.346  1.00  0.00     0.001 A 
ATOM      2  C   UNL     1     -23.154 -19.481 -12.767  1.00  0.00     0.004 A 
ATOM      3  C   UNL     1     -22.679 -20.683 -13.300  1.00  0.00     0.048 A 
ATOM      4  C   UNL     1     -23.534 -21.786 -13.413  1.00  0.00     0.138 A 
ATOM      5  C   UNL     1     -24.876 -21.679 -12.988  1.00  0.00     0.018 A 
ATOM      6  C   UNL     1     -25.347 -20.470 -12.454  1.00  0.00     0.012 A 
ATOM      7  C   UNL     1     -25.707 -22.797 -13.113  1.00  0.00     0.019 A 
ATOM      8  C   UNL     1     -25.190 -23.976 -13.650  1.00  0.00     0.094 A 
ATOM      9  C   UNL     1     -23.849 -24.009 -14.051  1.00  0.00     0.336 A 
ATOM     10  O   UNL     1     -23.366 -25.064 -14.538  1.00  0.00    -0.246 OA
ATOM     11  O   UNL     1     -23.081 -22.930 -13.921  1.00  0.00    -0.423 OA
ENDROOT
TORSDOF 0
ENDMDL
MODEL 5
REMARK VINA RESULT:    -6.116      1.782      2.521
REMARK INTER + INTRA:          -6.116
REMARK INTER:                  -6.116
REMARK INTRA:                   0.000
REMARK UNBOUND:                 0.000
REMARK SMILES O=c1ccc2ccccc2o1
REMARK SMILES IDX 7 1 8 2 9 3 10 4 5 5 6 6 4 7 3 8 2 9 1 10 11 11
REMARK H PARENT
REMARK Flexibility Score: inf
ROOT
ATOM      1  C   UNL     1     -25.341 -24.801 -15.159  1.00  0.00     0.001 A 
ATOM      2  C   UNL     1     -24.211 -25.118 -14.397  1.00  0.00     0.004 A 
ATOM      3  C   UNL     1     -23.459 -24.103 -13.796  1.00  0.00     0.048 A 
ATOM      4  C   UNL     1     -23.836 -22.765 -13.956  1.00  0.00     0.138 A 
ATOM      5  C   UNL     1     -24.977 -22.445 -14.725  1.00  0.00     0.018 A 
ATOM      6  C   UNL     1     -25.726 -23.467 -15.325  1.00  0.00     0.012 A 
ATOM      7  C   UNL     1     -25.329 -21.099 -14.867  1.00  0.00     0.019 A 
ATOM      8  C   UNL     1     -24.550 -20.119 -14.250  1.00  0.00     0.094 A 
ATOM      9  C   UNL     1     -23.433 -20.511 -13.503  1.00  0.00     0.336 A 
ATOM     10  O   UNL     1     -22.719 -19.641 -12.939  1.00  0.00    -0.246 OA
ATOM     11  O   UNL     1     -23.121 -21.799 -13.384  1.00  0.00    -0.423 OA
ENDROOT
TORSDOF 0
ENDMDL
MODEL 6
REMARK VINA RESULT:    -6.030      2.194      4.087
REMARK INTER + INTRA:          -6.030
REMARK INTER:                  -6.030
REMARK INTRA:                   0.000
REMARK UNBOUND:                 0.000
REMARK SMILES O=c1ccc2ccccc2o1
REMARK SMILES IDX 7 1 8 2 9 3 10 4 5 5 6 6 4 7 3 8 2 9 1 10 11 11
REMARK H PARENT
REMARK Flexibility Score: inf
ROOT
ATOM      1  C   UNL     1     -23.701 -19.543 -13.473  1.00  0.00     0.001 A 
ATOM      2  C   UNL     1     -24.801 -19.481 -14.335  1.00  0.00     0.004 A 
ATOM      3  C   UNL     1     -25.352 -20.655 -14.859  1.00  0.00     0.048 A 
ATOM      4  C   UNL     1     -24.803 -21.898 -14.522  1.00  0.00     0.138 A 
ATOM      5  C   UNL     1     -23.692 -21.960 -13.653  1.00  0.00     0.018 A 
ATOM      6  C   UNL     1     -23.143 -20.780 -13.130  1.00  0.00     0.012 A 
ATOM      7  C   UNL     1     -23.164 -23.216 -13.334  1.00  0.00     0.019 A 
ATOM      8  C   UNL     1     -23.746 -24.360 -13.880  1.00  0.00     0.094 A 
ATOM      9  C   UNL     1     -24.845 -24.222 -14.735  1.00  0.00     0.336 A 
ATOM     10  O   UNL     1     -25.383 -25.243 -15.236  1.00  0.00    -0.246 OA
ATOM     11  O   UNL     1     -25.327 -23.015 -15.021  1.00  0.00    -0.423 OA
ENDROOT
TORSDOF 0
ENDMDL
MODEL 7
REMARK VINA RESULT:    -5.930      1.347      2.316
REMARK INTER + INTRA:          -5.930
REMARK INTER:                  -5.930
REMARK INTRA:                   0.000
REMARK UNBOUND:                 0.000
REMARK SMILES O=c1ccc2ccccc2o1
REMARK SMILES IDX 7 1 8 2 9 3 10 4 5 5 6 6 4 7 3 8 2 9 1 10 11 11
REMARK H PARENT
REMARK Flexibility Score: inf
ROOT
ATOM      1  C   UNL     1     -24.868 -24.307 -13.775  1.00  0.00     0.001 A 
ATOM      2  C   UNL     1     -23.520 -24.032 -14.033  1.00  0.00     0.004 A 
ATOM      3  C   UNL     1     -22.988 -22.776 -13.726  1.00  0.00     0.048 A 
ATOM      4  C   UNL     1     -23.803 -21.789 -13.160  1.00  0.00     0.138 A 
ATOM      5  C   UNL     1     -25.163 -22.067 -12.899  1.00  0.00     0.018 A 
ATOM      6  C   UNL     1     -25.691 -23.328 -13.209  1.00  0.00     0.012 A 
ATOM      7  C   UNL     1     -25.953 -21.061 -12.333  1.00  0.00     0.019 A 
ATOM      8  C   UNL     1     -25.379 -19.823 -12.043  1.00  0.00     0.094 A 
ATOM      9  C   UNL     1     -24.024 -19.619 -12.328  1.00  0.00     0.336 A 
ATOM     10  O   UNL     1     -23.489 -18.508 -12.073  1.00  0.00    -0.246 OA
ATOM     11  O   UNL     1     -23.295 -20.593 -12.867  1.00  0.00    -0.423 OA
ENDROOT
TORSDOF 0
ENDMDL
MODEL 8
REMARK VINA RESULT:    -5.906      2.167      3.610
REMARK INTER + INTRA:          -5.906
REMARK INTER:                  -5.906
REMARK INTRA:                   0.000
REMARK UNBOUND:                 0.000
REMARK SMILES O=c1ccc2ccccc2o1
REMARK SMILES IDX 7 1 8 2 9 3 10 4 5 5 6 6 4 7 3 8 2 9 1 10 11 11
REMARK H PARENT
REMARK Flexibility Score: inf
ROOT
ATOM      1  C   UNL     1     -23.844 -19.560 -11.011  1.00  0.00     0.001 A 
ATOM      2  C   UNL     1     -25.239 -19.641 -10.935  1.00  0.00     0.004 A 
ATOM      3  C   UNL     1     -25.938 -20.535 -11.752  1.00  0.00     0.048 A 
ATOM      4  C   UNL     1     -25.243 -21.352 -12.650  1.00  0.00     0.138 A 
ATOM      5  C   UNL     1     -23.835 -21.271 -12.727  1.00  0.00     0.018 A 
ATOM      6  C   UNL     1     -23.139 -20.373 -11.905  1.00  0.00     0.012 A 
ATOM      7  C   UNL     1     -23.167 -22.101 -13.634  1.00  0.00     0.019 A 
ATOM      8  C   UNL     1     -23.905 -22.978 -14.429  1.00  0.00     0.094 A 
ATOM      9  C   UNL     1     -25.299 -23.004 -14.299  1.00  0.00     0.336 A 
ATOM     10  O   UNL     1     -25.981 -23.789 -15.008  1.00  0.00    -0.246 OA
ATOM     11  O   UNL     1     -25.908 -22.204 -13.428  1.00  0.00    -0.423 OA
ENDROOT
TORSDOF 0
ENDMDL
MODEL 9
REMARK VINA RESULT:    -5.845      3.519      6.161
REMARK INTER + INTRA:          -5.845
REMARK INTER:                  -5.845
REMARK INTRA:                   0.000
REMARK UNBOUND:                 0.000
REMARK SMILES O=c1ccc2ccccc2o1
REMARK SMILES IDX 7 1 8 2 9 3 10 4 5 5 6 6 4 7 3 8 2 9 1 10 11 11
REMARK H PARENT
REMARK Flexibility Score: inf
ROOT
ATOM      1  C   UNL     1     -23.858 -13.875 -15.948  1.00  0.00     0.001 A 
ATOM      2  C   UNL     1     -25.174 -14.204 -16.290  1.00  0.00     0.004 A 
ATOM      3  C   UNL     1     -25.729 -15.417 -15.870  1.00  0.00     0.048 A 
ATOM      4  C   UNL     1     -24.967 -16.307 -15.105  1.00  0.00     0.138 A 
ATOM      5  C   UNL     1     -23.639 -15.976 -14.759  1.00  0.00     0.018 A 
ATOM      6  C   UNL     1     -23.088 -14.758 -15.183  1.00  0.00     0.012 A 
ATOM      7  C   UNL     1     -22.902 -16.886 -13.993  1.00  0.00     0.019 A 
ATOM      8  C   UNL     1     -23.496 -18.084 -13.596  1.00  0.00     0.094 A 
ATOM      9  C   UNL     1     -24.818 -18.345 -13.976  1.00  0.00     0.336 A 
ATOM     10  O   UNL     1     -25.370 -19.421 -13.627  1.00  0.00    -0.246 OA
ATOM     11  O   UNL     1     -25.496 -17.462 -14.705  1.00  0.00    -0.423 OA
ENDROOT
TORSDOF 0
ENDMDL
