MODEL 1
REMARK VINA RESULT:    -4.410      0.000      0.000
REMARK INTER + INTRA:          -4.834
REMARK INTER:                  -4.668
REMARK INTRA:                  -0.165
REMARK UNBOUND:                -0.165
REMARK SMILES CC1=CC=C(C(C)C)CC1
REMARK SMILES IDX 1 1 2 2 3 3 4 4 5 5 9 6 10 7 6 8 7 9 8 10
REMARK H PARENT
REMARK Flexibility Score: inf
ROOT
ATOM      1  C   UNL     1      -0.513  16.284  30.364  1.00  0.00     0.039 C 
ATOM      2  C   UNL     1      -0.615  17.768  30.561  1.00  0.00    -0.073 C 
ATOM      3  C   UNL     1      -1.015  18.260  31.744  1.00  0.00    -0.001 C 
ATOM      4  C   UNL     1      -1.124  19.717  31.959  1.00  0.00    -0.001 C 
ATOM      5  C   UNL     1      -1.057  20.575  30.924  1.00  0.00    -0.067 C 
ATOM      6  C   UNL     1      -0.985  20.021  29.514  1.00  0.00     0.035 C 
ATOM      7  C   UNL     1      -0.178  18.716  29.467  1.00  0.00     0.035 C 
ENDROOT
BRANCH   5   8
ATOM      8  C   UNL     1      -1.104  22.073  31.172  1.00  0.00     0.009 C 
ATOM      9  C   UNL     1       0.047  22.509  32.084  1.00  0.00     0.012 C 
ATOM     10  C   UNL     1      -1.089  22.854  29.853  1.00  0.00     0.012 C 
ENDBRANCH   5   8
TORSDOF 1
ENDMDL
MODEL 2
REMARK VINA RESULT:    -4.165     13.701     15.530
REMARK INTER + INTRA:          -4.574
REMARK INTER:                  -4.434
REMARK INTRA:                  -0.140
REMARK UNBOUND:                -0.165
REMARK SMILES CC1=CC=C(C(C)C)CC1
REMARK SMILES IDX 1 1 2 2 3 3 4 4 5 5 9 6 10 7 6 8 7 9 8 10
REMARK H PARENT
REMARK Flexibility Score: inf
ROOT
ATOM      1  C   UNL     1       2.271  19.015  17.138  1.00  0.00     0.039 C 
ATOM      2  C   UNL     1       1.805  17.606  16.919  1.00  0.00    -0.073 C 
ATOM      3  C   UNL     1       1.919  16.703  17.905  1.00  0.00    -0.001 C 
ATOM      4  C   UNL     1       1.468  15.310  17.709  1.00  0.00    -0.001 C 
ATOM      5  C   UNL     1       1.156  14.850  16.484  1.00  0.00    -0.067 C 
ATOM      6  C   UNL     1       1.383  15.747  15.283  1.00  0.00     0.035 C 
ATOM      7  C   UNL     1       1.119  17.220  15.628  1.00  0.00     0.035 C 
ENDROOT
BRANCH   5   8
ATOM      8  C   UNL     1       0.630  13.436  16.311  1.00  0.00     0.009 C 
ATOM      9  C   UNL     1       1.552  12.621  15.398  1.00  0.00     0.012 C 
ATOM     10  C   UNL     1       0.443  12.743  17.666  1.00  0.00     0.012 C 
ENDBRANCH   5   8
TORSDOF 1
ENDMDL
MODEL 3
REMARK VINA RESULT:    -3.933     15.695     17.751
REMARK INTER + INTRA:          -4.328
REMARK INTER:                  -4.187
REMARK INTRA:                  -0.141
REMARK UNBOUND:                -0.165
REMARK SMILES CC1=CC=C(C(C)C)CC1
REMARK SMILES IDX 1 1 2 2 3 3 4 4 5 5 9 6 10 7 6 8 7 9 8 10
REMARK H PARENT
REMARK Flexibility Score: inf
ROOT
ATOM      1  C   UNL     1       1.834  15.396  17.683  1.00  0.00     0.039 C 
ATOM      2  C   UNL     1       1.661  14.265  16.712  1.00  0.00    -0.073 C 
ATOM      3  C   UNL     1       2.394  14.230  15.588  1.00  0.00    -0.001 C 
ATOM      4  C   UNL     1       2.238  13.127  14.619  1.00  0.00    -0.001 C 
ATOM      5  C   UNL     1       1.209  12.265  14.711  1.00  0.00    -0.067 C 
ATOM      6  C   UNL     1       0.139  12.509  15.759  1.00  0.00     0.035 C 
ATOM      7  C   UNL     1       0.737  13.113  17.037  1.00  0.00     0.035 C 
ENDROOT
BRANCH   5   8
ATOM      8  C   UNL     1       1.102  11.098  13.746  1.00  0.00     0.009 C 
ATOM      9  C   UNL     1      -0.355  10.869  13.329  1.00  0.00     0.012 C 
ATOM     10  C   UNL     1       2.001  11.305  12.522  1.00  0.00     0.012 C 
ENDBRANCH   5   8
TORSDOF 1
ENDMDL
MODEL 4
REMARK VINA RESULT:    -3.927     14.429     16.263
REMARK INTER + INTRA:          -4.321
REMARK INTER:                  -4.177
REMARK INTRA:                  -0.144
REMARK UNBOUND:                -0.165
REMARK SMILES CC1=CC=C(C(C)C)CC1
REMARK SMILES IDX 1 1 2 2 3 3 4 4 5 5 9 6 10 7 6 8 7 9 8 10
REMARK H PARENT
REMARK Flexibility Score: inf
ROOT
ATOM      1  C   UNL     1       3.633  13.878  13.772  1.00  0.00     0.039 C 
ATOM      2  C   UNL     1       2.509  13.701  14.750  1.00  0.00    -0.073 C 
ATOM      3  C   UNL     1       2.615  14.204  15.989  1.00  0.00    -0.001 C 
ATOM      4  C   UNL     1       1.521  14.039  16.967  1.00  0.00    -0.001 C 
ATOM      5  C   UNL     1       0.503  13.191  16.730  1.00  0.00    -0.067 C 
ATOM      6  C   UNL     1       0.550  12.315  15.493  1.00  0.00     0.035 C 
ATOM      7  C   UNL     1       1.217  13.043  14.318  1.00  0.00     0.035 C 
ENDROOT
BRANCH   5   8
ATOM      8  C   UNL     1      -0.647  13.085  17.717  1.00  0.00     0.009 C 
ATOM      9  C   UNL     1      -0.253  12.222  18.920  1.00  0.00     0.012 C 
ATOM     10  C   UNL     1      -1.125  14.471  18.164  1.00  0.00     0.012 C 
ENDBRANCH   5   8
TORSDOF 1
ENDMDL
MODEL 5
REMARK VINA RESULT:    -3.923     13.675     15.466
REMARK INTER + INTRA:          -4.318
REMARK INTER:                  -4.149
REMARK INTRA:                  -0.169
REMARK UNBOUND:                -0.165
REMARK SMILES CC1=CC=C(C(C)C)CC1
REMARK SMILES IDX 1 1 2 2 3 3 4 4 5 5 9 6 10 7 6 8 7 9 8 10
REMARK H PARENT
REMARK Flexibility Score: inf
ROOT
ATOM      1  C   UNL     1      -1.123  12.850  19.585  1.00  0.00     0.039 C 
ATOM      2  C   UNL     1      -0.327  13.407  18.442  1.00  0.00    -0.073 C 
ATOM      3  C   UNL     1       0.431  12.591  17.693  1.00  0.00    -0.001 C 
ATOM      4  C   UNL     1       1.223  13.119  16.565  1.00  0.00    -0.001 C 
ATOM      5  C   UNL     1       1.396  14.444  16.401  1.00  0.00    -0.067 C 
ATOM      6  C   UNL     1       0.862  15.390  17.459  1.00  0.00     0.035 C 
ATOM      7  C   UNL     1      -0.448  14.867  18.066  1.00  0.00     0.035 C 
ENDROOT
BRANCH   5   8
ATOM      8  C   UNL     1       2.158  14.971  15.198  1.00  0.00     0.009 C 
ATOM      9  C   UNL     1       2.971  13.853  14.537  1.00  0.00     0.012 C 
ATOM     10  C   UNL     1       1.213  15.635  14.190  1.00  0.00     0.012 C 
ENDBRANCH   5   8
TORSDOF 1
ENDMDL
MODEL 6
REMARK VINA RESULT:    -3.909     13.572     14.195
REMARK INTER + INTRA:          -4.303
REMARK INTER:                  -4.143
REMARK INTRA:                  -0.160
REMARK UNBOUND:                -0.165
REMARK SMILES CC1=CC=C(C(C)C)CC1
REMARK SMILES IDX 1 1 2 2 3 3 4 4 5 5 9 6 10 7 6 8 7 9 8 10
REMARK H PARENT
REMARK Flexibility Score: inf
ROOT
ATOM      1  C   UNL     1      -1.060  12.376  19.292  1.00  0.00     0.039 C 
ATOM      2  C   UNL     1      -0.381  13.525  18.606  1.00  0.00    -0.073 C 
ATOM      3  C   UNL     1      -1.097  14.596  18.229  1.00  0.00    -0.001 C 
ATOM      4  C   UNL     1      -0.450  15.737  17.552  1.00  0.00    -0.001 C 
ATOM      5  C   UNL     1       0.809  15.641  17.086  1.00  0.00    -0.067 C 
ATOM      6  C   UNL     1       1.520  14.303  17.161  1.00  0.00     0.035 C 
ATOM      7  C   UNL     1       1.120  13.528  18.425  1.00  0.00     0.035 C 
ENDROOT
BRANCH   5   8
ATOM      8  C   UNL     1       1.482  16.846  16.452  1.00  0.00     0.009 C 
ATOM      9  C   UNL     1       0.476  17.663  15.635  1.00  0.00     0.012 C 
ATOM     10  C   UNL     1       2.172  17.716  17.509  1.00  0.00     0.012 C 
ENDBRANCH   5   8
TORSDOF 1
ENDMDL
MODEL 7
REMARK VINA RESULT:    -3.864     14.655     16.469
REMARK INTER + INTRA:          -4.255
REMARK INTER:                  -4.113
REMARK INTRA:                  -0.142
REMARK UNBOUND:                -0.165
REMARK SMILES CC1=CC=C(C(C)C)CC1
REMARK SMILES IDX 1 1 2 2 3 3 4 4 5 5 9 6 10 7 6 8 7 9 8 10
REMARK H PARENT
REMARK Flexibility Score: inf
ROOT
ATOM      1  C   UNL     1       2.669  12.858  12.817  1.00  0.00     0.039 C 
ATOM      2  C   UNL     1       2.126  13.033  14.205  1.00  0.00    -0.073 C 
ATOM      3  C   UNL     1       1.011  12.384  14.574  1.00  0.00    -0.001 C 
ATOM      4  C   UNL     1       0.459  12.544  15.934  1.00  0.00    -0.001 C 
ATOM      5  C   UNL     1       0.912  13.509  16.755  1.00  0.00    -0.067 C 
ATOM      6  C   UNL     1       1.919  14.511  16.225  1.00  0.00     0.035 C 
ATOM      7  C   UNL     1       2.881  13.858  15.222  1.00  0.00     0.035 C 
ENDROOT
BRANCH   5   8
ATOM      8  C   UNL     1       0.380  13.616  18.174  1.00  0.00     0.009 C 
ATOM      9  C   UNL     1      -0.793  14.600  18.243  1.00  0.00     0.012 C 
ATOM     10  C   UNL     1      -0.020  12.241  18.722  1.00  0.00     0.012 C 
ENDBRANCH   5   8
TORSDOF 1
ENDMDL
MODEL 8
REMARK VINA RESULT:    -3.838     14.407     15.941
REMARK INTER + INTRA:          -4.228
REMARK INTER:                  -4.083
REMARK INTRA:                  -0.145
REMARK UNBOUND:                -0.165
REMARK SMILES CC1=CC=C(C(C)C)CC1
REMARK SMILES IDX 1 1 2 2 3 3 4 4 5 5 9 6 10 7 6 8 7 9 8 10
REMARK H PARENT
REMARK Flexibility Score: inf
ROOT
ATOM      1  C   UNL     1       1.583  13.907  18.270  1.00  0.00     0.039 C 
ATOM      2  C   UNL     1       1.523  14.931  17.175  1.00  0.00    -0.073 C 
ATOM      3  C   UNL     1       1.112  16.179  17.448  1.00  0.00    -0.001 C 
ATOM      4  C   UNL     1       1.043  17.201  16.384  1.00  0.00    -0.001 C 
ATOM      5  C   UNL     1       1.160  16.859  15.088  1.00  0.00    -0.067 C 
ATOM      6  C   UNL     1       1.247  15.390  14.721  1.00  0.00     0.035 C 
ATOM      7  C   UNL     1       2.014  14.593  15.785  1.00  0.00     0.035 C 
ENDROOT
BRANCH   5   8
ATOM      8  C   UNL     1       1.154  17.931  14.012  1.00  0.00     0.009 C 
ATOM      9  C   UNL     1       1.947  17.473  12.784  1.00  0.00     0.012 C 
ATOM     10  C   UNL     1      -0.276  18.327  13.630  1.00  0.00     0.012 C 
ENDBRANCH   5   8
TORSDOF 1
ENDMDL
MODEL 9
REMARK VINA RESULT:    -3.837     14.651     16.285
REMARK INTER + INTRA:          -4.227
REMARK INTER:                  -4.053
REMARK INTRA:                  -0.174
REMARK UNBOUND:                -0.165
REMARK SMILES CC1=CC=C(C(C)C)CC1
REMARK SMILES IDX 1 1 2 2 3 3 4 4 5 5 9 6 10 7 6 8 7 9 8 10
REMARK H PARENT
REMARK Flexibility Score: inf
ROOT
ATOM      1  C   UNL     1       1.476  11.131  13.452  1.00  0.00     0.039 C 
ATOM      2  C   UNL     1       1.324  12.206  14.487  1.00  0.00    -0.073 C 
ATOM      3  C   UNL     1       2.309  13.098  14.674  1.00  0.00    -0.001 C 
ATOM      4  C   UNL     1       2.181  14.163  15.688  1.00  0.00    -0.001 C 
ATOM      5  C   UNL     1       1.196  14.131  16.605  1.00  0.00    -0.067 C 
ATOM      6  C   UNL     1       0.282  12.922  16.657  1.00  0.00     0.035 C 
ATOM      7  C   UNL     1       0.030  12.351  15.254  1.00  0.00     0.035 C 
ENDROOT
BRANCH   5   8
ATOM      8  C   UNL     1       1.040  15.269  17.598  1.00  0.00     0.009 C 
ATOM      9  C   UNL     1       1.672  16.555  17.055  1.00  0.00     0.012 C 
ATOM     10  C   UNL     1      -0.433  15.490  17.963  1.00  0.00     0.012 C 
ENDBRANCH   5   8
TORSDOF 1
ENDMDL
