MODEL 1
REMARK VINA RESULT:    -3.809      0.000      0.000
REMARK INTER + INTRA:          -3.920
REMARK INTER:                  -3.920
REMARK INTRA:                   0.000
REMARK UNBOUND:                 0.000
REMARK SMILES Nc1ncnc2nc[nH]c12
REMARK SMILES IDX 8 1 7 2 6 3 5 4 4 5 3 6 2 7 10 8 9 9 1 11
REMARK H PARENT 9 10 1 12 1 13
REMARK Flexibility Score: inf
ROOT
ATOM      1  C   UNL     1      55.783  12.814  16.376  1.00  0.00     0.199 A 
ATOM      2  N   UNL     1      55.422  12.050  15.309  1.00  0.00    -0.217 NA
ATOM      3  C   UNL     1      55.693  12.861  14.273  1.00  0.00     0.182 A 
ATOM      4  N   UNL     1      55.513  12.581  12.960  1.00  0.00    -0.215 NA
ATOM      5  C   UNL     1      55.850  13.539  12.044  1.00  0.00     0.226 A 
ATOM      6  N   UNL     1      56.355  14.748  12.455  1.00  0.00    -0.217 NA
ATOM      7  C   UNL     1      56.536  15.032  13.779  1.00  0.00     0.152 A 
ATOM      8  C   UNL     1      56.189  14.046  14.698  1.00  0.00     0.127 A 
ATOM      9  N   UNL     1      56.255  14.040  16.035  1.00  0.00    -0.340 N 
ATOM     10  H   UNL     1      56.589  14.793  16.676  1.00  0.00     0.168 HD
ENDROOT
BRANCH   7  11
ATOM     11  N   UNL     1      57.062  16.296  14.182  1.00  0.00    -0.382 N 
ATOM     12  H   UNL     1      56.592  17.179  13.879  1.00  0.00     0.158 HD
ATOM     13  H   UNL     1      57.915  16.366  14.780  1.00  0.00     0.158 HD
ENDBRANCH   7  11
TORSDOF 1
ENDMDL
MODEL 2
REMARK VINA RESULT:    -3.564      0.921      2.936
REMARK INTER + INTRA:          -3.668
REMARK INTER:                  -3.668
REMARK INTRA:                   0.000
REMARK UNBOUND:                 0.000
REMARK SMILES Nc1ncnc2nc[nH]c12
REMARK SMILES IDX 8 1 7 2 6 3 5 4 4 5 3 6 2 7 10 8 9 9 1 11
REMARK H PARENT 9 10 1 12 1 13
REMARK Flexibility Score: inf
ROOT
ATOM      1  C   UNL     1      56.086  13.420  11.057  1.00  0.00     0.199 A 
ATOM      2  N   UNL     1      55.637  12.420  11.863  1.00  0.00    -0.217 NA
ATOM      3  C   UNL     1      55.804  12.945  13.088  1.00  0.00     0.182 A 
ATOM      4  N   UNL     1      55.507  12.349  14.269  1.00  0.00    -0.215 NA
ATOM      5  C   UNL     1      55.748  13.046  15.420  1.00  0.00     0.226 A 
ATOM      6  N   UNL     1      56.276  14.312  15.371  1.00  0.00    -0.217 NA
ATOM      7  C   UNL     1      56.576  14.913  14.181  1.00  0.00     0.152 A 
ATOM      8  C   UNL     1      56.325  14.191  13.018  1.00  0.00     0.127 A 
ATOM      9  N   UNL     1      56.514  14.516  11.734  1.00  0.00    -0.340 N 
ATOM     10  H   UNL     1      56.898  15.401  11.333  1.00  0.00     0.168 HD
ENDROOT
BRANCH   7  11
ATOM     11  N   UNL     1      57.125  16.231  14.155  1.00  0.00    -0.382 N 
ATOM     12  H   UNL     1      57.497  16.624  13.261  1.00  0.00     0.158 HD
ATOM     13  H   UNL     1      57.166  16.821  15.014  1.00  0.00     0.158 HD
ENDBRANCH   7  11
TORSDOF 1
ENDMDL
MODEL 3
REMARK VINA RESULT:    -3.430     23.592     24.292
REMARK INTER + INTRA:          -3.530
REMARK INTER:                  -3.530
REMARK INTRA:                   0.000
REMARK UNBOUND:                 0.000
REMARK SMILES Nc1ncnc2nc[nH]c12
REMARK SMILES IDX 8 1 7 2 6 3 5 4 4 5 3 6 2 7 10 8 9 9 1 11
REMARK H PARENT 9 10 1 12 1 13
REMARK Flexibility Score: inf
ROOT
ATOM      1  C   UNL     1      37.249  28.947   9.392  1.00  0.00     0.199 A 
ATOM      2  N   UNL     1      37.042  29.974  10.261  1.00  0.00    -0.217 NA
ATOM      3  C   UNL     1      37.045  29.347  11.449  1.00  0.00     0.182 A 
ATOM      4  N   UNL     1      36.877  29.921  12.665  1.00  0.00    -0.215 NA
ATOM      5  C   UNL     1      36.912  29.115  13.768  1.00  0.00     0.226 A 
ATOM      6  N   UNL     1      37.112  27.763  13.638  1.00  0.00    -0.217 NA
ATOM      7  C   UNL     1      37.282  27.183  12.412  1.00  0.00     0.152 A 
ATOM      8  C   UNL     1      37.243  28.018  11.298  1.00  0.00     0.127 A 
ATOM      9  N   UNL     1      37.376  27.738   9.996  1.00  0.00    -0.340 N 
ATOM     10  H   UNL     1      37.539  26.814   9.540  1.00  0.00     0.168 HD
ENDROOT
BRANCH   7  11
ATOM     11  N   UNL     1      37.488  25.775  12.300  1.00  0.00    -0.382 N 
ATOM     12  H   UNL     1      37.786  25.222  13.136  1.00  0.00     0.158 HD
ATOM     13  H   UNL     1      37.348  25.274  11.395  1.00  0.00     0.158 HD
ENDBRANCH   7  11
TORSDOF 1
ENDMDL
MODEL 4
REMARK VINA RESULT:    -3.034      1.267      3.051
REMARK INTER + INTRA:          -3.122
REMARK INTER:                  -3.122
REMARK INTRA:                   0.000
REMARK UNBOUND:                 0.000
REMARK SMILES Nc1ncnc2nc[nH]c12
REMARK SMILES IDX 8 1 7 2 6 3 5 4 4 5 3 6 2 7 10 8 9 9 1 11
REMARK H PARENT 9 10 1 12 1 13
REMARK Flexibility Score: inf
ROOT
ATOM      1  C   UNL     1      57.125  16.053  13.754  1.00  0.00     0.199 A 
ATOM      2  N   UNL     1      57.091  15.715  12.437  1.00  0.00    -0.217 NA
ATOM      3  C   UNL     1      56.589  14.469  12.475  1.00  0.00     0.182 A 
ATOM      4  N   UNL     1      56.348  13.663  11.413  1.00  0.00    -0.215 NA
ATOM      5  C   UNL     1      55.831  12.419  11.652  1.00  0.00     0.226 A 
ATOM      6  N   UNL     1      55.568  12.009  12.936  1.00  0.00    -0.217 NA
ATOM      7  C   UNL     1      55.812  12.821  14.007  1.00  0.00     0.152 A 
ATOM      8  C   UNL     1      56.338  14.084  13.747  1.00  0.00     0.127 A 
ATOM      9  N   UNL     1      56.671  15.076  14.581  1.00  0.00    -0.340 N 
ATOM     10  H   UNL     1      56.603  15.106  15.622  1.00  0.00     0.168 HD
ENDROOT
BRANCH   7  11
ATOM     11  N   UNL     1      55.531  12.373  15.333  1.00  0.00    -0.382 N 
ATOM     12  H   UNL     1      56.280  12.396  16.062  1.00  0.00     0.158 HD
ATOM     13  H   UNL     1      54.587  12.018  15.600  1.00  0.00     0.158 HD
ENDBRANCH   7  11
TORSDOF 1
ENDMDL
MODEL 5
REMARK VINA RESULT:    -2.999      1.095      3.647
REMARK INTER + INTRA:          -3.086
REMARK INTER:                  -3.086
REMARK INTRA:                   0.000
REMARK UNBOUND:                 0.000
REMARK SMILES Nc1ncnc2nc[nH]c12
REMARK SMILES IDX 8 1 7 2 6 3 5 4 4 5 3 6 2 7 10 8 9 9 1 11
REMARK H PARENT 9 10 1 12 1 13
REMARK Flexibility Score: inf
ROOT
ATOM      1  C   UNL     1      57.125  15.949  12.528  1.00  0.00     0.199 A 
ATOM      2  N   UNL     1      56.851  15.932  13.861  1.00  0.00    -0.217 NA
ATOM      3  C   UNL     1      56.415  14.675  14.046  1.00  0.00     0.182 A 
ATOM      4  N   UNL     1      56.006  14.128  15.216  1.00  0.00    -0.215 NA
ATOM      5  C   UNL     1      55.594  12.824  15.207  1.00  0.00     0.226 A 
ATOM      6  N   UNL     1      55.598  12.099  14.041  1.00  0.00    -0.217 NA
ATOM      7  C   UNL     1      56.010  12.651  12.861  1.00  0.00     0.152 A 
ATOM      8  C   UNL     1      56.427  13.979  12.887  1.00  0.00     0.127 A 
ATOM      9  N   UNL     1      56.875  14.770  11.904  1.00  0.00    -0.340 N 
ATOM     10  H   UNL     1      57.007  14.545  10.893  1.00  0.00     0.168 HD
ENDROOT
BRANCH   7  11
ATOM     11  N   UNL     1      56.006  11.878  11.661  1.00  0.00    -0.382 N 
ATOM     12  H   UNL     1      55.348  11.073  11.560  1.00  0.00     0.158 HD
ATOM     13  H   UNL     1      56.650  12.098  10.870  1.00  0.00     0.158 HD
ENDBRANCH   7  11
TORSDOF 1
ENDMDL
MODEL 6
REMARK VINA RESULT:    -2.904      1.399      1.520
REMARK INTER + INTRA:          -2.989
REMARK INTER:                  -2.989
REMARK INTRA:                   0.000
REMARK UNBOUND:                 0.000
REMARK SMILES Nc1ncnc2nc[nH]c12
REMARK SMILES IDX 8 1 7 2 6 3 5 4 4 5 3 6 2 7 10 8 9 9 1 11
REMARK H PARENT 9 10 1 12 1 13
REMARK Flexibility Score: inf
ROOT
ATOM      1  C   UNL     1      55.832  12.919  15.011  1.00  0.00     0.199 A 
ATOM      2  N   UNL     1      55.613  11.979  14.051  1.00  0.00    -0.217 NA
ATOM      3  C   UNL     1      55.937  12.639  12.927  1.00  0.00     0.182 A 
ATOM      4  N   UNL     1      55.896  12.150  11.664  1.00  0.00    -0.215 NA
ATOM      5  C   UNL     1      56.266  12.978  10.640  1.00  0.00     0.226 A 
ATOM      6  N   UNL     1      56.665  14.266  10.895  1.00  0.00    -0.217 NA
ATOM      7  C   UNL     1      56.707  14.760  12.169  1.00  0.00     0.152 A 
ATOM      8  C   UNL     1      56.327  13.905  13.200  1.00  0.00     0.127 A 
ATOM      9  N   UNL     1      56.268  14.107  14.521  1.00  0.00    -0.340 N 
ATOM     10  H   UNL     1      56.501  14.970  15.061  1.00  0.00     0.168 HD
ENDROOT
BRANCH   7  11
ATOM     11  N   UNL     1      57.125  16.103  12.410  1.00  0.00    -0.382 N 
ATOM     12  H   UNL     1      57.225  16.771  11.613  1.00  0.00     0.158 HD
ATOM     13  H   UNL     1      57.337  16.442  13.374  1.00  0.00     0.158 HD
ENDBRANCH   7  11
TORSDOF 1
ENDMDL
MODEL 7
REMARK VINA RESULT:    -2.837      1.395      2.910
REMARK INTER + INTRA:          -2.920
REMARK INTER:                  -2.920
REMARK INTRA:                   0.000
REMARK UNBOUND:                 0.000
REMARK SMILES Nc1ncnc2nc[nH]c12
REMARK SMILES IDX 8 1 7 2 6 3 5 4 4 5 3 6 2 7 10 8 9 9 1 11
REMARK H PARENT 9 10 1 12 1 13
REMARK Flexibility Score: inf
ROOT
ATOM      1  C   UNL     1      55.851  13.392  15.025  1.00  0.00     0.199 A 
ATOM      2  N   UNL     1      56.426  14.595  14.755  1.00  0.00    -0.217 NA
ATOM      3  C   UNL     1      56.554  14.557  13.418  1.00  0.00     0.182 A 
ATOM      4  N   UNL     1      57.079  15.525  12.629  1.00  0.00    -0.215 NA
ATOM      5  C   UNL     1      57.125  15.302  11.280  1.00  0.00     0.226 A 
ATOM      6  N   UNL     1      56.651  14.128  10.751  1.00  0.00    -0.217 NA
ATOM      7  C   UNL     1      56.122  13.151  11.546  1.00  0.00     0.152 A 
ATOM      8  C   UNL     1      56.082  13.392  12.917  1.00  0.00     0.127 A 
ATOM      9  N   UNL     1      55.628  12.633  13.922  1.00  0.00    -0.340 N 
ATOM     10  H   UNL     1      55.202  11.681  13.880  1.00  0.00     0.168 HD
ENDROOT
BRANCH   7  11
ATOM     11  N   UNL     1      55.635  11.936  10.974  1.00  0.00    -0.382 N 
ATOM     12  H   UNL     1      55.599  11.065  11.549  1.00  0.00     0.158 HD
ATOM     13  H   UNL     1      55.309  11.894   9.984  1.00  0.00     0.158 HD
ENDBRANCH   7  11
TORSDOF 1
ENDMDL
