MODEL 1
REMARK VINA RESULT:    -4.772      0.000      0.000
REMARK INTER + INTRA:          -6.959
REMARK INTER:                  -7.282
REMARK INTRA:                   0.324
REMARK UNBOUND:                 0.324
REMARK SMILES CC1=CCC[C@@H](C)C(=O)C[C@@H](C(C)C)C(=O)C1
REMARK SMILES IDX 8 1 9 2 6 3 7 4 5 5 4 6 3 7 2 8 1 9 10 11 11 12 15 13 16 14
REMARK SMILES IDX 17 15 12 17 13 18 14 19
REMARK H PARENT
REMARK Flexibility Score: 70.00
ROOT
ATOM      1  C   UNL     1      13.507 -32.247 -30.631  1.00  0.00     0.136 C 
ATOM      2  O   UNL     1      14.367 -31.409 -30.392  1.00  0.00    -0.299 OA
ENDROOT
BRANCH   1   3
ATOM      3  C   UNL     1      13.473 -32.915 -31.991  1.00  0.00     0.053 C 
ATOM      4  C   UNL     1      14.542 -32.289 -32.892  1.00  0.00     0.016 C 
BRANCH   3   5
ATOM      5  C   UNL     1      12.081 -32.806 -32.661  1.00  0.00     0.015 C 
BRANCH   5   6
ATOM      6  C   UNL     1      11.070 -33.859 -32.181  1.00  0.00     0.028 C 
BRANCH   6   7
ATOM      7  C   UNL     1      11.688 -35.235 -32.129  1.00  0.00    -0.028 C 
ATOM      8  C   UNL     1      11.906 -35.948 -31.001  1.00  0.00    -0.070 CG0
ATOM      9  C   UNL     1      12.516 -37.320 -31.134  1.00  0.00     0.039 C 
ATOM     10  G   UNL     1      11.557 -35.427 -29.617  1.00  0.00     0.000 G0
ENDBRANCH   6   7
ENDBRANCH   5   6
ENDBRANCH   3   5
ENDBRANCH   1   3
BRANCH   1  11
ATOM     11  C   UNL     1      12.532 -32.630 -29.542  1.00  0.00     0.087 C 
BRANCH  11  12
ATOM     12  C   UNL     1      13.134 -33.593 -28.486  1.00  0.00     0.066 C 
BRANCH  12  13
ATOM     13  C   UNL     1      12.747 -35.042 -28.764  1.00  0.00     0.140 C 
ATOM     14  O   UNL     1      13.448 -35.939 -28.318  1.00  0.00    -0.299 OA
BRANCH  13  15
ATOM     15  C   UNL     1      11.552 -35.431 -29.612  1.00  0.00     0.106 CG0
ATOM     16  G   UNL     1      11.909 -35.923 -31.004  1.00  0.00     0.000 G0
ENDBRANCH  13  15
ENDBRANCH  12  13
BRANCH  12  17
ATOM     17  C   UNL     1      12.779 -33.144 -27.035  1.00  0.00    -0.006 C 
ATOM     18  C   UNL     1      11.630 -33.938 -26.391  1.00  0.00     0.008 C 
ATOM     19  C   UNL     1      14.013 -33.182 -26.121  1.00  0.00     0.008 C 
ENDBRANCH  12  17
ENDBRANCH  11  12
ENDBRANCH   1  11
TORSDOF 1
ENDMDL
MODEL 2
REMARK VINA RESULT:    -4.398      2.058      4.735
REMARK INTER + INTRA:          -6.389
REMARK INTER:                  -6.337
REMARK INTRA:                  -0.052
REMARK UNBOUND:                 0.324
REMARK SMILES CC1=CCC[C@@H](C)C(=O)C[C@@H](C(C)C)C(=O)C1
REMARK SMILES IDX 8 1 9 2 6 3 7 4 5 5 4 6 3 7 2 8 1 9 10 11 11 12 15 13 16 14
REMARK SMILES IDX 17 15 12 17 13 18 14 19
REMARK H PARENT
REMARK Flexibility Score: 70.00
ROOT
ATOM      1  C   UNL     1      13.123 -36.052 -30.823  1.00  0.00     0.136 C 
ATOM      2  O   UNL     1      12.306 -36.914 -31.116  1.00  0.00    -0.299 OA
ENDROOT
BRANCH   1   3
ATOM      3  C   UNL     1      13.746 -36.051 -29.442  1.00  0.00     0.053 C 
ATOM      4  C   UNL     1      13.553 -37.426 -28.796  1.00  0.00     0.016 C 
BRANCH   3   5
ATOM      5  C   UNL     1      13.152 -34.947 -28.533  1.00  0.00     0.015 C 
BRANCH   5   6
ATOM      6  C   UNL     1      11.624 -35.008 -28.390  1.00  0.00     0.028 C 
BRANCH   6   7
ATOM      7  C   UNL     1      11.004 -33.635 -28.484  1.00  0.00    -0.028 C 
ATOM      8  C   UNL     1      10.472 -33.097 -29.605  1.00  0.00    -0.070 CG0
ATOM      9  C   UNL     1       9.875 -31.716 -29.516  1.00  0.00     0.039 C 
ATOM     10  G   UNL     1      10.448 -33.826 -30.938  1.00  0.00     0.000 G0
ENDBRANCH   6   7
ENDBRANCH   5   6
ENDBRANCH   3   5
ENDBRANCH   1   3
BRANCH   1  11
ATOM     11  C   UNL     1      13.528 -35.038 -31.868  1.00  0.00     0.087 C 
BRANCH  11  12
ATOM     12  C   UNL     1      13.059 -33.596 -31.543  1.00  0.00     0.066 C 
BRANCH  12  13
ATOM     13  C   UNL     1      11.589 -33.392 -31.896  1.00  0.00     0.140 C 
ATOM     14  O   UNL     1      11.302 -32.843 -32.950  1.00  0.00    -0.299 OA
BRANCH  13  15
ATOM     15  C   UNL     1      10.455 -33.796 -30.975  1.00  0.00     0.106 CG0
ATOM     16  G   UNL     1      10.479 -33.113 -29.618  1.00  0.00     0.000 G0
ENDBRANCH  13  15
ENDBRANCH  12  13
BRANCH  12  17
ATOM     17  C   UNL     1      13.989 -32.530 -32.202  1.00  0.00    -0.006 C 
ATOM     18  C   UNL     1      14.442 -31.411 -31.249  1.00  0.00     0.008 C 
ATOM     19  C   UNL     1      15.215 -33.185 -32.855  1.00  0.00     0.008 C 
ENDBRANCH  12  17
ENDBRANCH  11  12
ENDBRANCH   1  11
TORSDOF 1
ENDMDL
MODEL 3
REMARK VINA RESULT:    -4.078      1.759      4.732
REMARK INTER + INTRA:          -5.899
REMARK INTER:                  -5.925
REMARK INTRA:                   0.026
REMARK UNBOUND:                 0.324
REMARK SMILES CC1=CCC[C@@H](C)C(=O)C[C@@H](C(C)C)C(=O)C1
REMARK SMILES IDX 8 1 9 2 6 3 7 4 5 5 4 6 3 7 2 8 1 9 10 11 11 12 15 13 16 14
REMARK SMILES IDX 17 15 12 17 13 18 14 19
REMARK H PARENT
REMARK Flexibility Score: 70.00
ROOT
ATOM      1  C   UNL     1      11.891 -34.792 -31.641  1.00  0.00     0.136 C 
ATOM      2  O   UNL     1      10.714 -35.124 -31.602  1.00  0.00    -0.299 OA
ENDROOT
BRANCH   1   3
ATOM      3  C   UNL     1      12.969 -35.847 -31.497  1.00  0.00     0.053 C 
ATOM      4  C   UNL     1      12.476 -37.165 -32.102  1.00  0.00     0.016 C 
BRANCH   3   5
ATOM      5  C   UNL     1      13.384 -36.061 -30.021  1.00  0.00     0.015 C 
BRANCH   5   6
ATOM      6  C   UNL     1      12.326 -35.612 -29.001  1.00  0.00     0.028 C 
BRANCH   6   7
ATOM      7  C   UNL     1      12.943 -34.809 -27.881  1.00  0.00    -0.028 C 
ATOM      8  C   UNL     1      13.015 -33.459 -27.841  1.00  0.00    -0.070 CG0
ATOM      9  C   UNL     1      13.649 -32.817 -26.633  1.00  0.00     0.039 C 
ATOM     10  G   UNL     1      12.482 -32.571 -28.953  1.00  0.00     0.000 G0
ENDBRANCH   6   7
ENDBRANCH   5   6
ENDBRANCH   3   5
ENDBRANCH   1   3
BRANCH   1  11
ATOM     11  C   UNL     1      12.238 -33.342 -31.885  1.00  0.00     0.087 C 
BRANCH  11  12
ATOM     12  C   UNL     1      13.631 -32.940 -31.336  1.00  0.00     0.066 C 
BRANCH  12  13
ATOM     13  C   UNL     1      13.518 -32.212 -30.000  1.00  0.00     0.140 C 
ATOM     14  O   UNL     1      14.314 -31.321 -29.741  1.00  0.00    -0.299 OA
BRANCH  13  15
ATOM     15  C   UNL     1      12.489 -32.571 -28.947  1.00  0.00     0.106 CG0
ATOM     16  G   UNL     1      13.016 -33.468 -27.840  1.00  0.00     0.000 G0
ENDBRANCH  13  15
ENDBRANCH  12  13
BRANCH  12  17
ATOM     17  C   UNL     1      14.452 -32.136 -32.391  1.00  0.00    -0.006 C 
ATOM     18  C   UNL     1      15.645 -32.906 -32.984  1.00  0.00     0.008 C 
ATOM     19  C   UNL     1      13.552 -31.620 -33.524  1.00  0.00     0.008 C 
ENDBRANCH  12  17
ENDBRANCH  11  12
ENDBRANCH   1  11
TORSDOF 1
ENDMDL
MODEL 4
REMARK VINA RESULT:    -3.873      1.704      4.122
REMARK INTER + INTRA:          -5.588
REMARK INTER:                  -6.274
REMARK INTRA:                   0.686
REMARK UNBOUND:                 0.324
REMARK SMILES CC1=CCC[C@@H](C)C(=O)C[C@@H](C(C)C)C(=O)C1
REMARK SMILES IDX 8 1 9 2 6 3 7 4 5 5 4 6 3 7 2 8 1 9 10 11 11 12 15 13 16 14
REMARK SMILES IDX 17 15 12 17 13 18 14 19
REMARK H PARENT
REMARK Flexibility Score: 70.00
ROOT
ATOM      1  C   UNL     1      12.567 -32.429 -28.846  1.00  0.00     0.136 C 
ATOM      2  O   UNL     1      13.604 -31.818 -29.070  1.00  0.00    -0.299 OA
ENDROOT
BRANCH   1   3
ATOM      3  C   UNL     1      12.409 -33.178 -27.538  1.00  0.00     0.053 C 
ATOM      4  C   UNL     1      13.644 -32.940 -26.663  1.00  0.00     0.016 C 
BRANCH   3   5
ATOM      5  C   UNL     1      12.195 -34.696 -27.756  1.00  0.00     0.015 C 
BRANCH   5   6
ATOM      6  C   UNL     1      13.369 -35.401 -28.454  1.00  0.00     0.028 C 
BRANCH   6   7
ATOM      7  C   UNL     1      12.886 -36.362 -29.513  1.00  0.00    -0.028 C 
ATOM      8  C   UNL     1      13.008 -36.175 -30.847  1.00  0.00    -0.070 CG0
ATOM      9  C   UNL     1      12.486 -37.250 -31.766  1.00  0.00     0.039 C 
ATOM     10  G   UNL     1      13.651 -34.938 -31.450  1.00  0.00     0.000 G0
ENDBRANCH   6   7
ENDBRANCH   5   6
ENDBRANCH   3   5
ENDBRANCH   1   3
BRANCH   1  11
ATOM     11  C   UNL     1      11.449 -32.376 -29.861  1.00  0.00     0.087 C 
BRANCH  11  12
ATOM     12  C   UNL     1      11.399 -33.618 -30.788  1.00  0.00     0.066 C 
BRANCH  12  13
ATOM     13  C   UNL     1      12.681 -33.761 -31.603  1.00  0.00     0.140 C 
ATOM     14  O   UNL     1      12.946 -32.917 -32.446  1.00  0.00    -0.299 OA
BRANCH  13  15
ATOM     15  C   UNL     1      13.629 -34.934 -31.452  1.00  0.00     0.106 CG0
ATOM     16  G   UNL     1      12.997 -36.173 -30.842  1.00  0.00     0.000 G0
ENDBRANCH  13  15
ENDBRANCH  12  13
BRANCH  12  17
ATOM     17  C   UNL     1      10.118 -33.615 -31.679  1.00  0.00    -0.006 C 
ATOM     18  C   UNL     1       9.876 -32.296 -32.434  1.00  0.00     0.008 C 
ATOM     19  C   UNL     1      10.125 -34.787 -32.671  1.00  0.00     0.008 C 
ENDBRANCH  12  17
ENDBRANCH  11  12
ENDBRANCH   1  11
TORSDOF 1
ENDMDL
MODEL 5
REMARK VINA RESULT:    -3.779      2.214      4.777
REMARK INTER + INTRA:          -5.443
REMARK INTER:                  -5.443
REMARK INTRA:                  -0.001
REMARK UNBOUND:                 0.324
REMARK SMILES CC1=CCC[C@@H](C)C(=O)C[C@@H](C(C)C)C(=O)C1
REMARK SMILES IDX 8 1 9 2 6 3 7 4 5 5 4 6 3 7 2 8 1 9 10 11 11 12 15 13 16 14
REMARK SMILES IDX 17 15 12 17 13 18 14 19
REMARK H PARENT
REMARK Flexibility Score: 70.00
ROOT
ATOM      1  C   UNL     1      13.009 -35.458 -31.489  1.00  0.00     0.136 C 
ATOM      2  O   UNL     1      13.789 -34.779 -32.142  1.00  0.00    -0.299 OA
ENDROOT
BRANCH   1   3
ATOM      3  C   UNL     1      13.447 -36.814 -30.974  1.00  0.00     0.053 C 
ATOM      4  C   UNL     1      12.463 -37.884 -31.457  1.00  0.00     0.016 C 
BRANCH   3   5
ATOM      5  C   UNL     1      13.553 -36.847 -29.430  1.00  0.00     0.015 C 
BRANCH   5   6
ATOM      6  C   UNL     1      13.780 -35.469 -28.788  1.00  0.00     0.028 C 
BRANCH   6   7
ATOM      7  C   UNL     1      12.731 -35.166 -27.745  1.00  0.00    -0.028 C 
ATOM      8  C   UNL     1      12.042 -34.006 -27.650  1.00  0.00    -0.070 CG0
ATOM      9  C   UNL     1      11.013 -33.879 -26.556  1.00  0.00     0.039 C 
ATOM     10  G   UNL     1      12.257 -32.839 -28.599  1.00  0.00     0.000 G0
ENDBRANCH   6   7
ENDBRANCH   5   6
ENDBRANCH   3   5
ENDBRANCH   1   3
BRANCH   1  11
ATOM     11  C   UNL     1      11.641 -34.901 -31.169  1.00  0.00     0.087 C 
BRANCH  11  12
ATOM     12  C   UNL     1      11.589 -33.352 -31.172  1.00  0.00     0.066 C 
BRANCH  12  13
ATOM     13  C   UNL     1      11.263 -32.798 -29.788  1.00  0.00     0.140 C 
ATOM     14  O   UNL     1      10.176 -32.272 -29.600  1.00  0.00    -0.299 OA
BRANCH  13  15
ATOM     15  C   UNL     1      12.246 -32.826 -28.635  1.00  0.00     0.106 CG0
ATOM     16  G   UNL     1      12.041 -33.980 -27.668  1.00  0.00     0.000 G0
ENDBRANCH  13  15
ENDBRANCH  12  13
BRANCH  12  17
ATOM     17  C   UNL     1      10.627 -32.814 -32.276  1.00  0.00    -0.006 C 
ATOM     18  C   UNL     1      11.309 -31.925 -33.331  1.00  0.00     0.008 C 
ATOM     19  C   UNL     1       9.876 -33.960 -32.970  1.00  0.00     0.008 C 
ENDBRANCH  12  17
ENDBRANCH  11  12
ENDBRANCH   1  11
TORSDOF 1
ENDMDL
MODEL 6
REMARK VINA RESULT:    -3.397      1.656      2.501
REMARK INTER + INTRA:          -4.861
REMARK INTER:                  -5.004
REMARK INTRA:                   0.143
REMARK UNBOUND:                 0.324
REMARK SMILES CC1=CCC[C@@H](C)C(=O)C[C@@H](C(C)C)C(=O)C1
REMARK SMILES IDX 8 1 9 2 6 3 7 4 5 5 4 6 3 7 2 8 1 9 10 11 11 12 15 13 16 14
REMARK SMILES IDX 17 15 12 17 13 18 14 19
REMARK H PARENT
REMARK Flexibility Score: 70.00
ROOT
ATOM      1  C   UNL     1      12.879 -33.158 -31.574  1.00  0.00     0.136 C 
ATOM      2  O   UNL     1      13.987 -33.521 -31.946  1.00  0.00    -0.299 OA
ENDROOT
BRANCH   1   3
ATOM      3  C   UNL     1      11.645 -33.677 -32.284  1.00  0.00     0.053 C 
ATOM      4  C   UNL     1      10.396 -33.051 -31.656  1.00  0.00     0.016 C 
BRANCH   3   5
ATOM      5  C   UNL     1      11.549 -35.222 -32.235  1.00  0.00     0.015 C 
BRANCH   5   6
ATOM      6  C   UNL     1      11.332 -35.792 -30.825  1.00  0.00     0.028 C 
BRANCH   6   7
ATOM      7  C   UNL     1      12.606 -36.370 -30.260  1.00  0.00    -0.028 C 
ATOM      8  C   UNL     1      13.082 -36.134 -29.016  1.00  0.00    -0.070 CG0
ATOM      9  C   UNL     1      14.365 -36.811 -28.606  1.00  0.00     0.039 C 
ATOM     10  G   UNL     1      12.377 -35.227 -28.022  1.00  0.00     0.000 G0
ENDBRANCH   6   7
ENDBRANCH   5   6
ENDBRANCH   3   5
ENDBRANCH   1   3
BRANCH   1  11
ATOM     11  C   UNL     1      12.770 -32.240 -30.379  1.00  0.00     0.087 C 
BRANCH  11  12
ATOM     12  C   UNL     1      13.205 -32.904 -29.048  1.00  0.00     0.066 C 
BRANCH  12  13
ATOM     13  C   UNL     1      12.116 -33.818 -28.495  1.00  0.00     0.140 C 
ATOM     14  O   UNL     1      10.974 -33.393 -28.406  1.00  0.00    -0.299 OA
BRANCH  13  15
ATOM     15  C   UNL     1      12.390 -35.225 -28.000  1.00  0.00     0.106 CG0
ATOM     16  G   UNL     1      13.088 -36.117 -29.013  1.00  0.00     0.000 G0
ENDBRANCH  13  15
ENDBRANCH  12  13
BRANCH  12  17
ATOM     17  C   UNL     1      13.685 -31.843 -28.009  1.00  0.00    -0.006 C 
ATOM     18  C   UNL     1      14.296 -32.442 -26.730  1.00  0.00     0.008 C 
ATOM     19  C   UNL     1      14.671 -30.849 -28.639  1.00  0.00     0.008 C 
ENDBRANCH  12  17
ENDBRANCH  11  12
ENDBRANCH   1  11
TORSDOF 1
ENDMDL
MODEL 7
REMARK VINA RESULT:    -3.393      1.603      3.815
REMARK INTER + INTRA:          -4.855
REMARK INTER:                  -6.807
REMARK INTRA:                   1.953
REMARK UNBOUND:                 0.324
REMARK SMILES CC1=CCC[C@@H](C)C(=O)C[C@@H](C(C)C)C(=O)C1
REMARK SMILES IDX 8 1 9 2 6 3 7 4 5 5 4 6 3 7 2 8 1 9 10 11 11 12 15 13 16 14
REMARK SMILES IDX 17 15 12 17 13 18 14 19
REMARK H PARENT
REMARK Flexibility Score: 70.00
ROOT
ATOM      1  C   UNL     1      12.496 -32.616 -28.816  1.00  0.00     0.136 C 
ATOM      2  O   UNL     1      13.477 -31.890 -28.897  1.00  0.00    -0.299 OA
ENDROOT
BRANCH   1   3
ATOM      3  C   UNL     1      12.327 -33.512 -27.606  1.00  0.00     0.053 C 
ATOM      4  C   UNL     1      13.449 -33.228 -26.602  1.00  0.00     0.016 C 
BRANCH   3   5
ATOM      5  C   UNL     1      12.320 -35.013 -27.986  1.00  0.00     0.015 C 
BRANCH   5   6
ATOM      6  C   UNL     1      13.682 -35.547 -28.454  1.00  0.00     0.028 C 
BRANCH   6   7
ATOM      7  C   UNL     1      13.529 -36.550 -29.572  1.00  0.00    -0.028 C 
ATOM      8  C   UNL     1      12.482 -36.607 -30.426  1.00  0.00    -0.070 CG0
ATOM      9  C   UNL     1      12.500 -37.664 -31.501  1.00  0.00     0.039 C 
ATOM     10  G   UNL     1      11.302 -35.653 -30.350  1.00  0.00     0.000 G0
ENDBRANCH   6   7
ENDBRANCH   5   6
ENDBRANCH   3   5
ENDBRANCH   1   3
BRANCH   1  11
ATOM     11  C   UNL     1      11.449 -32.560 -29.905  1.00  0.00     0.087 C 
BRANCH  11  12
ATOM     12  C   UNL     1      11.919 -33.186 -31.243  1.00  0.00     0.066 C 
BRANCH  12  13
ATOM     13  C   UNL     1      11.321 -34.574 -31.454  1.00  0.00     0.140 C 
ATOM     14  O   UNL     1      10.795 -34.837 -32.525  1.00  0.00    -0.299 OA
BRANCH  13  15
ATOM     15  C   UNL     1      11.303 -35.638 -30.375  1.00  0.00     0.106 CG0
ATOM     16  G   UNL     1      12.480 -36.598 -30.426  1.00  0.00     0.000 G0
ENDBRANCH  13  15
ENDBRANCH  12  13
BRANCH  12  17
ATOM     17  C   UNL     1      13.474 -33.177 -31.365  1.00  0.00    -0.006 C 
ATOM     18  C   UNL     1      14.065 -34.446 -32.005  1.00  0.00     0.008 C 
ATOM     19  C   UNL     1      13.969 -31.936 -32.121  1.00  0.00     0.008 C 
ENDBRANCH  12  17
ENDBRANCH  11  12
ENDBRANCH   1  11
TORSDOF 1
ENDMDL
MODEL 8
REMARK VINA RESULT:    -3.335      1.962      3.853
REMARK INTER + INTRA:          -4.766
REMARK INTER:                  -5.263
REMARK INTRA:                   0.497
REMARK UNBOUND:                 0.324
REMARK SMILES CC1=CCC[C@@H](C)C(=O)C[C@@H](C(C)C)C(=O)C1
REMARK SMILES IDX 8 1 9 2 6 3 7 4 5 5 4 6 3 7 2 8 1 9 10 11 11 12 15 13 16 14
REMARK SMILES IDX 17 15 12 17 13 18 14 19
REMARK H PARENT
REMARK Flexibility Score: 70.00
ROOT
ATOM      1  C   UNL     1      13.090 -32.905 -32.075  1.00  0.00     0.136 C 
ATOM      2  O   UNL     1      12.159 -32.789 -32.860  1.00  0.00    -0.299 OA
ENDROOT
BRANCH   1   3
ATOM      3  C   UNL     1      14.020 -31.733 -31.840  1.00  0.00     0.053 C 
ATOM      4  C   UNL     1      15.149 -31.762 -32.875  1.00  0.00     0.016 C 
BRANCH   3   5
ATOM      5  C   UNL     1      14.611 -31.733 -30.408  1.00  0.00     0.015 C 
BRANCH   5   6
ATOM      6  C   UNL     1      13.682 -31.123 -29.347  1.00  0.00     0.028 C 
BRANCH   6   7
ATOM      7  C   UNL     1      13.271 -32.148 -28.317  1.00  0.00    -0.028 C 
ATOM      8  C   UNL     1      12.197 -32.964 -28.418  1.00  0.00    -0.070 CG0
ATOM      9  C   UNL     1      11.944 -33.945 -27.302  1.00  0.00     0.039 C 
ATOM     10  G   UNL     1      11.248 -32.935 -29.604  1.00  0.00     0.000 G0
ENDBRANCH   6   7
ENDBRANCH   5   6
ENDBRANCH   3   5
ENDBRANCH   1   3
BRANCH   1  11
ATOM     11  C   UNL     1      13.257 -34.204 -31.321  1.00  0.00     0.087 C 
BRANCH  11  12
ATOM     12  C   UNL     1      11.936 -35.000 -31.163  1.00  0.00     0.066 C 
BRANCH  12  13
ATOM     13  C   UNL     1      10.958 -34.285 -30.235  1.00  0.00     0.140 C 
ATOM     14  O   UNL     1       9.875 -34.802 -30.003  1.00  0.00    -0.299 OA
BRANCH  13  15
ATOM     15  C   UNL     1      11.244 -32.930 -29.619  1.00  0.00     0.106 CG0
ATOM     16  G   UNL     1      12.178 -32.975 -28.421  1.00  0.00     0.000 G0
ENDBRANCH  13  15
ENDBRANCH  12  13
BRANCH  12  17
ATOM     17  C   UNL     1      12.205 -36.475 -30.730  1.00  0.00    -0.006 C 
ATOM     18  C   UNL     1      12.509 -37.430 -31.897  1.00  0.00     0.008 C 
ATOM     19  C   UNL     1      13.329 -36.555 -29.687  1.00  0.00     0.008 C 
ENDBRANCH  12  17
ENDBRANCH  11  12
ENDBRANCH   1  11
TORSDOF 1
ENDMDL
MODEL 9
REMARK VINA RESULT:    -3.096      1.882      4.131
REMARK INTER + INTRA:          -4.401
REMARK INTER:                  -5.566
REMARK INTRA:                   1.165
REMARK UNBOUND:                 0.324
REMARK SMILES CC1=CCC[C@@H](C)C(=O)C[C@@H](C(C)C)C(=O)C1
REMARK SMILES IDX 8 1 9 2 6 3 7 4 5 5 4 6 3 7 2 8 1 9 10 11 11 12 15 13 16 14
REMARK SMILES IDX 17 15 12 17 13 18 14 19
REMARK H PARENT
REMARK Flexibility Score: 70.00
ROOT
ATOM      1  C   UNL     1      10.413 -34.269 -31.669  1.00  0.00     0.136 C 
ATOM      2  O   UNL     1       9.948 -34.792 -32.673  1.00  0.00    -0.299 OA
ENDROOT
BRANCH   1   3
ATOM      3  C   UNL     1      11.007 -32.878 -31.758  1.00  0.00     0.053 C 
ATOM      4  C   UNL     1      11.461 -32.610 -33.196  1.00  0.00     0.016 C 
BRANCH   3   5
ATOM      5  C   UNL     1      12.193 -32.685 -30.781  1.00  0.00     0.015 C 
BRANCH   5   6
ATOM      6  C   UNL     1      11.815 -31.983 -29.468  1.00  0.00     0.028 C 
BRANCH   6   7
ATOM      7  C   UNL     1      12.811 -32.282 -28.373  1.00  0.00    -0.028 C 
ATOM      8  C   UNL     1      12.873 -33.438 -27.674  1.00  0.00    -0.070 CG0
ATOM      9  C   UNL     1      13.947 -33.577 -26.626  1.00  0.00     0.039 C 
ATOM     10  G   UNL     1      11.915 -34.595 -27.906  1.00  0.00     0.000 G0
ENDBRANCH   6   7
ENDBRANCH   5   6
ENDBRANCH   3   5
ENDBRANCH   1   3
BRANCH   1  11
ATOM     11  C   UNL     1      10.334 -35.007 -30.353  1.00  0.00     0.087 C 
BRANCH  11  12
ATOM     12  C   UNL     1      11.499 -36.007 -30.136  1.00  0.00     0.066 C 
BRANCH  12  13
ATOM     13  C   UNL     1      12.354 -35.619 -28.934  1.00  0.00     0.140 C 
ATOM     14  O   UNL     1      13.429 -36.177 -28.765  1.00  0.00    -0.299 OA
BRANCH  13  15
ATOM     15  C   UNL     1      11.915 -34.601 -27.900  1.00  0.00     0.106 CG0
ATOM     16  G   UNL     1      12.890 -33.453 -27.702  1.00  0.00     0.000 G0
ENDBRANCH  13  15
ENDBRANCH  12  13
BRANCH  12  17
ATOM     17  C   UNL     1      12.340 -36.196 -31.436  1.00  0.00    -0.006 C 
ATOM     18  C   UNL     1      13.709 -35.494 -31.410  1.00  0.00     0.008 C 
ATOM     19  C   UNL     1      12.526 -37.684 -31.770  1.00  0.00     0.008 C 
ENDBRANCH  12  17
ENDBRANCH  11  12
ENDBRANCH   1  11
TORSDOF 1
ENDMDL
