MODEL 1
REMARK VINA RESULT:    -5.913      0.000      0.000
REMARK INTER + INTRA:          -7.265
REMARK INTER:                  -6.950
REMARK INTRA:                  -0.315
REMARK UNBOUND:                -0.315
REMARK SMILES O=c1cc(-c2ccc(O)c(O)c2)oc2cc(O)cc(O)c12
REMARK SMILES IDX 4 1 3 2 2 3 1 4 21 5 19 6 18 7 16 8 15 9 14 10 13 11 5 12
REMARK SMILES IDX 6 13 7 14 8 15 12 16 10 17 9 18 11 20 20 22 17 24
REMARK H PARENT 9 19 11 21 20 23 17 25
REMARK Flexibility Score: inf
ROOT
ATOM      1  C   UNL     1      12.840  11.361  15.541  1.00  0.00     0.138 A 
ATOM      2  C   UNL     1      12.150  11.603  14.345  1.00  0.00     0.100 A 
ATOM      3  C   UNL     1      11.030  12.436  14.350  1.00  0.00     0.197 A 
ATOM      4  O   UNL     1      10.396  12.585  13.274  1.00  0.00    -0.289 OA
ATOM      5  C   UNL     1      10.621  13.056  15.554  1.00  0.00     0.107 A 
ATOM      6  C   UNL     1       9.520  13.957  15.671  1.00  0.00     0.134 A 
ATOM      7  C   UNL     1       9.136  14.417  16.937  1.00  0.00     0.093 A 
ATOM      8  C   UNL     1       9.848  14.059  18.080  1.00  0.00     0.123 A 
ATOM      9  C   UNL     1      10.960  13.221  17.972  1.00  0.00     0.094 A 
ATOM     10  C   UNL     1      11.346  12.718  16.727  1.00  0.00     0.146 A 
ATOM     11  O   UNL     1      12.402  11.912  16.668  1.00  0.00    -0.456 OA
ENDROOT
BRANCH   1  12
ATOM     12  C   UNL     1      14.037  10.484  15.592  1.00  0.00     0.021 A 
ATOM     13  C   UNL     1      14.662  10.098  14.392  1.00  0.00     0.016 A 
ATOM     14  C   UNL     1      15.785   9.267  14.413  1.00  0.00     0.051 A 
ATOM     15  C   UNL     1      16.296   8.799  15.629  1.00  0.00     0.157 A 
ATOM     16  C   UNL     1      14.548   9.999  16.811  1.00  0.00     0.062 A 
ATOM     17  C   UNL     1      15.676   9.164  16.830  1.00  0.00     0.158 A 
BRANCH  15  18
ATOM     18  O   UNL     1      17.417   7.973  15.653  1.00  0.00    -0.504 OA
ATOM     19  H   UNL     1      17.358   6.992  15.405  1.00  0.00     0.293 HD
ENDBRANCH  15  18
BRANCH  17  20
ATOM     20  O   UNL     1      16.180   8.687  18.039  1.00  0.00    -0.504 OA
ATOM     21  H   UNL     1      17.000   9.099  18.470  1.00  0.00     0.293 HD
ENDBRANCH  17  20
ENDBRANCH   1  12
BRANCH   6  22
ATOM     22  O   UNL     1       8.792  14.446  14.582  1.00  0.00    -0.507 OA
ATOM     23  H   UNL     1       7.803  14.643  14.591  1.00  0.00     0.293 HD
ENDBRANCH   6  22
BRANCH   8  24
ATOM     24  O   UNL     1       9.447  14.548  19.322  1.00  0.00    -0.508 OA
ATOM     25  H   UNL     1       8.525  14.359  19.693  1.00  0.00     0.293 HD
ENDBRANCH   8  24
TORSDOF 5
ENDMDL
MODEL 2
REMARK VINA RESULT:    -5.699      4.847      7.329
REMARK INTER + INTRA:          -7.014
REMARK INTER:                  -6.731
REMARK INTRA:                  -0.283
REMARK UNBOUND:                -0.315
REMARK SMILES O=c1cc(-c2ccc(O)c(O)c2)oc2cc(O)cc(O)c12
REMARK SMILES IDX 4 1 3 2 2 3 1 4 21 5 19 6 18 7 16 8 15 9 14 10 13 11 5 12
REMARK SMILES IDX 6 13 7 14 8 15 12 16 10 17 9 18 11 20 20 22 17 24
REMARK H PARENT 9 19 11 21 20 23 17 25
REMARK Flexibility Score: inf
ROOT
ATOM      1  C   UNL     1      14.418   9.629  20.782  1.00  0.00     0.138 A 
ATOM      2  C   UNL     1      15.055   8.505  20.240  1.00  0.00     0.100 A 
ATOM      3  C   UNL     1      15.135   8.356  18.855  1.00  0.00     0.197 A 
ATOM      4  O   UNL     1      15.658   7.307  18.400  1.00  0.00    -0.289 OA
ATOM      5  C   UNL     1      14.603   9.358  18.009  1.00  0.00     0.107 A 
ATOM      6  C   UNL     1      14.663   9.334  16.584  1.00  0.00     0.134 A 
ATOM      7  C   UNL     1      13.998  10.323  15.848  1.00  0.00     0.093 A 
ATOM      8  C   UNL     1      13.328  11.366  16.484  1.00  0.00     0.123 A 
ATOM      9  C   UNL     1      13.307  11.429  17.878  1.00  0.00     0.094 A 
ATOM     10  C   UNL     1      13.932  10.439  18.640  1.00  0.00     0.146 A 
ATOM     11  O   UNL     1      13.878  10.528  19.965  1.00  0.00    -0.456 OA
ENDROOT
BRANCH   1  12
ATOM     12  C   UNL     1      14.305   9.837  22.248  1.00  0.00     0.021 A 
ATOM     13  C   UNL     1      14.417  11.137  22.773  1.00  0.00     0.016 A 
ATOM     14  C   UNL     1      14.323  11.357  24.149  1.00  0.00     0.051 A 
ATOM     15  C   UNL     1      14.125  10.283  25.025  1.00  0.00     0.157 A 
ATOM     16  C   UNL     1      14.119   8.759  23.136  1.00  0.00     0.062 A 
ATOM     17  C   UNL     1      14.025   8.982  24.518  1.00  0.00     0.158 A 
BRANCH  15  18
ATOM     18  O   UNL     1      14.027  10.500  26.398  1.00  0.00    -0.504 OA
ATOM     19  H   UNL     1      13.200  10.235  26.919  1.00  0.00     0.293 HD
ENDBRANCH  15  18
BRANCH  17  20
ATOM     20  O   UNL     1      13.839   7.914  25.394  1.00  0.00    -0.504 OA
ATOM     21  H   UNL     1      12.912   7.618  25.679  1.00  0.00     0.293 HD
ENDBRANCH  17  20
ENDBRANCH   1  12
BRANCH   6  22
ATOM     22  O   UNL     1      15.377   8.383  15.848  1.00  0.00    -0.507 OA
ATOM     23  H   UNL     1      15.890   8.575  15.000  1.00  0.00     0.293 HD
ENDBRANCH   6  22
BRANCH   8  24
ATOM     24  O   UNL     1      12.690  12.341  15.720  1.00  0.00    -0.508 OA
ATOM     25  H   UNL     1      11.892  12.120  15.138  1.00  0.00     0.293 HD
ENDBRANCH   8  24
TORSDOF 5
ENDMDL
MODEL 3
REMARK VINA RESULT:    -5.544      3.021      7.966
REMARK INTER + INTRA:          -6.832
REMARK INTER:                  -6.539
REMARK INTRA:                  -0.293
REMARK UNBOUND:                -0.315
REMARK SMILES O=c1cc(-c2ccc(O)c(O)c2)oc2cc(O)cc(O)c12
REMARK SMILES IDX 4 1 3 2 2 3 1 4 21 5 19 6 18 7 16 8 15 9 14 10 13 11 5 12
REMARK SMILES IDX 6 13 7 14 8 15 12 16 10 17 9 18 11 20 20 22 17 24
REMARK H PARENT 9 19 11 21 20 23 17 25
REMARK Flexibility Score: inf
ROOT
ATOM      1  C   UNL     1       9.325  14.252  17.150  1.00  0.00     0.138 A 
ATOM      2  C   UNL     1      10.445  13.668  17.755  1.00  0.00     0.100 A 
ATOM      3  C   UNL     1      11.319  12.894  16.990  1.00  0.00     0.197 A 
ATOM      4  O   UNL     1      12.281  12.333  17.574  1.00  0.00    -0.289 OA
ATOM      5  C   UNL     1      11.085  12.734  15.604  1.00  0.00     0.107 A 
ATOM      6  C   UNL     1      11.929  12.001  14.717  1.00  0.00     0.134 A 
ATOM      7  C   UNL     1      11.534  11.812  13.387  1.00  0.00     0.093 A 
ATOM      8  C   UNL     1      10.358  12.377  12.897  1.00  0.00     0.123 A 
ATOM      9  C   UNL     1       9.551  13.140  13.742  1.00  0.00     0.094 A 
ATOM     10  C   UNL     1       9.900  13.318  15.082  1.00  0.00     0.146 A 
ATOM     11  O   UNL     1       9.097  14.040  15.858  1.00  0.00    -0.456 OA
ENDROOT
BRANCH   1  12
ATOM     12  C   UNL     1       8.364  15.085  17.918  1.00  0.00     0.021 A 
ATOM     13  C   UNL     1       7.483  15.937  17.227  1.00  0.00     0.016 A 
ATOM     14  C   UNL     1       6.575  16.736  17.926  1.00  0.00     0.051 A 
ATOM     15  C   UNL     1       6.538  16.706  19.326  1.00  0.00     0.157 A 
ATOM     16  C   UNL     1       8.330  15.069  19.325  1.00  0.00     0.062 A 
ATOM     17  C   UNL     1       7.418  15.873  20.027  1.00  0.00     0.158 A 
BRANCH  15  18
ATOM     18  O   UNL     1       5.632  17.499  20.026  1.00  0.00    -0.504 OA
ATOM     19  H   UNL     1       5.904  18.392  20.420  1.00  0.00     0.293 HD
ENDBRANCH  15  18
BRANCH  17  20
ATOM     20  O   UNL     1       7.386  15.853  21.420  1.00  0.00    -0.504 OA
ATOM     21  H   UNL     1       8.174  16.172  21.973  1.00  0.00     0.293 HD
ENDBRANCH  17  20
ENDBRANCH   1  12
BRANCH   6  22
ATOM     22  O   UNL     1      13.168  11.466  15.082  1.00  0.00    -0.507 OA
ATOM     23  H   UNL     1      13.984  12.010  15.320  1.00  0.00     0.293 HD
ENDBRANCH   6  22
BRANCH   8  24
ATOM     24  O   UNL     1      10.004  12.180  11.564  1.00  0.00    -0.508 OA
ATOM     25  H   UNL     1       9.141  11.715  11.308  1.00  0.00     0.293 HD
ENDBRANCH   8  24
TORSDOF 5
ENDMDL
MODEL 4
REMARK VINA RESULT:    -5.474      3.537      5.885
REMARK INTER + INTRA:          -6.750
REMARK INTER:                  -6.437
REMARK INTRA:                  -0.312
REMARK UNBOUND:                -0.315
REMARK SMILES O=c1cc(-c2ccc(O)c(O)c2)oc2cc(O)cc(O)c12
REMARK SMILES IDX 4 1 3 2 2 3 1 4 21 5 19 6 18 7 16 8 15 9 14 10 13 11 5 12
REMARK SMILES IDX 6 13 7 14 8 15 12 16 10 17 9 18 11 20 20 22 17 24
REMARK H PARENT 9 19 11 21 20 23 17 25
REMARK Flexibility Score: inf
ROOT
ATOM      1  C   UNL     1       8.502  15.015  16.400  1.00  0.00     0.138 A 
ATOM      2  C   UNL     1       7.663  15.973  15.815  1.00  0.00     0.100 A 
ATOM      3  C   UNL     1       6.867  16.783  16.627  1.00  0.00     0.197 A 
ATOM      4  O   UNL     1       6.079  17.590  16.071  1.00  0.00    -0.289 OA
ATOM      5  C   UNL     1       6.938  16.652  18.034  1.00  0.00     0.107 A 
ATOM      6  C   UNL     1       6.204  17.451  18.962  1.00  0.00     0.134 A 
ATOM      7  C   UNL     1       6.266  17.153  20.329  1.00  0.00     0.093 A 
ATOM      8  C   UNL     1       7.079  16.127  20.807  1.00  0.00     0.123 A 
ATOM      9  C   UNL     1       7.843  15.374  19.913  1.00  0.00     0.094 A 
ATOM     10  C   UNL     1       7.776  15.625  18.541  1.00  0.00     0.146 A 
ATOM     11  O   UNL     1       8.508  14.876  17.722  1.00  0.00    -0.456 OA
ENDROOT
BRANCH   1  12
ATOM     12  C   UNL     1       9.369  14.129  15.583  1.00  0.00     0.021 A 
ATOM     13  C   UNL     1       9.070  13.932  14.223  1.00  0.00     0.016 A 
ATOM     14  C   UNL     1       9.865  13.097  13.435  1.00  0.00     0.051 A 
ATOM     15  C   UNL     1      10.968  12.438  13.993  1.00  0.00     0.157 A 
ATOM     16  C   UNL     1      10.471  13.453  16.142  1.00  0.00     0.062 A 
ATOM     17  C   UNL     1      11.269  12.613  15.349  1.00  0.00     0.158 A 
BRANCH  15  18
ATOM     18  O   UNL     1      11.765  11.607  13.210  1.00  0.00    -0.504 OA
ATOM     19  H   UNL     1      12.310  11.970  12.436  1.00  0.00     0.293 HD
ENDBRANCH  15  18
BRANCH  17  20
ATOM     20  O   UNL     1      12.360  11.947  15.904  1.00  0.00    -0.504 OA
ATOM     21  H   UNL     1      12.766  11.132  15.458  1.00  0.00     0.293 HD
ENDBRANCH  17  20
ENDBRANCH   1  12
BRANCH   6  22
ATOM     22  O   UNL     1       5.426  18.554  18.599  1.00  0.00    -0.507 OA
ATOM     23  H   UNL     1       5.538  19.486  18.969  1.00  0.00     0.293 HD
ENDBRANCH   6  22
BRANCH   8  24
ATOM     24  O   UNL     1       7.128  15.868  22.175  1.00  0.00    -0.508 OA
ATOM     25  H   UNL     1       7.035  14.928  22.540  1.00  0.00     0.293 HD
ENDBRANCH   8  24
TORSDOF 5
ENDMDL
MODEL 5
REMARK VINA RESULT:    -5.421      2.463      7.832
REMARK INTER + INTRA:          -6.687
REMARK INTER:                  -6.392
REMARK INTRA:                  -0.296
REMARK UNBOUND:                -0.315
REMARK SMILES O=c1cc(-c2ccc(O)c(O)c2)oc2cc(O)cc(O)c12
REMARK SMILES IDX 4 1 3 2 2 3 1 4 21 5 19 6 18 7 16 8 15 9 14 10 13 11 5 12
REMARK SMILES IDX 6 13 7 14 8 15 12 16 10 17 9 18 11 20 20 22 17 24
REMARK H PARENT 9 19 11 21 20 23 17 25
REMARK Flexibility Score: inf
ROOT
ATOM      1  C   UNL     1       9.071  14.506  16.708  1.00  0.00     0.138 A 
ATOM      2  C   UNL     1       8.755  14.654  15.351  1.00  0.00     0.100 A 
ATOM      3  C   UNL     1       9.518  13.994  14.387  1.00  0.00     0.197 A 
ATOM      4  O   UNL     1       9.248  14.195  13.175  1.00  0.00    -0.289 OA
ATOM      5  C   UNL     1      10.583  13.154  14.789  1.00  0.00     0.107 A 
ATOM      6  C   UNL     1      11.403  12.399  13.898  1.00  0.00     0.134 A 
ATOM      7  C   UNL     1      12.503  11.694  14.402  1.00  0.00     0.093 A 
ATOM      8  C   UNL     1      12.778  11.667  15.768  1.00  0.00     0.123 A 
ATOM      9  C   UNL     1      11.951  12.359  16.655  1.00  0.00     0.094 A 
ATOM     10  C   UNL     1      10.866  13.099  16.179  1.00  0.00     0.146 A 
ATOM     11  O   UNL     1      10.111  13.755  17.055  1.00  0.00    -0.456 OA
ENDROOT
BRANCH   1  12
ATOM     12  C   UNL     1       8.292  15.185  17.774  1.00  0.00     0.021 A 
ATOM     13  C   UNL     1       8.536  14.862  19.121  1.00  0.00     0.016 A 
ATOM     14  C   UNL     1       7.811  15.481  20.142  1.00  0.00     0.051 A 
ATOM     15  C   UNL     1       6.824  16.426  19.835  1.00  0.00     0.157 A 
ATOM     16  C   UNL     1       7.289  16.127  17.472  1.00  0.00     0.062 A 
ATOM     17  C   UNL     1       6.561  16.748  18.498  1.00  0.00     0.158 A 
BRANCH  15  18
ATOM     18  O   UNL     1       6.101  17.048  20.851  1.00  0.00    -0.504 OA
ATOM     19  H   UNL     1       5.462  17.810  20.657  1.00  0.00     0.293 HD
ENDBRANCH  15  18
BRANCH  17  20
ATOM     20  O   UNL     1       5.571  17.681  18.196  1.00  0.00    -0.504 OA
ATOM     21  H   UNL     1       5.794  18.567  17.757  1.00  0.00     0.293 HD
ENDBRANCH  17  20
ENDBRANCH   1  12
BRANCH   6  22
ATOM     22  O   UNL     1      11.167  12.288  12.524  1.00  0.00    -0.507 OA
ATOM     23  H   UNL     1      11.001  11.421  12.035  1.00  0.00     0.293 HD
ENDBRANCH   6  22
BRANCH   8  24
ATOM     24  O   UNL     1      13.872  10.943  16.236  1.00  0.00    -0.508 OA
ATOM     25  H   UNL     1      14.452  11.287  16.991  1.00  0.00     0.293 HD
ENDBRANCH   8  24
TORSDOF 5
ENDMDL
MODEL 6
REMARK VINA RESULT:    -5.356      1.499      6.922
REMARK INTER + INTRA:          -6.611
REMARK INTER:                  -6.314
REMARK INTRA:                  -0.296
REMARK UNBOUND:                -0.315
REMARK SMILES O=c1cc(-c2ccc(O)c(O)c2)oc2cc(O)cc(O)c12
REMARK SMILES IDX 4 1 3 2 2 3 1 4 21 5 19 6 18 7 16 8 15 9 14 10 13 11 5 12
REMARK SMILES IDX 6 13 7 14 8 15 12 16 10 17 9 18 11 20 20 22 17 24
REMARK H PARENT 9 19 11 21 20 23 17 25
REMARK Flexibility Score: inf
ROOT
ATOM      1  C   UNL     1      12.226  12.059  15.427  1.00  0.00     0.138 A 
ATOM      2  C   UNL     1      12.440  12.238  14.054  1.00  0.00     0.100 A 
ATOM      3  C   UNL     1      13.443  11.511  13.410  1.00  0.00     0.197 A 
ATOM      4  O   UNL     1      13.652  11.738  12.191  1.00  0.00    -0.289 OA
ATOM      5  C   UNL     1      14.212  10.575  14.142  1.00  0.00     0.107 A 
ATOM      6  C   UNL     1      15.233   9.749  13.584  1.00  0.00     0.134 A 
ATOM      7  C   UNL     1      16.008   8.945  14.428  1.00  0.00     0.093 A 
ATOM      8  C   UNL     1      15.762   8.891  15.799  1.00  0.00     0.123 A 
ATOM      9  C   UNL     1      14.731   9.655  16.349  1.00  0.00     0.094 A 
ATOM     10  C   UNL     1      13.963  10.493  15.538  1.00  0.00     0.146 A 
ATOM     11  O   UNL     1      12.999  11.215  16.102  1.00  0.00    -0.456 OA
ENDROOT
BRANCH   1  12
ATOM     12  C   UNL     1      11.173  12.806  16.160  1.00  0.00     0.021 A 
ATOM     13  C   UNL     1      11.095  12.697  17.561  1.00  0.00     0.016 A 
ATOM     14  C   UNL     1      10.109  13.383  18.272  1.00  0.00     0.051 A 
ATOM     15  C   UNL     1       9.177  14.182  17.598  1.00  0.00     0.157 A 
ATOM     16  C   UNL     1      10.225  13.601  15.487  1.00  0.00     0.062 A 
ATOM     17  C   UNL     1       9.234  14.289  16.204  1.00  0.00     0.158 A 
BRANCH  15  18
ATOM     18  O   UNL     1       8.194  14.870  18.306  1.00  0.00    -0.504 OA
ATOM     19  H   UNL     1       7.270  15.020  17.919  1.00  0.00     0.293 HD
ENDBRANCH  15  18
BRANCH  17  20
ATOM     20  O   UNL     1       8.298  15.077  15.535  1.00  0.00    -0.504 OA
ATOM     21  H   UNL     1       8.541  15.989  15.166  1.00  0.00     0.293 HD
ENDBRANCH  17  20
ENDBRANCH   1  12
BRANCH   6  22
ATOM     22  O   UNL     1      15.506   9.662  12.215  1.00  0.00    -0.507 OA
ATOM     23  H   UNL     1      15.267   8.878  11.628  1.00  0.00     0.293 HD
ENDBRANCH   6  22
BRANCH   8  24
ATOM     24  O   UNL     1      16.544   8.068  16.607  1.00  0.00    -0.508 OA
ATOM     25  H   UNL     1      16.684   8.268  17.590  1.00  0.00     0.293 HD
ENDBRANCH   8  24
TORSDOF 5
ENDMDL
MODEL 7
REMARK VINA RESULT:    -5.275      1.273      2.819
REMARK INTER + INTRA:          -6.515
REMARK INTER:                  -6.220
REMARK INTRA:                  -0.296
REMARK UNBOUND:                -0.315
REMARK SMILES O=c1cc(-c2ccc(O)c(O)c2)oc2cc(O)cc(O)c12
REMARK SMILES IDX 4 1 3 2 2 3 1 4 21 5 19 6 18 7 16 8 15 9 14 10 13 11 5 12
REMARK SMILES IDX 6 13 7 14 8 15 12 16 10 17 9 18 11 20 20 22 17 24
REMARK H PARENT 9 19 11 21 20 23 17 25
REMARK Flexibility Score: inf
ROOT
ATOM      1  C   UNL     1      12.588  11.656  15.808  1.00  0.00     0.138 A 
ATOM      2  C   UNL     1      12.142  12.315  16.962  1.00  0.00     0.100 A 
ATOM      3  C   UNL     1      11.070  13.204  16.879  1.00  0.00     0.197 A 
ATOM      4  O   UNL     1      10.732  13.826  17.919  1.00  0.00    -0.289 OA
ATOM      5  C   UNL     1      10.421  13.408  15.638  1.00  0.00     0.107 A 
ATOM      6  C   UNL     1       9.292  14.260  15.441  1.00  0.00     0.134 A 
ATOM      7  C   UNL     1       8.807  14.474  14.145  1.00  0.00     0.093 A 
ATOM      8  C   UNL     1       9.370  13.824  13.048  1.00  0.00     0.123 A 
ATOM      9  C   UNL     1      10.440  12.948  13.235  1.00  0.00     0.094 A 
ATOM     10  C   UNL     1      10.968  12.740  14.511  1.00  0.00     0.146 A 
ATOM     11  O   UNL     1      11.997  11.908  14.645  1.00  0.00    -0.456 OA
ENDROOT
BRANCH   1  12
ATOM     12  C   UNL     1      13.724  10.700  15.841  1.00  0.00     0.021 A 
ATOM     13  C   UNL     1      14.269  10.232  14.631  1.00  0.00     0.016 A 
ATOM     14  C   UNL     1      15.332   9.326  14.635  1.00  0.00     0.051 A 
ATOM     15  C   UNL     1      15.863   8.865  15.846  1.00  0.00     0.157 A 
ATOM     16  C   UNL     1      14.255  10.223  17.055  1.00  0.00     0.062 A 
ATOM     17  C   UNL     1      15.323   9.312  17.057  1.00  0.00     0.158 A 
BRANCH  15  18
ATOM     18  O   UNL     1      16.925   7.964  15.853  1.00  0.00    -0.504 OA
ATOM     19  H   UNL     1      17.880   8.271  15.998  1.00  0.00     0.293 HD
ENDBRANCH  15  18
BRANCH  17  20
ATOM     20  O   UNL     1      15.847   8.842  18.260  1.00  0.00    -0.504 OA
ATOM     21  H   UNL     1      16.055   9.470  19.029  1.00  0.00     0.293 HD
ENDBRANCH  17  20
ENDBRANCH   1  12
BRANCH   6  22
ATOM     22  O   UNL     1       8.601  14.892  16.479  1.00  0.00    -0.507 OA
ATOM     23  H   UNL     1       8.633  15.881  16.675  1.00  0.00     0.293 HD
ENDBRANCH   6  22
BRANCH   8  24
ATOM     24  O   UNL     1       8.851  14.050  11.775  1.00  0.00    -0.508 OA
ATOM     25  H   UNL     1       9.025  14.915  11.278  1.00  0.00     0.293 HD
ENDBRANCH   8  24
TORSDOF 5
ENDMDL
MODEL 8
REMARK VINA RESULT:    -5.228      3.152      8.419
REMARK INTER + INTRA:          -6.460
REMARK INTER:                  -6.145
REMARK INTRA:                  -0.316
REMARK UNBOUND:                -0.315
REMARK SMILES O=c1cc(-c2ccc(O)c(O)c2)oc2cc(O)cc(O)c12
REMARK SMILES IDX 4 1 3 2 2 3 1 4 21 5 19 6 18 7 16 8 15 9 14 10 13 11 5 12
REMARK SMILES IDX 6 13 7 14 8 15 12 16 10 17 9 18 11 20 20 22 17 24
REMARK H PARENT 9 19 11 21 20 23 17 25
REMARK Flexibility Score: inf
ROOT
ATOM      1  C   UNL     1       8.436  15.408  15.329  1.00  0.00     0.138 A 
ATOM      2  C   UNL     1       8.742  15.190  13.979  1.00  0.00     0.100 A 
ATOM      3  C   UNL     1       9.797  14.343  13.637  1.00  0.00     0.197 A 
ATOM      4  O   UNL     1      10.086  14.215  12.420  1.00  0.00    -0.289 OA
ATOM      5  C   UNL     1      10.527  13.685  14.656  1.00  0.00     0.107 A 
ATOM      6  C   UNL     1      11.596  12.767  14.425  1.00  0.00     0.134 A 
ATOM      7  C   UNL     1      12.323  12.268  15.513  1.00  0.00     0.093 A 
ATOM      8  C   UNL     1      11.984  12.604  16.822  1.00  0.00     0.123 A 
ATOM      9  C   UNL     1      10.906  13.459  17.062  1.00  0.00     0.094 A 
ATOM     10  C   UNL     1      10.183  14.000  15.997  1.00  0.00     0.146 A 
ATOM     11  O   UNL     1       9.173  14.822  16.266  1.00  0.00    -0.456 OA
ENDROOT
BRANCH   1  12
ATOM     12  C   UNL     1       7.324  16.299  15.747  1.00  0.00     0.021 A 
ATOM     13  C   UNL     1       6.729  17.153  14.800  1.00  0.00     0.016 A 
ATOM     14  C   UNL     1       5.687  18.006  15.170  1.00  0.00     0.051 A 
ATOM     15  C   UNL     1       5.228  18.029  16.493  1.00  0.00     0.157 A 
ATOM     16  C   UNL     1       6.866  16.337  17.079  1.00  0.00     0.062 A 
ATOM     17  C   UNL     1       5.820  17.196  17.449  1.00  0.00     0.158 A 
BRANCH  15  18
ATOM     18  O   UNL     1       4.187  18.877  16.864  1.00  0.00    -0.504 OA
ATOM     19  H   UNL     1       4.007  19.102  17.836  1.00  0.00     0.293 HD
ENDBRANCH  15  18
BRANCH  17  20
ATOM     20  O   UNL     1       5.367  17.229  18.767  1.00  0.00    -0.504 OA
ATOM     21  H   UNL     1       5.551  18.023  19.370  1.00  0.00     0.293 HD
ENDBRANCH  17  20
ENDBRANCH   1  12
BRANCH   6  22
ATOM     22  O   UNL     1      11.964  12.299  13.160  1.00  0.00    -0.507 OA
ATOM     23  H   UNL     1      12.877  12.411  12.747  1.00  0.00     0.293 HD
ENDBRANCH   6  22
BRANCH   8  24
ATOM     24  O   UNL     1      12.719  12.076  17.881  1.00  0.00    -0.508 OA
ATOM     25  H   UNL     1      13.199  12.674  18.543  1.00  0.00     0.293 HD
ENDBRANCH   8  24
TORSDOF 5
ENDMDL
MODEL 9
REMARK VINA RESULT:    -5.224      3.071      8.641
REMARK INTER + INTRA:          -6.455
REMARK INTER:                  -6.160
REMARK INTRA:                  -0.295
REMARK UNBOUND:                -0.315
REMARK SMILES O=c1cc(-c2ccc(O)c(O)c2)oc2cc(O)cc(O)c12
REMARK SMILES IDX 4 1 3 2 2 3 1 4 21 5 19 6 18 7 16 8 15 9 14 10 13 11 5 12
REMARK SMILES IDX 6 13 7 14 8 15 12 16 10 17 9 18 11 20 20 22 17 24
REMARK H PARENT 9 19 11 21 20 23 17 25
REMARK Flexibility Score: inf
ROOT
ATOM      1  C   UNL     1       8.710  15.077  16.257  1.00  0.00     0.138 A 
ATOM      2  C   UNL     1       9.099  14.237  17.309  1.00  0.00     0.100 A 
ATOM      3  C   UNL     1      10.195  13.389  17.147  1.00  0.00     0.197 A 
ATOM      4  O   UNL     1      10.481  12.603  18.086  1.00  0.00    -0.289 OA
ATOM      5  C   UNL     1      10.924  13.407  15.934  1.00  0.00     0.107 A 
ATOM      6  C   UNL     1      12.082  12.615  15.671  1.00  0.00     0.134 A 
ATOM      7  C   UNL     1      12.652  12.630  14.392  1.00  0.00     0.093 A 
ATOM      8  C   UNL     1      12.144  13.451  13.386  1.00  0.00     0.123 A 
ATOM      9  C   UNL     1      11.044  14.269  13.648  1.00  0.00     0.094 A 
ATOM     10  C   UNL     1      10.433  14.251  14.904  1.00  0.00     0.146 A 
ATOM     11  O   UNL     1       9.378  15.034  15.109  1.00  0.00    -0.456 OA
ENDROOT
BRANCH   1  12
ATOM     12  C   UNL     1       7.553  16.000  16.376  1.00  0.00     0.021 A 
ATOM     13  C   UNL     1       7.056  16.639  15.226  1.00  0.00     0.016 A 
ATOM     14  C   UNL     1       5.974  17.517  15.313  1.00  0.00     0.051 A 
ATOM     15  C   UNL     1       5.374  17.780  16.551  1.00  0.00     0.157 A 
ATOM     16  C   UNL     1       6.953  16.278  17.620  1.00  0.00     0.062 A 
ATOM     17  C   UNL     1       5.866  17.162  17.706  1.00  0.00     0.158 A 
BRANCH  15  18
ATOM     18  O   UNL     1       4.293  18.653  16.641  1.00  0.00    -0.504 OA
ATOM     19  H   UNL     1       3.940  19.146  15.829  1.00  0.00     0.293 HD
ENDBRANCH  15  18
BRANCH  17  20
ATOM     20  O   UNL     1       5.274  17.434  18.939  1.00  0.00    -0.504 OA
ATOM     21  H   UNL     1       4.581  18.166  19.043  1.00  0.00     0.293 HD
ENDBRANCH  17  20
ENDBRANCH   1  12
BRANCH   6  22
ATOM     22  O   UNL     1      12.722  11.824  16.630  1.00  0.00    -0.507 OA
ATOM     23  H   UNL     1      12.328  11.569  17.523  1.00  0.00     0.293 HD
ENDBRANCH   6  22
BRANCH   8  24
ATOM     24  O   UNL     1      12.746  13.452  12.130  1.00  0.00    -0.508 OA
ATOM     25  H   UNL     1      13.580  12.910  11.941  1.00  0.00     0.293 HD
ENDBRANCH   8  24
TORSDOF 5
ENDMDL
