MODEL 1
REMARK VINA RESULT:    -2.372      0.000      0.000
REMARK INTER + INTRA:          -2.372
REMARK INTER:                  -2.372
REMARK INTRA:                   0.000
REMARK UNBOUND:                 0.000
REMARK SMILES CC(=O)[O-]
REMARK SMILES IDX 1 1 2 2 3 3 4 4
REMARK H PARENT
REMARK Flexibility Score: inf
ROOT
ATOM      1  C   UNL     1     217.117  -9.140  27.413  1.00  0.00     0.063 C 
ATOM      2  C   UNL     1     217.691  -7.926  26.764  1.00  0.00     0.038 C 
ATOM      3  O   UNL     1     217.405  -7.654  25.569  1.00  0.00    -0.550 OA
ATOM      4  O   UNL     1     218.498  -7.063  27.493  1.00  0.00    -0.550 OA
ENDROOT
TORSDOF 0
ENDMDL
MODEL 2
REMARK VINA RESULT:    -2.321      1.998      2.240
REMARK INTER + INTRA:          -2.321
REMARK INTER:                  -2.321
REMARK INTRA:                   0.000
REMARK UNBOUND:                 0.000
REMARK SMILES CC(=O)[O-]
REMARK SMILES IDX 1 1 2 2 3 3 4 4
REMARK H PARENT
REMARK Flexibility Score: inf
ROOT
ATOM      1  C   UNL     1     217.669  -7.878  26.001  1.00  0.00     0.063 C 
ATOM      2  C   UNL     1     218.071  -7.074  24.812  1.00  0.00     0.038 C 
ATOM      3  O   UNL     1     217.414  -7.158  23.741  1.00  0.00    -0.550 OA
ATOM      4  O   UNL     1     219.139  -6.190  24.898  1.00  0.00    -0.550 OA
ENDROOT
TORSDOF 0
ENDMDL
MODEL 3
REMARK VINA RESULT:    -2.312      2.230      2.662
REMARK INTER + INTRA:          -2.312
REMARK INTER:                  -2.312
REMARK INTRA:                   0.000
REMARK UNBOUND:                 0.000
REMARK SMILES CC(=O)[O-]
REMARK SMILES IDX 1 1 2 2 3 3 4 4
REMARK H PARENT
REMARK Flexibility Score: inf
ROOT
ATOM      1  C   UNL     1     217.514  -7.270  23.856  1.00  0.00     0.063 C 
ATOM      2  C   UNL     1     218.273  -6.925  25.092  1.00  0.00     0.038 C 
ATOM      3  O   UNL     1     219.281  -6.173  25.026  1.00  0.00    -0.550 OA
ATOM      4  O   UNL     1     217.838  -7.387  26.327  1.00  0.00    -0.550 OA
ENDROOT
TORSDOF 0
ENDMDL
MODEL 4
REMARK VINA RESULT:    -2.285      3.933      4.213
REMARK INTER + INTRA:          -2.285
REMARK INTER:                  -2.285
REMARK INTRA:                   0.000
REMARK UNBOUND:                 0.000
REMARK SMILES CC(=O)[O-]
REMARK SMILES IDX 1 1 2 2 3 3 4 4
REMARK H PARENT
REMARK Flexibility Score: inf
ROOT
ATOM      1  C   UNL     1     217.817 -11.089  22.979  1.00  0.00     0.063 C 
ATOM      2  C   UNL     1     218.696 -10.334  23.918  1.00  0.00     0.038 C 
ATOM      3  O   UNL     1     218.197  -9.495  24.713  1.00  0.00    -0.550 OA
ATOM      4  O   UNL     1     220.059 -10.593  23.955  1.00  0.00    -0.550 OA
ENDROOT
TORSDOF 0
ENDMDL
MODEL 5
REMARK VINA RESULT:    -2.271      2.358      3.184
REMARK INTER + INTRA:          -2.271
REMARK INTER:                  -2.271
REMARK INTRA:                   0.000
REMARK UNBOUND:                 0.000
REMARK SMILES CC(=O)[O-]
REMARK SMILES IDX 1 1 2 2 3 3 4 4
REMARK H PARENT
REMARK Flexibility Score: inf
ROOT
ATOM      1  C   UNL     1     219.169  -6.431  24.914  1.00  0.00     0.063 C 
ATOM      2  C   UNL     1     217.877  -7.142  24.694  1.00  0.00     0.038 C 
ATOM      3  O   UNL     1     217.343  -7.789  25.633  1.00  0.00    -0.550 OA
ATOM      4  O   UNL     1     217.230  -7.047  23.468  1.00  0.00    -0.550 OA
ENDROOT
TORSDOF 0
ENDMDL
MODEL 6
REMARK VINA RESULT:    -2.263      4.494      5.032
REMARK INTER + INTRA:          -2.263
REMARK INTER:                  -2.263
REMARK INTRA:                   0.000
REMARK UNBOUND:                 0.000
REMARK SMILES CC(=O)[O-]
REMARK SMILES IDX 1 1 2 2 3 3 4 4
REMARK H PARENT
REMARK Flexibility Score: inf
ROOT
ATOM      1  C   UNL     1     217.835 -11.163  23.130  1.00  0.00     0.063 C 
ATOM      2  C   UNL     1     217.946  -9.872  22.394  1.00  0.00     0.038 C 
ATOM      3  O   UNL     1     217.381  -8.839  22.841  1.00  0.00    -0.550 OA
ATOM      4  O   UNL     1     218.718  -9.791  21.243  1.00  0.00    -0.550 OA
ENDROOT
TORSDOF 0
ENDMDL
MODEL 7
REMARK VINA RESULT:    -2.208      5.848      6.204
REMARK INTER + INTRA:          -2.208
REMARK INTER:                  -2.208
REMARK INTRA:                   0.000
REMARK UNBOUND:                 0.000
REMARK SMILES CC(=O)[O-]
REMARK SMILES IDX 1 1 2 2 3 3 4 4
REMARK H PARENT
REMARK Flexibility Score: inf
ROOT
ATOM      1  C   UNL     1     220.905  -7.545  23.123  1.00  0.00     0.063 C 
ATOM      2  C   UNL     1     221.425  -8.475  22.080  1.00  0.00     0.038 C 
ATOM      3  O   UNL     1     220.631  -9.033  21.278  1.00  0.00    -0.550 OA
ATOM      4  O   UNL     1     222.792  -8.687  21.956  1.00  0.00    -0.550 OA
ENDROOT
TORSDOF 0
ENDMDL
MODEL 8
REMARK VINA RESULT:    -2.192      3.720      4.073
REMARK INTER + INTRA:          -2.192
REMARK INTER:                  -2.192
REMARK INTRA:                   0.000
REMARK UNBOUND:                 0.000
REMARK SMILES CC(=O)[O-]
REMARK SMILES IDX 1 1 2 2 3 3 4 4
REMARK H PARENT
REMARK Flexibility Score: inf
ROOT
ATOM      1  C   UNL     1     217.477  -7.226  23.765  1.00  0.00     0.063 C 
ATOM      2  C   UNL     1     217.983  -8.477  23.131  1.00  0.00     0.038 C 
ATOM      3  O   UNL     1     218.590  -8.426  22.029  1.00  0.00    -0.550 OA
ATOM      4  O   UNL     1     217.834  -9.696  23.780  1.00  0.00    -0.550 OA
ENDROOT
TORSDOF 0
ENDMDL
MODEL 9
REMARK VINA RESULT:    -2.138      5.281      5.767
REMARK INTER + INTRA:          -2.138
REMARK INTER:                  -2.138
REMARK INTRA:                   0.000
REMARK UNBOUND:                 0.000
REMARK SMILES CC(=O)[O-]
REMARK SMILES IDX 1 1 2 2 3 3 4 4
REMARK H PARENT
REMARK Flexibility Score: inf
ROOT
ATOM      1  C   UNL     1     221.525  -8.422  22.072  1.00  0.00     0.063 C 
ATOM      2  C   UNL     1     220.137  -8.954  22.189  1.00  0.00     0.038 C 
ATOM      3  O   UNL     1     219.876  -9.860  23.023  1.00  0.00    -0.550 OA
ATOM      4  O   UNL     1     219.117  -8.413  21.417  1.00  0.00    -0.550 OA
ENDROOT
TORSDOF 0
ENDMDL
