MODEL 1
REMARK VINA RESULT:    -4.870      0.000      0.000
REMARK INTER + INTRA:         -10.722
REMARK INTER:                  -9.426
REMARK INTRA:                  -1.297
REMARK UNBOUND:                -1.297
REMARK SMILES CCCCCCCCCCCCCCCCCC(=O)[O-]
REMARK SMILES IDX 10 1 11 2 12 3 13 4 14 5 15 6 16 7 17 8 18 9 19 10 20 11
REMARK SMILES IDX 9 12 8 13 7 14 6 15 5 16 4 17 3 18 2 19 1 20
REMARK H PARENT
REMARK Flexibility Score: inf
ROOT
ATOM      1  C   UNL     1      -1.844   9.524  -4.391  1.00  0.00     0.000 C 
ENDROOT
BRANCH   1   2
ATOM      2  C   UNL     1      -2.900   9.150  -3.327  1.00  0.00     0.000 C 
BRANCH   2   3
ATOM      3  C   UNL     1      -4.121  10.088  -3.365  1.00  0.00     0.000 C 
BRANCH   3   4
ATOM      4  C   UNL     1      -4.934   9.953  -4.663  1.00  0.00     0.000 C 
BRANCH   4   5
ATOM      5  C   UNL     1      -5.933   8.784  -4.615  1.00  0.00     0.000 C 
BRANCH   5   6
ATOM      6  C   UNL     1      -5.375   7.502  -5.254  1.00  0.00     0.000 C 
BRANCH   6   7
ATOM      7  C   UNL     1      -6.354   6.319  -5.169  1.00  0.00     0.006 C 
BRANCH   7   8
ATOM      8  C   UNL     1      -7.794   6.735  -5.503  1.00  0.00     0.053 C 
BRANCH   8   9
ATOM      9  C   UNL     1      -8.397   5.855  -6.553  1.00  0.00     0.041 C 
ATOM     10  O   UNL     1      -9.649   5.778  -6.675  1.00  0.00    -0.550 OA
ATOM     11  O   UNL     1      -7.577   5.143  -7.419  1.00  0.00    -0.550 OA
ENDBRANCH   8   9
ENDBRANCH   7   8
ENDBRANCH   6   7
ENDBRANCH   5   6
ENDBRANCH   4   5
ENDBRANCH   3   4
ENDBRANCH   2   3
ENDBRANCH   1   2
BRANCH   1  12
ATOM     12  C   UNL     1      -1.446   8.350  -5.305  1.00  0.00     0.000 C 
BRANCH  12  13
ATOM     13  C   UNL     1      -0.176   8.585  -6.142  1.00  0.00    -0.000 C 
BRANCH  13  14
ATOM     14  C   UNL     1      -0.091   9.969  -6.815  1.00  0.00    -0.000 C 
BRANCH  14  15
ATOM     15  C   UNL     1       0.899  10.024  -7.998  1.00  0.00    -0.000 C 
BRANCH  15  16
ATOM     16  C   UNL     1       0.507   9.060  -9.132  1.00  0.00    -0.000 C 
BRANCH  16  17
ATOM     17  C   UNL     1       1.692   8.217  -9.629  1.00  0.00    -0.000 C 
BRANCH  17  18
ATOM     18  C   UNL     1       2.942   8.388  -8.748  1.00  0.00    -0.000 C 
BRANCH  18  19
ATOM     19  C   UNL     1       3.524   7.042  -8.287  1.00  0.00    -0.003 C 
ATOM     20  C   UNL     1       2.948   6.572  -6.951  1.00  0.00     0.004 C 
ENDBRANCH  18  19
ENDBRANCH  17  18
ENDBRANCH  16  17
ENDBRANCH  15  16
ENDBRANCH  14  15
ENDBRANCH  13  14
ENDBRANCH  12  13
ENDBRANCH   1  12
TORSDOF 16
ENDMDL
MODEL 2
REMARK VINA RESULT:    -4.865      1.859      2.239
REMARK INTER + INTRA:         -10.713
REMARK INTER:                  -9.234
REMARK INTRA:                  -1.479
REMARK UNBOUND:                -1.297
REMARK SMILES CCCCCCCCCCCCCCCCCC(=O)[O-]
REMARK SMILES IDX 10 1 11 2 12 3 13 4 14 5 15 6 16 7 17 8 18 9 19 10 20 11
REMARK SMILES IDX 9 12 8 13 7 14 6 15 5 16 4 17 3 18 2 19 1 20
REMARK H PARENT
REMARK Flexibility Score: inf
ROOT
ATOM      1  C   UNL     1      -2.089   9.443  -4.247  1.00  0.00     0.000 C 
ENDROOT
BRANCH   1   2
ATOM      2  C   UNL     1      -3.189   9.106  -3.216  1.00  0.00     0.000 C 
BRANCH   2   3
ATOM      3  C   UNL     1      -4.473   9.923  -3.447  1.00  0.00     0.000 C 
BRANCH   3   4
ATOM      4  C   UNL     1      -5.055   9.729  -4.857  1.00  0.00     0.000 C 
BRANCH   4   5
ATOM      5  C   UNL     1      -6.207   8.709  -4.886  1.00  0.00     0.000 C 
BRANCH   5   6
ATOM      6  C   UNL     1      -5.712   7.265  -5.063  1.00  0.00     0.000 C 
BRANCH   6   7
ATOM      7  C   UNL     1      -5.582   6.857  -6.541  1.00  0.00     0.006 C 
BRANCH   7   8
ATOM      8  C   UNL     1      -4.250   6.153  -6.832  1.00  0.00     0.053 C 
BRANCH   8   9
ATOM      9  C   UNL     1      -4.096   5.832  -8.286  1.00  0.00     0.041 C 
ATOM     10  O   UNL     1      -4.181   4.641  -8.687  1.00  0.00    -0.550 OA
ATOM     11  O   UNL     1      -3.889   6.853  -9.206  1.00  0.00    -0.550 OA
ENDBRANCH   8   9
ENDBRANCH   7   8
ENDBRANCH   6   7
ENDBRANCH   5   6
ENDBRANCH   4   5
ENDBRANCH   3   4
ENDBRANCH   2   3
ENDBRANCH   1   2
BRANCH   1  12
ATOM     12  C   UNL     1      -1.783   8.291  -5.223  1.00  0.00     0.000 C 
BRANCH  12  13
ATOM     13  C   UNL     1      -0.338   8.258  -5.749  1.00  0.00    -0.000 C 
BRANCH  13  14
ATOM     14  C   UNL     1       0.079   9.488  -6.578  1.00  0.00    -0.000 C 
BRANCH  14  15
ATOM     15  C   UNL     1      -0.485   9.489  -8.015  1.00  0.00    -0.000 C 
BRANCH  15  16
ATOM     16  C   UNL     1       0.608   9.242  -9.070  1.00  0.00    -0.000 C 
BRANCH  16  17
ATOM     17  C   UNL     1       1.983   8.961  -8.444  1.00  0.00    -0.000 C 
BRANCH  17  18
ATOM     18  C   UNL     1       2.730   7.821  -9.158  1.00  0.00    -0.000 C 
BRANCH  18  19
ATOM     19  C   UNL     1       3.688   7.069  -8.221  1.00  0.00    -0.003 C 
ATOM     20  C   UNL     1       3.003   6.566  -6.950  1.00  0.00     0.004 C 
ENDBRANCH  18  19
ENDBRANCH  17  18
ENDBRANCH  16  17
ENDBRANCH  15  16
ENDBRANCH  14  15
ENDBRANCH  13  14
ENDBRANCH  12  13
ENDBRANCH   1  12
TORSDOF 16
ENDMDL
MODEL 3
REMARK VINA RESULT:    -4.757      3.901      8.917
REMARK INTER + INTRA:         -10.504
REMARK INTER:                  -9.249
REMARK INTRA:                  -1.255
REMARK UNBOUND:                -1.297
REMARK SMILES CCCCCCCCCCCCCCCCCC(=O)[O-]
REMARK SMILES IDX 10 1 11 2 12 3 13 4 14 5 15 6 16 7 17 8 18 9 19 10 20 11
REMARK SMILES IDX 9 12 8 13 7 14 6 15 5 16 4 17 3 18 2 19 1 20
REMARK H PARENT
REMARK Flexibility Score: inf
ROOT
ATOM      1  C   UNL     1      -3.199   9.124  -3.172  1.00  0.00     0.000 C 
ENDROOT
BRANCH   1   2
ATOM      2  C   UNL     1      -2.022   9.464  -4.114  1.00  0.00     0.000 C 
BRANCH   2   3
ATOM      3  C   UNL     1      -1.824   8.398  -5.207  1.00  0.00     0.000 C 
BRANCH   3   4
ATOM      4  C   UNL     1      -0.539   8.615  -6.022  1.00  0.00     0.000 C 
BRANCH   4   5
ATOM      5  C   UNL     1      -0.805   9.304  -7.372  1.00  0.00     0.000 C 
BRANCH   5   6
ATOM      6  C   UNL     1       0.464   9.430  -8.230  1.00  0.00     0.000 C 
BRANCH   6   7
ATOM      7  C   UNL     1       1.609   8.530  -7.736  1.00  0.00     0.006 C 
BRANCH   7   8
ATOM      8  C   UNL     1       2.754   8.437  -8.755  1.00  0.00     0.053 C 
BRANCH   8   9
ATOM      9  C   UNL     1       3.645   7.264  -8.484  1.00  0.00     0.041 C 
ATOM     10  O   UNL     1       4.639   7.039  -9.225  1.00  0.00    -0.550 OA
ATOM     11  O   UNL     1       3.395   6.437  -7.397  1.00  0.00    -0.550 OA
ENDBRANCH   8   9
ENDBRANCH   7   8
ENDBRANCH   6   7
ENDBRANCH   5   6
ENDBRANCH   4   5
ENDBRANCH   3   4
ENDBRANCH   2   3
ENDBRANCH   1   2
BRANCH   1  12
ATOM     12  C   UNL     1      -4.367  10.125  -3.256  1.00  0.00     0.000 C 
BRANCH  12  13
ATOM     13  C   UNL     1      -5.143  10.102  -4.585  1.00  0.00    -0.000 C 
BRANCH  13  14
ATOM     14  C   UNL     1      -6.128   8.927  -4.739  1.00  0.00    -0.000 C 
BRANCH  14  15
ATOM     15  C   UNL     1      -5.775   7.969  -5.897  1.00  0.00    -0.000 C 
BRANCH  15  16
ATOM     16  C   UNL     1      -5.891   6.490  -5.485  1.00  0.00    -0.000 C 
BRANCH  16  17
ATOM     17  C   UNL     1      -7.344   6.059  -5.230  1.00  0.00    -0.000 C 
BRANCH  17  18
ATOM     18  C   UNL     1      -8.263   6.363  -6.426  1.00  0.00    -0.000 C 
BRANCH  18  19
ATOM     19  C   UNL     1      -9.665   6.817  -5.990  1.00  0.00    -0.003 C 
ATOM     20  C   UNL     1      -9.630   7.954  -4.968  1.00  0.00     0.004 C 
ENDBRANCH  18  19
ENDBRANCH  17  18
ENDBRANCH  16  17
ENDBRANCH  15  16
ENDBRANCH  14  15
ENDBRANCH  13  14
ENDBRANCH  12  13
ENDBRANCH   1  12
TORSDOF 16
ENDMDL
MODEL 4
REMARK VINA RESULT:    -4.732      1.056      2.195
REMARK INTER + INTRA:         -10.455
REMARK INTER:                  -9.372
REMARK INTRA:                  -1.083
REMARK UNBOUND:                -1.297
REMARK SMILES CCCCCCCCCCCCCCCCCC(=O)[O-]
REMARK SMILES IDX 10 1 11 2 12 3 13 4 14 5 15 6 16 7 17 8 18 9 19 10 20 11
REMARK SMILES IDX 9 12 8 13 7 14 6 15 5 16 4 17 3 18 2 19 1 20
REMARK H PARENT
REMARK Flexibility Score: inf
ROOT
ATOM      1  C   UNL     1      -3.846   9.988  -3.360  1.00  0.00     0.000 C 
ENDROOT
BRANCH   1   2
ATOM      2  C   UNL     1      -5.018   9.572  -4.277  1.00  0.00     0.000 C 
BRANCH   2   3
ATOM      3  C   UNL     1      -4.664   8.362  -5.160  1.00  0.00     0.000 C 
BRANCH   3   4
ATOM      4  C   UNL     1      -5.862   7.427  -5.395  1.00  0.00     0.000 C 
BRANCH   4   5
ATOM      5  C   UNL     1      -7.120   8.184  -5.855  1.00  0.00     0.000 C 
BRANCH   5   6
ATOM      6  C   UNL     1      -8.358   7.840  -5.011  1.00  0.00     0.000 C 
BRANCH   6   7
ATOM      7  C   UNL     1      -9.283   6.820  -5.698  1.00  0.00     0.006 C 
BRANCH   7   8
ATOM      8  C   UNL     1      -8.656   5.420  -5.758  1.00  0.00     0.053 C 
BRANCH   8   9
ATOM      9  C   UNL     1      -8.517   4.933  -7.167  1.00  0.00     0.041 C 
ATOM     10  O   UNL     1      -7.483   5.204  -7.833  1.00  0.00    -0.550 OA
ATOM     11  O   UNL     1      -9.517   4.155  -7.735  1.00  0.00    -0.550 OA
ENDBRANCH   8   9
ENDBRANCH   7   8
ENDBRANCH   6   7
ENDBRANCH   5   6
ENDBRANCH   4   5
ENDBRANCH   3   4
ENDBRANCH   2   3
ENDBRANCH   1   2
BRANCH   1  12
ATOM     12  C   UNL     1      -2.640   9.031  -3.425  1.00  0.00     0.000 C 
BRANCH  12  13
ATOM     13  C   UNL     1      -1.401   9.600  -4.138  1.00  0.00    -0.000 C 
BRANCH  13  14
ATOM     14  C   UNL     1      -0.758   8.657  -5.172  1.00  0.00    -0.000 C 
BRANCH  14  15
ATOM     15  C   UNL     1      -1.247   8.893  -6.617  1.00  0.00    -0.000 C 
BRANCH  15  16
ATOM     16  C   UNL     1      -0.090   9.224  -7.577  1.00  0.00    -0.000 C 
BRANCH  16  17
ATOM     17  C   UNL     1       1.224   8.532  -7.181  1.00  0.00    -0.000 C 
BRANCH  17  18
ATOM     18  C   UNL     1       2.107   8.211  -8.400  1.00  0.00    -0.000 C 
BRANCH  18  19
ATOM     19  C   UNL     1       3.244   7.233  -8.060  1.00  0.00    -0.003 C 
ATOM     20  C   UNL     1       2.961   6.406  -6.806  1.00  0.00     0.004 C 
ENDBRANCH  18  19
ENDBRANCH  17  18
ENDBRANCH  16  17
ENDBRANCH  15  16
ENDBRANCH  14  15
ENDBRANCH  13  14
ENDBRANCH  12  13
ENDBRANCH   1  12
TORSDOF 16
ENDMDL
MODEL 5
REMARK VINA RESULT:    -4.629      3.905      7.959
REMARK INTER + INTRA:         -10.256
REMARK INTER:                  -8.182
REMARK INTRA:                  -2.074
REMARK UNBOUND:                -1.297
REMARK SMILES CCCCCCCCCCCCCCCCCC(=O)[O-]
REMARK SMILES IDX 10 1 11 2 12 3 13 4 14 5 15 6 16 7 17 8 18 9 19 10 20 11
REMARK SMILES IDX 9 12 8 13 7 14 6 15 5 16 4 17 3 18 2 19 1 20
REMARK H PARENT
REMARK Flexibility Score: inf
ROOT
ATOM      1  C   UNL     1      -2.401   9.461  -4.644  1.00  0.00     0.000 C 
ENDROOT
BRANCH   1   2
ATOM      2  C   UNL     1      -1.116   8.613  -4.511  1.00  0.00     0.000 C 
BRANCH   2   3
ATOM      3  C   UNL     1      -0.462   8.332  -5.876  1.00  0.00     0.000 C 
BRANCH   3   4
ATOM      4  C   UNL     1      -0.095   9.618  -6.636  1.00  0.00     0.000 C 
BRANCH   4   5
ATOM      5  C   UNL     1       0.104   9.377  -8.142  1.00  0.00     0.000 C 
BRANCH   5   6
ATOM      6  C   UNL     1       1.408   9.996  -8.671  1.00  0.00     0.000 C 
BRANCH   6   7
ATOM      7  C   UNL     1       2.276   8.987  -9.442  1.00  0.00     0.006 C 
BRANCH   7   8
ATOM      8  C   UNL     1       2.120   7.558  -8.902  1.00  0.00     0.053 C 
BRANCH   8   9
ATOM      9  C   UNL     1       3.308   7.137  -8.093  1.00  0.00     0.041 C 
ATOM     10  O   UNL     1       3.150   6.620  -6.955  1.00  0.00    -0.550 OA
ATOM     11  O   UNL     1       4.589   7.288  -8.608  1.00  0.00    -0.550 OA
ENDBRANCH   8   9
ENDBRANCH   7   8
ENDBRANCH   6   7
ENDBRANCH   5   6
ENDBRANCH   4   5
ENDBRANCH   3   4
ENDBRANCH   2   3
ENDBRANCH   1   2
BRANCH   1  12
ATOM     12  C   UNL     1      -3.305   9.412  -3.397  1.00  0.00     0.000 C 
BRANCH  12  13
ATOM     13  C   UNL     1      -4.762   9.843  -3.638  1.00  0.00    -0.000 C 
BRANCH  13  14
ATOM     14  C   UNL     1      -5.262   9.657  -5.084  1.00  0.00    -0.000 C 
BRANCH  14  15
ATOM     15  C   UNL     1      -6.468   8.702  -5.206  1.00  0.00    -0.000 C 
BRANCH  15  16
ATOM     16  C   UNL     1      -6.110   7.257  -4.815  1.00  0.00    -0.000 C 
BRANCH  16  17
ATOM     17  C   UNL     1      -5.704   6.400  -6.025  1.00  0.00    -0.000 C 
BRANCH  17  18
ATOM     18  C   UNL     1      -4.182   6.386  -6.249  1.00  0.00    -0.000 C 
BRANCH  18  19
ATOM     19  C   UNL     1      -3.801   6.654  -7.714  1.00  0.00    -0.003 C 
ATOM     20  C   UNL     1      -3.555   8.134  -8.002  1.00  0.00     0.004 C 
ENDBRANCH  18  19
ENDBRANCH  17  18
ENDBRANCH  16  17
ENDBRANCH  15  16
ENDBRANCH  14  15
ENDBRANCH  13  14
ENDBRANCH  12  13
ENDBRANCH   1  12
TORSDOF 16
ENDMDL
MODEL 6
REMARK VINA RESULT:    -4.593      0.870      1.380
REMARK INTER + INTRA:         -10.187
REMARK INTER:                  -8.753
REMARK INTRA:                  -1.434
REMARK UNBOUND:                -1.297
REMARK SMILES CCCCCCCCCCCCCCCCCC(=O)[O-]
REMARK SMILES IDX 10 1 11 2 12 3 13 4 14 5 15 6 16 7 17 8 18 9 19 10 20 11
REMARK SMILES IDX 9 12 8 13 7 14 6 15 5 16 4 17 3 18 2 19 1 20
REMARK H PARENT
REMARK Flexibility Score: inf
ROOT
ATOM      1  C   UNL     1      -2.188   8.140  -5.558  1.00  0.00     0.000 C 
ENDROOT
BRANCH   1   2
ATOM      2  C   UNL     1      -1.852   8.919  -4.267  1.00  0.00     0.000 C 
BRANCH   2   3
ATOM      3  C   UNL     1      -3.107   9.229  -3.431  1.00  0.00     0.000 C 
BRANCH   3   4
ATOM      4  C   UNL     1      -4.184   9.980  -4.232  1.00  0.00     0.000 C 
BRANCH   4   5
ATOM      5  C   UNL     1      -5.554   9.281  -4.179  1.00  0.00     0.000 C 
BRANCH   5   6
ATOM      6  C   UNL     1      -5.851   8.468  -5.450  1.00  0.00     0.000 C 
BRANCH   6   7
ATOM      7  C   UNL     1      -6.073   6.973  -5.162  1.00  0.00     0.006 C 
BRANCH   7   8
ATOM      8  C   UNL     1      -6.361   6.175  -6.440  1.00  0.00     0.053 C 
BRANCH   8   9
ATOM      9  C   UNL     1      -7.761   5.644  -6.460  1.00  0.00     0.041 C 
ATOM     10  O   UNL     1      -8.104   4.789  -7.319  1.00  0.00    -0.550 OA
ATOM     11  O   UNL     1      -8.681   6.072  -5.511  1.00  0.00    -0.550 OA
ENDBRANCH   8   9
ENDBRANCH   7   8
ENDBRANCH   6   7
ENDBRANCH   5   6
ENDBRANCH   4   5
ENDBRANCH   3   4
ENDBRANCH   2   3
ENDBRANCH   1   2
BRANCH   1  12
ATOM     12  C   UNL     1      -1.271   8.488  -6.746  1.00  0.00     0.000 C 
BRANCH  12  13
ATOM     13  C   UNL     1       0.002   9.267  -6.372  1.00  0.00    -0.000 C 
BRANCH  13  14
ATOM     14  C   UNL     1       0.685   9.993  -7.547  1.00  0.00    -0.000 C 
BRANCH  14  15
ATOM     15  C   UNL     1       0.960   9.084  -8.764  1.00  0.00    -0.000 C 
BRANCH  15  16
ATOM     16  C   UNL     1       2.397   9.238  -9.294  1.00  0.00    -0.000 C 
BRANCH  16  17
ATOM     17  C   UNL     1       3.046   7.890  -9.645  1.00  0.00    -0.000 C 
BRANCH  17  18
ATOM     18  C   UNL     1       3.852   7.305  -8.472  1.00  0.00    -0.000 C 
BRANCH  18  19
ATOM     19  C   UNL     1       3.078   6.216  -7.712  1.00  0.00    -0.003 C 
ATOM     20  C   UNL     1       2.769   6.606  -6.267  1.00  0.00     0.004 C 
ENDBRANCH  18  19
ENDBRANCH  17  18
ENDBRANCH  16  17
ENDBRANCH  15  16
ENDBRANCH  14  15
ENDBRANCH  13  14
ENDBRANCH  12  13
ENDBRANCH   1  12
TORSDOF 16
ENDMDL
MODEL 7
REMARK VINA RESULT:    -4.457      2.100      3.361
REMARK INTER + INTRA:          -9.923
REMARK INTER:                  -7.473
REMARK INTRA:                  -2.450
REMARK UNBOUND:                -1.297
REMARK SMILES CCCCCCCCCCCCCCCCCC(=O)[O-]
REMARK SMILES IDX 10 1 11 2 12 3 13 4 14 5 15 6 16 7 17 8 18 9 19 10 20 11
REMARK SMILES IDX 9 12 8 13 7 14 6 15 5 16 4 17 3 18 2 19 1 20
REMARK H PARENT
REMARK Flexibility Score: inf
ROOT
ATOM      1  C   UNL     1      -2.079   9.522  -4.611  1.00  0.00     0.000 C 
ENDROOT
BRANCH   1   2
ATOM      2  C   UNL     1      -2.915   9.172  -3.360  1.00  0.00     0.000 C 
BRANCH   2   3
ATOM      3  C   UNL     1      -4.210  10.000  -3.275  1.00  0.00     0.000 C 
BRANCH   3   4
ATOM      4  C   UNL     1      -5.038   9.942  -4.569  1.00  0.00     0.000 C 
BRANCH   4   5
ATOM      5  C   UNL     1      -5.896   8.669  -4.665  1.00  0.00     0.000 C 
BRANCH   5   6
ATOM      6  C   UNL     1      -6.912   8.727  -5.818  1.00  0.00     0.000 C 
BRANCH   6   7
ATOM      7  C   UNL     1      -7.553   7.360  -6.116  1.00  0.00     0.006 C 
BRANCH   7   8
ATOM      8  C   UNL     1      -7.454   6.987  -7.601  1.00  0.00     0.053 C 
BRANCH   8   9
ATOM      9  C   UNL     1      -7.676   5.523  -7.822  1.00  0.00     0.041 C 
ATOM     10  O   UNL     1      -7.400   4.999  -8.935  1.00  0.00    -0.550 OA
ATOM     11  O   UNL     1      -8.158   4.728  -6.790  1.00  0.00    -0.550 OA
ENDBRANCH   8   9
ENDBRANCH   7   8
ENDBRANCH   6   7
ENDBRANCH   5   6
ENDBRANCH   4   5
ENDBRANCH   3   4
ENDBRANCH   2   3
ENDBRANCH   1   2
BRANCH   1  12
ATOM     12  C   UNL     1      -0.848   8.616  -4.805  1.00  0.00     0.000 C 
BRANCH  12  13
ATOM     13  C   UNL     1      -0.227   8.663  -6.212  1.00  0.00    -0.000 C 
BRANCH  13  14
ATOM     14  C   UNL     1      -0.569   9.923  -7.029  1.00  0.00    -0.000 C 
BRANCH  14  15
ATOM     15  C   UNL     1      -1.452   9.643  -8.264  1.00  0.00    -0.000 C 
BRANCH  15  16
ATOM     16  C   UNL     1      -2.944   9.537  -7.902  1.00  0.00    -0.000 C 
BRANCH  16  17
ATOM     17  C   UNL     1      -3.730   8.654  -8.884  1.00  0.00    -0.000 C 
BRANCH  17  18
ATOM     18  C   UNL     1      -3.754   7.177  -8.452  1.00  0.00    -0.000 C 
BRANCH  18  19
ATOM     19  C   UNL     1      -3.456   6.997  -6.955  1.00  0.00    -0.003 C 
ATOM     20  C   UNL     1      -4.221   5.830  -6.333  1.00  0.00     0.004 C 
ENDBRANCH  18  19
ENDBRANCH  17  18
ENDBRANCH  16  17
ENDBRANCH  15  16
ENDBRANCH  14  15
ENDBRANCH  13  14
ENDBRANCH  12  13
ENDBRANCH   1  12
TORSDOF 16
ENDMDL
MODEL 8
REMARK VINA RESULT:    -4.437      3.905      8.529
REMARK INTER + INTRA:          -9.884
REMARK INTER:                  -7.981
REMARK INTRA:                  -1.903
REMARK UNBOUND:                -1.297
REMARK SMILES CCCCCCCCCCCCCCCCCC(=O)[O-]
REMARK SMILES IDX 10 1 11 2 12 3 13 4 14 5 15 6 16 7 17 8 18 9 19 10 20 11
REMARK SMILES IDX 9 12 8 13 7 14 6 15 5 16 4 17 3 18 2 19 1 20
REMARK H PARENT
REMARK Flexibility Score: inf
ROOT
ATOM      1  C   UNL     1      -3.899   8.962  -6.255  1.00  0.00     0.000 C 
ENDROOT
BRANCH   1   2
ATOM      2  C   UNL     1      -2.671   8.028  -6.185  1.00  0.00     0.000 C 
BRANCH   2   3
ATOM      3  C   UNL     1      -1.777   8.332  -4.969  1.00  0.00     0.000 C 
BRANCH   3   4
ATOM      4  C   UNL     1      -0.348   8.735  -5.368  1.00  0.00     0.000 C 
BRANCH   4   5
ATOM      5  C   UNL     1      -0.321   9.903  -6.369  1.00  0.00     0.000 C 
BRANCH   5   6
ATOM      6  C   UNL     1       0.516   9.589  -7.620  1.00  0.00     0.000 C 
BRANCH   6   7
ATOM      7  C   UNL     1       1.412   8.350  -7.442  1.00  0.00     0.006 C 
BRANCH   7   8
ATOM      8  C   UNL     1       2.453   8.223  -8.562  1.00  0.00     0.053 C 
BRANCH   8   9
ATOM      9  C   UNL     1       3.455   7.149  -8.271  1.00  0.00     0.041 C 
ATOM     10  O   UNL     1       4.606   7.200  -8.778  1.00  0.00    -0.550 OA
ATOM     11  O   UNL     1       3.127   6.106  -7.414  1.00  0.00    -0.550 OA
ENDBRANCH   8   9
ENDBRANCH   7   8
ENDBRANCH   6   7
ENDBRANCH   5   6
ENDBRANCH   4   5
ENDBRANCH   3   4
ENDBRANCH   2   3
ENDBRANCH   1   2
BRANCH   1  12
ATOM     12  C   UNL     1      -4.554   9.226  -4.886  1.00  0.00     0.000 C 
BRANCH  12  13
ATOM     13  C   UNL     1      -5.869  10.023  -4.942  1.00  0.00    -0.000 C 
BRANCH  13  14
ATOM     14  C   UNL     1      -6.642   9.903  -6.269  1.00  0.00    -0.000 C 
BRANCH  14  15
ATOM     15  C   UNL     1      -7.995   9.172  -6.136  1.00  0.00    -0.000 C 
BRANCH  15  16
ATOM     16  C   UNL     1      -7.993   8.145  -4.990  1.00  0.00    -0.000 C 
BRANCH  16  17
ATOM     17  C   UNL     1      -7.851   6.699  -5.492  1.00  0.00    -0.000 C 
BRANCH  17  18
ATOM     18  C   UNL     1      -6.386   6.228  -5.515  1.00  0.00    -0.000 C 
BRANCH  18  19
ATOM     19  C   UNL     1      -5.860   6.014  -6.944  1.00  0.00    -0.003 C 
ATOM     20  C   UNL     1      -6.956   6.128  -8.003  1.00  0.00     0.004 C 
ENDBRANCH  18  19
ENDBRANCH  17  18
ENDBRANCH  16  17
ENDBRANCH  15  16
ENDBRANCH  14  15
ENDBRANCH  13  14
ENDBRANCH  12  13
ENDBRANCH   1  12
TORSDOF 16
ENDMDL
MODEL 9
REMARK VINA RESULT:    -4.396      5.839     10.977
REMARK INTER + INTRA:          -9.804
REMARK INTER:                  -9.076
REMARK INTRA:                  -0.728
REMARK UNBOUND:                -1.297
REMARK SMILES CCCCCCCCCCCCCCCCCC(=O)[O-]
REMARK SMILES IDX 10 1 11 2 12 3 13 4 14 5 15 6 16 7 17 8 18 9 19 10 20 11
REMARK SMILES IDX 9 12 8 13 7 14 6 15 5 16 4 17 3 18 2 19 1 20
REMARK H PARENT
REMARK Flexibility Score: inf
ROOT
ATOM      1  C   UNL     1       0.456   8.971  -7.233  1.00  0.00     0.000 C 
ENDROOT
BRANCH   1   2
ATOM      2  C   UNL     1       1.654   8.001  -7.139  1.00  0.00     0.000 C 
BRANCH   2   3
ATOM      3  C   UNL     1       2.468   7.954  -8.444  1.00  0.00     0.000 C 
BRANCH   3   4
ATOM      4  C   UNL     1       3.763   7.135  -8.308  1.00  0.00     0.000 C 
BRANCH   4   5
ATOM      5  C   UNL     1       4.520   7.001  -9.641  1.00  0.00     0.000 C 
BRANCH   5   6
ATOM      6  C   UNL     1       5.624   8.058  -9.802  1.00  0.00     0.000 C 
BRANCH   6   7
ATOM      7  C   UNL     1       7.025   7.439  -9.944  1.00  0.00     0.006 C 
BRANCH   7   8
ATOM      8  C   UNL     1       8.139   8.475  -9.738  1.00  0.00     0.053 C 
BRANCH   8   9
ATOM      9  C   UNL     1       8.899   8.229  -8.472  1.00  0.00     0.041 C 
ATOM     10  O   UNL     1       8.661   8.917  -7.444  1.00  0.00    -0.550 OA
ATOM     11  O   UNL     1       9.851   7.219  -8.417  1.00  0.00    -0.550 OA
ENDBRANCH   8   9
ENDBRANCH   7   8
ENDBRANCH   6   7
ENDBRANCH   5   6
ENDBRANCH   4   5
ENDBRANCH   3   4
ENDBRANCH   2   3
ENDBRANCH   1   2
BRANCH   1  12
ATOM     12  C   UNL     1      -0.205   9.271  -5.874  1.00  0.00     0.000 C 
BRANCH  12  13
ATOM     13  C   UNL     1      -1.723   9.514  -5.933  1.00  0.00    -0.000 C 
BRANCH  13  14
ATOM     14  C   UNL     1      -2.561   8.604  -5.015  1.00  0.00    -0.000 C 
BRANCH  14  15
ATOM     15  C   UNL     1      -3.061   9.304  -3.734  1.00  0.00    -0.000 C 
BRANCH  15  16
ATOM     16  C   UNL     1      -4.511   9.803  -3.871  1.00  0.00    -0.000 C 
BRANCH  16  17
ATOM     17  C   UNL     1      -5.255   9.146  -5.045  1.00  0.00    -0.000 C 
BRANCH  17  18
ATOM     18  C   UNL     1      -6.543   8.434  -4.597  1.00  0.00    -0.000 C 
BRANCH  18  19
ATOM     19  C   UNL     1      -6.732   7.073  -5.286  1.00  0.00    -0.003 C 
ATOM     20  C   UNL     1      -5.407   6.387  -5.619  1.00  0.00     0.004 C 
ENDBRANCH  18  19
ENDBRANCH  17  18
ENDBRANCH  16  17
ENDBRANCH  15  16
ENDBRANCH  14  15
ENDBRANCH  13  14
ENDBRANCH  12  13
ENDBRANCH   1  12
TORSDOF 16
ENDMDL
