MODEL 1
REMARK VINA RESULT:    -4.628      0.000      0.000
REMARK INTER + INTRA:          -4.993
REMARK INTER:                  -4.898
REMARK INTRA:                  -0.094
REMARK UNBOUND:                -0.094
REMARK SMILES C=C(C)[C@@H]1CC=C(C)C(=O)C1
REMARK SMILES IDX 8 1 7 2 6 3 5 4 4 5 11 6 9 7 10 8 2 9 1 10 3 11
REMARK H PARENT
REMARK Flexibility Score: inf
ROOT
ATOM      1  C   UNL     1      24.470  29.255  29.739  1.00  0.00     0.048 C 
ATOM      2  C   UNL     1      23.367  28.428  29.140  1.00  0.00    -0.012 C 
ATOM      3  C   UNL     1      22.096  28.861  29.200  1.00  0.00    -0.019 C 
ATOM      4  C   UNL     1      20.957  28.080  28.600  1.00  0.00     0.036 C 
ATOM      5  C   UNL     1      21.221  26.565  28.682  1.00  0.00     0.025 C 
ATOM      6  C   UNL     1      22.571  26.220  28.028  1.00  0.00     0.089 C 
ATOM      7  C   UNL     1      23.667  27.079  28.596  1.00  0.00     0.158 C 
ATOM      8  O   UNL     1      24.854  26.655  28.571  1.00  0.00    -0.295 OA
ENDROOT
BRANCH   5   9
ATOM      9  C   UNL     1      20.082  25.767  28.061  1.00  0.00    -0.077 C 
ATOM     10  C   UNL     1      18.810  26.037  28.394  1.00  0.00     0.008 C 
ATOM     11  C   UNL     1      20.346  24.662  27.067  1.00  0.00     0.039 C 
ENDBRANCH   5   9
TORSDOF 1
ENDMDL
MODEL 2
REMARK VINA RESULT:    -4.377      1.649      4.244
REMARK INTER + INTRA:          -4.728
REMARK INTER:                  -4.630
REMARK INTRA:                  -0.098
REMARK UNBOUND:                -0.094
REMARK SMILES C=C(C)[C@@H]1CC=C(C)C(=O)C1
REMARK SMILES IDX 8 1 7 2 6 3 5 4 4 5 11 6 9 7 10 8 2 9 1 10 3 11
REMARK H PARENT
REMARK Flexibility Score: inf
ROOT
ATOM      1  C   UNL     1      18.522  25.867  27.852  1.00  0.00     0.048 C 
ATOM      2  C   UNL     1      19.875  26.351  28.293  1.00  0.00    -0.012 C 
ATOM      3  C   UNL     1      20.000  27.562  28.863  1.00  0.00    -0.019 C 
ATOM      4  C   UNL     1      21.329  28.087  29.339  1.00  0.00     0.036 C 
ATOM      5  C   UNL     1      22.478  27.570  28.453  1.00  0.00     0.025 C 
ATOM      6  C   UNL     1      22.451  26.032  28.384  1.00  0.00     0.089 C 
ATOM      7  C   UNL     1      21.084  25.546  27.986  1.00  0.00     0.158 C 
ATOM      8  O   UNL     1      20.973  24.426  27.419  1.00  0.00    -0.295 OA
ENDROOT
BRANCH   5   9
ATOM      9  C   UNL     1      23.828  28.081  28.938  1.00  0.00    -0.077 C 
ATOM     10  C   UNL     1      23.900  29.202  29.674  1.00  0.00     0.008 C 
ATOM     11  C   UNL     1      25.109  27.355  28.607  1.00  0.00     0.039 C 
ENDBRANCH   5   9
TORSDOF 1
ENDMDL
MODEL 3
REMARK VINA RESULT:    -4.340      2.220      4.233
REMARK INTER + INTRA:          -4.688
REMARK INTER:                  -4.591
REMARK INTRA:                  -0.097
REMARK UNBOUND:                -0.094
REMARK SMILES C=C(C)[C@@H]1CC=C(C)C(=O)C1
REMARK SMILES IDX 8 1 7 2 6 3 5 4 4 5 11 6 9 7 10 8 2 9 1 10 3 11
REMARK H PARENT
REMARK Flexibility Score: inf
ROOT
ATOM      1  C   UNL     1      20.641  24.107  26.707  1.00  0.00     0.048 C 
ATOM      2  C   UNL     1      20.140  25.249  27.547  1.00  0.00    -0.012 C 
ATOM      3  C   UNL     1      18.851  25.623  27.468  1.00  0.00    -0.019 C 
ATOM      4  C   UNL     1      18.294  26.747  28.301  1.00  0.00     0.036 C 
ATOM      5  C   UNL     1      19.359  27.831  28.552  1.00  0.00     0.025 C 
ATOM      6  C   UNL     1      20.618  27.209  29.182  1.00  0.00     0.089 C 
ATOM      7  C   UNL     1      21.093  26.039  28.366  1.00  0.00     0.158 C 
ATOM      8  O   UNL     1      22.310  25.712  28.413  1.00  0.00    -0.295 OA
ENDROOT
BRANCH   5   9
ATOM      9  C   UNL     1      18.809  28.964  29.408  1.00  0.00    -0.077 C 
ATOM     10  C   UNL     1      18.119  28.690  30.527  1.00  0.00     0.008 C 
ATOM     11  C   UNL     1      19.019  30.410  29.028  1.00  0.00     0.039 C 
ENDBRANCH   5   9
TORSDOF 1
ENDMDL
MODEL 4
REMARK VINA RESULT:    -4.330      2.906      4.516
REMARK INTER + INTRA:          -4.677
REMARK INTER:                  -4.579
REMARK INTRA:                  -0.098
REMARK UNBOUND:                -0.094
REMARK SMILES C=C(C)[C@@H]1CC=C(C)C(=O)C1
REMARK SMILES IDX 8 1 7 2 6 3 5 4 4 5 11 6 9 7 10 8 2 9 1 10 3 11
REMARK H PARENT
REMARK Flexibility Score: inf
ROOT
ATOM      1  C   UNL     1      16.449  28.701  29.809  1.00  0.00     0.048 C 
ATOM      2  C   UNL     1      17.616  27.966  29.210  1.00  0.00    -0.012 C 
ATOM      3  C   UNL     1      17.424  27.149  28.159  1.00  0.00    -0.019 C 
ATOM      4  C   UNL     1      18.561  26.403  27.510  1.00  0.00     0.036 C 
ATOM      5  C   UNL     1      19.640  26.030  28.544  1.00  0.00     0.025 C 
ATOM      6  C   UNL     1      20.121  27.286  29.293  1.00  0.00     0.089 C 
ATOM      7  C   UNL     1      18.950  28.046  29.855  1.00  0.00     0.158 C 
ATOM      8  O   UNL     1      19.125  28.783  30.862  1.00  0.00    -0.295 OA
ENDROOT
BRANCH   5   9
ATOM      9  C   UNL     1      20.802  25.291  27.893  1.00  0.00    -0.077 C 
ATOM     10  C   UNL     1      22.060  25.517  28.304  1.00  0.00     0.008 C 
ATOM     11  C   UNL     1      20.576  24.298  26.780  1.00  0.00     0.039 C 
ENDBRANCH   5   9
TORSDOF 1
ENDMDL
MODEL 5
REMARK VINA RESULT:    -4.271      5.685      7.513
REMARK INTER + INTRA:          -4.615
REMARK INTER:                  -4.518
REMARK INTRA:                  -0.097
REMARK UNBOUND:                -0.094
REMARK SMILES C=C(C)[C@@H]1CC=C(C)C(=O)C1
REMARK SMILES IDX 8 1 7 2 6 3 5 4 4 5 11 6 9 7 10 8 2 9 1 10 3 11
REMARK H PARENT
REMARK Flexibility Score: inf
ROOT
ATOM      1  C   UNL     1      17.657  26.805  28.657  1.00  0.00     0.048 C 
ATOM      2  C   UNL     1      17.256  28.230  28.920  1.00  0.00    -0.012 C 
ATOM      3  C   UNL     1      18.198  29.183  29.022  1.00  0.00    -0.019 C 
ATOM      4  C   UNL     1      17.849  30.628  29.267  1.00  0.00     0.036 C 
ATOM      5  C   UNL     1      16.581  30.752  30.131  1.00  0.00     0.025 C 
ATOM      6  C   UNL     1      15.418  29.973  29.492  1.00  0.00     0.089 C 
ATOM      7  C   UNL     1      15.833  28.560  29.188  1.00  0.00     0.158 C 
ATOM      8  O   UNL     1      14.952  27.661  29.128  1.00  0.00    -0.295 OA
ENDROOT
BRANCH   5   9
ATOM      9  C   UNL     1      16.210  32.210  30.368  1.00  0.00    -0.077 C 
ATOM     10  C   UNL     1      16.186  33.076  29.342  1.00  0.00     0.008 C 
ATOM     11  C   UNL     1      15.867  32.720  31.747  1.00  0.00     0.039 C 
ENDBRANCH   5   9
TORSDOF 1
ENDMDL
MODEL 6
REMARK VINA RESULT:    -4.265      5.779      6.858
REMARK INTER + INTRA:          -4.608
REMARK INTER:                  -4.510
REMARK INTRA:                  -0.099
REMARK UNBOUND:                -0.094
REMARK SMILES C=C(C)[C@@H]1CC=C(C)C(=O)C1
REMARK SMILES IDX 8 1 7 2 6 3 5 4 4 5 11 6 9 7 10 8 2 9 1 10 3 11
REMARK H PARENT
REMARK Flexibility Score: inf
ROOT
ATOM      1  C   UNL     1      19.801  33.998  29.428  1.00  0.00     0.048 C 
ATOM      2  C   UNL     1      18.635  33.051  29.393  1.00  0.00    -0.012 C 
ATOM      3  C   UNL     1      17.380  33.531  29.431  1.00  0.00    -0.019 C 
ATOM      4  C   UNL     1      16.176  32.626  29.380  1.00  0.00     0.036 C 
ATOM      5  C   UNL     1      16.468  31.278  30.065  1.00  0.00     0.025 C 
ATOM      6  C   UNL     1      17.716  30.622  29.448  1.00  0.00     0.089 C 
ATOM      7  C   UNL     1      18.871  31.586  29.442  1.00  0.00     0.158 C 
ATOM      8  O   UNL     1      20.047  31.133  29.443  1.00  0.00    -0.295 OA
ENDROOT
BRANCH   5   9
ATOM      9  C   UNL     1      15.262  30.350  30.003  1.00  0.00    -0.077 C 
ATOM     10  C   UNL     1      15.381  29.126  29.463  1.00  0.00     0.008 C 
ATOM     11  C   UNL     1      13.915  30.774  30.535  1.00  0.00     0.039 C 
ENDBRANCH   5   9
TORSDOF 1
ENDMDL
MODEL 7
REMARK VINA RESULT:    -4.184      4.641      5.970
REMARK INTER + INTRA:          -4.524
REMARK INTER:                  -4.425
REMARK INTRA:                  -0.098
REMARK UNBOUND:                -0.094
REMARK SMILES C=C(C)[C@@H]1CC=C(C)C(=O)C1
REMARK SMILES IDX 8 1 7 2 6 3 5 4 4 5 11 6 9 7 10 8 2 9 1 10 3 11
REMARK H PARENT
REMARK Flexibility Score: inf
ROOT
ATOM      1  C   UNL     1      15.764  31.855  29.691  1.00  0.00     0.048 C 
ATOM      2  C   UNL     1      16.670  30.672  29.494  1.00  0.00    -0.012 C 
ATOM      3  C   UNL     1      17.995  30.858  29.363  1.00  0.00    -0.019 C 
ATOM      4  C   UNL     1      18.949  29.705  29.182  1.00  0.00     0.036 C 
ATOM      5  C   UNL     1      18.287  28.557  28.399  1.00  0.00     0.025 C 
ATOM      6  C   UNL     1      16.977  28.126  29.083  1.00  0.00     0.089 C 
ATOM      7  C   UNL     1      16.089  29.317  29.321  1.00  0.00     0.158 C 
ATOM      8  O   UNL     1      14.843  29.145  29.407  1.00  0.00    -0.295 OA
ENDROOT
BRANCH   5   9
ATOM      9  C   UNL     1      19.238  27.380  28.226  1.00  0.00    -0.077 C 
ATOM     10  C   UNL     1      20.476  27.433  28.743  1.00  0.00     0.008 C 
ATOM     11  C   UNL     1      18.823  26.137  27.478  1.00  0.00     0.039 C 
ENDBRANCH   5   9
TORSDOF 1
ENDMDL
MODEL 8
REMARK VINA RESULT:    -4.180      3.478      5.570
REMARK INTER + INTRA:          -4.519
REMARK INTER:                  -4.421
REMARK INTRA:                  -0.098
REMARK UNBOUND:                -0.094
REMARK SMILES C=C(C)[C@@H]1CC=C(C)C(=O)C1
REMARK SMILES IDX 8 1 7 2 6 3 5 4 4 5 11 6 9 7 10 8 2 9 1 10 3 11
REMARK H PARENT
REMARK Flexibility Score: inf
ROOT
ATOM      1  C   UNL     1      18.776  26.042  27.947  1.00  0.00     0.048 C 
ATOM      2  C   UNL     1      18.668  27.450  28.462  1.00  0.00    -0.012 C 
ATOM      3  C   UNL     1      17.464  27.960  28.770  1.00  0.00    -0.019 C 
ATOM      4  C   UNL     1      17.302  29.358  29.307  1.00  0.00     0.036 C 
ATOM      5  C   UNL     1      18.372  30.301  28.726  1.00  0.00     0.025 C 
ATOM      6  C   UNL     1      19.781  29.738  28.985  1.00  0.00     0.089 C 
ATOM      7  C   UNL     1      19.875  28.314  28.510  1.00  0.00     0.158 C 
ATOM      8  O   UNL     1      21.001  27.849  28.187  1.00  0.00    -0.295 OA
ENDROOT
BRANCH   5   9
ATOM      9  C   UNL     1      18.227  31.713  29.278  1.00  0.00    -0.077 C 
ATOM     10  C   UNL     1      19.145  32.204  30.126  1.00  0.00     0.008 C 
ATOM     11  C   UNL     1      17.061  32.591  28.894  1.00  0.00     0.039 C 
ENDBRANCH   5   9
TORSDOF 1
ENDMDL
MODEL 9
REMARK VINA RESULT:    -4.179      3.140      4.856
REMARK INTER + INTRA:          -4.518
REMARK INTER:                  -4.420
REMARK INTRA:                  -0.098
REMARK UNBOUND:                -0.094
REMARK SMILES C=C(C)[C@@H]1CC=C(C)C(=O)C1
REMARK SMILES IDX 8 1 7 2 6 3 5 4 4 5 11 6 9 7 10 8 2 9 1 10 3 11
REMARK H PARENT
REMARK Flexibility Score: inf
ROOT
ATOM      1  C   UNL     1      20.924  24.828  27.974  1.00  0.00     0.048 C 
ATOM      2  C   UNL     1      20.139  26.102  28.118  1.00  0.00    -0.012 C 
ATOM      3  C   UNL     1      20.738  27.208  28.591  1.00  0.00    -0.019 C 
ATOM      4  C   UNL     1      20.002  28.515  28.737  1.00  0.00     0.036 C 
ATOM      5  C   UNL     1      18.519  28.279  29.078  1.00  0.00     0.025 C 
ATOM      6  C   UNL     1      17.868  27.358  28.030  1.00  0.00     0.089 C 
ATOM      7  C   UNL     1      18.678  26.103  27.854  1.00  0.00     0.158 C 
ATOM      8  O   UNL     1      18.106  25.057  27.445  1.00  0.00    -0.295 OA
ENDROOT
BRANCH   5   9
ATOM      9  C   UNL     1      17.763  29.595  29.209  1.00  0.00    -0.077 C 
ATOM     10  C   UNL     1      18.393  30.760  28.988  1.00  0.00     0.008 C 
ATOM     11  C   UNL     1      16.303  29.628  29.590  1.00  0.00     0.039 C 
ENDBRANCH   5   9
TORSDOF 1
ENDMDL
