MODEL 1
REMARK VINA RESULT:    -6.497      0.000      0.000
REMARK INTER + INTRA:          -8.100
REMARK INTER:                  -7.826
REMARK INTRA:                  -0.274
REMARK UNBOUND:                -0.274
REMARK SMILES O=c1c(O)c(-c2ccc(O)c(O)c2)oc2cc(O)cc(O)c12
REMARK SMILES IDX 5 1 3 2 2 3 1 4 22 5 20 6 19 7 17 8 16 9 15 10 14 11 6 12
REMARK SMILES IDX 7 13 8 14 9 15 13 16 11 17 10 18 12 20 4 22 21 24 18 26
REMARK H PARENT 10 19 12 21 4 23 21 25 18 27
REMARK Flexibility Score: inf
ROOT
ATOM      1  C   UNL     1     -20.241  16.257  -2.771  1.00  0.00     0.180 A 
ATOM      2  C   UNL     1     -21.547  15.793  -2.535  1.00  0.00     0.208 A 
ATOM      3  C   UNL     1     -22.464  16.640  -1.892  1.00  0.00     0.238 A 
ATOM      4  O   UNL     1     -23.614  16.200  -1.635  1.00  0.00    -0.285 OA
ATOM      5  C   UNL     1     -22.070  17.945  -1.509  1.00  0.00     0.111 A 
ATOM      6  C   UNL     1     -22.928  18.902  -0.888  1.00  0.00     0.134 A 
ATOM      7  C   UNL     1     -22.396  20.115  -0.435  1.00  0.00     0.093 A 
ATOM      8  C   UNL     1     -21.052  20.432  -0.638  1.00  0.00     0.123 A 
ATOM      9  C   UNL     1     -20.219  19.530  -1.295  1.00  0.00     0.094 A 
ATOM     10  C   UNL     1     -20.712  18.296  -1.727  1.00  0.00     0.146 A 
ATOM     11  O   UNL     1     -19.882  17.461  -2.341  1.00  0.00    -0.452 OA
ENDROOT
BRANCH   1  12
ATOM     12  C   UNL     1     -19.225  15.432  -3.465  1.00  0.00     0.025 A 
ATOM     13  C   UNL     1     -18.149  14.903  -2.736  1.00  0.00     0.016 A 
ATOM     14  C   UNL     1     -17.168  14.140  -3.374  1.00  0.00     0.051 A 
ATOM     15  C   UNL     1     -17.239  13.906  -4.750  1.00  0.00     0.157 A 
ATOM     16  C   UNL     1     -19.283  15.214  -4.853  1.00  0.00     0.062 A 
ATOM     17  C   UNL     1     -18.298  14.450  -5.496  1.00  0.00     0.158 A 
BRANCH  15  18
ATOM     18  O   UNL     1     -16.246  13.139  -5.360  1.00  0.00    -0.504 OA
ATOM     19  H   UNL     1     -15.262  13.345  -5.250  1.00  0.00     0.293 HD
ENDBRANCH  15  18
BRANCH  17  20
ATOM     20  O   UNL     1     -18.367  14.233  -6.871  1.00  0.00    -0.504 OA
ATOM     21  H   UNL     1     -18.745  14.932  -7.500  1.00  0.00     0.293 HD
ENDBRANCH  17  20
ENDBRANCH   1  12
BRANCH   2  22
ATOM     22  O   UNL     1     -21.908  14.494  -2.901  1.00  0.00    -0.502 OA
ATOM     23  H   UNL     1     -21.770  14.135  -3.837  1.00  0.00     0.293 HD
ENDBRANCH   2  22
BRANCH   6  24
ATOM     24  O   UNL     1     -24.304  18.722  -0.721  1.00  0.00    -0.507 OA
ATOM     25  H   UNL     1     -25.015  19.304  -1.136  1.00  0.00     0.293 HD
ENDBRANCH   6  24
BRANCH   8  26
ATOM     26  O   UNL     1     -20.534  21.649  -0.197  1.00  0.00    -0.508 OA
ATOM     27  H   UNL     1     -20.131  22.318  -0.841  1.00  0.00     0.293 HD
ENDBRANCH   8  26
TORSDOF 6
ENDMDL
MODEL 2
REMARK VINA RESULT:    -6.424      1.493      3.282
REMARK INTER + INTRA:          -8.012
REMARK INTER:                  -7.795
REMARK INTRA:                  -0.217
REMARK UNBOUND:                -0.274
REMARK SMILES O=c1c(O)c(-c2ccc(O)c(O)c2)oc2cc(O)cc(O)c12
REMARK SMILES IDX 5 1 3 2 2 3 1 4 22 5 20 6 19 7 17 8 16 9 15 10 14 11 6 12
REMARK SMILES IDX 7 13 8 14 9 15 13 16 11 17 10 18 12 20 4 22 21 24 18 26
REMARK H PARENT 10 19 12 21 4 23 21 25 18 27
REMARK Flexibility Score: inf
ROOT
ATOM      1  C   UNL     1     -18.900  16.711  -2.641  1.00  0.00     0.180 A 
ATOM      2  C   UNL     1     -18.077  17.645  -1.989  1.00  0.00     0.208 A 
ATOM      3  C   UNL     1     -18.667  18.595  -1.139  1.00  0.00     0.238 A 
ATOM      4  O   UNL     1     -17.931  19.462  -0.600  1.00  0.00    -0.285 OA
ATOM      5  C   UNL     1     -20.068  18.589  -0.940  1.00  0.00     0.111 A 
ATOM      6  C   UNL     1     -20.768  19.479  -0.070  1.00  0.00     0.134 A 
ATOM      7  C   UNL     1     -22.167  19.468  -0.051  1.00  0.00     0.093 A 
ATOM      8  C   UNL     1     -22.891  18.555  -0.821  1.00  0.00     0.123 A 
ATOM      9  C   UNL     1     -22.216  17.642  -1.628  1.00  0.00     0.094 A 
ATOM     10  C   UNL     1     -20.821  17.653  -1.696  1.00  0.00     0.146 A 
ATOM     11  O   UNL     1     -20.217  16.772  -2.486  1.00  0.00    -0.452 OA
ENDROOT
BRANCH   1  12
ATOM     12  C   UNL     1     -18.350  15.663  -3.533  1.00  0.00     0.025 A 
ATOM     13  C   UNL     1     -18.677  15.676  -4.898  1.00  0.00     0.016 A 
ATOM     14  C   UNL     1     -18.186  14.687  -5.752  1.00  0.00     0.051 A 
ATOM     15  C   UNL     1     -17.376  13.661  -5.256  1.00  0.00     0.157 A 
ATOM     16  C   UNL     1     -17.552  14.620  -3.030  1.00  0.00     0.062 A 
ATOM     17  C   UNL     1     -17.061  13.624  -3.887  1.00  0.00     0.158 A 
BRANCH  15  18
ATOM     18  O   UNL     1     -16.899  12.687  -6.132  1.00  0.00    -0.504 OA
ATOM     19  H   UNL     1     -17.318  11.768  -6.196  1.00  0.00     0.293 HD
ENDBRANCH  15  18
BRANCH  17  20
ATOM     20  O   UNL     1     -16.265  12.596  -3.382  1.00  0.00    -0.504 OA
ATOM     21  H   UNL     1     -16.646  11.881  -2.773  1.00  0.00     0.293 HD
ENDBRANCH  17  20
ENDBRANCH   1  12
BRANCH   2  22
ATOM     22  O   UNL     1     -16.698  17.648  -2.217  1.00  0.00    -0.502 OA
ATOM     23  H   UNL     1     -16.041  18.062  -1.568  1.00  0.00     0.293 HD
ENDBRANCH   2  22
BRANCH   6  24
ATOM     24  O   UNL     1     -20.138  20.366   0.807  1.00  0.00    -0.507 OA
ATOM     25  H   UNL     1     -20.111  21.368   0.691  1.00  0.00     0.293 HD
ENDBRANCH   6  24
BRANCH   8  26
ATOM     26  O   UNL     1     -24.284  18.540  -0.783  1.00  0.00    -0.508 OA
ATOM     27  H   UNL     1     -24.794  18.825   0.044  1.00  0.00     0.293 HD
ENDBRANCH   8  26
TORSDOF 6
ENDMDL
MODEL 3
REMARK VINA RESULT:    -6.366      1.074      1.665
REMARK INTER + INTRA:          -7.942
REMARK INTER:                  -7.620
REMARK INTRA:                  -0.323
REMARK UNBOUND:                -0.274
REMARK SMILES O=c1c(O)c(-c2ccc(O)c(O)c2)oc2cc(O)cc(O)c12
REMARK SMILES IDX 5 1 3 2 2 3 1 4 22 5 20 6 19 7 17 8 16 9 15 10 14 11 6 12
REMARK SMILES IDX 7 13 8 14 9 15 13 16 11 17 10 18 12 20 4 22 21 24 18 26
REMARK H PARENT 10 19 12 21 4 23 21 25 18 27
REMARK Flexibility Score: inf
ROOT
ATOM      1  C   UNL     1     -20.506  15.591  -3.049  1.00  0.00     0.180 A 
ATOM      2  C   UNL     1     -21.563  14.980  -2.353  1.00  0.00     0.208 A 
ATOM      3  C   UNL     1     -22.427  15.782  -1.589  1.00  0.00     0.238 A 
ATOM      4  O   UNL     1     -23.339  15.224  -0.925  1.00  0.00    -0.285 OA
ATOM      5  C   UNL     1     -22.234  17.184  -1.545  1.00  0.00     0.111 A 
ATOM      6  C   UNL     1     -23.073  18.096  -0.836  1.00  0.00     0.134 A 
ATOM      7  C   UNL     1     -22.711  19.446  -0.755  1.00  0.00     0.093 A 
ATOM      8  C   UNL     1     -21.576  19.928  -1.411  1.00  0.00     0.123 A 
ATOM      9  C   UNL     1     -20.783  19.057  -2.154  1.00  0.00     0.094 A 
ATOM     10  C   UNL     1     -21.098  17.697  -2.224  1.00  0.00     0.146 A 
ATOM     11  O   UNL     1     -20.310  16.899  -2.935  1.00  0.00    -0.452 OA
ENDROOT
BRANCH   1  12
ATOM     12  C   UNL     1     -19.568  14.816  -3.895  1.00  0.00     0.025 A 
ATOM     13  C   UNL     1     -19.895  14.563  -5.236  1.00  0.00     0.016 A 
ATOM     14  C   UNL     1     -19.034  13.818  -6.046  1.00  0.00     0.051 A 
ATOM     15  C   UNL     1     -17.844  13.301  -5.525  1.00  0.00     0.157 A 
ATOM     16  C   UNL     1     -18.380  14.279  -3.367  1.00  0.00     0.062 A 
ATOM     17  C   UNL     1     -17.517  13.528  -4.178  1.00  0.00     0.158 A 
BRANCH  15  18
ATOM     18  O   UNL     1     -17.004  12.562  -6.357  1.00  0.00    -0.504 OA
ATOM     19  H   UNL     1     -16.136  12.159  -6.026  1.00  0.00     0.293 HD
ENDBRANCH  15  18
BRANCH  17  20
ATOM     20  O   UNL     1     -16.338  13.004  -3.649  1.00  0.00    -0.504 OA
ATOM     21  H   UNL     1     -16.112  13.094  -2.665  1.00  0.00     0.293 HD
ENDBRANCH  17  20
ENDBRANCH   1  12
BRANCH   2  22
ATOM     22  O   UNL     1     -21.723  13.593  -2.392  1.00  0.00    -0.502 OA
ATOM     23  H   UNL     1     -21.146  12.964  -1.849  1.00  0.00     0.293 HD
ENDBRANCH   2  22
BRANCH   6  24
ATOM     24  O   UNL     1     -24.276  17.734  -0.225  1.00  0.00    -0.507 OA
ATOM     25  H   UNL     1     -24.986  18.385   0.079  1.00  0.00     0.293 HD
ENDBRANCH   6  24
BRANCH   8  26
ATOM     26  O   UNL     1     -21.232  21.276  -1.337  1.00  0.00    -0.508 OA
ATOM     27  H   UNL     1     -20.281  21.571  -1.150  1.00  0.00     0.293 HD
ENDBRANCH   8  26
TORSDOF 6
ENDMDL
MODEL 4
REMARK VINA RESULT:    -6.273      2.308      7.160
REMARK INTER + INTRA:          -7.830
REMARK INTER:                  -7.550
REMARK INTRA:                  -0.280
REMARK UNBOUND:                -0.274
REMARK SMILES O=c1c(O)c(-c2ccc(O)c(O)c2)oc2cc(O)cc(O)c12
REMARK SMILES IDX 5 1 3 2 2 3 1 4 22 5 20 6 19 7 17 8 16 9 15 10 14 11 6 12
REMARK SMILES IDX 7 13 8 14 9 15 13 16 11 17 10 18 12 20 4 22 21 24 18 26
REMARK H PARENT 10 19 12 21 4 23 21 25 18 27
REMARK Flexibility Score: inf
ROOT
ATOM      1  C   UNL     1     -18.200  16.833  -1.945  1.00  0.00     0.180 A 
ATOM      2  C   UNL     1     -17.769  15.788  -1.109  1.00  0.00     0.208 A 
ATOM      3  C   UNL     1     -17.456  14.545  -1.681  1.00  0.00     0.238 A 
ATOM      4  O   UNL     1     -17.123  13.598  -0.921  1.00  0.00    -0.285 OA
ATOM      5  C   UNL     1     -17.559  14.366  -3.081  1.00  0.00     0.111 A 
ATOM      6  C   UNL     1     -17.229  13.161  -3.772  1.00  0.00     0.134 A 
ATOM      7  C   UNL     1     -17.494  13.056  -5.142  1.00  0.00     0.093 A 
ATOM      8  C   UNL     1     -18.019  14.134  -5.859  1.00  0.00     0.123 A 
ATOM      9  C   UNL     1     -18.290  15.334  -5.206  1.00  0.00     0.094 A 
ATOM     10  C   UNL     1     -18.069  15.457  -3.832  1.00  0.00     0.146 A 
ATOM     11  O   UNL     1     -18.351  16.615  -3.246  1.00  0.00    -0.452 OA
ENDROOT
BRANCH   1  12
ATOM     12  C   UNL     1     -18.526  18.179  -1.420  1.00  0.00     0.025 A 
ATOM     13  C   UNL     1     -17.486  19.051  -1.060  1.00  0.00     0.016 A 
ATOM     14  C   UNL     1     -17.771  20.317  -0.544  1.00  0.00     0.051 A 
ATOM     15  C   UNL     1     -19.095  20.727  -0.365  1.00  0.00     0.157 A 
ATOM     16  C   UNL     1     -19.858  18.585  -1.220  1.00  0.00     0.062 A 
ATOM     17  C   UNL     1     -20.145  19.855  -0.700  1.00  0.00     0.158 A 
BRANCH  15  18
ATOM     18  O   UNL     1     -19.350  21.997   0.151  1.00  0.00    -0.504 OA
ATOM     19  H   UNL     1     -18.730  22.443   0.815  1.00  0.00     0.293 HD
ENDBRANCH  15  18
BRANCH  17  20
ATOM     20  O   UNL     1     -21.468  20.251  -0.511  1.00  0.00    -0.504 OA
ATOM     21  H   UNL     1     -22.204  19.966  -1.147  1.00  0.00     0.293 HD
ENDBRANCH  17  20
ENDBRANCH   1  12
BRANCH   2  22
ATOM     22  O   UNL     1     -17.695  15.979   0.273  1.00  0.00    -0.502 OA
ATOM     23  H   UNL     1     -18.323  16.597   0.772  1.00  0.00     0.293 HD
ENDBRANCH   2  22
BRANCH   6  24
ATOM     24  O   UNL     1     -16.616  12.060  -3.168  1.00  0.00    -0.507 OA
ATOM     25  H   UNL     1     -16.693  11.108  -3.494  1.00  0.00     0.293 HD
ENDBRANCH   6  24
BRANCH   8  26
ATOM     26  O   UNL     1     -18.266  14.025  -7.226  1.00  0.00    -0.508 OA
ATOM     27  H   UNL     1     -19.209  13.984  -7.593  1.00  0.00     0.293 HD
ENDBRANCH   8  26
TORSDOF 6
ENDMDL
MODEL 5
REMARK VINA RESULT:    -6.186      2.509      4.455
REMARK INTER + INTRA:          -7.726
REMARK INTER:                  -7.828
REMARK INTRA:                   0.103
REMARK UNBOUND:                -0.274
REMARK SMILES O=c1c(O)c(-c2ccc(O)c(O)c2)oc2cc(O)cc(O)c12
REMARK SMILES IDX 5 1 3 2 2 3 1 4 22 5 20 6 19 7 17 8 16 9 15 10 14 11 6 12
REMARK SMILES IDX 7 13 8 14 9 15 13 16 11 17 10 18 12 20 4 22 21 24 18 26
REMARK H PARENT 10 19 12 21 4 23 21 25 18 27
REMARK Flexibility Score: inf
ROOT
ATOM      1  C   UNL     1     -19.274  16.580  -2.108  1.00  0.00     0.180 A 
ATOM      2  C   UNL     1     -18.002  16.167  -1.674  1.00  0.00     0.208 A 
ATOM      3  C   UNL     1     -17.241  17.036  -0.877  1.00  0.00     0.238 A 
ATOM      4  O   UNL     1     -16.082  16.683  -0.536  1.00  0.00    -0.285 OA
ATOM      5  C   UNL     1     -17.766  18.298  -0.509  1.00  0.00     0.111 A 
ATOM      6  C   UNL     1     -17.098  19.242   0.329  1.00  0.00     0.134 A 
ATOM      7  C   UNL     1     -17.655  20.512   0.519  1.00  0.00     0.093 A 
ATOM      8  C   UNL     1     -18.887  20.850  -0.045  1.00  0.00     0.123 A 
ATOM      9  C   UNL     1     -19.575  19.916  -0.816  1.00  0.00     0.094 A 
ATOM     10  C   UNL     1     -19.028  18.653  -1.054  1.00  0.00     0.146 A 
ATOM     11  O   UNL     1     -19.712  17.796  -1.803  1.00  0.00    -0.452 OA
ENDROOT
BRANCH   1  12
ATOM     12  C   UNL     1     -20.146  15.710  -2.931  1.00  0.00     0.025 A 
ATOM     13  C   UNL     1     -19.608  15.045  -4.044  1.00  0.00     0.016 A 
ATOM     14  C   UNL     1     -20.417  14.236  -4.845  1.00  0.00     0.051 A 
ATOM     15  C   UNL     1     -21.778  14.092  -4.558  1.00  0.00     0.157 A 
ATOM     16  C   UNL     1     -21.520  15.580  -2.656  1.00  0.00     0.062 A 
ATOM     17  C   UNL     1     -22.334  14.771  -3.461  1.00  0.00     0.158 A 
BRANCH  15  18
ATOM     18  O   UNL     1     -22.562  13.277  -5.375  1.00  0.00    -0.504 OA
ATOM     19  H   UNL     1     -23.103  12.506  -5.005  1.00  0.00     0.293 HD
ENDBRANCH  15  18
BRANCH  17  20
ATOM     20  O   UNL     1     -23.693  14.643  -3.177  1.00  0.00    -0.504 OA
ATOM     21  H   UNL     1     -24.251  15.436  -2.882  1.00  0.00     0.293 HD
ENDBRANCH  17  20
ENDBRANCH   1  12
BRANCH   2  22
ATOM     22  O   UNL     1     -17.494  14.926  -2.067  1.00  0.00    -0.502 OA
ATOM     23  H   UNL     1     -17.303  14.183  -1.406  1.00  0.00     0.293 HD
ENDBRANCH   2  22
BRANCH   6  24
ATOM     24  O   UNL     1     -15.910  18.972   1.013  1.00  0.00    -0.507 OA
ATOM     25  H   UNL     1     -15.781  18.212   1.664  1.00  0.00     0.293 HD
ENDBRANCH   6  24
BRANCH   8  26
ATOM     26  O   UNL     1     -19.442  22.111   0.163  1.00  0.00    -0.508 OA
ATOM     27  H   UNL     1     -19.510  22.514   1.089  1.00  0.00     0.293 HD
ENDBRANCH   8  26
TORSDOF 6
ENDMDL
MODEL 6
REMARK VINA RESULT:    -6.073      2.101      6.639
REMARK INTER + INTRA:          -7.589
REMARK INTER:                  -7.674
REMARK INTRA:                   0.085
REMARK UNBOUND:                -0.274
REMARK SMILES O=c1c(O)c(-c2ccc(O)c(O)c2)oc2cc(O)cc(O)c12
REMARK SMILES IDX 5 1 3 2 2 3 1 4 22 5 20 6 19 7 17 8 16 9 15 10 14 11 6 12
REMARK SMILES IDX 7 13 8 14 9 15 13 16 11 17 10 18 12 20 4 22 21 24 18 26
REMARK H PARENT 10 19 12 21 4 23 21 25 18 27
REMARK Flexibility Score: inf
ROOT
ATOM      1  C   UNL     1     -19.375  17.452  -2.451  1.00  0.00     0.180 A 
ATOM      2  C   UNL     1     -18.384  17.040  -3.358  1.00  0.00     0.208 A 
ATOM      3  C   UNL     1     -18.648  15.952  -4.206  1.00  0.00     0.238 A 
ATOM      4  O   UNL     1     -17.737  15.554  -4.979  1.00  0.00    -0.285 OA
ATOM      5  C   UNL     1     -19.904  15.301  -4.149  1.00  0.00     0.111 A 
ATOM      6  C   UNL     1     -20.293  14.215  -4.989  1.00  0.00     0.134 A 
ATOM      7  C   UNL     1     -21.510  13.563  -4.755  1.00  0.00     0.093 A 
ATOM      8  C   UNL     1     -22.380  14.000  -3.753  1.00  0.00     0.123 A 
ATOM      9  C   UNL     1     -22.035  15.097  -2.966  1.00  0.00     0.094 A 
ATOM     10  C   UNL     1     -20.812  15.744  -3.152  1.00  0.00     0.146 A 
ATOM     11  O   UNL     1     -20.518  16.779  -2.374  1.00  0.00    -0.452 OA
ENDROOT
BRANCH   1  12
ATOM     12  C   UNL     1     -19.181  18.605  -1.542  1.00  0.00     0.025 A 
ATOM     13  C   UNL     1     -17.996  18.706  -0.797  1.00  0.00     0.016 A 
ATOM     14  C   UNL     1     -17.801  19.775   0.082  1.00  0.00     0.051 A 
ATOM     15  C   UNL     1     -18.791  20.748   0.242  1.00  0.00     0.157 A 
ATOM     16  C   UNL     1     -20.185  19.574  -1.364  1.00  0.00     0.062 A 
ATOM     17  C   UNL     1     -19.991  20.646  -0.481  1.00  0.00     0.158 A 
BRANCH  15  18
ATOM     18  O   UNL     1     -18.568  21.805   1.125  1.00  0.00    -0.504 OA
ATOM     19  H   UNL     1     -19.257  22.529   1.282  1.00  0.00     0.293 HD
ENDBRANCH  15  18
BRANCH  17  20
ATOM     20  O   UNL     1     -20.989  21.606  -0.315  1.00  0.00    -0.504 OA
ATOM     21  H   UNL     1     -21.635  21.833  -1.062  1.00  0.00     0.293 HD
ENDBRANCH  17  20
ENDBRANCH   1  12
BRANCH   2  22
ATOM     22  O   UNL     1     -17.143  17.682  -3.384  1.00  0.00    -0.502 OA
ATOM     23  H   UNL     1     -16.475  17.604  -2.628  1.00  0.00     0.293 HD
ENDBRANCH   2  22
BRANCH   6  24
ATOM     24  O   UNL     1     -19.540  13.760  -6.075  1.00  0.00    -0.507 OA
ATOM     25  H   UNL     1     -18.536  13.832  -6.149  1.00  0.00     0.293 HD
ENDBRANCH   6  24
BRANCH   8  26
ATOM     26  O   UNL     1     -23.596  13.355  -3.538  1.00  0.00    -0.508 OA
ATOM     27  H   UNL     1     -23.875  13.045  -2.615  1.00  0.00     0.293 HD
ENDBRANCH   8  26
TORSDOF 6
ENDMDL
MODEL 7
REMARK VINA RESULT:    -5.818      1.547      6.325
REMARK INTER + INTRA:          -7.282
REMARK INTER:                  -7.209
REMARK INTRA:                  -0.073
REMARK UNBOUND:                -0.274
REMARK SMILES O=c1c(O)c(-c2ccc(O)c(O)c2)oc2cc(O)cc(O)c12
REMARK SMILES IDX 5 1 3 2 2 3 1 4 22 5 20 6 19 7 17 8 16 9 15 10 14 11 6 12
REMARK SMILES IDX 7 13 8 14 9 15 13 16 11 17 10 18 12 20 4 22 21 24 18 26
REMARK H PARENT 10 19 12 21 4 23 21 25 18 27
REMARK Flexibility Score: inf
ROOT
ATOM      1  C   UNL     1     -20.387  17.056  -2.183  1.00  0.00     0.180 A 
ATOM      2  C   UNL     1     -21.654  16.469  -2.021  1.00  0.00     0.208 A 
ATOM      3  C   UNL     1     -22.010  15.383  -2.836  1.00  0.00     0.238 A 
ATOM      4  O   UNL     1     -23.165  14.896  -2.723  1.00  0.00    -0.285 OA
ATOM      5  C   UNL     1     -21.090  14.885  -3.790  1.00  0.00     0.111 A 
ATOM      6  C   UNL     1     -21.330  13.764  -4.641  1.00  0.00     0.134 A 
ATOM      7  C   UNL     1     -20.401  13.442  -5.637  1.00  0.00     0.093 A 
ATOM      8  C   UNL     1     -19.211  14.160  -5.772  1.00  0.00     0.123 A 
ATOM      9  C   UNL     1     -18.940  15.219  -4.908  1.00  0.00     0.094 A 
ATOM     10  C   UNL     1     -19.864  15.587  -3.928  1.00  0.00     0.146 A 
ATOM     11  O   UNL     1     -19.571  16.610  -3.132  1.00  0.00    -0.452 OA
ENDROOT
BRANCH   1  12
ATOM     12  C   UNL     1     -19.929  18.188  -1.346  1.00  0.00     0.025 A 
ATOM     13  C   UNL     1     -18.780  18.042  -0.553  1.00  0.00     0.016 A 
ATOM     14  C   UNL     1     -18.342  19.090   0.259  1.00  0.00     0.051 A 
ATOM     15  C   UNL     1     -19.052  20.293   0.305  1.00  0.00     0.157 A 
ATOM     16  C   UNL     1     -20.654  19.392  -1.283  1.00  0.00     0.062 A 
ATOM     17  C   UNL     1     -20.217  20.444  -0.465  1.00  0.00     0.158 A 
BRANCH  15  18
ATOM     18  O   UNL     1     -18.591  21.323   1.125  1.00  0.00    -0.504 OA
ATOM     19  H   UNL     1     -18.082  21.144   1.981  1.00  0.00     0.293 HD
ENDBRANCH  15  18
BRANCH  17  20
ATOM     20  O   UNL     1     -20.939  21.636  -0.414  1.00  0.00    -0.504 OA
ATOM     21  H   UNL     1     -20.532  22.516  -0.710  1.00  0.00     0.293 HD
ENDBRANCH  17  20
ENDBRANCH   1  12
BRANCH   2  22
ATOM     22  O   UNL     1     -22.555  16.989  -1.088  1.00  0.00    -0.502 OA
ATOM     23  H   UNL     1     -23.557  16.959  -1.226  1.00  0.00     0.293 HD
ENDBRANCH   2  22
BRANCH   6  24
ATOM     24  O   UNL     1     -22.442  12.925  -4.529  1.00  0.00    -0.507 OA
ATOM     25  H   UNL     1     -23.051  12.881  -3.725  1.00  0.00     0.293 HD
ENDBRANCH   6  24
BRANCH   8  26
ATOM     26  O   UNL     1     -18.285  13.822  -6.757  1.00  0.00    -0.508 OA
ATOM     27  H   UNL     1     -17.401  14.310  -6.842  1.00  0.00     0.293 HD
ENDBRANCH   8  26
TORSDOF 6
ENDMDL
MODEL 8
REMARK VINA RESULT:    -5.794      2.465      4.220
REMARK INTER + INTRA:          -7.253
REMARK INTER:                  -7.351
REMARK INTRA:                   0.098
REMARK UNBOUND:                -0.274
REMARK SMILES O=c1c(O)c(-c2ccc(O)c(O)c2)oc2cc(O)cc(O)c12
REMARK SMILES IDX 5 1 3 2 2 3 1 4 22 5 20 6 19 7 17 8 16 9 15 10 14 11 6 12
REMARK SMILES IDX 7 13 8 14 9 15 13 16 11 17 10 18 12 20 4 22 21 24 18 26
REMARK H PARENT 10 19 12 21 4 23 21 25 18 27
REMARK Flexibility Score: inf
ROOT
ATOM      1  C   UNL     1     -20.601  17.331  -2.016  1.00  0.00     0.180 A 
ATOM      2  C   UNL     1     -21.367  18.506  -1.927  1.00  0.00     0.208 A 
ATOM      3  C   UNL     1     -20.830  19.619  -1.259  1.00  0.00     0.238 A 
ATOM      4  O   UNL     1     -21.541  20.650  -1.135  1.00  0.00    -0.285 OA
ATOM      5  C   UNL     1     -19.529  19.548  -0.704  1.00  0.00     0.111 A 
ATOM      6  C   UNL     1     -18.871  20.627  -0.040  1.00  0.00     0.134 A 
ATOM      7  C   UNL     1     -17.638  20.405   0.584  1.00  0.00     0.093 A 
ATOM      8  C   UNL     1     -17.010  19.159   0.514  1.00  0.00     0.123 A 
ATOM      9  C   UNL     1     -17.616  18.116  -0.182  1.00  0.00     0.094 A 
ATOM     10  C   UNL     1     -18.864  18.297  -0.784  1.00  0.00     0.146 A 
ATOM     11  O   UNL     1     -19.412  17.274  -1.428  1.00  0.00    -0.452 OA
ENDROOT
BRANCH   1  12
ATOM     12  C   UNL     1     -21.088  16.125  -2.725  1.00  0.00     0.025 A 
ATOM     13  C   UNL     1     -20.239  15.463  -3.626  1.00  0.00     0.016 A 
ATOM     14  C   UNL     1     -20.685  14.336  -4.321  1.00  0.00     0.051 A 
ATOM     15  C   UNL     1     -21.987  13.863  -4.139  1.00  0.00     0.157 A 
ATOM     16  C   UNL     1     -22.405  15.660  -2.559  1.00  0.00     0.062 A 
ATOM     17  C   UNL     1     -22.854  14.530  -3.258  1.00  0.00     0.158 A 
BRANCH  15  18
ATOM     18  O   UNL     1     -22.405  12.734  -4.845  1.00  0.00    -0.504 OA
ATOM     19  H   UNL     1     -23.246  12.227  -4.600  1.00  0.00     0.293 HD
ENDBRANCH  15  18
BRANCH  17  20
ATOM     20  O   UNL     1     -24.159  14.072  -3.082  1.00  0.00    -0.504 OA
ATOM     21  H   UNL     1     -24.417  13.113  -3.285  1.00  0.00     0.293 HD
ENDBRANCH  17  20
ENDBRANCH   1  12
BRANCH   2  22
ATOM     22  O   UNL     1     -22.657  18.548  -2.462  1.00  0.00    -0.502 OA
ATOM     23  H   UNL     1     -23.415  19.047  -2.015  1.00  0.00     0.293 HD
ENDBRANCH   2  22
BRANCH   6  24
ATOM     24  O   UNL     1     -19.369  21.932   0.008  1.00  0.00    -0.507 OA
ATOM     25  H   UNL     1     -20.228  22.237  -0.426  1.00  0.00     0.293 HD
ENDBRANCH   6  24
BRANCH   8  26
ATOM     26  O   UNL     1     -15.775  18.951   1.125  1.00  0.00    -0.508 OA
ATOM     27  H   UNL     1     -15.317  18.048   1.100  1.00  0.00     0.293 HD
ENDBRANCH   8  26
TORSDOF 6
ENDMDL
MODEL 9
REMARK VINA RESULT:    -5.779      1.553      7.054
REMARK INTER + INTRA:          -7.235
REMARK INTER:                  -6.914
REMARK INTRA:                  -0.321
REMARK UNBOUND:                -0.274
REMARK SMILES O=c1c(O)c(-c2ccc(O)c(O)c2)oc2cc(O)cc(O)c12
REMARK SMILES IDX 5 1 3 2 2 3 1 4 22 5 20 6 19 7 17 8 16 9 15 10 14 11 6 12
REMARK SMILES IDX 7 13 8 14 9 15 13 16 11 17 10 18 12 20 4 22 21 24 18 26
REMARK H PARENT 10 19 12 21 4 23 21 25 18 27
REMARK Flexibility Score: inf
ROOT
ATOM      1  C   UNL     1     -19.823  16.578  -2.051  1.00  0.00     0.180 A 
ATOM      2  C   UNL     1     -19.091  15.804  -1.134  1.00  0.00     0.208 A 
ATOM      3  C   UNL     1     -18.269  14.774  -1.617  1.00  0.00     0.238 A 
ATOM      4  O   UNL     1     -17.658  14.050  -0.789  1.00  0.00    -0.285 OA
ATOM      5  C   UNL     1     -18.174  14.542  -3.011  1.00  0.00     0.111 A 
ATOM      6  C   UNL     1     -17.341  13.551  -3.613  1.00  0.00     0.134 A 
ATOM      7  C   UNL     1     -17.426  13.323  -4.992  1.00  0.00     0.093 A 
ATOM      8  C   UNL     1     -18.267  14.093  -5.798  1.00  0.00     0.123 A 
ATOM      9  C   UNL     1     -19.040  15.101  -5.229  1.00  0.00     0.094 A 
ATOM     10  C   UNL     1     -19.004  15.329  -3.851  1.00  0.00     0.146 A 
ATOM     11  O   UNL     1     -19.765  16.293  -3.347  1.00  0.00    -0.452 OA
ENDROOT
BRANCH   1  12
ATOM     12  C   UNL     1     -20.692  17.698  -1.621  1.00  0.00     0.025 A 
ATOM     13  C   UNL     1     -20.134  18.970  -1.422  1.00  0.00     0.016 A 
ATOM     14  C   UNL     1     -20.932  20.035  -0.997  1.00  0.00     0.051 A 
ATOM     15  C   UNL     1     -22.294  19.842  -0.750  1.00  0.00     0.157 A 
ATOM     16  C   UNL     1     -22.059  17.501  -1.352  1.00  0.00     0.062 A 
ATOM     17  C   UNL     1     -22.861  18.568  -0.923  1.00  0.00     0.158 A 
BRANCH  15  18
ATOM     18  O   UNL     1     -23.067  20.924  -0.328  1.00  0.00    -0.504 OA
ATOM     19  H   UNL     1     -23.043  21.264   0.625  1.00  0.00     0.293 HD
ENDBRANCH  15  18
BRANCH  17  20
ATOM     20  O   UNL     1     -24.216  18.366  -0.664  1.00  0.00    -0.504 OA
ATOM     21  H   UNL     1     -24.533  17.937   0.197  1.00  0.00     0.293 HD
ENDBRANCH  17  20
ENDBRANCH   1  12
BRANCH   2  22
ATOM     22  O   UNL     1     -19.216  16.036   0.238  1.00  0.00    -0.502 OA
ATOM     23  H   UNL     1     -20.106  16.231   0.678  1.00  0.00     0.293 HD
ENDBRANCH   2  22
BRANCH   6  24
ATOM     24  O   UNL     1     -16.400  12.792  -2.911  1.00  0.00    -0.507 OA
ATOM     25  H   UNL     1     -15.410  12.984  -2.885  1.00  0.00     0.293 HD
ENDBRANCH   6  24
BRANCH   8  26
ATOM     26  O   UNL     1     -18.333  13.869  -7.172  1.00  0.00    -0.508 OA
ATOM     27  H   UNL     1     -19.199  13.600  -7.624  1.00  0.00     0.293 HD
ENDBRANCH   8  26
TORSDOF 6
ENDMDL
