MODEL 1
REMARK VINA RESULT:    -5.022      0.000      0.000
REMARK INTER + INTRA:          -5.667
REMARK INTER:                  -5.316
REMARK INTRA:                  -0.351
REMARK UNBOUND:                -0.351
REMARK SMILES C=C(C)[C@@H]1CC[C@@H](C)[C@]12CC=C(C)CC2
REMARK SMILES IDX 8 1 7 2 6 3 5 4 4 5 9 6 15 7 14 8 12 9 11 10 10 11 13 12
REMARK SMILES IDX 2 13 1 14 3 15
REMARK H PARENT
REMARK Flexibility Score: inf
ROOT
ATOM      1  C   UNL     1      27.292  23.918  11.974  1.00  0.00     0.008 C 
ATOM      2  C   UNL     1      28.494  24.675  12.583  1.00  0.00    -0.007 C 
ATOM      3  C   UNL     1      28.451  26.148  12.148  1.00  0.00     0.004 C 
ATOM      4  C   UNL     1      29.477  26.309  11.026  1.00  0.00     0.009 C 
ATOM      5  C   UNL     1      30.102  24.927  10.785  1.00  0.00     0.021 C 
ATOM      6  C   UNL     1      29.914  24.178  12.141  1.00  0.00    -0.017 C 
ATOM      7  C   UNL     1      29.976  22.632  11.930  1.00  0.00     0.012 C 
ATOM      8  C   UNL     1      29.936  21.893  13.266  1.00  0.00     0.031 C 
ATOM      9  C   UNL     1      31.104  22.305  14.121  1.00  0.00    -0.077 C 
ATOM     10  C   UNL     1      31.558  23.572  14.095  1.00  0.00    -0.027 C 
ATOM     11  C   UNL     1      30.953  24.660  13.236  1.00  0.00     0.035 C 
ATOM     12  C   UNL     1      31.764  21.303  15.028  1.00  0.00     0.039 C 
ENDROOT
BRANCH   5  13
ATOM     13  C   UNL     1      31.484  25.029  10.114  1.00  0.00    -0.077 C 
ATOM     14  C   UNL     1      32.125  24.003   9.522  1.00  0.00     0.008 C 
ATOM     15  C   UNL     1      32.116  26.394   9.974  1.00  0.00     0.039 C 
ENDBRANCH   5  13
TORSDOF 1
ENDMDL
MODEL 2
REMARK VINA RESULT:    -4.711      1.640      4.881
REMARK INTER + INTRA:          -5.337
REMARK INTER:                  -5.001
REMARK INTRA:                  -0.336
REMARK UNBOUND:                -0.351
REMARK SMILES C=C(C)[C@@H]1CC[C@@H](C)[C@]12CC=C(C)CC2
REMARK SMILES IDX 8 1 7 2 6 3 5 4 4 5 9 6 15 7 14 8 12 9 11 10 10 11 13 12
REMARK SMILES IDX 2 13 1 14 3 15
REMARK H PARENT
REMARK Flexibility Score: inf
ROOT
ATOM      1  C   UNL     1      32.125  23.562   9.625  1.00  0.00     0.008 C 
ATOM      2  C   UNL     1      32.120  24.042  11.094  1.00  0.00    -0.007 C 
ATOM      3  C   UNL     1      32.125  22.826  12.034  1.00  0.00     0.004 C 
ATOM      4  C   UNL     1      30.693  22.654  12.543  1.00  0.00     0.009 C 
ATOM      5  C   UNL     1      29.845  23.750  11.882  1.00  0.00     0.021 C 
ATOM      6  C   UNL     1      30.869  24.876  11.540  1.00  0.00    -0.017 C 
ATOM      7  C   UNL     1      30.319  25.796  10.405  1.00  0.00     0.012 C 
ATOM      8  C   UNL     1      31.249  26.984  10.161  1.00  0.00     0.031 C 
ATOM      9  C   UNL     1      31.383  27.803  11.416  1.00  0.00    -0.077 C 
ATOM     10  C   UNL     1      31.394  27.208  12.624  1.00  0.00    -0.027 C 
ATOM     11  C   UNL     1      31.283  25.713  12.820  1.00  0.00     0.035 C 
ATOM     12  C   UNL     1      31.522  29.298  11.328  1.00  0.00     0.039 C 
ENDROOT
BRANCH   5  13
ATOM     13  C   UNL     1      28.566  24.051  12.684  1.00  0.00    -0.077 C 
ATOM     14  C   UNL     1      27.541  24.801  12.236  1.00  0.00     0.008 C 
ATOM     15  C   UNL     1      28.365  23.350  14.007  1.00  0.00     0.039 C 
ENDBRANCH   5  13
TORSDOF 1
ENDMDL
MODEL 3
REMARK VINA RESULT:    -4.508      1.914      3.106
REMARK INTER + INTRA:          -5.122
REMARK INTER:                  -5.091
REMARK INTRA:                  -0.032
REMARK UNBOUND:                -0.351
REMARK SMILES C=C(C)[C@@H]1CC[C@@H](C)[C@]12CC=C(C)CC2
REMARK SMILES IDX 8 1 7 2 6 3 5 4 4 5 9 6 15 7 14 8 12 9 11 10 10 11 13 12
REMARK SMILES IDX 2 13 1 14 3 15
REMARK H PARENT
REMARK Flexibility Score: inf
ROOT
ATOM      1  C   UNL     1      27.448  28.121  11.836  1.00  0.00     0.008 C 
ATOM      2  C   UNL     1      28.889  27.986  12.379  1.00  0.00    -0.007 C 
ATOM      3  C   UNL     1      29.554  29.371  12.427  1.00  0.00     0.004 C 
ATOM      4  C   UNL     1      30.484  29.458  11.216  1.00  0.00     0.009 C 
ATOM      5  C   UNL     1      30.344  28.137  10.446  1.00  0.00     0.021 C 
ATOM      6  C   UNL     1      29.867  27.112  11.520  1.00  0.00    -0.017 C 
ATOM      7  C   UNL     1      29.158  25.895  10.845  1.00  0.00     0.012 C 
ATOM      8  C   UNL     1      28.813  24.820  11.875  1.00  0.00     0.031 C 
ATOM      9  C   UNL     1      30.065  24.329  12.550  1.00  0.00    -0.077 C 
ATOM     10  C   UNL     1      31.079  25.175  12.811  1.00  0.00    -0.027 C 
ATOM     11  C   UNL     1      31.050  26.647  12.466  1.00  0.00     0.035 C 
ATOM     12  C   UNL     1      30.186  22.885  12.953  1.00  0.00     0.039 C 
ENDROOT
BRANCH   5  13
ATOM     13  C   UNL     1      31.573  27.854   9.562  1.00  0.00    -0.077 C 
ATOM     14  C   UNL     1      32.124  26.638   9.385  1.00  0.00     0.008 C 
ATOM     15  C   UNL     1      32.125  28.978   8.717  1.00  0.00     0.039 C 
ENDBRANCH   5  13
TORSDOF 1
ENDMDL
MODEL 4
REMARK VINA RESULT:    -4.328      1.207      3.382
REMARK INTER + INTRA:          -4.932
REMARK INTER:                  -4.645
REMARK INTRA:                  -0.286
REMARK UNBOUND:                -0.351
REMARK SMILES C=C(C)[C@@H]1CC[C@@H](C)[C@]12CC=C(C)CC2
REMARK SMILES IDX 8 1 7 2 6 3 5 4 4 5 9 6 15 7 14 8 12 9 11 10 10 11 13 12
REMARK SMILES IDX 2 13 1 14 3 15
REMARK H PARENT
REMARK Flexibility Score: inf
ROOT
ATOM      1  C   UNL     1      32.125  26.134  13.194  1.00  0.00     0.008 C 
ATOM      2  C   UNL     1      31.689  25.044  12.188  1.00  0.00    -0.007 C 
ATOM      3  C   UNL     1      31.109  25.708  10.929  1.00  0.00     0.004 C 
ATOM      4  C   UNL     1      29.587  25.603  11.034  1.00  0.00     0.009 C 
ATOM      5  C   UNL     1      29.275  24.904  12.365  1.00  0.00     0.021 C 
ATOM      6  C   UNL     1      30.558  24.073  12.675  1.00  0.00    -0.017 C 
ATOM      7  C   UNL     1      30.651  23.751  14.200  1.00  0.00     0.012 C 
ATOM      8  C   UNL     1      31.826  22.820  14.494  1.00  0.00     0.031 C 
ATOM      9  C   UNL     1      31.662  21.526  13.742  1.00  0.00    -0.077 C 
ATOM     10  C   UNL     1      31.117  21.515  12.511  1.00  0.00    -0.027 C 
ATOM     11  C   UNL     1      30.643  22.759  11.795  1.00  0.00     0.035 C 
ATOM     12  C   UNL     1      32.122  20.234  14.358  1.00  0.00     0.039 C 
ENDROOT
BRANCH   5  13
ATOM     13  C   UNL     1      27.881  24.249  12.358  1.00  0.00    -0.077 C 
ATOM     14  C   UNL     1      27.171  23.972  11.248  1.00  0.00     0.008 C 
ATOM     15  C   UNL     1      27.316  23.747  13.666  1.00  0.00     0.039 C 
ENDBRANCH   5  13
TORSDOF 1
ENDMDL
MODEL 5
REMARK VINA RESULT:    -4.259      1.633      3.536
REMARK INTER + INTRA:          -4.859
REMARK INTER:                  -4.539
REMARK INTRA:                  -0.319
REMARK UNBOUND:                -0.351
REMARK SMILES C=C(C)[C@@H]1CC[C@@H](C)[C@]12CC=C(C)CC2
REMARK SMILES IDX 8 1 7 2 6 3 5 4 4 5 9 6 15 7 14 8 12 9 11 10 10 11 13 12
REMARK SMILES IDX 2 13 1 14 3 15
REMARK H PARENT
REMARK Flexibility Score: inf
ROOT
ATOM      1  C   UNL     1      32.110  22.320  11.380  1.00  0.00     0.008 C 
ATOM      2  C   UNL     1      31.092  23.321  10.788  1.00  0.00    -0.007 C 
ATOM      3  C   UNL     1      31.738  24.085   9.622  1.00  0.00     0.004 C 
ATOM      4  C   UNL     1      32.124  25.465  10.156  1.00  0.00     0.009 C 
ATOM      5  C   UNL     1      31.729  25.500  11.639  1.00  0.00     0.021 C 
ATOM      6  C   UNL     1      30.588  24.444  11.759  1.00  0.00    -0.017 C 
ATOM      7  C   UNL     1      30.446  23.950  13.234  1.00  0.00     0.012 C 
ATOM      8  C   UNL     1      29.242  23.024  13.390  1.00  0.00     0.031 C 
ATOM      9  C   UNL     1      27.979  23.747  13.006  1.00  0.00    -0.077 C 
ATOM     10  C   UNL     1      27.982  24.643  12.001  1.00  0.00    -0.027 C 
ATOM     11  C   UNL     1      29.212  24.987  11.192  1.00  0.00     0.035 C 
ATOM     12  C   UNL     1      26.695  23.460  13.736  1.00  0.00     0.039 C 
ENDROOT
BRANCH   5  13
ATOM     13  C   UNL     1      31.542  26.941  12.151  1.00  0.00    -0.077 C 
ATOM     14  C   UNL     1      31.932  27.379  13.362  1.00  0.00     0.008 C 
ATOM     15  C   UNL     1      31.014  27.982  11.191  1.00  0.00     0.039 C 
ENDBRANCH   5  13
TORSDOF 1
ENDMDL
MODEL 6
REMARK VINA RESULT:    -3.419      1.167      4.477
REMARK INTER + INTRA:          -3.970
REMARK INTER:                  -3.714
REMARK INTRA:                  -0.256
REMARK UNBOUND:                -0.351
REMARK SMILES C=C(C)[C@@H]1CC[C@@H](C)[C@]12CC=C(C)CC2
REMARK SMILES IDX 8 1 7 2 6 3 5 4 4 5 9 6 15 7 14 8 12 9 11 10 10 11 13 12
REMARK SMILES IDX 2 13 1 14 3 15
REMARK H PARENT
REMARK Flexibility Score: inf
ROOT
ATOM      1  C   UNL     1      27.216  25.979  12.244  1.00  0.00     0.008 C 
ATOM      2  C   UNL     1      28.228  25.104  11.470  1.00  0.00    -0.007 C 
ATOM      3  C   UNL     1      27.877  23.620  11.660  1.00  0.00     0.004 C 
ATOM      4  C   UNL     1      28.853  23.063  12.697  1.00  0.00     0.009 C 
ATOM      5  C   UNL     1      29.756  24.225  13.134  1.00  0.00     0.021 C 
ATOM      6  C   UNL     1      29.723  25.214  11.929  1.00  0.00    -0.017 C 
ATOM      7  C   UNL     1      30.111  26.656  12.388  1.00  0.00     0.012 C 
ATOM      8  C   UNL     1      30.219  27.602  11.193  1.00  0.00     0.031 C 
ATOM      9  C   UNL     1      31.269  27.108  10.234  1.00  0.00    -0.077 C 
ATOM     10  C   UNL     1      31.446  25.788  10.034  1.00  0.00    -0.027 C 
ATOM     11  C   UNL     1      30.630  24.721  10.728  1.00  0.00     0.035 C 
ATOM     12  C   UNL     1      32.120  28.090   9.478  1.00  0.00     0.039 C 
ENDROOT
BRANCH   5  13
ATOM     13  C   UNL     1      31.090  23.728  13.723  1.00  0.00    -0.077 C 
ATOM     14  C   UNL     1      32.125  24.523  14.052  1.00  0.00     0.008 C 
ATOM     15  C   UNL     1      31.211  22.268  14.094  1.00  0.00     0.039 C 
ENDBRANCH   5  13
TORSDOF 1
ENDMDL
MODEL 7
REMARK VINA RESULT:    -2.933      1.641      4.498
REMARK INTER + INTRA:          -3.456
REMARK INTER:                  -3.375
REMARK INTRA:                  -0.081
REMARK UNBOUND:                -0.351
REMARK SMILES C=C(C)[C@@H]1CC[C@@H](C)[C@]12CC=C(C)CC2
REMARK SMILES IDX 8 1 7 2 6 3 5 4 4 5 9 6 15 7 14 8 12 9 11 10 10 11 13 12
REMARK SMILES IDX 2 13 1 14 3 15
REMARK H PARENT
REMARK Flexibility Score: inf
ROOT
ATOM      1  C   UNL     1      31.869  25.605  11.979  1.00  0.00     0.008 C 
ATOM      2  C   UNL     1      30.984  24.946  13.061  1.00  0.00    -0.007 C 
ATOM      3  C   UNL     1      31.842  24.603  14.290  1.00  0.00     0.004 C 
ATOM      4  C   UNL     1      32.125  23.101  14.228  1.00  0.00     0.009 C 
ATOM      5  C   UNL     1      31.457  22.571  12.951  1.00  0.00     0.021 C 
ATOM      6  C   UNL     1      30.310  23.588  12.664  1.00  0.00    -0.017 C 
ATOM      7  C   UNL     1      29.891  23.537  11.160  1.00  0.00     0.012 C 
ATOM      8  C   UNL     1      28.676  24.424  10.897  1.00  0.00     0.031 C 
ATOM      9  C   UNL     1      27.511  23.966  11.733  1.00  0.00    -0.077 C 
ATOM     10  C   UNL     1      27.706  23.485  12.975  1.00  0.00    -0.027 C 
ATOM     11  C   UNL     1      29.068  23.370  13.622  1.00  0.00     0.035 C 
ATOM     12  C   UNL     1      26.111  24.059  11.189  1.00  0.00     0.039 C 
ENDROOT
BRANCH   5  13
ATOM     13  C   UNL     1      31.182  21.058  13.032  1.00  0.00    -0.077 C 
ATOM     14  C   UNL     1      30.351  20.477  13.919  1.00  0.00     0.008 C 
ATOM     15  C   UNL     1      31.764  20.163  11.963  1.00  0.00     0.039 C 
ENDBRANCH   5  13
TORSDOF 1
ENDMDL
MODEL 8
REMARK VINA RESULT:    -2.594      1.582      4.219
REMARK INTER + INTRA:          -3.097
REMARK INTER:                  -3.194
REMARK INTRA:                   0.097
REMARK UNBOUND:                -0.351
REMARK SMILES C=C(C)[C@@H]1CC[C@@H](C)[C@]12CC=C(C)CC2
REMARK SMILES IDX 8 1 7 2 6 3 5 4 4 5 9 6 15 7 14 8 12 9 11 10 10 11 13 12
REMARK SMILES IDX 2 13 1 14 3 15
REMARK H PARENT
REMARK Flexibility Score: inf
ROOT
ATOM      1  C   UNL     1      30.920  24.308  14.964  1.00  0.00     0.008 C 
ATOM      2  C   UNL     1      30.016  24.031  13.741  1.00  0.00    -0.007 C 
ATOM      3  C   UNL     1      29.549  22.567  13.766  1.00  0.00     0.004 C 
ATOM      4  C   UNL     1      30.408  21.811  12.751  1.00  0.00     0.009 C 
ATOM      5  C   UNL     1      31.394  22.825  12.153  1.00  0.00     0.021 C 
ATOM      6  C   UNL     1      30.689  24.204  12.336  1.00  0.00    -0.017 C 
ATOM      7  C   UNL     1      31.732  25.366  12.303  1.00  0.00     0.012 C 
ATOM      8  C   UNL     1      31.039  26.727  12.339  1.00  0.00     0.031 C 
ATOM      9  C   UNL     1      30.124  26.873  11.153  1.00  0.00    -0.077 C 
ATOM     10  C   UNL     1      29.445  25.813  10.677  1.00  0.00    -0.027 C 
ATOM     11  C   UNL     1      29.533  24.427  11.275  1.00  0.00     0.035 C 
ATOM     12  C   UNL     1      29.949  28.216  10.498  1.00  0.00     0.039 C 
ENDROOT
BRANCH   5  13
ATOM     13  C   UNL     1      31.921  22.373  10.778  1.00  0.00    -0.077 C 
ATOM     14  C   UNL     1      32.104  21.090  10.413  1.00  0.00     0.008 C 
ATOM     15  C   UNL     1      32.117  23.418   9.705  1.00  0.00     0.039 C 
ENDBRANCH   5  13
TORSDOF 1
ENDMDL
