MODEL 1
REMARK VINA RESULT:    -2.503      0.000      0.000
REMARK INTER + INTRA:          -2.503
REMARK INTER:                  -2.503
REMARK INTRA:                   0.000
REMARK UNBOUND:                 0.000
REMARK SMILES CC(=O)[O-]
REMARK SMILES IDX 1 1 2 2 3 3 4 4
REMARK H PARENT
REMARK Flexibility Score: inf
ROOT
ATOM      1  C   UNL     1     -20.686  26.207  -0.446  1.00  0.00     0.063 C 
ATOM      2  C   UNL     1     -20.217  25.162  -1.401  1.00  0.00     0.038 C 
ATOM      3  O   UNL     1     -20.042  25.448  -2.615  1.00  0.00    -0.550 OA
ATOM      4  O   UNL     1     -19.921  23.884  -0.945  1.00  0.00    -0.550 OA
ENDROOT
TORSDOF 0
ENDMDL
MODEL 2
REMARK VINA RESULT:    -2.281     18.063     18.137
REMARK INTER + INTRA:          -2.281
REMARK INTER:                  -2.281
REMARK INTRA:                   0.000
REMARK UNBOUND:                 0.000
REMARK SMILES CC(=O)[O-]
REMARK SMILES IDX 1 1 2 2 3 3 4 4
REMARK H PARENT
REMARK Flexibility Score: inf
ROOT
ATOM      1  C   UNL     1      -5.397  21.737 -11.415  1.00  0.00     0.063 C 
ATOM      2  C   UNL     1      -6.168  20.514 -11.781  1.00  0.00     0.038 C 
ATOM      3  O   UNL     1      -6.776  20.457 -12.882  1.00  0.00    -0.550 OA
ATOM      4  O   UNL     1      -6.174  19.415 -10.932  1.00  0.00    -0.550 OA
ENDROOT
TORSDOF 0
ENDMDL
MODEL 3
REMARK VINA RESULT:    -2.220     18.126     18.218
REMARK INTER + INTRA:          -2.220
REMARK INTER:                  -2.220
REMARK INTRA:                   0.000
REMARK UNBOUND:                 0.000
REMARK SMILES CC(=O)[O-]
REMARK SMILES IDX 1 1 2 2 3 3 4 4
REMARK H PARENT
REMARK Flexibility Score: inf
ROOT
ATOM      1  C   UNL     1      -6.035  19.468 -11.029  1.00  0.00     0.063 C 
ATOM      2  C   UNL     1      -6.170  20.696 -11.864  1.00  0.00     0.038 C 
ATOM      3  O   UNL     1      -5.675  21.784 -11.471  1.00  0.00    -0.550 OA
ATOM      4  O   UNL     1      -6.799  20.631 -13.101  1.00  0.00    -0.550 OA
ENDROOT
TORSDOF 0
ENDMDL
MODEL 4
REMARK VINA RESULT:    -2.035     19.906     20.055
REMARK INTER + INTRA:          -2.035
REMARK INTER:                  -2.035
REMARK INTRA:                   0.000
REMARK UNBOUND:                 0.000
REMARK SMILES CC(=O)[O-]
REMARK SMILES IDX 1 1 2 2 3 3 4 4
REMARK H PARENT
REMARK Flexibility Score: inf
ROOT
ATOM      1  C   UNL     1     -17.456  33.649 -19.452  1.00  0.00     0.063 C 
ATOM      2  C   UNL     1     -16.112  33.017 -19.326  1.00  0.00     0.038 C 
ATOM      3  O   UNL     1     -15.114  33.713 -19.003  1.00  0.00    -0.550 OA
ATOM      4  O   UNL     1     -15.965  31.648 -19.514  1.00  0.00    -0.550 OA
ENDROOT
TORSDOF 0
ENDMDL
MODEL 5
REMARK VINA RESULT:    -2.003     19.920     20.232
REMARK INTER + INTRA:          -2.003
REMARK INTER:                  -2.003
REMARK INTRA:                   0.000
REMARK UNBOUND:                 0.000
REMARK SMILES CC(=O)[O-]
REMARK SMILES IDX 1 1 2 2 3 3 4 4
REMARK H PARENT
REMARK Flexibility Score: inf
ROOT
ATOM      1  C   UNL     1     -15.025  33.745 -18.775  1.00  0.00     0.063 C 
ATOM      2  C   UNL     1     -16.021  32.897 -19.490  1.00  0.00     0.038 C 
ATOM      3  O   UNL     1     -15.906  31.644 -19.481  1.00  0.00    -0.550 OA
ATOM      4  O   UNL     1     -17.108  33.485 -20.124  1.00  0.00    -0.550 OA
ENDROOT
TORSDOF 0
ENDMDL
MODEL 6
REMARK VINA RESULT:    -1.983      1.407      2.107
REMARK INTER + INTRA:          -1.983
REMARK INTER:                  -1.983
REMARK INTRA:                   0.000
REMARK UNBOUND:                 0.000
REMARK SMILES CC(=O)[O-]
REMARK SMILES IDX 1 1 2 2 3 3 4 4
REMARK H PARENT
REMARK Flexibility Score: inf
ROOT
ATOM      1  C   UNL     1     -20.028  23.681  -0.744  1.00  0.00     0.063 C 
ATOM      2  C   UNL     1     -20.273  25.091  -1.162  1.00  0.00     0.038 C 
ATOM      3  O   UNL     1     -20.663  25.941  -0.319  1.00  0.00    -0.550 OA
ATOM      4  O   UNL     1     -20.022  25.483  -2.471  1.00  0.00    -0.550 OA
ENDROOT
TORSDOF 0
ENDMDL
MODEL 7
REMARK VINA RESULT:    -1.859     18.095     18.481
REMARK INTER + INTRA:          -1.859
REMARK INTER:                  -1.859
REMARK INTRA:                   0.000
REMARK UNBOUND:                 0.000
REMARK SMILES CC(=O)[O-]
REMARK SMILES IDX 1 1 2 2 3 3 4 4
REMARK H PARENT
REMARK Flexibility Score: inf
ROOT
ATOM      1  C   UNL     1      -6.372  21.023 -11.830  1.00  0.00     0.063 C 
ATOM      2  C   UNL     1      -5.538  19.983 -11.161  1.00  0.00     0.038 C 
ATOM      3  O   UNL     1      -6.013  18.839 -10.941  1.00  0.00    -0.550 OA
ATOM      4  O   UNL     1      -4.218  20.258 -10.827  1.00  0.00    -0.550 OA
ENDROOT
TORSDOF 0
ENDMDL
MODEL 8
REMARK VINA RESULT:    -1.785     21.060     21.417
REMARK INTER + INTRA:          -1.785
REMARK INTER:                  -1.785
REMARK INTRA:                   0.000
REMARK UNBOUND:                 0.000
REMARK SMILES CC(=O)[O-]
REMARK SMILES IDX 1 1 2 2 3 3 4 4
REMARK H PARENT
REMARK Flexibility Score: inf
ROOT
ATOM      1  C   UNL     1      -2.944  14.051 -10.150  1.00  0.00     0.063 C 
ATOM      2  C   UNL     1      -3.698  15.296 -10.476  1.00  0.00     0.038 C 
ATOM      3  O   UNL     1      -4.837  15.224 -11.007  1.00  0.00    -0.550 OA
ATOM      4  O   UNL     1      -3.167  16.537 -10.147  1.00  0.00    -0.550 OA
ENDROOT
TORSDOF 0
ENDMDL
MODEL 9
REMARK VINA RESULT:    -1.774     19.850     20.187
REMARK INTER + INTRA:          -1.774
REMARK INTER:                  -1.774
REMARK INTRA:                   0.000
REMARK UNBOUND:                 0.000
REMARK SMILES CC(=O)[O-]
REMARK SMILES IDX 1 1 2 2 3 3 4 4
REMARK H PARENT
REMARK Flexibility Score: inf
ROOT
ATOM      1  C   UNL     1     -15.770  32.786 -20.008  1.00  0.00     0.063 C 
ATOM      2  C   UNL     1     -17.009  33.328 -19.381  1.00  0.00     0.038 C 
ATOM      3  O   UNL     1     -16.929  34.122 -18.407  1.00  0.00    -0.550 OA
ATOM      4  O   UNL     1     -18.254  33.001 -19.903  1.00  0.00    -0.550 OA
ENDROOT
TORSDOF 0
ENDMDL
