MODEL 1
REMARK VINA RESULT:    -2.468      0.000      0.000
REMARK INTER + INTRA:          -3.373
REMARK INTER:                  -3.117
REMARK INTRA:                  -0.256
REMARK UNBOUND:                -0.256
REMARK SMILES CSCC[C@@H]([NH3+])C(=O)[O-]
REMARK SMILES IDX 4 1 5 2 6 3 7 7 8 8 9 9 3 10 2 11 1 12
REMARK H PARENT 6 4 6 5 6 6
REMARK Flexibility Score: inf
ROOT
ATOM      1  C   UNL     1       1.141 -39.209  -4.756  1.00  0.00     0.082 C 
ENDROOT
BRANCH   1   2
ATOM      2  C   UNL     1       1.402 -40.369  -5.743  1.00  0.00     0.228 C 
BRANCH   2   3
ATOM      3  N   UNL     1       0.616 -40.223  -6.976  1.00  0.00    -0.350 N 
ATOM      4  H   UNL     1       0.784 -41.043  -7.605  1.00  0.00     0.345 HD
ATOM      5  H   UNL     1       0.877 -39.345  -7.482  1.00  0.00     0.345 HD
ATOM      6  H   UNL     1      -0.405 -40.203  -6.752  1.00  0.00     0.345 HD
ENDBRANCH   2   3
BRANCH   2   7
ATOM      7  C   UNL     1       2.870 -40.435  -6.069  1.00  0.00     0.099 C 
ATOM      8  O   UNL     1       3.395 -41.517  -6.443  1.00  0.00    -0.544 OA
ATOM      9  O   UNL     1       3.654 -39.290  -5.979  1.00  0.00    -0.544 OA
ENDBRANCH   2   7
ENDBRANCH   1   2
BRANCH   1  10
ATOM     10  C   UNL     1       0.239 -38.122  -5.349  1.00  0.00     0.076 C 
BRANCH  10  11
ATOM     11  S   UNL     1       1.163 -36.553  -5.472  1.00  0.00    -0.165 SA
ATOM     12  C   UNL     1       1.477 -36.706  -7.259  1.00  0.00     0.085 C 
ENDBRANCH  10  11
ENDBRANCH   1  10
TORSDOF 5
ENDMDL
MODEL 2
REMARK VINA RESULT:    -2.416      8.461      9.031
REMARK INTER + INTRA:          -3.308
REMARK INTER:                  -3.125
REMARK INTRA:                  -0.183
REMARK UNBOUND:                -0.256
REMARK SMILES CSCC[C@@H]([NH3+])C(=O)[O-]
REMARK SMILES IDX 4 1 5 2 6 3 7 7 8 8 9 9 3 10 2 11 1 12
REMARK H PARENT 6 4 6 5 6 6
REMARK Flexibility Score: inf
ROOT
ATOM      1  C   UNL     1      -6.629 -39.176  -1.576  1.00  0.00     0.082 C 
ENDROOT
BRANCH   1   2
ATOM      2  C   UNL     1      -6.421 -40.075  -2.815  1.00  0.00     0.228 C 
BRANCH   2   3
ATOM      3  N   UNL     1      -5.645 -39.393  -3.859  1.00  0.00    -0.350 N 
ATOM      4  H   UNL     1      -6.248 -39.223  -4.697  1.00  0.00     0.345 HD
ATOM      5  H   UNL     1      -4.819 -39.970  -4.146  1.00  0.00     0.345 HD
ATOM      6  H   UNL     1      -5.316 -38.463  -3.515  1.00  0.00     0.345 HD
ENDBRANCH   2   3
BRANCH   2   7
ATOM      7  C   UNL     1      -5.731 -41.349  -2.404  1.00  0.00     0.099 C 
ATOM      8  O   UNL     1      -5.247 -42.123  -3.273  1.00  0.00    -0.544 OA
ATOM      9  O   UNL     1      -5.606 -41.669  -1.057  1.00  0.00    -0.544 OA
ENDBRANCH   2   7
ENDBRANCH   1   2
BRANCH   1  10
ATOM     10  C   UNL     1      -5.585 -38.061  -1.474  1.00  0.00     0.076 C 
BRANCH  10  11
ATOM     11  S   UNL     1      -4.978 -37.938   0.242  1.00  0.00    -0.165 SA
ATOM     12  C   UNL     1      -6.383 -38.847   0.961  1.00  0.00     0.085 C 
ENDBRANCH  10  11
ENDBRANCH   1  10
TORSDOF 5
ENDMDL
MODEL 3
REMARK VINA RESULT:    -2.397      2.275      2.671
REMARK INTER + INTRA:          -3.283
REMARK INTER:                  -3.171
REMARK INTRA:                  -0.112
REMARK UNBOUND:                -0.256
REMARK SMILES CSCC[C@@H]([NH3+])C(=O)[O-]
REMARK SMILES IDX 4 1 5 2 6 3 7 7 8 8 9 9 3 10 2 11 1 12
REMARK H PARENT 6 4 6 5 6 6
REMARK Flexibility Score: inf
ROOT
ATOM      1  C   UNL     1       1.199 -39.044  -4.472  1.00  0.00     0.082 C 
ENDROOT
BRANCH   1   2
ATOM      2  C   UNL     1       2.526 -38.276  -4.281  1.00  0.00     0.228 C 
BRANCH   2   3
ATOM      3  N   UNL     1       2.750 -37.914  -2.874  1.00  0.00    -0.350 N 
ATOM      4  H   UNL     1       3.550 -38.466  -2.487  1.00  0.00     0.345 HD
ATOM      5  H   UNL     1       1.895 -38.105  -2.300  1.00  0.00     0.345 HD
ATOM      6  H   UNL     1       3.000 -36.902  -2.797  1.00  0.00     0.345 HD
ENDBRANCH   2   3
BRANCH   2   7
ATOM      7  C   UNL     1       3.671 -39.110  -4.790  1.00  0.00     0.099 C 
ATOM      8  O   UNL     1       3.625 -39.626  -5.938  1.00  0.00    -0.544 OA
ATOM      9  O   UNL     1       4.799 -39.300  -3.999  1.00  0.00    -0.544 OA
ENDBRANCH   2   7
ENDBRANCH   1   2
BRANCH   1  10
ATOM     10  C   UNL     1       0.366 -38.500  -5.636  1.00  0.00     0.076 C 
BRANCH  10  11
ATOM     11  S   UNL     1       0.174 -36.694  -5.467  1.00  0.00    -0.165 SA
ATOM     12  C   UNL     1      -1.486 -36.789  -4.725  1.00  0.00     0.085 C 
ENDBRANCH  10  11
ENDBRANCH   1  10
TORSDOF 5
ENDMDL
MODEL 4
REMARK VINA RESULT:    -2.396      2.714      2.873
REMARK INTER + INTRA:          -3.282
REMARK INTER:                  -3.055
REMARK INTRA:                  -0.228
REMARK UNBOUND:                -0.256
REMARK SMILES CSCC[C@@H]([NH3+])C(=O)[O-]
REMARK SMILES IDX 4 1 5 2 6 3 7 7 8 8 9 9 3 10 2 11 1 12
REMARK H PARENT 6 4 6 5 6 6
REMARK Flexibility Score: inf
ROOT
ATOM      1  C   UNL     1       1.295 -38.854  -4.317  1.00  0.00     0.082 C 
ENDROOT
BRANCH   1   2
ATOM      2  C   UNL     1       2.492 -37.890  -4.159  1.00  0.00     0.228 C 
BRANCH   2   3
ATOM      3  N   UNL     1       2.917 -37.774  -2.757  1.00  0.00    -0.350 N 
ATOM      4  H   UNL     1       2.513 -38.560  -2.196  1.00  0.00     0.345 HD
ATOM      5  H   UNL     1       2.601 -36.864  -2.347  1.00  0.00     0.345 HD
ATOM      6  H   UNL     1       3.958 -37.842  -2.690  1.00  0.00     0.345 HD
ENDBRANCH   2   3
BRANCH   2   7
ATOM      7  C   UNL     1       3.638 -38.364  -5.012  1.00  0.00     0.099 C 
ATOM      8  O   UNL     1       4.045 -39.554  -4.933  1.00  0.00    -0.544 OA
ATOM      9  O   UNL     1       4.243 -37.492  -5.911  1.00  0.00    -0.544 OA
ENDBRANCH   2   7
ENDBRANCH   1   2
BRANCH   1  10
ATOM     10  C   UNL     1       0.472 -38.572  -5.578  1.00  0.00     0.076 C 
BRANCH  10  11
ATOM     11  S   UNL     1       0.704 -39.923  -6.782  1.00  0.00    -0.165 SA
ATOM     12  C   UNL     1       1.517 -38.873  -8.028  1.00  0.00     0.085 C 
ENDBRANCH  10  11
ENDBRANCH   1  10
TORSDOF 5
ENDMDL
MODEL 5
REMARK VINA RESULT:    -2.375      2.324      2.662
REMARK INTER + INTRA:          -3.255
REMARK INTER:                  -2.972
REMARK INTRA:                  -0.283
REMARK UNBOUND:                -0.256
REMARK SMILES CSCC[C@@H]([NH3+])C(=O)[O-]
REMARK SMILES IDX 4 1 5 2 6 3 7 7 8 8 9 9 3 10 2 11 1 12
REMARK H PARENT 6 4 6 5 6 6
REMARK Flexibility Score: inf
ROOT
ATOM      1  C   UNL     1       1.312 -38.813  -4.219  1.00  0.00     0.082 C 
ENDROOT
BRANCH   1   2
ATOM      2  C   UNL     1       0.592 -38.815  -5.586  1.00  0.00     0.228 C 
BRANCH   2   3
ATOM      3  N   UNL     1       0.739 -37.529  -6.281  1.00  0.00    -0.350 N 
ATOM      4  H   UNL     1       1.696 -37.456  -6.699  1.00  0.00     0.345 HD
ATOM      5  H   UNL     1       0.593 -36.730  -5.620  1.00  0.00     0.345 HD
ATOM      6  H   UNL     1       0.049 -37.461  -7.063  1.00  0.00     0.345 HD
ENDBRANCH   2   3
BRANCH   2   7
ATOM      7  C   UNL     1       1.132 -39.931  -6.440  1.00  0.00     0.099 C 
ATOM      8  O   UNL     1       0.989 -39.906  -7.691  1.00  0.00    -0.544 OA
ATOM      9  O   UNL     1       1.813 -40.990  -5.850  1.00  0.00    -0.544 OA
ENDBRANCH   2   7
ENDBRANCH   1   2
BRANCH   1  10
ATOM     10  C   UNL     1       2.436 -37.775  -4.146  1.00  0.00     0.076 C 
BRANCH  10  11
ATOM     11  S   UNL     1       4.055 -38.613  -4.224  1.00  0.00    -0.165 SA
ATOM     12  C   UNL     1       4.388 -38.133  -5.949  1.00  0.00     0.085 C 
ENDBRANCH  10  11
ENDBRANCH   1  10
TORSDOF 5
ENDMDL
MODEL 6
REMARK VINA RESULT:    -2.374      2.518      3.075
REMARK INTER + INTRA:          -3.254
REMARK INTER:                  -3.033
REMARK INTRA:                  -0.221
REMARK UNBOUND:                -0.256
REMARK SMILES CSCC[C@@H]([NH3+])C(=O)[O-]
REMARK SMILES IDX 4 1 5 2 6 3 7 7 8 8 9 9 3 10 2 11 1 12
REMARK H PARENT 6 4 6 5 6 6
REMARK Flexibility Score: inf
ROOT
ATOM      1  C   UNL     1       3.785 -39.743  -5.232  1.00  0.00     0.082 C 
ENDROOT
BRANCH   1   2
ATOM      2  C   UNL     1       2.957 -40.619  -6.197  1.00  0.00     0.228 C 
BRANCH   2   3
ATOM      3  N   UNL     1       3.037 -42.044  -5.846  1.00  0.00    -0.350 N 
ATOM      4  H   UNL     1       3.093 -42.151  -4.806  1.00  0.00     0.345 HD
ATOM      5  H   UNL     1       3.880 -42.487  -6.280  1.00  0.00     0.345 HD
ATOM      6  H   UNL     1       2.177 -42.544  -6.168  1.00  0.00     0.345 HD
ENDBRANCH   2   3
BRANCH   2   7
ATOM      7  C   UNL     1       1.522 -40.163  -6.189  1.00  0.00     0.099 C 
ATOM      8  O   UNL     1       0.966 -39.819  -5.113  1.00  0.00    -0.544 OA
ATOM      9  O   UNL     1       0.806 -40.099  -7.380  1.00  0.00    -0.544 OA
ENDBRANCH   2   7
ENDBRANCH   1   2
BRANCH   1  10
ATOM     10  C   UNL     1       4.326 -38.476  -5.902  1.00  0.00     0.076 C 
BRANCH  10  11
ATOM     11  S   UNL     1       3.496 -37.007  -5.207  1.00  0.00    -0.165 SA
ATOM     12  C   UNL     1       3.356 -37.696  -3.528  1.00  0.00     0.085 C 
ENDBRANCH  10  11
ENDBRANCH   1  10
TORSDOF 5
ENDMDL
MODEL 7
REMARK VINA RESULT:    -2.299      1.597      1.971
REMARK INTER + INTRA:          -3.159
REMARK INTER:                  -3.033
REMARK INTRA:                  -0.126
REMARK UNBOUND:                -0.256
REMARK SMILES CSCC[C@@H]([NH3+])C(=O)[O-]
REMARK SMILES IDX 4 1 5 2 6 3 7 7 8 8 9 9 3 10 2 11 1 12
REMARK H PARENT 6 4 6 5 6 6
REMARK Flexibility Score: inf
ROOT
ATOM      1  C   UNL     1       0.987 -38.587  -5.573  1.00  0.00     0.082 C 
ENDROOT
BRANCH   1   2
ATOM      2  C   UNL     1       1.143 -40.037  -6.083  1.00  0.00     0.228 C 
BRANCH   2   3
ATOM      3  N   UNL     1       0.249 -40.316  -7.216  1.00  0.00    -0.350 N 
ATOM      4  H   UNL     1      -0.167 -41.271  -7.114  1.00  0.00     0.345 HD
ATOM      5  H   UNL     1       0.770 -40.266  -8.122  1.00  0.00     0.345 HD
ATOM      6  H   UNL     1      -0.539 -39.630  -7.230  1.00  0.00     0.345 HD
ENDBRANCH   2   3
BRANCH   2   7
ATOM      7  C   UNL     1       2.575 -40.282  -6.480  1.00  0.00     0.099 C 
ATOM      8  O   UNL     1       3.141 -41.370  -6.193  1.00  0.00    -0.544 OA
ATOM      9  O   UNL     1       3.275 -39.311  -7.188  1.00  0.00    -0.544 OA
ENDBRANCH   2   7
ENDBRANCH   1   2
BRANCH   1  10
ATOM     10  C   UNL     1       1.758 -38.332  -4.274  1.00  0.00     0.076 C 
BRANCH  10  11
ATOM     11  S   UNL     1       2.764 -36.819  -4.441  1.00  0.00    -0.165 SA
ATOM     12  C   UNL     1       3.601 -37.021  -2.837  1.00  0.00     0.085 C 
ENDBRANCH  10  11
ENDBRANCH   1  10
TORSDOF 5
ENDMDL
MODEL 8
REMARK VINA RESULT:    -2.251      8.886      9.428
REMARK INTER + INTRA:          -3.099
REMARK INTER:                  -2.965
REMARK INTRA:                  -0.134
REMARK UNBOUND:                -0.256
REMARK SMILES CSCC[C@@H]([NH3+])C(=O)[O-]
REMARK SMILES IDX 4 1 5 2 6 3 7 7 8 8 9 9 3 10 2 11 1 12
REMARK H PARENT 6 4 6 5 6 6
REMARK Flexibility Score: inf
ROOT
ATOM      1  C   UNL     1      -5.790 -39.384  -3.285  1.00  0.00     0.082 C 
ENDROOT
BRANCH   1   2
ATOM      2  C   UNL     1      -6.155 -40.701  -2.565  1.00  0.00     0.228 C 
BRANCH   2   3
ATOM      3  N   UNL     1      -5.403 -41.843  -3.103  1.00  0.00    -0.350 N 
ATOM      4  H   UNL     1      -5.028 -42.424  -2.317  1.00  0.00     0.345 HD
ATOM      5  H   UNL     1      -4.606 -41.517  -3.697  1.00  0.00     0.345 HD
ATOM      6  H   UNL     1      -6.033 -42.453  -3.672  1.00  0.00     0.345 HD
ENDBRANCH   2   3
BRANCH   2   7
ATOM      7  C   UNL     1      -5.897 -40.558  -1.088  1.00  0.00     0.099 C 
ATOM      8  O   UNL     1      -5.762 -41.578  -0.361  1.00  0.00    -0.544 OA
ATOM      9  O   UNL     1      -5.784 -39.293  -0.522  1.00  0.00    -0.544 OA
ENDBRANCH   2   7
ENDBRANCH   1   2
BRANCH   1  10
ATOM     10  C   UNL     1      -6.978 -38.770  -4.032  1.00  0.00     0.076 C 
BRANCH  10  11
ATOM     11  S   UNL     1      -8.482 -39.751  -3.709  1.00  0.00    -0.165 SA
ATOM     12  C   UNL     1      -9.286 -39.313  -5.283  1.00  0.00     0.085 C 
ENDBRANCH  10  11
ENDBRANCH   1  10
TORSDOF 5
ENDMDL
MODEL 9
REMARK VINA RESULT:    -2.237      8.416      8.636
REMARK INTER + INTRA:          -3.082
REMARK INTER:                  -2.960
REMARK INTRA:                  -0.122
REMARK UNBOUND:                -0.256
REMARK SMILES CSCC[C@@H]([NH3+])C(=O)[O-]
REMARK SMILES IDX 4 1 5 2 6 3 7 7 8 8 9 9 3 10 2 11 1 12
REMARK H PARENT 6 4 6 5 6 6
REMARK Flexibility Score: inf
ROOT
ATOM      1  C   UNL     1      -5.807 -38.894  -1.514  1.00  0.00     0.082 C 
ENDROOT
BRANCH   1   2
ATOM      2  C   UNL     1      -6.107 -39.850  -2.690  1.00  0.00     0.228 C 
BRANCH   2   3
ATOM      3  N   UNL     1      -5.457 -39.409  -3.932  1.00  0.00    -0.350 N 
ATOM      4  H   UNL     1      -5.194 -38.399  -3.857  1.00  0.00     0.345 HD
ATOM      5  H   UNL     1      -6.096 -39.535  -4.751  1.00  0.00     0.345 HD
ATOM      6  H   UNL     1      -4.578 -39.952  -4.091  1.00  0.00     0.345 HD
ENDBRANCH   2   3
BRANCH   2   7
ATOM      7  C   UNL     1      -5.658 -41.243  -2.335  1.00  0.00     0.099 C 
ATOM      8  O   UNL     1      -5.652 -41.627  -1.136  1.00  0.00    -0.544 OA
ATOM      9  O   UNL     1      -5.265 -42.123  -3.338  1.00  0.00    -0.544 OA
ENDBRANCH   2   7
ENDBRANCH   1   2
BRANCH   1  10
ATOM     10  C   UNL     1      -5.597 -37.447  -1.970  1.00  0.00     0.076 C 
BRANCH  10  11
ATOM     11  S   UNL     1      -7.213 -36.634  -2.210  1.00  0.00    -0.165 SA
ATOM     12  C   UNL     1      -6.834 -36.041  -3.889  1.00  0.00     0.085 C 
ENDBRANCH  10  11
ENDBRANCH   1  10
TORSDOF 5
ENDMDL
