MODEL 1
REMARK VINA RESULT:    -7.212      0.000      0.000
REMARK INTER + INTRA:          -7.212
REMARK INTER:                  -7.212
REMARK INTRA:                   0.000
REMARK UNBOUND:                 0.000
REMARK SMILES C[NH+]1CCN(C2=[NH+]c3ccccc3Oc3ccc(Cl)cc32)CC1
REMARK SMILES IDX 7 1 6 2 21 3 5 4 8 5 9 6 13 7 10 8 12 9 14 10 11 11 15 12
REMARK SMILES IDX 16 13 17 14 18 15 20 16 19 17 4 18 22 19 3 20 23 21 2 22
REMARK SMILES IDX 1 23
REMARK H PARENT 7 24 2 25
REMARK Flexibility Score: inf
ROOT
ATOM      1  N   UNL     1      -8.804 -15.458  29.222  1.00  0.00    -0.237 N 
ATOM      2  C   UNL     1      -9.480 -16.221  28.404  1.00  0.00     0.286 C 
ATOM      3  C   UNL     1     -10.012 -17.559  28.778  1.00  0.00     0.108 A 
ATOM      4  N   UNL     1      -9.698 -15.752  27.060  1.00  0.00    -0.250 N 
ATOM      5  C   UNL     1      -8.460 -15.730  30.592  1.00  0.00     0.168 A 
ATOM      6  C   UNL     1      -7.255 -15.205  31.090  1.00  0.00     0.056 A 
ATOM      7  C   UNL     1      -9.368 -16.325  31.492  1.00  0.00     0.173 A 
ATOM      8  C   UNL     1      -6.951 -15.279  32.451  1.00  0.00     0.005 A 
ATOM      9  C   UNL     1      -9.069 -16.363  32.862  1.00  0.00     0.052 A 
ATOM     10  O   UNL     1     -10.567 -16.891  31.071  1.00  0.00    -0.452 OA
ATOM     11  C   UNL     1      -7.862 -15.851  33.338  1.00  0.00     0.004 A 
ATOM     12  C   UNL     1     -10.624 -17.805  30.023  1.00  0.00     0.143 A 
ATOM     13  C   UNL     1     -11.303 -19.010  30.243  1.00  0.00     0.049 A 
ATOM     14  C   UNL     1     -11.330 -20.000  29.260  1.00  0.00     0.024 A 
ATOM     15  C   UNL     1     -10.683 -19.787  28.043  1.00  0.00     0.042 A 
ATOM     16  C   UNL     1     -10.034 -18.573  27.800  1.00  0.00     0.041 A 
ATOM     17  Cl  UNL     1     -10.708 -21.032  26.807  1.00  0.00    -0.084 Cl
ATOM     18  C   UNL     1     -11.044 -15.757  26.482  1.00  0.00     0.298 C 
ATOM     19  C   UNL     1      -8.562 -15.527  26.163  1.00  0.00     0.298 C 
ATOM     20  C   UNL     1     -11.233 -14.516  25.604  1.00  0.00     0.308 C 
ATOM     21  C   UNL     1      -8.826 -14.291  25.297  1.00  0.00     0.308 C 
ATOM     22  N   UNL     1     -10.137 -14.392  24.618  1.00  0.00    -0.331 N 
ATOM     23  C   UNL     1     -10.356 -13.211  23.766  1.00  0.00     0.332 C 
ATOM     24  H   UNL     1      -8.440 -14.555  28.840  1.00  0.00     0.312 HD
ATOM     25  H   UNL     1     -10.137 -15.238  23.997  1.00  0.00     0.348 HD
ENDROOT
TORSDOF 0
ENDMDL
MODEL 2
REMARK VINA RESULT:    -6.993      4.318      6.253
REMARK INTER + INTRA:          -6.993
REMARK INTER:                  -6.993
REMARK INTRA:                   0.000
REMARK UNBOUND:                 0.000
REMARK SMILES C[NH+]1CCN(C2=[NH+]c3ccccc3Oc3ccc(Cl)cc32)CC1
REMARK SMILES IDX 7 1 6 2 21 3 5 4 8 5 9 6 13 7 10 8 12 9 14 10 11 11 15 12
REMARK SMILES IDX 16 13 17 14 18 15 20 16 19 17 4 18 22 19 3 20 23 21 2 22
REMARK SMILES IDX 1 23
REMARK H PARENT 7 24 2 25
REMARK Flexibility Score: inf
ROOT
ATOM      1  N   UNL     1      -5.815 -14.134  33.534  1.00  0.00    -0.237 N 
ATOM      2  C   UNL     1      -5.893 -14.767  32.394  1.00  0.00     0.286 C 
ATOM      3  C   UNL     1      -7.160 -15.328  31.851  1.00  0.00     0.108 A 
ATOM      4  N   UNL     1      -4.684 -14.956  31.635  1.00  0.00    -0.250 N 
ATOM      5  C   UNL     1      -6.883 -13.847  34.454  1.00  0.00     0.168 A 
ATOM      6  C   UNL     1      -6.581 -13.794  35.826  1.00  0.00     0.056 A 
ATOM      7  C   UNL     1      -8.158 -13.429  34.020  1.00  0.00     0.173 A 
ATOM      8  C   UNL     1      -7.527 -13.346  36.750  1.00  0.00     0.005 A 
ATOM      9  C   UNL     1      -9.089 -12.948  34.952  1.00  0.00     0.052 A 
ATOM     10  O   UNL     1      -8.540 -13.480  32.684  1.00  0.00    -0.452 OA
ATOM     11  C   UNL     1      -8.778 -12.915  36.311  1.00  0.00     0.004 A 
ATOM     12  C   UNL     1      -8.382 -14.628  31.913  1.00  0.00     0.143 A 
ATOM     13  C   UNL     1      -9.492 -15.094  31.198  1.00  0.00     0.049 A 
ATOM     14  C   UNL     1      -9.421 -16.281  30.470  1.00  0.00     0.024 A 
ATOM     15  C   UNL     1      -8.231 -17.009  30.444  1.00  0.00     0.042 A 
ATOM     16  C   UNL     1      -7.107 -16.534  31.124  1.00  0.00     0.041 A 
ATOM     17  Cl  UNL     1      -8.139 -18.508  29.535  1.00  0.00    -0.084 Cl
ATOM     18  C   UNL     1      -4.636 -14.595  30.215  1.00  0.00     0.298 C 
ATOM     19  C   UNL     1      -3.585 -15.755  32.183  1.00  0.00     0.298 C 
ATOM     20  C   UNL     1      -3.263 -14.003  29.881  1.00  0.00     0.308 C 
ATOM     21  C   UNL     1      -2.245 -15.126  31.789  1.00  0.00     0.308 C 
ATOM     22  N   UNL     1      -2.175 -14.901  30.328  1.00  0.00    -0.331 N 
ATOM     23  C   UNL     1      -0.868 -14.328  29.968  1.00  0.00     0.332 C 
ATOM     24  H   UNL     1      -4.865 -13.820  33.840  1.00  0.00     0.312 HD
ATOM     25  H   UNL     1      -2.266 -15.822  29.835  1.00  0.00     0.348 HD
ENDROOT
TORSDOF 0
ENDMDL
MODEL 3
REMARK VINA RESULT:    -6.509      2.321      5.564
REMARK INTER + INTRA:          -6.509
REMARK INTER:                  -6.509
REMARK INTRA:                   0.000
REMARK UNBOUND:                 0.000
REMARK SMILES C[NH+]1CCN(C2=[NH+]c3ccccc3Oc3ccc(Cl)cc32)CC1
REMARK SMILES IDX 7 1 6 2 21 3 5 4 8 5 9 6 13 7 10 8 12 9 14 10 11 11 15 12
REMARK SMILES IDX 16 13 17 14 18 15 20 16 19 17 4 18 22 19 3 20 23 21 2 22
REMARK SMILES IDX 1 23
REMARK H PARENT 7 24 2 25
REMARK Flexibility Score: inf
ROOT
ATOM      1  N   UNL     1      -9.119 -15.214  29.208  1.00  0.00    -0.237 N 
ATOM      2  C   UNL     1      -8.872 -16.284  29.917  1.00  0.00     0.286 C 
ATOM      3  C   UNL     1      -9.744 -17.490  29.917  1.00  0.00     0.108 A 
ATOM      4  N   UNL     1      -7.709 -16.285  30.766  1.00  0.00    -0.250 N 
ATOM      5  C   UNL     1     -10.221 -14.992  28.312  1.00  0.00     0.168 A 
ATOM      6  C   UNL     1     -10.708 -13.680  28.171  1.00  0.00     0.056 A 
ATOM      7  C   UNL     1     -10.692 -15.990  27.435  1.00  0.00     0.173 A 
ATOM      8  C   UNL     1     -11.650 -13.368  27.189  1.00  0.00     0.005 A 
ATOM      9  C   UNL     1     -11.612 -15.660  26.430  1.00  0.00     0.052 A 
ATOM     10  O   UNL     1     -10.280 -17.315  27.530  1.00  0.00    -0.452 OA
ATOM     11  C   UNL     1     -12.096 -14.356  26.313  1.00  0.00     0.004 A 
ATOM     12  C   UNL     1     -10.305 -18.012  28.734  1.00  0.00     0.143 A 
ATOM     13  C   UNL     1     -10.930 -19.266  28.751  1.00  0.00     0.049 A 
ATOM     14  C   UNL     1     -11.059 -19.979  29.943  1.00  0.00     0.024 A 
ATOM     15  C   UNL     1     -10.552 -19.447  31.129  1.00  0.00     0.042 A 
ATOM     16  C   UNL     1      -9.894 -18.214  31.115  1.00  0.00     0.041 A 
ATOM     17  Cl  UNL     1     -10.718 -20.338  32.631  1.00  0.00    -0.084 Cl
ATOM     18  C   UNL     1      -6.754 -17.395  30.715  1.00  0.00     0.298 C 
ATOM     19  C   UNL     1      -7.602 -15.333  31.875  1.00  0.00     0.298 C 
ATOM     20  C   UNL     1      -5.329 -16.858  30.886  1.00  0.00     0.308 C 
ATOM     21  C   UNL     1      -6.152 -14.858  32.009  1.00  0.00     0.308 C 
ATOM     22  N   UNL     1      -5.225 -16.008  32.093  1.00  0.00    -0.331 N 
ATOM     23  C   UNL     1      -3.842 -15.530  32.255  1.00  0.00     0.332 C 
ATOM     24  H   UNL     1      -8.462 -14.408  29.319  1.00  0.00     0.312 HD
ATOM     25  H   UNL     1      -5.465 -16.581  32.938  1.00  0.00     0.348 HD
ENDROOT
TORSDOF 0
ENDMDL
MODEL 4
REMARK VINA RESULT:    -6.389      3.887      6.146
REMARK INTER + INTRA:          -6.389
REMARK INTER:                  -6.389
REMARK INTRA:                   0.000
REMARK UNBOUND:                 0.000
REMARK SMILES C[NH+]1CCN(C2=[NH+]c3ccccc3Oc3ccc(Cl)cc32)CC1
REMARK SMILES IDX 7 1 6 2 21 3 5 4 8 5 9 6 13 7 10 8 12 9 14 10 11 11 15 12
REMARK SMILES IDX 16 13 17 14 18 15 20 16 19 17 4 18 22 19 3 20 23 21 2 22
REMARK SMILES IDX 1 23
REMARK H PARENT 7 24 2 25
REMARK Flexibility Score: inf
ROOT
ATOM      1  N   UNL     1      -8.688 -15.222  33.157  1.00  0.00    -0.237 N 
ATOM      2  C   UNL     1      -7.989 -15.535  32.099  1.00  0.00     0.286 C 
ATOM      3  C   UNL     1      -6.612 -15.032  31.845  1.00  0.00     0.108 A 
ATOM      4  N   UNL     1      -8.595 -16.391  31.111  1.00  0.00    -0.250 N 
ATOM      5  C   UNL     1      -8.291 -14.380  34.253  1.00  0.00     0.168 A 
ATOM      6  C   UNL     1      -9.284 -13.631  34.908  1.00  0.00     0.056 A 
ATOM      7  C   UNL     1      -6.997 -14.431  34.811  1.00  0.00     0.173 A 
ATOM      8  C   UNL     1      -8.996 -12.937  36.086  1.00  0.00     0.005 A 
ATOM      9  C   UNL     1      -6.727 -13.759  36.012  1.00  0.00     0.052 A 
ATOM     10  O   UNL     1      -5.955 -15.126  34.206  1.00  0.00    -0.452 OA
ATOM     11  C   UNL     1      -7.720 -13.008  36.642  1.00  0.00     0.004 A 
ATOM     12  C   UNL     1      -5.638 -14.959  32.861  1.00  0.00     0.143 A 
ATOM     13  C   UNL     1      -4.303 -14.693  32.532  1.00  0.00     0.049 A 
ATOM     14  C   UNL     1      -3.934 -14.438  31.211  1.00  0.00     0.024 A 
ATOM     15  C   UNL     1      -4.899 -14.458  30.205  1.00  0.00     0.042 A 
ATOM     16  C   UNL     1      -6.228 -14.759  30.518  1.00  0.00     0.041 A 
ATOM     17  Cl  UNL     1      -4.441 -14.130  28.543  1.00  0.00    -0.084 Cl
ATOM     18  C   UNL     1      -7.885 -17.575  30.620  1.00  0.00     0.298 C 
ATOM     19  C   UNL     1      -9.790 -15.951  30.386  1.00  0.00     0.298 C 
ATOM     20  C   UNL     1      -8.882 -18.716  30.395  1.00  0.00     0.308 C 
ATOM     21  C   UNL     1     -10.729 -17.143  30.170  1.00  0.00     0.308 C 
ATOM     22  N   UNL     1     -10.011 -18.275  29.545  1.00  0.00    -0.331 N 
ATOM     23  C   UNL     1     -10.938 -19.396  29.316  1.00  0.00     0.332 C 
ATOM     24  H   UNL     1      -9.663 -15.597  33.212  1.00  0.00     0.312 HD
ATOM     25  H   UNL     1      -9.639 -17.972  28.612  1.00  0.00     0.348 HD
ENDROOT
TORSDOF 0
ENDMDL
MODEL 5
REMARK VINA RESULT:    -6.313      5.011      7.199
REMARK INTER + INTRA:          -6.313
REMARK INTER:                  -6.313
REMARK INTRA:                   0.000
REMARK UNBOUND:                 0.000
REMARK SMILES C[NH+]1CCN(C2=[NH+]c3ccccc3Oc3ccc(Cl)cc32)CC1
REMARK SMILES IDX 7 1 6 2 21 3 5 4 8 5 9 6 13 7 10 8 12 9 14 10 11 11 15 12
REMARK SMILES IDX 16 13 17 14 18 15 20 16 19 17 4 18 22 19 3 20 23 21 2 22
REMARK SMILES IDX 1 23
REMARK H PARENT 7 24 2 25
REMARK Flexibility Score: inf
ROOT
ATOM      1  N   UNL     1      -5.978 -16.342  30.840  1.00  0.00    -0.237 N 
ATOM      2  C   UNL     1      -6.753 -16.221  31.885  1.00  0.00     0.286 C 
ATOM      3  C   UNL     1      -6.555 -15.191  32.940  1.00  0.00     0.108 A 
ATOM      4  N   UNL     1      -7.841 -17.153  32.038  1.00  0.00    -0.250 N 
ATOM      5  C   UNL     1      -4.836 -15.538  30.497  1.00  0.00     0.168 A 
ATOM      6  C   UNL     1      -3.780 -16.150  29.798  1.00  0.00     0.056 A 
ATOM      7  C   UNL     1      -4.826 -14.138  30.658  1.00  0.00     0.173 A 
ATOM      8  C   UNL     1      -2.729 -15.389  29.281  1.00  0.00     0.005 A 
ATOM      9  C   UNL     1      -3.784 -13.379  30.105  1.00  0.00     0.052 A 
ATOM     10  O   UNL     1      -5.820 -13.465  31.361  1.00  0.00    -0.452 OA
ATOM     11  C   UNL     1      -2.736 -14.003  29.427  1.00  0.00     0.004 A 
ATOM     12  C   UNL     1      -6.217 -13.857  32.636  1.00  0.00     0.143 A 
ATOM     13  C   UNL     1      -6.260 -12.879  33.637  1.00  0.00     0.049 A 
ATOM     14  C   UNL     1      -6.574 -13.222  34.952  1.00  0.00     0.024 A 
ATOM     15  C   UNL     1      -6.860 -14.549  35.274  1.00  0.00     0.042 A 
ATOM     16  C   UNL     1      -6.857 -15.526  34.274  1.00  0.00     0.041 A 
ATOM     17  Cl  UNL     1      -7.249 -14.986  36.928  1.00  0.00    -0.084 Cl
ATOM     18  C   UNL     1      -9.199 -16.670  32.302  1.00  0.00     0.298 C 
ATOM     19  C   UNL     1      -7.571 -18.583  32.207  1.00  0.00     0.298 C 
ATOM     20  C   UNL     1     -10.211 -17.546  31.556  1.00  0.00     0.308 C 
ATOM     21  C   UNL     1      -8.632 -19.399  31.462  1.00  0.00     0.308 C 
ATOM     22  N   UNL     1      -9.995 -18.979  31.856  1.00  0.00    -0.331 N 
ATOM     23  C   UNL     1     -10.998 -19.797  31.155  1.00  0.00     0.332 C 
ATOM     24  H   UNL     1      -6.184 -17.131  30.183  1.00  0.00     0.312 HD
ATOM     25  H   UNL     1     -10.118 -19.136  32.885  1.00  0.00     0.348 HD
ENDROOT
TORSDOF 0
ENDMDL
MODEL 6
REMARK VINA RESULT:    -6.210      3.571      6.903
REMARK INTER + INTRA:          -6.210
REMARK INTER:                  -6.210
REMARK INTRA:                   0.000
REMARK UNBOUND:                 0.000
REMARK SMILES C[NH+]1CCN(C2=[NH+]c3ccccc3Oc3ccc(Cl)cc32)CC1
REMARK SMILES IDX 7 1 6 2 21 3 5 4 8 5 9 6 13 7 10 8 12 9 14 10 11 11 15 12
REMARK SMILES IDX 16 13 17 14 18 15 20 16 19 17 4 18 22 19 3 20 23 21 2 22
REMARK SMILES IDX 1 23
REMARK H PARENT 7 24 2 25
REMARK Flexibility Score: inf
ROOT
ATOM      1  N   UNL     1      -9.330 -16.709  32.419  1.00  0.00    -0.237 N 
ATOM      2  C   UNL     1      -8.743 -15.579  32.126  1.00  0.00     0.286 C 
ATOM      3  C   UNL     1      -8.510 -15.111  30.732  1.00  0.00     0.108 A 
ATOM      4  N   UNL     1      -8.271 -14.755  33.208  1.00  0.00    -0.250 N 
ATOM      5  C   UNL     1      -9.861 -17.685  31.505  1.00  0.00     0.168 A 
ATOM      6  C   UNL     1      -9.830 -19.038  31.887  1.00  0.00     0.056 A 
ATOM      7  C   UNL     1     -10.580 -17.320  30.349  1.00  0.00     0.173 A 
ATOM      8  C   UNL     1     -10.488 -20.010  31.131  1.00  0.00     0.005 A 
ATOM      9  C   UNL     1     -11.266 -18.298  29.615  1.00  0.00     0.052 A 
ATOM     10  O   UNL     1     -10.633 -16.007  29.892  1.00  0.00    -0.452 OA
ATOM     11  C   UNL     1     -11.213 -19.638  30.000  1.00  0.00     0.004 A 
ATOM     12  C   UNL     1      -9.486 -15.237  29.723  1.00  0.00     0.143 A 
ATOM     13  C   UNL     1      -9.309 -14.587  28.495  1.00  0.00     0.049 A 
ATOM     14  C   UNL     1      -8.145 -13.864  28.235  1.00  0.00     0.024 A 
ATOM     15  C   UNL     1      -7.150 -13.777  29.208  1.00  0.00     0.042 A 
ATOM     16  C   UNL     1      -7.333 -14.391  30.450  1.00  0.00     0.041 A 
ATOM     17  Cl  UNL     1      -5.680 -12.875  28.882  1.00  0.00    -0.084 Cl
ATOM     18  C   UNL     1      -8.618 -13.333  33.264  1.00  0.00     0.298 C 
ATOM     19  C   UNL     1      -7.225 -15.247  34.109  1.00  0.00     0.298 C 
ATOM     20  C   UNL     1      -8.861 -12.919  34.719  1.00  0.00     0.308 C 
ATOM     21  C   UNL     1      -7.512 -14.775  35.538  1.00  0.00     0.308 C 
ATOM     22  N   UNL     1      -7.723 -13.311  35.579  1.00  0.00    -0.331 N 
ATOM     23  C   UNL     1      -7.964 -12.875  36.965  1.00  0.00     0.332 C 
ATOM     24  H   UNL     1      -9.401 -16.960  33.432  1.00  0.00     0.312 HD
ATOM     25  H   UNL     1      -6.855 -12.831  35.239  1.00  0.00     0.348 HD
ENDROOT
TORSDOF 0
ENDMDL
MODEL 7
REMARK VINA RESULT:    -6.201      3.829      6.446
REMARK INTER + INTRA:          -6.201
REMARK INTER:                  -6.201
REMARK INTRA:                   0.000
REMARK UNBOUND:                 0.000
REMARK SMILES C[NH+]1CCN(C2=[NH+]c3ccccc3Oc3ccc(Cl)cc32)CC1
REMARK SMILES IDX 7 1 6 2 21 3 5 4 8 5 9 6 13 7 10 8 12 9 14 10 11 11 15 12
REMARK SMILES IDX 16 13 17 14 18 15 20 16 19 17 4 18 22 19 3 20 23 21 2 22
REMARK SMILES IDX 1 23
REMARK H PARENT 7 24 2 25
REMARK Flexibility Score: inf
ROOT
ATOM      1  N   UNL     1      -7.429 -17.070  30.001  1.00  0.00    -0.237 N 
ATOM      2  C   UNL     1      -7.240 -16.273  31.019  1.00  0.00     0.286 C 
ATOM      3  C   UNL     1      -8.268 -16.017  32.064  1.00  0.00     0.108 A 
ATOM      4  N   UNL     1      -5.980 -15.584  31.120  1.00  0.00    -0.250 N 
ATOM      5  C   UNL     1      -8.604 -17.841  29.697  1.00  0.00     0.168 A 
ATOM      6  C   UNL     1      -8.911 -18.078  28.345  1.00  0.00     0.056 A 
ATOM      7  C   UNL     1      -9.335 -18.524  30.691  1.00  0.00     0.173 A 
ATOM      8  C   UNL     1      -9.930 -18.964  27.988  1.00  0.00     0.005 A 
ATOM      9  C   UNL     1     -10.332 -19.438  30.321  1.00  0.00     0.052 A 
ATOM     10  O   UNL     1      -9.109 -18.321  32.049  1.00  0.00    -0.452 OA
ATOM     11  C   UNL     1     -10.634 -19.650  28.976  1.00  0.00     0.004 A 
ATOM     12  C   UNL     1      -9.062 -17.047  32.607  1.00  0.00     0.143 A 
ATOM     13  C   UNL     1      -9.852 -16.799  33.737  1.00  0.00     0.049 A 
ATOM     14  C   UNL     1      -9.910 -15.523  34.296  1.00  0.00     0.024 A 
ATOM     15  C   UNL     1      -9.168 -14.484  33.735  1.00  0.00     0.042 A 
ATOM     16  C   UNL     1      -8.347 -14.730  32.631  1.00  0.00     0.041 A 
ATOM     17  Cl  UNL     1      -9.244 -12.875  34.432  1.00  0.00    -0.084 Cl
ATOM     18  C   UNL     1      -5.212 -15.619  32.368  1.00  0.00     0.298 C 
ATOM     19  C   UNL     1      -5.580 -14.622  30.090  1.00  0.00     0.298 C 
ATOM     20  C   UNL     1      -3.716 -15.695  32.050  1.00  0.00     0.308 C 
ATOM     21  C   UNL     1      -4.072 -14.730  29.841  1.00  0.00     0.308 C 
ATOM     22  N   UNL     1      -3.318 -14.624  31.110  1.00  0.00    -0.331 N 
ATOM     23  C   UNL     1      -1.871 -14.697  30.845  1.00  0.00     0.332 C 
ATOM     24  H   UNL     1      -6.654 -17.142  29.302  1.00  0.00     0.312 HD
ATOM     25  H   UNL     1      -3.515 -13.692  31.549  1.00  0.00     0.348 HD
ENDROOT
TORSDOF 0
ENDMDL
MODEL 8
REMARK VINA RESULT:    -5.779      2.736      6.090
REMARK INTER + INTRA:          -5.779
REMARK INTER:                  -5.779
REMARK INTRA:                   0.000
REMARK UNBOUND:                 0.000
REMARK SMILES C[NH+]1CCN(C2=[NH+]c3ccccc3Oc3ccc(Cl)cc32)CC1
REMARK SMILES IDX 7 1 6 2 21 3 5 4 8 5 9 6 13 7 10 8 12 9 14 10 11 11 15 12
REMARK SMILES IDX 16 13 17 14 18 15 20 16 19 17 4 18 22 19 3 20 23 21 2 22
REMARK SMILES IDX 1 23
REMARK H PARENT 7 24 2 25
REMARK Flexibility Score: inf
ROOT
ATOM      1  N   UNL     1      -9.685 -16.905  29.206  1.00  0.00    -0.237 N 
ATOM      2  C   UNL     1      -9.215 -15.739  28.848  1.00  0.00     0.286 C 
ATOM      3  C   UNL     1      -9.132 -15.286  27.433  1.00  0.00     0.108 A 
ATOM      4  N   UNL     1      -8.726 -14.857  29.876  1.00  0.00    -0.250 N 
ATOM      5  C   UNL     1     -10.208 -17.939  28.354  1.00  0.00     0.168 A 
ATOM      6  C   UNL     1     -10.039 -19.277  28.754  1.00  0.00     0.056 A 
ATOM      7  C   UNL     1     -11.043 -17.657  27.254  1.00  0.00     0.173 A 
ATOM      8  C   UNL     1     -10.676 -20.314  28.068  1.00  0.00     0.005 A 
ATOM      9  C   UNL     1     -11.705 -18.702  26.594  1.00  0.00     0.052 A 
ATOM     10  O   UNL     1     -11.237 -16.363  26.782  1.00  0.00    -0.452 OA
ATOM     11  C   UNL     1     -11.516 -20.025  26.994  1.00  0.00     0.004 A 
ATOM     12  C   UNL     1     -10.172 -15.509  26.509  1.00  0.00     0.143 A 
ATOM     13  C   UNL     1     -10.146 -14.875  25.260  1.00  0.00     0.049 A 
ATOM     14  C   UNL     1      -9.067 -14.070  24.895  1.00  0.00     0.024 A 
ATOM     15  C   UNL     1      -8.008 -13.883  25.783  1.00  0.00     0.042 A 
ATOM     16  C   UNL     1      -8.042 -14.482  27.046  1.00  0.00     0.041 A 
ATOM     17  Cl  UNL     1      -6.645 -12.877  25.325  1.00  0.00    -0.084 Cl
ATOM     18  C   UNL     1      -9.180 -13.466  29.937  1.00  0.00     0.298 C 
ATOM     19  C   UNL     1      -7.576 -15.246  30.697  1.00  0.00     0.298 C 
ATOM     20  C   UNL     1      -9.339 -13.039  31.400  1.00  0.00     0.308 C 
ATOM     21  C   UNL     1      -7.785 -14.766  32.137  1.00  0.00     0.308 C 
ATOM     22  N   UNL     1      -8.108 -13.323  32.172  1.00  0.00    -0.331 N 
ATOM     23  C   UNL     1      -8.272 -12.876  33.565  1.00  0.00     0.332 C 
ATOM     24  H   UNL     1      -9.655 -17.137  30.226  1.00  0.00     0.312 HD
ATOM     25  H   UNL     1      -7.311 -12.783  31.755  1.00  0.00     0.348 HD
ENDROOT
TORSDOF 0
ENDMDL
