MODEL 1
REMARK VINA RESULT:    -5.165      0.000      0.000
REMARK INTER + INTRA:          -5.316
REMARK INTER:                  -5.316
REMARK INTRA:                   0.000
REMARK UNBOUND:                 0.000
REMARK SMILES O=c1ccc2ccc(O)cc2o1
REMARK SMILES IDX 6 1 7 2 8 3 10 4 11 5 5 6 4 7 3 8 2 9 1 10 12 11 9 12
REMARK H PARENT 9 13
REMARK Flexibility Score: inf
ROOT
ATOM      1  C   UNL     1      20.882  40.251  27.835  1.00  0.00     0.016 A 
ATOM      2  C   UNL     1      20.565  39.975  29.169  1.00  0.00     0.047 A 
ATOM      3  C   UNL     1      20.826  40.921  30.169  1.00  0.00     0.119 A 
ATOM      4  C   UNL     1      21.407  42.152  29.831  1.00  0.00     0.094 A 
ATOM      5  C   UNL     1      21.729  42.436  28.499  1.00  0.00     0.142 A 
ATOM      6  C   UNL     1      21.464  41.480  27.495  1.00  0.00     0.018 A 
ATOM      7  C   UNL     1      21.795  41.792  26.173  1.00  0.00     0.019 A 
ATOM      8  C   UNL     1      22.372  43.029  25.886  1.00  0.00     0.094 A 
ATOM      9  C   UNL     1      22.605  43.927  26.933  1.00  0.00     0.336 A 
ATOM     10  O   UNL     1      23.125  45.049  26.694  1.00  0.00    -0.246 OA
ATOM     11  O   UNL     1      22.281  43.605  28.183  1.00  0.00    -0.423 OA
ENDROOT
BRANCH   3  12
ATOM     12  O   UNL     1      20.503  40.628  31.491  1.00  0.00    -0.508 OA
ATOM     13  H   UNL     1      19.926  41.249  32.045  1.00  0.00     0.293 HD
ENDBRANCH   3  12
TORSDOF 1
ENDMDL
MODEL 2
REMARK VINA RESULT:    -4.579      1.284      1.697
REMARK INTER + INTRA:          -4.713
REMARK INTER:                  -4.713
REMARK INTRA:                   0.000
REMARK UNBOUND:                 0.000
REMARK SMILES O=c1ccc2ccc(O)cc2o1
REMARK SMILES IDX 6 1 7 2 8 3 10 4 11 5 5 6 4 7 3 8 2 9 1 10 12 11 9 12
REMARK H PARENT 9 13
REMARK Flexibility Score: inf
ROOT
ATOM      1  C   UNL     1      21.791  41.459  26.788  1.00  0.00     0.016 A 
ATOM      2  C   UNL     1      21.223  40.515  27.649  1.00  0.00     0.047 A 
ATOM      3  C   UNL     1      20.977  40.838  28.990  1.00  0.00     0.119 A 
ATOM      4  C   UNL     1      21.300  42.115  29.472  1.00  0.00     0.094 A 
ATOM      5  C   UNL     1      21.868  43.066  28.617  1.00  0.00     0.142 A 
ATOM      6  C   UNL     1      22.115  42.736  27.266  1.00  0.00     0.018 A 
ATOM      7  C   UNL     1      22.683  43.707  26.436  1.00  0.00     0.019 A 
ATOM      8  C   UNL     1      22.988  44.962  26.960  1.00  0.00     0.094 A 
ATOM      9  C   UNL     1      22.716  45.218  28.309  1.00  0.00     0.336 A 
ATOM     10  O   UNL     1      22.983  46.346  28.800  1.00  0.00    -0.246 OA
ATOM     11  O   UNL     1      22.174  44.276  29.077  1.00  0.00    -0.423 OA
ENDROOT
BRANCH   3  12
ATOM     12  O   UNL     1      20.411  39.885  29.832  1.00  0.00    -0.508 OA
ATOM     13  H   UNL     1      20.807  39.682  30.743  1.00  0.00     0.293 HD
ENDBRANCH   3  12
TORSDOF 1
ENDMDL
MODEL 3
REMARK VINA RESULT:    -4.548      1.573      4.215
REMARK INTER + INTRA:          -4.681
REMARK INTER:                  -4.681
REMARK INTRA:                   0.000
REMARK UNBOUND:                 0.000
REMARK SMILES O=c1ccc2ccc(O)cc2o1
REMARK SMILES IDX 6 1 7 2 8 3 10 4 11 5 5 6 4 7 3 8 2 9 1 10 12 11 9 12
REMARK H PARENT 9 13
REMARK Flexibility Score: inf
ROOT
ATOM      1  C   UNL     1      22.733  43.866  26.490  1.00  0.00     0.016 A 
ATOM      2  C   UNL     1      23.026  45.135  27.000  1.00  0.00     0.047 A 
ATOM      3  C   UNL     1      22.742  45.444  28.336  1.00  0.00     0.119 A 
ATOM      4  C   UNL     1      22.160  44.477  29.168  1.00  0.00     0.094 A 
ATOM      5  C   UNL     1      21.863  43.205  28.667  1.00  0.00     0.142 A 
ATOM      6  C   UNL     1      22.151  42.897  27.319  1.00  0.00     0.018 A 
ATOM      7  C   UNL     1      21.843  41.618  26.847  1.00  0.00     0.019 A 
ATOM      8  C   UNL     1      21.265  40.690  27.712  1.00  0.00     0.094 A 
ATOM      9  C   UNL     1      21.008  41.065  29.035  1.00  0.00     0.336 A 
ATOM     10  O   UNL     1      20.487  40.241  29.831  1.00  0.00    -0.246 OA
ATOM     11  O   UNL     1      21.311  42.289  29.459  1.00  0.00    -0.423 OA
ENDROOT
BRANCH   3  12
ATOM     12  O   UNL     1      23.041  46.713  28.824  1.00  0.00    -0.508 OA
ATOM     13  H   UNL     1      23.885  46.889  29.358  1.00  0.00     0.293 HD
ENDBRANCH   3  12
TORSDOF 1
ENDMDL
MODEL 4
REMARK VINA RESULT:    -4.250      2.682      5.095
REMARK INTER + INTRA:          -4.375
REMARK INTER:                  -4.375
REMARK INTRA:                   0.000
REMARK UNBOUND:                 0.000
REMARK SMILES O=c1ccc2ccc(O)cc2o1
REMARK SMILES IDX 6 1 7 2 8 3 10 4 11 5 5 6 4 7 3 8 2 9 1 10 12 11 9 12
REMARK H PARENT 9 13
REMARK Flexibility Score: inf
ROOT
ATOM      1  C   UNL     1      22.654  46.131  24.906  1.00  0.00     0.016 A 
ATOM      2  C   UNL     1      22.865  47.206  25.775  1.00  0.00     0.047 A 
ATOM      3  C   UNL     1      22.913  46.999  27.160  1.00  0.00     0.119 A 
ATOM      4  C   UNL     1      22.751  45.706  27.678  1.00  0.00     0.094 A 
ATOM      5  C   UNL     1      22.540  44.624  26.816  1.00  0.00     0.142 A 
ATOM      6  C   UNL     1      22.492  44.838  25.421  1.00  0.00     0.018 A 
ATOM      7  C   UNL     1      22.279  43.738  24.585  1.00  0.00     0.019 A 
ATOM      8  C   UNL     1      22.123  42.472  25.147  1.00  0.00     0.094 A 
ATOM      9  C   UNL     1      22.182  42.335  26.538  1.00  0.00     0.336 A 
ATOM     10  O   UNL     1      22.044  41.199  27.064  1.00  0.00    -0.246 OA
ATOM     11  O   UNL     1      22.386  43.399  27.311  1.00  0.00    -0.423 OA
ENDROOT
BRANCH   3  12
ATOM     12  O   UNL     1      23.124  48.082  28.009  1.00  0.00    -0.508 OA
ATOM     13  H   UNL     1      22.349  48.595  28.414  1.00  0.00     0.293 HD
ENDBRANCH   3  12
TORSDOF 1
ENDMDL
MODEL 5
REMARK VINA RESULT:    -4.214      2.201      3.954
REMARK INTER + INTRA:          -4.337
REMARK INTER:                  -4.337
REMARK INTRA:                   0.000
REMARK UNBOUND:                 0.000
REMARK SMILES O=c1ccc2ccc(O)cc2o1
REMARK SMILES IDX 6 1 7 2 8 3 10 4 11 5 5 6 4 7 3 8 2 9 1 10 12 11 9 12
REMARK H PARENT 9 13
REMARK Flexibility Score: inf
ROOT
ATOM      1  C   UNL     1      23.046  45.440  27.488  1.00  0.00     0.016 A 
ATOM      2  C   UNL     1      23.010  46.113  28.713  1.00  0.00     0.047 A 
ATOM      3  C   UNL     1      22.501  45.480  29.854  1.00  0.00     0.119 A 
ATOM      4  C   UNL     1      22.025  44.164  29.769  1.00  0.00     0.094 A 
ATOM      5  C   UNL     1      22.056  43.483  28.547  1.00  0.00     0.142 A 
ATOM      6  C   UNL     1      22.570  44.125  27.399  1.00  0.00     0.018 A 
ATOM      7  C   UNL     1      22.589  43.419  26.192  1.00  0.00     0.019 A 
ATOM      8  C   UNL     1      22.104  42.112  26.157  1.00  0.00     0.094 A 
ATOM      9  C   UNL     1      21.609  41.540  27.334  1.00  0.00     0.336 A 
ATOM     10  O   UNL     1      21.168  40.361  27.321  1.00  0.00    -0.246 OA
ATOM     11  O   UNL     1      21.603  42.234  28.469  1.00  0.00    -0.423 OA
ENDROOT
BRANCH   3  12
ATOM     12  O   UNL     1      22.474  46.167  31.065  1.00  0.00    -0.508 OA
ATOM     13  H   UNL     1      21.927  47.013  31.181  1.00  0.00     0.293 HD
ENDBRANCH   3  12
TORSDOF 1
ENDMDL
MODEL 6
REMARK VINA RESULT:    -4.163      2.232      3.329
REMARK INTER + INTRA:          -4.284
REMARK INTER:                  -4.284
REMARK INTRA:                   0.000
REMARK UNBOUND:                 0.000
REMARK SMILES O=c1ccc2ccc(O)cc2o1
REMARK SMILES IDX 6 1 7 2 8 3 10 4 11 5 5 6 4 7 3 8 2 9 1 10 12 11 9 12
REMARK H PARENT 9 13
REMARK Flexibility Score: inf
ROOT
ATOM      1  C   UNL     1      22.455  43.041  26.711  1.00  0.00     0.016 A 
ATOM      2  C   UNL     1      22.010  41.726  26.549  1.00  0.00     0.047 A 
ATOM      3  C   UNL     1      21.411  41.045  27.616  1.00  0.00     0.119 A 
ATOM      4  C   UNL     1      21.255  41.685  28.854  1.00  0.00     0.094 A 
ATOM      5  C   UNL     1      21.698  43.001  29.026  1.00  0.00     0.142 A 
ATOM      6  C   UNL     1      22.301  43.684  27.947  1.00  0.00     0.018 A 
ATOM      7  C   UNL     1      22.734  44.998  28.148  1.00  0.00     0.019 A 
ATOM      8  C   UNL     1      22.558  45.593  29.397  1.00  0.00     0.094 A 
ATOM      9  C   UNL     1      21.951  44.855  30.420  1.00  0.00     0.336 A 
ATOM     10  O   UNL     1      21.784  45.375  31.554  1.00  0.00    -0.246 OA
ATOM     11  O   UNL     1      21.549  43.606  30.201  1.00  0.00    -0.423 OA
ENDROOT
BRANCH   3  12
ATOM     12  O   UNL     1      20.974  39.735  27.435  1.00  0.00    -0.508 OA
ATOM     13  H   UNL     1      21.560  38.944  27.676  1.00  0.00     0.293 HD
ENDBRANCH   3  12
TORSDOF 1
ENDMDL
MODEL 7
REMARK VINA RESULT:    -4.036      2.596      3.844
REMARK INTER + INTRA:          -4.154
REMARK INTER:                  -4.154
REMARK INTRA:                   0.000
REMARK UNBOUND:                 0.000
REMARK SMILES O=c1ccc2ccc(O)cc2o1
REMARK SMILES IDX 6 1 7 2 8 3 10 4 11 5 5 6 4 7 3 8 2 9 1 10 12 11 9 12
REMARK H PARENT 9 13
REMARK Flexibility Score: inf
ROOT
ATOM      1  C   UNL     1      22.130  43.527  24.499  1.00  0.00     0.016 A 
ATOM      2  C   UNL     1      22.008  42.281  25.121  1.00  0.00     0.047 A 
ATOM      3  C   UNL     1      22.142  42.168  26.511  1.00  0.00     0.119 A 
ATOM      4  C   UNL     1      22.399  43.310  27.283  1.00  0.00     0.094 A 
ATOM      5  C   UNL     1      22.523  44.561  26.669  1.00  0.00     0.142 A 
ATOM      6  C   UNL     1      22.386  44.670  25.267  1.00  0.00     0.018 A 
ATOM      7  C   UNL     1      22.515  45.933  24.682  1.00  0.00     0.019 A 
ATOM      8  C   UNL     1      22.771  47.040  25.491  1.00  0.00     0.094 A 
ATOM      9  C   UNL     1      22.893  46.856  26.872  1.00  0.00     0.336 A 
ATOM     10  O   UNL     1      23.123  47.843  27.619  1.00  0.00    -0.246 OA
ATOM     11  O   UNL     1      22.766  45.642  27.404  1.00  0.00    -0.423 OA
ENDROOT
BRANCH   3  12
ATOM     12  O   UNL     1      22.018  40.918  27.112  1.00  0.00    -0.508 OA
ATOM     13  H   UNL     1      21.147  40.619  27.536  1.00  0.00     0.293 HD
ENDBRANCH   3  12
TORSDOF 1
ENDMDL
MODEL 8
REMARK VINA RESULT:    -3.937      1.637      2.357
REMARK INTER + INTRA:          -4.052
REMARK INTER:                  -4.052
REMARK INTRA:                   0.000
REMARK UNBOUND:                 0.000
REMARK SMILES O=c1ccc2ccc(O)cc2o1
REMARK SMILES IDX 6 1 7 2 8 3 10 4 11 5 5 6 4 7 3 8 2 9 1 10 12 11 9 12
REMARK H PARENT 9 13
REMARK Flexibility Score: inf
ROOT
ATOM      1  C   UNL     1      21.833  42.896  29.234  1.00  0.00     0.016 A 
ATOM      2  C   UNL     1      21.247  41.807  29.886  1.00  0.00     0.047 A 
ATOM      3  C   UNL     1      20.812  40.694  29.154  1.00  0.00     0.119 A 
ATOM      4  C   UNL     1      20.965  40.671  27.760  1.00  0.00     0.094 A 
ATOM      5  C   UNL     1      21.550  41.757  27.099  1.00  0.00     0.142 A 
ATOM      6  C   UNL     1      21.988  42.876  27.841  1.00  0.00     0.018 A 
ATOM      7  C   UNL     1      22.569  43.946  27.154  1.00  0.00     0.019 A 
ATOM      8  C   UNL     1      22.700  43.878  25.767  1.00  0.00     0.094 A 
ATOM      9  C   UNL     1      22.244  42.737  25.098  1.00  0.00     0.336 A 
ATOM     10  O   UNL     1      22.354  42.657  23.847  1.00  0.00    -0.246 OA
ATOM     11  O   UNL     1      21.694  41.733  25.777  1.00  0.00    -0.423 OA
ENDROOT
BRANCH   3  12
ATOM     12  O   UNL     1      20.230  39.619  29.821  1.00  0.00    -0.508 OA
ATOM     13  H   UNL     1      19.299  39.294  29.589  1.00  0.00     0.293 HD
ENDBRANCH   3  12
TORSDOF 1
ENDMDL
MODEL 9
REMARK VINA RESULT:    -3.913      2.105      3.280
REMARK INTER + INTRA:          -4.027
REMARK INTER:                  -4.027
REMARK INTRA:                   0.000
REMARK UNBOUND:                 0.000
REMARK SMILES O=c1ccc2ccc(O)cc2o1
REMARK SMILES IDX 6 1 7 2 8 3 10 4 11 5 5 6 4 7 3 8 2 9 1 10 12 11 9 12
REMARK H PARENT 9 13
REMARK Flexibility Score: inf
ROOT
ATOM      1  C   UNL     1      21.250  42.788  30.625  1.00  0.00     0.016 A 
ATOM      2  C   UNL     1      21.535  43.990  31.280  1.00  0.00     0.047 A 
ATOM      3  C   UNL     1      22.099  45.062  30.577  1.00  0.00     0.119 A 
ATOM      4  C   UNL     1      22.379  44.931  29.209  1.00  0.00     0.094 A 
ATOM      5  C   UNL     1      22.097  43.731  28.545  1.00  0.00     0.142 A 
ATOM      6  C   UNL     1      21.529  42.653  29.258  1.00  0.00     0.018 A 
ATOM      7  C   UNL     1      21.258  41.467  28.569  1.00  0.00     0.019 A 
ATOM      8  C   UNL     1      21.554  41.383  27.209  1.00  0.00     0.094 A 
ATOM      9  C   UNL     1      22.117  42.493  26.568  1.00  0.00     0.336 A 
ATOM     10  O   UNL     1      22.391  42.437  25.340  1.00  0.00    -0.246 OA
ATOM     11  O   UNL     1      22.364  43.610  27.248  1.00  0.00    -0.423 OA
ENDROOT
BRANCH   3  12
ATOM     12  O   UNL     1      22.376  46.251  31.246  1.00  0.00    -0.508 OA
ATOM     13  H   UNL     1      22.688  47.078  30.750  1.00  0.00     0.293 HD
ENDBRANCH   3  12
TORSDOF 1
ENDMDL
