MODEL 1
REMARK VINA RESULT:    -4.390      0.000      0.000
REMARK INTER + INTRA:          -9.884
REMARK INTER:                  -7.983
REMARK INTRA:                  -1.901
REMARK UNBOUND:                -1.901
REMARK SMILES CCCCCCCCCCCCCCCC(=O)[O-]
REMARK SMILES IDX 9 1 10 2 11 3 12 4 13 5 14 6 15 7 16 8 17 9 18 10 8 11 7 12
REMARK SMILES IDX 6 13 5 14 4 15 3 16 2 17 1 18
REMARK H PARENT
REMARK Flexibility Score: inf
ROOT
ATOM      1  C   UNL     1      -9.703   3.137  19.505  1.00  0.00     0.000 C 
ENDROOT
BRANCH   1   2
ATOM      2  C   UNL     1     -11.223   2.923  19.551  1.00  0.00     0.000 C 
BRANCH   2   3
ATOM      3  C   UNL     1     -11.943   3.875  18.585  1.00  0.00     0.000 C 
BRANCH   3   4
ATOM      4  C   UNL     1     -12.171   3.256  17.195  1.00  0.00     0.000 C 
BRANCH   4   5
ATOM      5  C   UNL     1     -11.200   3.737  16.097  1.00  0.00     0.000 C 
BRANCH   5   6
ATOM      6  C   UNL     1     -10.226   2.665  15.575  1.00  0.00     0.006 C 
BRANCH   6   7
ATOM      7  C   UNL     1     -10.811   1.249  15.632  1.00  0.00     0.053 C 
BRANCH   7   8
ATOM      8  C   UNL     1     -10.639   0.560  14.316  1.00  0.00     0.041 C 
ATOM      9  O   UNL     1     -11.640   0.096  13.708  1.00  0.00    -0.550 OA
ATOM     10  O   UNL     1      -9.368   0.384  13.784  1.00  0.00    -0.550 OA
ENDBRANCH   7   8
ENDBRANCH   6   7
ENDBRANCH   5   6
ENDBRANCH   4   5
ENDBRANCH   3   4
ENDBRANCH   2   3
ENDBRANCH   1   2
BRANCH   1  11
ATOM     11  C   UNL     1      -8.943   1.923  18.941  1.00  0.00     0.000 C 
BRANCH  11  12
ATOM     12  C   UNL     1      -9.678   0.576  19.066  1.00  0.00    -0.000 C 
BRANCH  12  13
ATOM     13  C   UNL     1      -8.808  -0.528  19.693  1.00  0.00    -0.000 C 
BRANCH  13  14
ATOM     14  C   UNL     1      -9.252  -0.875  21.131  1.00  0.00    -0.000 C 
BRANCH  14  15
ATOM     15  C   UNL     1     -10.476  -0.077  21.612  1.00  0.00    -0.000 C 
BRANCH  15  16
ATOM     16  C   UNL     1     -10.138   0.913  22.738  1.00  0.00    -0.000 C 
BRANCH  16  17
ATOM     17  C   UNL     1      -9.150   0.328  23.760  1.00  0.00    -0.003 C 
ATOM     18  C   UNL     1      -9.848  -0.411  24.902  1.00  0.00     0.004 C 
ENDBRANCH  16  17
ENDBRANCH  15  16
ENDBRANCH  14  15
ENDBRANCH  13  14
ENDBRANCH  12  13
ENDBRANCH  11  12
ENDBRANCH   1  11
TORSDOF 14
ENDMDL
MODEL 2
REMARK VINA RESULT:    -4.381      0.983      1.724
REMARK INTER + INTRA:          -9.868
REMARK INTER:                  -7.618
REMARK INTRA:                  -2.251
REMARK UNBOUND:                -1.901
REMARK SMILES CCCCCCCCCCCCCCCC(=O)[O-]
REMARK SMILES IDX 9 1 10 2 11 3 12 4 13 5 14 6 15 7 16 8 17 9 18 10 8 11 7 12
REMARK SMILES IDX 6 13 5 14 4 15 3 16 2 17 1 18
REMARK H PARENT
REMARK Flexibility Score: inf
ROOT
ATOM      1  C   UNL     1     -12.297   3.515  19.919  1.00  0.00     0.000 C 
ENDROOT
BRANCH   1   2
ATOM      2  C   UNL     1     -11.945   4.211  18.596  1.00  0.00     0.000 C 
BRANCH   2   3
ATOM      3  C   UNL     1     -12.825   3.692  17.450  1.00  0.00     0.000 C 
BRANCH   3   4
ATOM      4  C   UNL     1     -12.052   2.805  16.457  1.00  0.00     0.000 C 
BRANCH   4   5
ATOM      5  C   UNL     1     -10.706   3.385  15.975  1.00  0.00     0.000 C 
BRANCH   5   6
ATOM      6  C   UNL     1      -9.564   2.360  15.851  1.00  0.00     0.006 C 
BRANCH   6   7
ATOM      7  C   UNL     1     -10.066   0.913  15.785  1.00  0.00     0.053 C 
BRANCH   7   8
ATOM      8  C   UNL     1     -10.182   0.465  14.362  1.00  0.00     0.041 C 
ATOM      9  O   UNL     1     -11.256  -0.041  13.944  1.00  0.00    -0.550 OA
ATOM     10  O   UNL     1      -9.087   0.559  13.512  1.00  0.00    -0.550 OA
ENDBRANCH   7   8
ENDBRANCH   6   7
ENDBRANCH   5   6
ENDBRANCH   4   5
ENDBRANCH   3   4
ENDBRANCH   2   3
ENDBRANCH   1   2
BRANCH   1  11
ATOM     11  C   UNL     1     -11.080   2.855  20.593  1.00  0.00     0.000 C 
BRANCH  11  12
ATOM     12  C   UNL     1      -9.824   2.746  19.709  1.00  0.00    -0.000 C 
BRANCH  12  13
ATOM     13  C   UNL     1      -9.413   1.291  19.425  1.00  0.00    -0.000 C 
BRANCH  13  14
ATOM     14  C   UNL     1     -10.610   0.319  19.505  1.00  0.00    -0.000 C 
BRANCH  14  15
ATOM     15  C   UNL     1     -10.330  -0.943  20.339  1.00  0.00    -0.000 C 
BRANCH  15  16
ATOM     16  C   UNL     1      -9.119  -0.785  21.272  1.00  0.00    -0.000 C 
BRANCH  16  17
ATOM     17  C   UNL     1      -9.528  -0.573  22.738  1.00  0.00    -0.003 C 
ATOM     18  C   UNL     1      -9.317   0.866  23.209  1.00  0.00     0.004 C 
ENDBRANCH  16  17
ENDBRANCH  15  16
ENDBRANCH  14  15
ENDBRANCH  13  14
ENDBRANCH  12  13
ENDBRANCH  11  12
ENDBRANCH   1  11
TORSDOF 14
ENDMDL
MODEL 3
REMARK VINA RESULT:    -4.374      1.545      3.057
REMARK INTER + INTRA:          -9.855
REMARK INTER:                  -8.108
REMARK INTRA:                  -1.747
REMARK UNBOUND:                -1.901
REMARK SMILES CCCCCCCCCCCCCCCC(=O)[O-]
REMARK SMILES IDX 9 1 10 2 11 3 12 4 13 5 14 6 15 7 16 8 17 9 18 10 8 11 7 12
REMARK SMILES IDX 6 13 5 14 4 15 3 16 2 17 1 18
REMARK H PARENT
REMARK Flexibility Score: inf
ROOT
ATOM      1  C   UNL     1     -12.622   3.593  17.460  1.00  0.00     0.000 C 
ENDROOT
BRANCH   1   2
ATOM      2  C   UNL     1     -11.708   4.296  16.446  1.00  0.00     0.000 C 
BRANCH   2   3
ATOM      3  C   UNL     1     -10.305   4.518  17.032  1.00  0.00     0.000 C 
BRANCH   3   4
ATOM      4  C   UNL     1      -9.389   3.292  16.869  1.00  0.00     0.000 C 
BRANCH   4   5
ATOM      5  C   UNL     1      -9.503   2.566  15.513  1.00  0.00     0.000 C 
BRANCH   5   6
ATOM      6  C   UNL     1      -9.878   1.076  15.602  1.00  0.00     0.006 C 
BRANCH   6   7
ATOM      7  C   UNL     1     -10.405   0.513  14.277  1.00  0.00     0.053 C 
BRANCH   7   8
ATOM      8  C   UNL     1     -11.890   0.343  14.335  1.00  0.00     0.041 C 
ATOM      9  O   UNL     1     -12.545   0.823  15.298  1.00  0.00    -0.550 OA
ATOM     10  O   UNL     1     -12.545  -0.390  13.353  1.00  0.00    -0.550 OA
ENDBRANCH   7   8
ENDBRANCH   6   7
ENDBRANCH   5   6
ENDBRANCH   4   5
ENDBRANCH   3   4
ENDBRANCH   2   3
ENDBRANCH   1   2
BRANCH   1  11
ATOM     11  C   UNL     1     -12.585   4.244  18.855  1.00  0.00     0.000 C 
BRANCH  11  12
ATOM     12  C   UNL     1     -12.481   3.258  20.033  1.00  0.00    -0.000 C 
BRANCH  12  13
ATOM     13  C   UNL     1     -11.054   2.724  20.247  1.00  0.00    -0.000 C 
BRANCH  13  14
ATOM     14  C   UNL     1     -10.815   1.387  19.511  1.00  0.00    -0.000 C 
BRANCH  14  15
ATOM     15  C   UNL     1      -9.370   0.871  19.618  1.00  0.00    -0.000 C 
BRANCH  15  16
ATOM     16  C   UNL     1      -9.259  -0.645  19.387  1.00  0.00    -0.000 C 
BRANCH  16  17
ATOM     17  C   UNL     1      -9.623  -1.459  20.638  1.00  0.00    -0.003 C 
ATOM     18  C   UNL     1      -9.115  -0.818  21.930  1.00  0.00     0.004 C 
ENDBRANCH  16  17
ENDBRANCH  15  16
ENDBRANCH  14  15
ENDBRANCH  13  14
ENDBRANCH  12  13
ENDBRANCH  11  12
ENDBRANCH   1  11
TORSDOF 14
ENDMDL
MODEL 4
REMARK VINA RESULT:    -4.370      1.564      2.058
REMARK INTER + INTRA:          -9.848
REMARK INTER:                  -7.960
REMARK INTRA:                  -1.888
REMARK UNBOUND:                -1.901
REMARK SMILES CCCCCCCCCCCCCCCC(=O)[O-]
REMARK SMILES IDX 9 1 10 2 11 3 12 4 13 5 14 6 15 7 16 8 17 9 18 10 8 11 7 12
REMARK SMILES IDX 6 13 5 14 4 15 3 16 2 17 1 18
REMARK H PARENT
REMARK Flexibility Score: inf
ROOT
ATOM      1  C   UNL     1      -8.714   2.018  19.157  1.00  0.00     0.000 C 
ENDROOT
BRANCH   1   2
ATOM      2  C   UNL     1      -9.565   3.193  18.656  1.00  0.00     0.000 C 
BRANCH   2   3
ATOM      3  C   UNL     1     -10.833   2.691  17.948  1.00  0.00     0.000 C 
BRANCH   3   4
ATOM      4  C   UNL     1     -10.953   3.205  16.502  1.00  0.00     0.000 C 
BRANCH   4   5
ATOM      5  C   UNL     1      -9.923   2.620  15.513  1.00  0.00     0.000 C 
BRANCH   5   6
ATOM      6  C   UNL     1      -9.919   1.084  15.412  1.00  0.00     0.006 C 
BRANCH   6   7
ATOM      7  C   UNL     1     -10.491   0.572  14.085  1.00  0.00     0.053 C 
BRANCH   7   8
ATOM      8  C   UNL     1     -11.960   0.321  14.211  1.00  0.00     0.041 C 
ATOM      9  O   UNL     1     -12.553   0.564  15.295  1.00  0.00    -0.550 OA
ATOM     10  O   UNL     1     -12.665  -0.229  13.148  1.00  0.00    -0.550 OA
ENDBRANCH   7   8
ENDBRANCH   6   7
ENDBRANCH   5   6
ENDBRANCH   4   5
ENDBRANCH   3   4
ENDBRANCH   2   3
ENDBRANCH   1   2
BRANCH   1  11
ATOM     11  C   UNL     1      -9.315   0.646  18.802  1.00  0.00     0.000 C 
BRANCH  11  12
ATOM     12  C   UNL     1      -8.789  -0.534  19.640  1.00  0.00    -0.000 C 
BRANCH  12  13
ATOM     13  C   UNL     1      -9.882  -1.200  20.495  1.00  0.00    -0.000 C 
BRANCH  13  14
ATOM     14  C   UNL     1     -11.261  -0.530  20.305  1.00  0.00    -0.000 C 
BRANCH  14  15
ATOM     15  C   UNL     1     -11.817   0.117  21.585  1.00  0.00    -0.000 C 
BRANCH  15  16
ATOM     16  C   UNL     1     -11.525   1.624  21.667  1.00  0.00    -0.000 C 
BRANCH  16  17
ATOM     17  C   UNL     1     -10.654   1.991  22.878  1.00  0.00    -0.003 C 
ATOM     18  C   UNL     1      -9.507   2.936  22.517  1.00  0.00     0.004 C 
ENDBRANCH  16  17
ENDBRANCH  15  16
ENDBRANCH  14  15
ENDBRANCH  13  14
ENDBRANCH  12  13
ENDBRANCH  11  12
ENDBRANCH   1  11
TORSDOF 14
ENDMDL
MODEL 5
REMARK VINA RESULT:    -4.347      1.359      2.336
REMARK INTER + INTRA:          -9.806
REMARK INTER:                  -7.849
REMARK INTRA:                  -1.957
REMARK UNBOUND:                -1.901
REMARK SMILES CCCCCCCCCCCCCCCC(=O)[O-]
REMARK SMILES IDX 9 1 10 2 11 3 12 4 13 5 14 6 15 7 16 8 17 9 18 10 8 11 7 12
REMARK SMILES IDX 6 13 5 14 4 15 3 16 2 17 1 18
REMARK H PARENT
REMARK Flexibility Score: inf
ROOT
ATOM      1  C   UNL     1      -8.693   4.035  18.901  1.00  0.00     0.000 C 
ENDROOT
BRANCH   1   2
ATOM      2  C   UNL     1      -9.270   4.371  17.518  1.00  0.00     0.000 C 
BRANCH   2   3
ATOM      3  C   UNL     1     -10.658   5.016  17.643  1.00  0.00     0.000 C 
BRANCH   3   4
ATOM      4  C   UNL     1     -11.622   4.581  16.525  1.00  0.00     0.000 C 
BRANCH   4   5
ATOM      5  C   UNL     1     -12.190   3.154  16.670  1.00  0.00     0.000 C 
BRANCH   5   6
ATOM      6  C   UNL     1     -11.466   2.078  15.840  1.00  0.00     0.006 C 
BRANCH   6   7
ATOM      7  C   UNL     1     -12.400   0.952  15.381  1.00  0.00     0.053 C 
BRANCH   7   8
ATOM      8  C   UNL     1     -11.839   0.268  14.175  1.00  0.00     0.041 C 
ATOM      9  O   UNL     1     -10.594   0.228  13.991  1.00  0.00    -0.550 OA
ATOM     10  O   UNL     1     -12.693  -0.282  13.226  1.00  0.00    -0.550 OA
ENDBRANCH   7   8
ENDBRANCH   6   7
ENDBRANCH   5   6
ENDBRANCH   4   5
ENDBRANCH   3   4
ENDBRANCH   2   3
ENDBRANCH   1   2
BRANCH   1  11
ATOM     11  C   UNL     1      -9.124   2.647  19.410  1.00  0.00     0.000 C 
BRANCH  11  12
ATOM     12  C   UNL     1     -10.192   2.661  20.519  1.00  0.00    -0.000 C 
BRANCH  12  13
ATOM     13  C   UNL     1     -11.497   1.956  20.106  1.00  0.00    -0.000 C 
BRANCH  13  14
ATOM     14  C   UNL     1     -11.234   0.635  19.351  1.00  0.00    -0.000 C 
BRANCH  14  15
ATOM     15  C   UNL     1     -11.259  -0.611  20.252  1.00  0.00    -0.000 C 
BRANCH  15  16
ATOM     16  C   UNL     1      -9.948  -1.410  20.203  1.00  0.00    -0.000 C 
BRANCH  16  17
ATOM     17  C   UNL     1      -8.921  -0.924  21.237  1.00  0.00    -0.003 C 
ATOM     18  C   UNL     1      -9.575  -0.386  22.511  1.00  0.00     0.004 C 
ENDBRANCH  16  17
ENDBRANCH  15  16
ENDBRANCH  14  15
ENDBRANCH  13  14
ENDBRANCH  12  13
ENDBRANCH  11  12
ENDBRANCH   1  11
TORSDOF 14
ENDMDL
MODEL 6
REMARK VINA RESULT:    -4.300      1.487      2.831
REMARK INTER + INTRA:          -9.720
REMARK INTER:                  -7.860
REMARK INTRA:                  -1.860
REMARK UNBOUND:                -1.901
REMARK SMILES CCCCCCCCCCCCCCCC(=O)[O-]
REMARK SMILES IDX 9 1 10 2 11 3 12 4 13 5 14 6 15 7 16 8 17 9 18 10 8 11 7 12
REMARK SMILES IDX 6 13 5 14 4 15 3 16 2 17 1 18
REMARK H PARENT
REMARK Flexibility Score: inf
ROOT
ATOM      1  C   UNL     1     -11.379   3.695  20.396  1.00  0.00     0.000 C 
ENDROOT
BRANCH   1   2
ATOM      2  C   UNL     1     -11.343   4.039  18.900  1.00  0.00     0.000 C 
BRANCH   2   3
ATOM      3  C   UNL     1     -12.759   4.056  18.305  1.00  0.00     0.000 C 
BRANCH   3   4
ATOM      4  C   UNL     1     -12.802   3.547  16.852  1.00  0.00     0.000 C 
BRANCH   4   5
ATOM      5  C   UNL     1     -11.427   3.233  16.228  1.00  0.00     0.000 C 
BRANCH   5   6
ATOM      6  C   UNL     1     -11.156   1.741  15.966  1.00  0.00     0.006 C 
BRANCH   6   7
ATOM      7  C   UNL     1     -12.354   1.019  15.336  1.00  0.00     0.053 C 
BRANCH   7   8
ATOM      8  C   UNL     1     -11.926   0.261  14.120  1.00  0.00     0.041 C 
ATOM      9  O   UNL     1     -12.787  -0.269  13.369  1.00  0.00    -0.550 OA
ATOM     10  O   UNL     1     -10.575   0.096  13.842  1.00  0.00    -0.550 OA
ENDBRANCH   7   8
ENDBRANCH   6   7
ENDBRANCH   5   6
ENDBRANCH   4   5
ENDBRANCH   3   4
ENDBRANCH   2   3
ENDBRANCH   1   2
BRANCH   1  11
ATOM     11  C   UNL     1     -12.060   2.344  20.685  1.00  0.00     0.000 C 
BRANCH  11  12
ATOM     12  C   UNL     1     -11.714   1.718  22.049  1.00  0.00    -0.000 C 
BRANCH  12  13
ATOM     13  C   UNL     1     -11.487   0.198  21.973  1.00  0.00    -0.000 C 
BRANCH  13  14
ATOM     14  C   UNL     1     -11.501  -0.322  20.519  1.00  0.00    -0.000 C 
BRANCH  14  15
ATOM     15  C   UNL     1     -10.272  -1.173  20.153  1.00  0.00    -0.000 C 
BRANCH  15  16
ATOM     16  C   UNL     1      -9.023  -0.324  19.866  1.00  0.00    -0.000 C 
BRANCH  16  17
ATOM     17  C   UNL     1      -9.275   0.755  18.802  1.00  0.00    -0.003 C 
ATOM     18  C   UNL     1      -8.418   2.004  19.011  1.00  0.00     0.004 C 
ENDBRANCH  16  17
ENDBRANCH  15  16
ENDBRANCH  14  15
ENDBRANCH  13  14
ENDBRANCH  12  13
ENDBRANCH  11  12
ENDBRANCH   1  11
TORSDOF 14
ENDMDL
MODEL 7
REMARK VINA RESULT:    -4.191      1.714      2.493
REMARK INTER + INTRA:          -9.521
REMARK INTER:                  -7.023
REMARK INTRA:                  -2.499
REMARK UNBOUND:                -1.901
REMARK SMILES CCCCCCCCCCCCCCCC(=O)[O-]
REMARK SMILES IDX 9 1 10 2 11 3 12 4 13 5 14 6 15 7 16 8 17 9 18 10 8 11 7 12
REMARK SMILES IDX 6 13 5 14 4 15 3 16 2 17 1 18
REMARK H PARENT
REMARK Flexibility Score: inf
ROOT
ATOM      1  C   UNL     1     -11.589   1.996  20.082  1.00  0.00     0.000 C 
ENDROOT
BRANCH   1   2
ATOM      2  C   UNL     1     -10.576   3.112  19.793  1.00  0.00     0.000 C 
BRANCH   2   3
ATOM      3  C   UNL     1      -9.135   2.590  19.903  1.00  0.00     0.000 C 
BRANCH   3   4
ATOM      4  C   UNL     1      -8.291   2.897  18.652  1.00  0.00     0.000 C 
BRANCH   4   5
ATOM      5  C   UNL     1      -9.096   3.339  17.413  1.00  0.00     0.000 C 
BRANCH   5   6
ATOM      6  C   UNL     1      -9.469   2.204  16.441  1.00  0.00     0.006 C 
BRANCH   6   7
ATOM      7  C   UNL     1     -10.549   2.614  15.433  1.00  0.00     0.053 C 
BRANCH   7   8
ATOM      8  C   UNL     1     -11.908   2.267  15.952  1.00  0.00     0.041 C 
ATOM      9  O   UNL     1     -12.459   1.187  15.612  1.00  0.00    -0.550 OA
ATOM     10  O   UNL     1     -12.588   3.159  16.772  1.00  0.00    -0.550 OA
ENDBRANCH   7   8
ENDBRANCH   6   7
ENDBRANCH   5   6
ENDBRANCH   4   5
ENDBRANCH   3   4
ENDBRANCH   2   3
ENDBRANCH   1   2
BRANCH   1  11
ATOM     11  C   UNL     1     -11.292   0.699  19.307  1.00  0.00     0.000 C 
BRANCH  11  12
ATOM     12  C   UNL     1     -11.130  -0.560  20.179  1.00  0.00    -0.000 C 
BRANCH  12  13
ATOM     13  C   UNL     1      -9.706  -1.141  20.140  1.00  0.00    -0.000 C 
BRANCH  13  14
ATOM     14  C   UNL     1      -8.921  -0.852  21.438  1.00  0.00    -0.000 C 
BRANCH  14  15
ATOM     15  C   UNL     1      -9.814  -0.468  22.630  1.00  0.00    -0.000 C 
BRANCH  15  16
ATOM     16  C   UNL     1      -9.559   0.963  23.130  1.00  0.00    -0.000 C 
BRANCH  16  17
ATOM     17  C   UNL     1     -10.803   1.591  23.777  1.00  0.00    -0.003 C 
ATOM     18  C   UNL     1     -12.074   0.778  23.528  1.00  0.00     0.004 C 
ENDBRANCH  16  17
ENDBRANCH  15  16
ENDBRANCH  14  15
ENDBRANCH  13  14
ENDBRANCH  12  13
ENDBRANCH  11  12
ENDBRANCH   1  11
TORSDOF 14
ENDMDL
MODEL 8
REMARK VINA RESULT:    -4.186      3.805      7.522
REMARK INTER + INTRA:          -9.513
REMARK INTER:                  -8.059
REMARK INTRA:                  -1.454
REMARK UNBOUND:                -1.901
REMARK SMILES CCCCCCCCCCCCCCCC(=O)[O-]
REMARK SMILES IDX 9 1 10 2 11 3 12 4 13 5 14 6 15 7 16 8 17 9 18 10 8 11 7 12
REMARK SMILES IDX 6 13 5 14 4 15 3 16 2 17 1 18
REMARK H PARENT
REMARK Flexibility Score: inf
ROOT
ATOM      1  C   UNL     1      -8.871  -0.509  19.402  1.00  0.00     0.000 C 
ENDROOT
BRANCH   1   2
ATOM      2  C   UNL     1      -9.547  -1.183  20.604  1.00  0.00     0.000 C 
BRANCH   2   3
ATOM      3  C   UNL     1      -8.779  -0.891  21.902  1.00  0.00     0.000 C 
BRANCH   3   4
ATOM      4  C   UNL     1      -9.658  -0.237  22.983  1.00  0.00     0.000 C 
BRANCH   4   5
ATOM      5  C   UNL     1      -9.839   1.288  22.843  1.00  0.00     0.000 C 
BRANCH   5   6
ATOM      6  C   UNL     1     -11.214   1.735  22.314  1.00  0.00     0.006 C 
BRANCH   6   7
ATOM      7  C   UNL     1     -12.255   0.609  22.334  1.00  0.00     0.053 C 
BRANCH   7   8
ATOM      8  C   UNL     1     -13.225   0.815  23.454  1.00  0.00     0.041 C 
ATOM      9  O   UNL     1     -14.379   1.261  23.218  1.00  0.00    -0.550 OA
ATOM     10  O   UNL     1     -12.838   0.563  24.765  1.00  0.00    -0.550 OA
ENDBRANCH   7   8
ENDBRANCH   6   7
ENDBRANCH   5   6
ENDBRANCH   4   5
ENDBRANCH   3   4
ENDBRANCH   2   3
ENDBRANCH   1   2
BRANCH   1  11
ATOM     11  C   UNL     1      -9.447   0.885  19.092  1.00  0.00     0.000 C 
BRANCH  11  12
ATOM     12  C   UNL     1     -10.940   0.905  18.717  1.00  0.00    -0.000 C 
BRANCH  12  13
ATOM     13  C   UNL     1     -11.192   1.377  17.274  1.00  0.00    -0.000 C 
BRANCH  13  14
ATOM     14  C   UNL     1     -10.017   1.031  16.333  1.00  0.00    -0.000 C 
BRANCH  14  15
ATOM     15  C   UNL     1     -10.257   1.431  14.867  1.00  0.00    -0.000 C 
BRANCH  15  16
ATOM     16  C   UNL     1     -10.730   0.256  13.998  1.00  0.00    -0.000 C 
BRANCH  16  17
ATOM     17  C   UNL     1     -12.262   0.143  13.942  1.00  0.00    -0.003 C 
ATOM     18  C   UNL     1     -12.736  -1.213  13.416  1.00  0.00     0.004 C 
ENDBRANCH  16  17
ENDBRANCH  15  16
ENDBRANCH  14  15
ENDBRANCH  13  14
ENDBRANCH  12  13
ENDBRANCH  11  12
ENDBRANCH   1  11
TORSDOF 14
ENDMDL
MODEL 9
REMARK VINA RESULT:    -4.117      3.337      6.958
REMARK INTER + INTRA:          -9.387
REMARK INTER:                  -7.801
REMARK INTRA:                  -1.586
REMARK UNBOUND:                -1.901
REMARK SMILES CCCCCCCCCCCCCCCC(=O)[O-]
REMARK SMILES IDX 9 1 10 2 11 3 12 4 13 5 14 6 15 7 16 8 17 9 18 10 8 11 7 12
REMARK SMILES IDX 6 13 5 14 4 15 3 16 2 17 1 18
REMARK H PARENT
REMARK Flexibility Score: inf
ROOT
ATOM      1  C   UNL     1     -10.508   3.544  19.795  1.00  0.00     0.000 C 
ENDROOT
BRANCH   1   2
ATOM      2  C   UNL     1      -9.083   2.971  19.811  1.00  0.00     0.000 C 
BRANCH   2   3
ATOM      3  C   UNL     1      -8.860   2.017  18.629  1.00  0.00     0.000 C 
BRANCH   3   4
ATOM      4  C   UNL     1      -9.691   0.726  18.738  1.00  0.00     0.000 C 
BRANCH   4   5
ATOM      5  C   UNL     1      -8.968  -0.462  19.408  1.00  0.00     0.000 C 
BRANCH   5   6
ATOM      6  C   UNL     1      -9.243  -0.625  20.914  1.00  0.00     0.006 C 
BRANCH   6   7
ATOM      7  C   UNL     1     -10.624  -0.101  21.327  1.00  0.00     0.053 C 
BRANCH   7   8
ATOM      8  C   UNL     1     -10.533   0.643  22.622  1.00  0.00     0.041 C 
ATOM      9  O   UNL     1      -9.547   0.469  23.385  1.00  0.00    -0.550 OA
ATOM     10  O   UNL     1     -11.564   1.490  23.011  1.00  0.00    -0.550 OA
ENDBRANCH   7   8
ENDBRANCH   6   7
ENDBRANCH   5   6
ENDBRANCH   4   5
ENDBRANCH   3   4
ENDBRANCH   2   3
ENDBRANCH   1   2
BRANCH   1  11
ATOM     11  C   UNL     1     -10.961   3.986  18.392  1.00  0.00     0.000 C 
BRANCH  11  12
ATOM     12  C   UNL     1     -12.289   3.373  17.911  1.00  0.00    -0.000 C 
BRANCH  12  13
ATOM     13  C   UNL     1     -12.320   3.117  16.394  1.00  0.00    -0.000 C 
BRANCH  13  14
ATOM     14  C   UNL     1     -12.063   1.634  16.048  1.00  0.00    -0.000 C 
BRANCH  14  15
ATOM     15  C   UNL     1     -10.805   1.406  15.192  1.00  0.00    -0.000 C 
BRANCH  15  16
ATOM     16  C   UNL     1     -10.993   0.305  14.137  1.00  0.00    -0.000 C 
BRANCH  16  17
ATOM     17  C   UNL     1     -12.471   0.060  13.797  1.00  0.00    -0.003 C 
ATOM     18  C   UNL     1     -12.759  -1.394  13.422  1.00  0.00     0.004 C 
ENDBRANCH  16  17
ENDBRANCH  15  16
ENDBRANCH  14  15
ENDBRANCH  13  14
ENDBRANCH  12  13
ENDBRANCH  11  12
ENDBRANCH   1  11
TORSDOF 14
ENDMDL
