MODEL 1
REMARK VINA RESULT:    -3.407      0.000      0.000
REMARK INTER + INTRA:          -5.010
REMARK INTER:                  -4.603
REMARK INTRA:                  -0.407
REMARK UNBOUND:                -0.407
REMARK SMILES CCCCCCCC=O
REMARK SMILES IDX 5 1 4 2 3 3 2 4 1 5 6 6 7 7 8 8 9 9
REMARK H PARENT
REMARK Flexibility Score: inf
ROOT
ATOM      1  C   UNL     1      -1.035   6.929   5.048  1.00  0.00     0.000 C 
ENDROOT
BRANCH   1   2
ATOM      2  C   UNL     1       0.115   6.607   6.012  1.00  0.00     0.000 C 
BRANCH   2   3
ATOM      3  C   UNL     1       1.475   6.842   5.343  1.00  0.00    -0.000 C 
BRANCH   3   4
ATOM      4  C   UNL     1       2.307   7.858   6.133  1.00  0.00    -0.003 C 
ATOM      5  C   UNL     1       3.105   8.763   5.197  1.00  0.00     0.004 C 
ENDBRANCH   3   4
ENDBRANCH   2   3
ENDBRANCH   1   2
BRANCH   1   6
ATOM      6  C   UNL     1      -0.503   7.527   3.738  1.00  0.00     0.008 C 
BRANCH   6   7
ATOM      7  C   UNL     1      -1.016   6.769   2.506  1.00  0.00     0.072 C 
BRANCH   7   8
ATOM      8  C   UNL     1      -0.968   5.282   2.698  1.00  0.00     0.224 C 
ATOM      9  O   UNL     1       0.091   4.680   2.616  1.00  0.00    -0.303 OA
ENDBRANCH   7   8
ENDBRANCH   6   7
ENDBRANCH   1   6
TORSDOF 6
ENDMDL
MODEL 2
REMARK VINA RESULT:    -3.374      1.187      2.196
REMARK INTER + INTRA:          -4.964
REMARK INTER:                  -4.526
REMARK INTRA:                  -0.438
REMARK UNBOUND:                -0.407
REMARK SMILES CCCCCCCC=O
REMARK SMILES IDX 5 1 4 2 3 3 2 4 1 5 6 6 7 7 8 8 9 9
REMARK H PARENT
REMARK Flexibility Score: inf
ROOT
ATOM      1  C   UNL     1       0.308   7.912   4.314  1.00  0.00     0.000 C 
ENDROOT
BRANCH   1   2
ATOM      2  C   UNL     1       1.056   6.972   5.267  1.00  0.00     0.000 C 
BRANCH   2   3
ATOM      3  C   UNL     1       0.131   6.470   6.383  1.00  0.00    -0.000 C 
BRANCH   3   4
ATOM      4  C   UNL     1       0.036   7.493   7.520  1.00  0.00    -0.003 C 
ATOM      5  C   UNL     1      -1.413   7.898   7.778  1.00  0.00     0.004 C 
ENDBRANCH   3   4
ENDBRANCH   2   3
ENDBRANCH   1   2
BRANCH   1   6
ATOM      6  C   UNL     1      -1.077   7.350   3.961  1.00  0.00     0.008 C 
BRANCH   6   7
ATOM      7  C   UNL     1      -1.121   6.769   2.541  1.00  0.00     0.072 C 
BRANCH   7   8
ATOM      8  C   UNL     1      -0.983   5.275   2.538  1.00  0.00     0.224 C 
ATOM      9  O   UNL     1       0.115   4.754   2.664  1.00  0.00    -0.303 OA
ENDBRANCH   7   8
ENDBRANCH   6   7
ENDBRANCH   1   6
TORSDOF 6
ENDMDL
MODEL 3
REMARK VINA RESULT:    -3.344      2.143      2.658
REMARK INTER + INTRA:          -4.924
REMARK INTER:                  -4.464
REMARK INTRA:                  -0.460
REMARK UNBOUND:                -0.407
REMARK SMILES CCCCCCCC=O
REMARK SMILES IDX 5 1 4 2 3 3 2 4 1 5 6 6 7 7 8 8 9 9
REMARK H PARENT
REMARK Flexibility Score: inf
ROOT
ATOM      1  C   UNL     1      -2.098   8.164   3.799  1.00  0.00     0.000 C 
ENDROOT
BRANCH   1   2
ATOM      2  C   UNL     1      -2.529   7.170   4.885  1.00  0.00     0.000 C 
BRANCH   2   3
ATOM      3  C   UNL     1      -2.494   7.821   6.272  1.00  0.00    -0.000 C 
BRANCH   3   4
ATOM      4  C   UNL     1      -1.142   7.585   6.956  1.00  0.00    -0.003 C 
ATOM      5  C   UNL     1      -0.286   8.849   6.938  1.00  0.00     0.004 C 
ENDBRANCH   3   4
ENDBRANCH   2   3
ENDBRANCH   1   2
BRANCH   1   6
ATOM      6  C   UNL     1      -0.943   7.596   2.960  1.00  0.00     0.008 C 
BRANCH   6   7
ATOM      7  C   UNL     1      -0.433   6.257   3.511  1.00  0.00     0.072 C 
BRANCH   7   8
ATOM      8  C   UNL     1      -0.592   5.141   2.520  1.00  0.00     0.224 C 
ATOM      9  O   UNL     1      -1.283   5.292   1.523  1.00  0.00    -0.303 OA
ENDBRANCH   7   8
ENDBRANCH   6   7
ENDBRANCH   1   6
TORSDOF 6
ENDMDL
MODEL 4
REMARK VINA RESULT:    -3.260      1.817      3.525
REMARK INTER + INTRA:          -4.811
REMARK INTER:                  -4.441
REMARK INTRA:                  -0.369
REMARK UNBOUND:                -0.407
REMARK SMILES CCCCCCCC=O
REMARK SMILES IDX 5 1 4 2 3 3 2 4 1 5 6 6 7 7 8 8 9 9
REMARK H PARENT
REMARK Flexibility Score: inf
ROOT
ATOM      1  C   UNL     1      -0.377   6.743   5.786  1.00  0.00     0.000 C 
ENDROOT
BRANCH   1   2
ATOM      2  C   UNL     1      -1.136   8.075   5.764  1.00  0.00     0.000 C 
BRANCH   2   3
ATOM      3  C   UNL     1      -2.504   7.941   6.443  1.00  0.00    -0.000 C 
BRANCH   3   4
ATOM      4  C   UNL     1      -3.590   7.579   5.425  1.00  0.00    -0.003 C 
ATOM      5  C   UNL     1      -3.961   8.782   4.562  1.00  0.00     0.004 C 
ENDBRANCH   3   4
ENDBRANCH   2   3
ENDBRANCH   1   2
BRANCH   1   6
ATOM      6  C   UNL     1       0.229   6.431   4.410  1.00  0.00     0.008 C 
BRANCH   6   7
ATOM      7  C   UNL     1      -0.808   6.539   3.284  1.00  0.00     0.072 C 
BRANCH   7   8
ATOM      8  C   UNL     1      -0.762   5.358   2.359  1.00  0.00     0.224 C 
ATOM      9  O   UNL     1       0.076   4.483   2.513  1.00  0.00    -0.303 OA
ENDBRANCH   7   8
ENDBRANCH   6   7
ENDBRANCH   1   6
TORSDOF 6
ENDMDL
MODEL 5
REMARK VINA RESULT:    -3.234      2.035      2.711
REMARK INTER + INTRA:          -4.775
REMARK INTER:                  -4.508
REMARK INTRA:                  -0.267
REMARK UNBOUND:                -0.407
REMARK SMILES CCCCCCCC=O
REMARK SMILES IDX 5 1 4 2 3 3 2 4 1 5 6 6 7 7 8 8 9 9
REMARK H PARENT
REMARK Flexibility Score: inf
ROOT
ATOM      1  C   UNL     1       0.870   7.904   5.082  1.00  0.00     0.000 C 
ENDROOT
BRANCH   1   2
ATOM      2  C   UNL     1       0.889   8.991   3.999  1.00  0.00     0.000 C 
BRANCH   2   3
ATOM      3  C   UNL     1       2.213   9.764   4.018  1.00  0.00    -0.000 C 
BRANCH   3   4
ATOM      4  C   UNL     1       2.378  10.603   2.747  1.00  0.00    -0.003 C 
ATOM      5  C   UNL     1       1.072  10.676   1.960  1.00  0.00     0.004 C 
ENDBRANCH   3   4
ENDBRANCH   2   3
ENDBRANCH   1   2
BRANCH   1   6
ATOM      6  C   UNL     1       0.311   6.585   4.527  1.00  0.00     0.008 C 
BRANCH   6   7
ATOM      7  C   UNL     1      -0.601   6.808   3.314  1.00  0.00     0.072 C 
BRANCH   7   8
ATOM      8  C   UNL     1      -0.848   5.539   2.552  1.00  0.00     0.224 C 
ATOM      9  O   UNL     1      -0.015   4.645   2.551  1.00  0.00    -0.303 OA
ENDBRANCH   7   8
ENDBRANCH   6   7
ENDBRANCH   1   6
TORSDOF 6
ENDMDL
MODEL 6
REMARK VINA RESULT:    -3.231     15.240     16.093
REMARK INTER + INTRA:          -4.772
REMARK INTER:                  -4.543
REMARK INTRA:                  -0.229
REMARK UNBOUND:                -0.407
REMARK SMILES CCCCCCCC=O
REMARK SMILES IDX 5 1 4 2 3 3 2 4 1 5 6 6 7 7 8 8 9 9
REMARK H PARENT
REMARK Flexibility Score: inf
ROOT
ATOM      1  C   UNL     1       9.467   1.864  -8.197  1.00  0.00     0.000 C 
ENDROOT
BRANCH   1   2
ATOM      2  C   UNL     1       9.061   1.148  -6.903  1.00  0.00     0.000 C 
BRANCH   2   3
ATOM      3  C   UNL     1       7.847   0.240  -7.133  1.00  0.00    -0.000 C 
BRANCH   3   4
ATOM      4  C   UNL     1       7.166   0.562  -8.468  1.00  0.00    -0.003 C 
ATOM      5  C   UNL     1       5.673   0.248  -8.416  1.00  0.00     0.004 C 
ENDBRANCH   3   4
ENDBRANCH   2   3
ENDBRANCH   1   2
BRANCH   1   6
ATOM      6  C   UNL     1      10.705   2.745  -7.973  1.00  0.00     0.008 C 
BRANCH   6   7
ATOM      7  C   UNL     1      10.661   3.472  -6.622  1.00  0.00     0.072 C 
BRANCH   7   8
ATOM      8  C   UNL     1      11.317   4.820  -6.684  1.00  0.00     0.224 C 
ATOM      9  O   UNL     1      11.082   5.663  -5.832  1.00  0.00    -0.303 OA
ENDBRANCH   7   8
ENDBRANCH   6   7
ENDBRANCH   1   6
TORSDOF 6
ENDMDL
MODEL 7
REMARK VINA RESULT:    -3.208     12.561     13.404
REMARK INTER + INTRA:          -4.741
REMARK INTER:                  -4.388
REMARK INTRA:                  -0.353
REMARK UNBOUND:                -0.407
REMARK SMILES CCCCCCCC=O
REMARK SMILES IDX 5 1 4 2 3 3 2 4 1 5 6 6 7 7 8 8 9 9
REMARK H PARENT
REMARK Flexibility Score: inf
ROOT
ATOM      1  C   UNL     1       7.918  -3.290   0.138  1.00  0.00     0.000 C 
ENDROOT
BRANCH   1   2
ATOM      2  C   UNL     1       9.053  -2.580   0.887  1.00  0.00     0.000 C 
BRANCH   2   3
ATOM      3  C   UNL     1       8.599  -2.139   2.283  1.00  0.00    -0.000 C 
BRANCH   3   4
ATOM      4  C   UNL     1       7.071  -2.064   2.367  1.00  0.00    -0.003 C 
ATOM      5  C   UNL     1       6.614  -1.648   3.763  1.00  0.00     0.004 C 
ENDBRANCH   3   4
ENDBRANCH   2   3
ENDBRANCH   1   2
BRANCH   1   6
ATOM      6  C   UNL     1       8.418  -4.583  -0.521  1.00  0.00     0.008 C 
BRANCH   6   7
ATOM      7  C   UNL     1       7.941  -5.836   0.227  1.00  0.00     0.072 C 
BRANCH   7   8
ATOM      8  C   UNL     1       6.796  -5.539   1.152  1.00  0.00     0.224 C 
ATOM      9  O   UNL     1       5.718  -6.093   1.000  1.00  0.00    -0.303 OA
ENDBRANCH   7   8
ENDBRANCH   6   7
ENDBRANCH   1   6
TORSDOF 6
ENDMDL
MODEL 8
REMARK VINA RESULT:    -3.193     13.628     14.626
REMARK INTER + INTRA:          -4.721
REMARK INTER:                  -4.412
REMARK INTRA:                  -0.309
REMARK UNBOUND:                -0.407
REMARK SMILES CCCCCCCC=O
REMARK SMILES IDX 5 1 4 2 3 3 2 4 1 5 6 6 7 7 8 8 9 9
REMARK H PARENT
REMARK Flexibility Score: inf
ROOT
ATOM      1  C   UNL     1       8.913  -5.203   0.040  1.00  0.00     0.000 C 
ENDROOT
BRANCH   1   2
ATOM      2  C   UNL     1       8.664  -3.894  -0.719  1.00  0.00     0.000 C 
BRANCH   2   3
ATOM      3  C   UNL     1       8.318  -2.754   0.247  1.00  0.00    -0.000 C 
BRANCH   3   4
ATOM      4  C   UNL     1       7.239  -3.189   1.244  1.00  0.00    -0.003 C 
ATOM      5  C   UNL     1       7.102  -2.180   2.382  1.00  0.00     0.004 C 
ENDBRANCH   3   4
ENDBRANCH   2   3
ENDBRANCH   1   2
BRANCH   1   6
ATOM      6  C   UNL     1       8.321  -6.400  -0.718  1.00  0.00     0.008 C 
BRANCH   6   7
ATOM      7  C   UNL     1       7.698  -7.434   0.230  1.00  0.00     0.072 C 
BRANCH   7   8
ATOM      8  C   UNL     1       6.210  -7.274   0.340  1.00  0.00     0.224 C 
ATOM      9  O   UNL     1       5.731  -6.410   1.058  1.00  0.00    -0.303 OA
ENDBRANCH   7   8
ENDBRANCH   6   7
ENDBRANCH   1   6
TORSDOF 6
ENDMDL
MODEL 9
REMARK VINA RESULT:    -3.085      2.560      4.364
REMARK INTER + INTRA:          -4.574
REMARK INTER:                  -4.332
REMARK INTRA:                  -0.241
REMARK UNBOUND:                -0.407
REMARK SMILES CCCCCCCC=O
REMARK SMILES IDX 5 1 4 2 3 3 2 4 1 5 6 6 7 7 8 8 9 9
REMARK H PARENT
REMARK Flexibility Score: inf
ROOT
ATOM      1  C   UNL     1       0.926   7.516   4.678  1.00  0.00     0.000 C 
ENDROOT
BRANCH   1   2
ATOM      2  C   UNL     1      -0.274   6.591   4.915  1.00  0.00     0.000 C 
BRANCH   2   3
ATOM      3  C   UNL     1      -1.433   6.942   3.974  1.00  0.00    -0.000 C 
BRANCH   3   4
ATOM      4  C   UNL     1      -1.097   6.568   2.526  1.00  0.00    -0.003 C 
ATOM      5  C   UNL     1      -0.780   5.081   2.399  1.00  0.00     0.004 C 
ENDBRANCH   3   4
ENDBRANCH   2   3
ENDBRANCH   1   2
BRANCH   1   6
ATOM      6  C   UNL     1       0.503   8.992   4.735  1.00  0.00     0.008 C 
BRANCH   6   7
ATOM      7  C   UNL     1       0.849   9.742   3.441  1.00  0.00     0.072 C 
BRANCH   7   8
ATOM      8  C   UNL     1       2.182  10.426   3.525  1.00  0.00     0.224 C 
ATOM      9  O   UNL     1       3.133   9.868   4.051  1.00  0.00    -0.303 OA
ENDBRANCH   7   8
ENDBRANCH   6   7
ENDBRANCH   1   6
TORSDOF 6
ENDMDL
