MODEL 1
REMARK VINA RESULT:    -6.242      0.000      0.000
REMARK INTER + INTRA:          -8.779
REMARK INTER:                  -7.701
REMARK INTRA:                  -1.078
REMARK UNBOUND:                -1.078
REMARK SMILES CC(C)=CCC[C@@H](C)[C@H]1C=CC(C)=CC1
REMARK SMILES IDX 6 1 7 2 8 3 9 4 13 5 12 6 14 7 11 8 15 9 10 10 5 11 4 12
REMARK SMILES IDX 2 13 1 14 3 15
REMARK H PARENT
REMARK Flexibility Score: inf
ROOT
ATOM      1  C   UNL     1       3.152  13.332   5.626  1.00  0.00     0.008 C 
ENDROOT
BRANCH   1   2
ATOM      2  C   UNL     1       3.432  13.277   4.095  1.00  0.00    -0.007 C 
ATOM      3  C   UNL     1       3.468  11.812   3.615  1.00  0.00     0.008 C 
BRANCH   2   4
ATOM      4  C   UNL     1       2.375  14.133   3.320  1.00  0.00     0.018 C 
ATOM      5  C   UNL     1       0.148  16.072   0.122  1.00  0.00     0.044 C 
ATOM      6  C   UNL     1       0.972  15.282   1.094  1.00  0.00    -0.055 C 
ATOM      7  C   UNL     1       0.480  14.165   1.652  1.00  0.00    -0.023 C 
ATOM      8  C   UNL     1       2.367  15.684   1.377  1.00  0.00    -0.001 C 
ATOM      9  C   UNL     1       1.348  13.291   2.520  1.00  0.00     0.035 C 
ATOM     10  C   UNL     1       3.052  15.113   2.372  1.00  0.00    -0.023 C 
ENDBRANCH   2   4
ENDBRANCH   1   2
BRANCH   1  11
ATOM     11  C   UNL     1       1.745  13.849   5.990  1.00  0.00     0.027 C 
BRANCH  11  12
ATOM     12  C   UNL     1       0.798  12.737   6.383  1.00  0.00    -0.028 C 
ATOM     13  C   UNL     1      -0.514  12.740   6.065  1.00  0.00    -0.080 C 
ATOM     14  C   UNL     1      -1.135  13.870   5.281  1.00  0.00     0.039 C 
ATOM     15  C   UNL     1      -1.368  11.581   6.509  1.00  0.00     0.039 C 
ENDBRANCH  11  12
ENDBRANCH   1  11
TORSDOF 4
ENDMDL
MODEL 2
REMARK VINA RESULT:    -6.194      1.501      4.909
REMARK INTER + INTRA:          -8.720
REMARK INTER:                  -7.922
REMARK INTRA:                  -0.798
REMARK UNBOUND:                -1.078
REMARK SMILES CC(C)=CCC[C@@H](C)[C@H]1C=CC(C)=CC1
REMARK SMILES IDX 6 1 7 2 8 3 9 4 13 5 12 6 14 7 11 8 15 9 10 10 5 11 4 12
REMARK SMILES IDX 2 13 1 14 3 15
REMARK H PARENT
REMARK Flexibility Score: inf
ROOT
ATOM      1  C   UNL     1       3.815  13.763   4.306  1.00  0.00     0.008 C 
ENDROOT
BRANCH   1   2
ATOM      2  C   UNL     1       2.842  12.808   3.556  1.00  0.00    -0.007 C 
ATOM      3  C   UNL     1       3.401  11.370   3.560  1.00  0.00     0.008 C 
BRANCH   2   4
ATOM      4  C   UNL     1       1.409  12.891   4.182  1.00  0.00     0.018 C 
ATOM      5  C   UNL     1      -2.128  14.338   6.265  1.00  0.00     0.044 C 
ATOM      6  C   UNL     1      -0.865  14.019   5.522  1.00  0.00    -0.055 C 
ATOM      7  C   UNL     1      -0.846  14.027   4.181  1.00  0.00    -0.023 C 
ATOM      8  C   UNL     1       0.390  13.781   6.268  1.00  0.00    -0.001 C 
ATOM      9  C   UNL     1       0.447  13.845   3.428  1.00  0.00     0.035 C 
ATOM     10  C   UNL     1       1.474  13.314   5.643  1.00  0.00    -0.023 C 
ENDBRANCH   2   4
ENDBRANCH   1   2
BRANCH   1  11
ATOM     11  C   UNL     1       4.321  14.944   3.452  1.00  0.00     0.027 C 
BRANCH  11  12
ATOM     12  C   UNL     1       3.438  15.220   2.255  1.00  0.00    -0.028 C 
ATOM     13  C   UNL     1       3.473  16.380   1.565  1.00  0.00    -0.080 C 
ATOM     14  C   UNL     1       4.414  17.498   1.945  1.00  0.00     0.039 C 
ATOM     15  C   UNL     1       2.547  16.550   0.389  1.00  0.00     0.039 C 
ENDBRANCH  11  12
ENDBRANCH   1  11
TORSDOF 4
ENDMDL
MODEL 3
REMARK VINA RESULT:    -6.114      0.704      1.642
REMARK INTER + INTRA:          -8.622
REMARK INTER:                  -7.508
REMARK INTRA:                  -1.114
REMARK UNBOUND:                -1.078
REMARK SMILES CC(C)=CCC[C@@H](C)[C@H]1C=CC(C)=CC1
REMARK SMILES IDX 6 1 7 2 8 3 9 4 13 5 12 6 14 7 11 8 15 9 10 10 5 11 4 12
REMARK SMILES IDX 2 13 1 14 3 15
REMARK H PARENT
REMARK Flexibility Score: inf
ROOT
ATOM      1  C   UNL     1       3.240  13.805   5.113  1.00  0.00     0.008 C 
ENDROOT
BRANCH   1   2
ATOM      2  C   UNL     1       3.581  13.037   3.803  1.00  0.00    -0.007 C 
ATOM      3  C   UNL     1       3.228  11.544   3.957  1.00  0.00     0.008 C 
BRANCH   2   4
ATOM      4  C   UNL     1       2.856  13.699   2.583  1.00  0.00     0.018 C 
ATOM      5  C   UNL     1       0.135  16.098   0.178  1.00  0.00     0.044 C 
ATOM      6  C   UNL     1       1.038  15.392   1.145  1.00  0.00    -0.055 C 
ATOM      7  C   UNL     1       2.290  15.827   1.347  1.00  0.00    -0.023 C 
ATOM      8  C   UNL     1       0.520  14.262   1.946  1.00  0.00    -0.001 C 
ATOM      9  C   UNL     1       3.156  15.211   2.416  1.00  0.00     0.035 C 
ATOM     10  C   UNL     1       1.349  13.504   2.669  1.00  0.00    -0.023 C 
ENDBRANCH   2   4
ENDBRANCH   1   2
BRANCH   1  11
ATOM     11  C   UNL     1       2.204  13.094   6.009  1.00  0.00     0.027 C 
BRANCH  11  12
ATOM     12  C   UNL     1       0.924  13.885   6.161  1.00  0.00    -0.028 C 
ATOM     13  C   UNL     1      -0.300  13.352   5.956  1.00  0.00    -0.080 C 
ATOM     14  C   UNL     1      -0.476  11.907   5.555  1.00  0.00     0.039 C 
ATOM     15  C   UNL     1      -1.510  14.231   6.134  1.00  0.00     0.039 C 
ENDBRANCH  11  12
ENDBRANCH   1  11
TORSDOF 4
ENDMDL
MODEL 4
REMARK VINA RESULT:    -6.097      2.190      4.557
REMARK INTER + INTRA:          -8.601
REMARK INTER:                  -7.922
REMARK INTRA:                  -0.679
REMARK UNBOUND:                -1.078
REMARK SMILES CC(C)=CCC[C@@H](C)[C@H]1C=CC(C)=CC1
REMARK SMILES IDX 6 1 7 2 8 3 9 4 13 5 12 6 14 7 11 8 15 9 10 10 5 11 4 12
REMARK SMILES IDX 2 13 1 14 3 15
REMARK H PARENT
REMARK Flexibility Score: inf
ROOT
ATOM      1  C   UNL     1      -1.459  13.976   5.564  1.00  0.00     0.008 C 
ENDROOT
BRANCH   1   2
ATOM      2  C   UNL     1      -0.581  12.958   6.350  1.00  0.00    -0.007 C 
ATOM      3  C   UNL     1      -1.331  11.619   6.502  1.00  0.00     0.008 C 
BRANCH   2   4
ATOM      4  C   UNL     1       0.809  12.787   5.650  1.00  0.00     0.018 C 
ATOM      5  C   UNL     1       4.493  13.618   3.487  1.00  0.00     0.044 C 
ATOM      6  C   UNL     1       3.221  13.513   4.274  1.00  0.00    -0.055 C 
ATOM      7  C   UNL     1       3.257  13.406   5.611  1.00  0.00    -0.023 C 
ATOM      8  C   UNL     1       1.916  13.617   3.585  1.00  0.00    -0.001 C 
ATOM      9  C   UNL     1       1.986  13.441   6.420  1.00  0.00     0.035 C 
ATOM     10  C   UNL     1       0.781  13.341   4.233  1.00  0.00    -0.023 C 
ENDBRANCH   2   4
ENDBRANCH   1   2
BRANCH   1  11
ATOM     11  C   UNL     1      -2.336  14.875   6.459  1.00  0.00     0.027 C 
BRANCH  11  12
ATOM     12  C   UNL     1      -3.744  15.031   5.929  1.00  0.00    -0.028 C 
ATOM     13  C   UNL     1      -4.761  14.219   6.289  1.00  0.00    -0.080 C 
ATOM     14  C   UNL     1      -4.558  13.082   7.262  1.00  0.00     0.039 C 
ATOM     15  C   UNL     1      -6.125  14.462   5.699  1.00  0.00     0.039 C 
ENDBRANCH  11  12
ENDBRANCH   1  11
TORSDOF 4
ENDMDL
MODEL 5
REMARK VINA RESULT:    -6.032      2.295      4.705
REMARK INTER + INTRA:          -8.520
REMARK INTER:                  -7.974
REMARK INTRA:                  -0.546
REMARK UNBOUND:                -1.078
REMARK SMILES CC(C)=CCC[C@@H](C)[C@H]1C=CC(C)=CC1
REMARK SMILES IDX 6 1 7 2 8 3 9 4 13 5 12 6 14 7 11 8 15 9 10 10 5 11 4 12
REMARK SMILES IDX 2 13 1 14 3 15
REMARK H PARENT
REMARK Flexibility Score: inf
ROOT
ATOM      1  C   UNL     1      -1.586  14.103   5.578  1.00  0.00     0.008 C 
ENDROOT
BRANCH   1   2
ATOM      2  C   UNL     1      -0.713  13.053   6.325  1.00  0.00    -0.007 C 
ATOM      3  C   UNL     1      -1.481  11.722   6.457  1.00  0.00     0.008 C 
BRANCH   2   4
ATOM      4  C   UNL     1       0.664  12.877   5.600  1.00  0.00     0.018 C 
ATOM      5  C   UNL     1       4.345  13.710   3.432  1.00  0.00     0.044 C 
ATOM      6  C   UNL     1       3.080  13.602   4.230  1.00  0.00    -0.055 C 
ATOM      7  C   UNL     1       3.128  13.428   5.559  1.00  0.00    -0.023 C 
ATOM      8  C   UNL     1       1.771  13.776   3.564  1.00  0.00    -0.001 C 
ATOM      9  C   UNL     1       1.868  13.459   6.386  1.00  0.00     0.035 C 
ATOM     10  C   UNL     1       0.635  13.501   4.212  1.00  0.00    -0.023 C 
ENDBRANCH   2   4
ENDBRANCH   1   2
BRANCH   1  11
ATOM     11  C   UNL     1      -2.261  15.135   6.504  1.00  0.00     0.027 C 
BRANCH  11  12
ATOM     12  C   UNL     1      -3.111  16.131   5.747  1.00  0.00    -0.028 C 
ATOM     13  C   UNL     1      -4.414  15.921   5.461  1.00  0.00    -0.080 C 
ATOM     14  C   UNL     1      -5.123  14.658   5.887  1.00  0.00     0.039 C 
ATOM     15  C   UNL     1      -5.167  16.980   4.699  1.00  0.00     0.039 C 
ENDBRANCH  11  12
ENDBRANCH   1  11
TORSDOF 4
ENDMDL
MODEL 6
REMARK VINA RESULT:    -5.977      1.519      5.851
REMARK INTER + INTRA:          -8.452
REMARK INTER:                  -7.782
REMARK INTRA:                  -0.670
REMARK UNBOUND:                -1.078
REMARK SMILES CC(C)=CCC[C@@H](C)[C@H]1C=CC(C)=CC1
REMARK SMILES IDX 6 1 7 2 8 3 9 4 13 5 12 6 14 7 11 8 15 9 10 10 5 11 4 12
REMARK SMILES IDX 2 13 1 14 3 15
REMARK H PARENT
REMARK Flexibility Score: inf
ROOT
ATOM      1  C   UNL     1       0.704  13.753   4.095  1.00  0.00     0.008 C 
ENDROOT
BRANCH   1   2
ATOM      2  C   UNL     1       0.891  12.910   5.391  1.00  0.00    -0.007 C 
ATOM      3  C   UNL     1       2.133  13.397   6.165  1.00  0.00     0.008 C 
BRANCH   2   4
ATOM      4  C   UNL     1      -0.410  12.958   6.261  1.00  0.00     0.018 C 
ATOM      5  C   UNL     1      -4.590  13.001   7.471  1.00  0.00     0.044 C 
ATOM      6  C   UNL     1      -3.208  12.901   6.898  1.00  0.00    -0.055 C 
ATOM      7  C   UNL     1      -2.503  11.767   7.018  1.00  0.00    -0.023 C 
ATOM      8  C   UNL     1      -2.649  14.029   6.121  1.00  0.00    -0.001 C 
ATOM      9  C   UNL     1      -1.173  11.610   6.327  1.00  0.00     0.035 C 
ATOM     10  C   UNL     1      -1.361  14.037   5.765  1.00  0.00    -0.023 C 
ENDBRANCH   2   4
ENDBRANCH   1   2
BRANCH   1  11
ATOM     11  C   UNL     1       1.718  13.426   2.979  1.00  0.00     0.027 C 
BRANCH  11  12
ATOM     12  C   UNL     1       2.118  14.645   2.179  1.00  0.00    -0.028 C 
ATOM     13  C   UNL     1       3.307  15.268   2.329  1.00  0.00    -0.080 C 
ATOM     14  C   UNL     1       4.335  14.781   3.322  1.00  0.00     0.039 C 
ATOM     15  C   UNL     1       3.602  16.477   1.480  1.00  0.00     0.039 C 
ENDBRANCH  11  12
ENDBRANCH   1  11
TORSDOF 4
ENDMDL
MODEL 7
REMARK VINA RESULT:    -5.822      1.814      2.781
REMARK INTER + INTRA:          -8.262
REMARK INTER:                  -7.352
REMARK INTRA:                  -0.909
REMARK UNBOUND:                -1.078
REMARK SMILES CC(C)=CCC[C@@H](C)[C@H]1C=CC(C)=CC1
REMARK SMILES IDX 6 1 7 2 8 3 9 4 13 5 12 6 14 7 11 8 15 9 10 10 5 11 4 12
REMARK SMILES IDX 2 13 1 14 3 15
REMARK H PARENT
REMARK Flexibility Score: inf
ROOT
ATOM      1  C   UNL     1       2.777  13.312   2.751  1.00  0.00     0.008 C 
ENDROOT
BRANCH   1   2
ATOM      2  C   UNL     1       2.145  14.687   2.386  1.00  0.00    -0.007 C 
ATOM      3  C   UNL     1       3.249  15.692   1.998  1.00  0.00     0.008 C 
BRANCH   2   4
ATOM      4  C   UNL     1       1.077  14.509   1.255  1.00  0.00     0.018 C 
ATOM      5  C   UNL     1      -1.841  12.751  -1.454  1.00  0.00     0.044 C 
ATOM      6  C   UNL     1      -0.872  13.214  -0.407  1.00  0.00    -0.055 C 
ATOM      7  C   UNL     1      -1.302  13.912   0.655  1.00  0.00    -0.023 C 
ATOM      8  C   UNL     1       0.552  12.825  -0.497  1.00  0.00    -0.001 C 
ATOM      9  C   UNL     1      -0.360  14.259   1.779  1.00  0.00     0.035 C 
ATOM     10  C   UNL     1       1.460  13.376   0.313  1.00  0.00    -0.023 C 
ENDBRANCH   2   4
ENDBRANCH   1   2
BRANCH   1  11
ATOM     11  C   UNL     1       2.638  12.931   4.240  1.00  0.00     0.027 C 
BRANCH  11  12
ATOM     12  C   UNL     1       1.325  12.246   4.548  1.00  0.00    -0.028 C 
ATOM     13  C   UNL     1       0.524  12.615   5.570  1.00  0.00    -0.080 C 
ATOM     14  C   UNL     1       0.889  13.755   6.490  1.00  0.00     0.039 C 
ATOM     15  C   UNL     1      -0.763  11.862   5.787  1.00  0.00     0.039 C 
ENDBRANCH  11  12
ENDBRANCH   1  11
TORSDOF 4
ENDMDL
MODEL 8
REMARK VINA RESULT:    -5.703      2.032      5.032
REMARK INTER + INTRA:          -8.114
REMARK INTER:                  -7.373
REMARK INTRA:                  -0.741
REMARK UNBOUND:                -1.078
REMARK SMILES CC(C)=CCC[C@@H](C)[C@H]1C=CC(C)=CC1
REMARK SMILES IDX 6 1 7 2 8 3 9 4 13 5 12 6 14 7 11 8 15 9 10 10 5 11 4 12
REMARK SMILES IDX 2 13 1 14 3 15
REMARK H PARENT
REMARK Flexibility Score: inf
ROOT
ATOM      1  C   UNL     1       0.684  13.332   6.589  1.00  0.00     0.008 C 
ENDROOT
BRANCH   1   2
ATOM      2  C   UNL     1      -0.600  12.923   5.810  1.00  0.00    -0.007 C 
ATOM      3  C   UNL     1      -1.256  11.697   6.475  1.00  0.00     0.008 C 
BRANCH   2   4
ATOM      4  C   UNL     1      -1.580  14.140   5.703  1.00  0.00     0.018 C 
ATOM      5  C   UNL     1      -4.880  16.714   4.511  1.00  0.00     0.044 C 
ATOM      6  C   UNL     1      -3.848  15.685   4.862  1.00  0.00    -0.055 C 
ATOM      7  C   UNL     1      -3.930  15.007   6.017  1.00  0.00    -0.023 C 
ATOM      8  C   UNL     1      -2.781  15.351   3.895  1.00  0.00    -0.001 C 
ATOM      9  C   UNL     1      -2.980  13.876   6.314  1.00  0.00     0.035 C 
ATOM     10  C   UNL     1      -1.751  14.581   4.257  1.00  0.00    -0.023 C 
ENDBRANCH   2   4
ENDBRANCH   1   2
BRANCH   1  11
ATOM     11  C   UNL     1       1.979  13.259   5.754  1.00  0.00     0.027 C 
BRANCH  11  12
ATOM     12  C   UNL     1       1.749  13.576   4.292  1.00  0.00    -0.028 C 
ATOM     13  C   UNL     1       2.386  12.933   3.290  1.00  0.00    -0.080 C 
ATOM     14  C   UNL     1       3.387  11.837   3.564  1.00  0.00     0.039 C 
ATOM     15  C   UNL     1       2.083  13.330   1.869  1.00  0.00     0.039 C 
ENDBRANCH  11  12
ENDBRANCH   1  11
TORSDOF 4
ENDMDL
MODEL 9
REMARK VINA RESULT:    -5.515      1.715      3.085
REMARK INTER + INTRA:          -7.882
REMARK INTER:                  -7.228
REMARK INTRA:                  -0.654
REMARK UNBOUND:                -1.078
REMARK SMILES CC(C)=CCC[C@@H](C)[C@H]1C=CC(C)=CC1
REMARK SMILES IDX 6 1 7 2 8 3 9 4 13 5 12 6 14 7 11 8 15 9 10 10 5 11 4 12
REMARK SMILES IDX 2 13 1 14 3 15
REMARK H PARENT
REMARK Flexibility Score: inf
ROOT
ATOM      1  C   UNL     1      -0.279  12.226   6.018  1.00  0.00     0.008 C 
ENDROOT
BRANCH   1   2
ATOM      2  C   UNL     1       0.677  13.392   5.633  1.00  0.00    -0.007 C 
ATOM      3  C   UNL     1       1.946  13.348   6.509  1.00  0.00     0.008 C 
BRANCH   2   4
ATOM      4  C   UNL     1       1.007  13.340   4.103  1.00  0.00     0.018 C 
ATOM      5  C   UNL     1       1.823  14.521  -0.006  1.00  0.00     0.044 C 
ATOM      6  C   UNL     1       1.597  14.286   1.458  1.00  0.00    -0.055 C 
ATOM      7  C   UNL     1       2.619  13.944   2.257  1.00  0.00    -0.023 C 
ATOM      8  C   UNL     1       0.259  14.516   2.044  1.00  0.00    -0.001 C 
ATOM      9  C   UNL     1       2.430  13.842   3.748  1.00  0.00     0.035 C 
ATOM     10  C   UNL     1      -0.010  14.135   3.296  1.00  0.00    -0.023 C 
ENDBRANCH   2   4
ENDBRANCH   1   2
BRANCH   1  11
ATOM     11  C   UNL     1      -1.681  12.685   6.473  1.00  0.00     0.027 C 
BRANCH  11  12
ATOM     12  C   UNL     1      -1.961  14.131   6.129  1.00  0.00    -0.028 C 
ATOM     13  C   UNL     1      -3.201  14.666   6.151  1.00  0.00    -0.080 C 
ATOM     14  C   UNL     1      -4.410  13.845   6.527  1.00  0.00     0.039 C 
ATOM     15  C   UNL     1      -3.368  16.119   5.788  1.00  0.00     0.039 C 
ENDBRANCH  11  12
ENDBRANCH   1  11
TORSDOF 4
ENDMDL
