MODEL 1
REMARK VINA RESULT:    -3.281      0.000      0.000
REMARK INTER + INTRA:          -3.936
REMARK INTER:                  -3.856
REMARK INTRA:                  -0.079
REMARK UNBOUND:                -0.079
REMARK SMILES O=C([O-])CCC(=O)[O-]
REMARK SMILES IDX 4 1 2 2 1 3 3 4 5 5 6 6 7 7 8 8
REMARK H PARENT
REMARK Flexibility Score: inf
ROOT
ATOM      1  C   UNL     1      45.835  12.704 -30.467  1.00  0.00     0.059 C 
ENDROOT
BRANCH   1   2
ATOM      2  C   UNL     1      46.486  11.462 -29.939  1.00  0.00     0.042 C 
ATOM      3  O   UNL     1      47.372  10.875 -30.616  1.00  0.00    -0.550 OA
ATOM      4  O   UNL     1      46.147  10.977 -28.683  1.00  0.00    -0.550 OA
ENDBRANCH   1   2
BRANCH   1   5
ATOM      5  C   UNL     1      44.718  12.375 -31.464  1.00  0.00     0.059 C 
BRANCH   5   6
ATOM      6  C   UNL     1      45.190  12.494 -32.880  1.00  0.00     0.042 C 
ATOM      7  O   UNL     1      46.399  12.743 -33.127  1.00  0.00    -0.550 OA
ATOM      8  O   UNL     1      44.285  12.370 -33.927  1.00  0.00    -0.550 OA
ENDBRANCH   5   6
ENDBRANCH   1   5
TORSDOF 3
ENDMDL
MODEL 2
REMARK VINA RESULT:    -3.227      0.112      3.794
REMARK INTER + INTRA:          -3.872
REMARK INTER:                  -3.768
REMARK INTRA:                  -0.105
REMARK UNBOUND:                -0.079
REMARK SMILES O=C([O-])CCC(=O)[O-]
REMARK SMILES IDX 4 1 2 2 1 3 3 4 5 5 6 6 7 7 8 8
REMARK H PARENT
REMARK Flexibility Score: inf
ROOT
ATOM      1  C   UNL     1      44.735  12.463 -31.449  1.00  0.00     0.059 C 
ENDROOT
BRANCH   1   2
ATOM      2  C   UNL     1      45.197  12.500 -32.874  1.00  0.00     0.042 C 
ATOM      3  O   UNL     1      44.368  12.361 -33.812  1.00  0.00    -0.550 OA
ATOM      4  O   UNL     1      46.535  12.729 -33.167  1.00  0.00    -0.550 OA
ENDBRANCH   1   2
BRANCH   1   5
ATOM      5  C   UNL     1      45.883  12.747 -30.475  1.00  0.00     0.059 C 
BRANCH   5   6
ATOM      6  C   UNL     1      46.459  11.482 -29.918  1.00  0.00     0.042 C 
ATOM      7  O   UNL     1      47.374  10.875 -30.536  1.00  0.00    -0.550 OA
ATOM      8  O   UNL     1      45.958  10.952 -28.735  1.00  0.00    -0.550 OA
ENDBRANCH   5   6
ENDBRANCH   1   5
TORSDOF 3
ENDMDL
MODEL 3
REMARK VINA RESULT:    -3.031      4.582      6.685
REMARK INTER + INTRA:          -3.642
REMARK INTER:                  -3.587
REMARK INTRA:                  -0.055
REMARK UNBOUND:                -0.079
REMARK SMILES O=C([O-])CCC(=O)[O-]
REMARK SMILES IDX 4 1 2 2 1 3 3 4 5 5 6 6 7 7 8 8
REMARK H PARENT
REMARK Flexibility Score: inf
ROOT
ATOM      1  C   UNL     1      41.717  13.307 -36.530  1.00  0.00     0.059 C 
ENDROOT
BRANCH   1   2
ATOM      2  C   UNL     1      40.863  14.288 -35.787  1.00  0.00     0.042 C 
ATOM      3  O   UNL     1      41.367  15.351 -35.335  1.00  0.00    -0.550 OA
ATOM      4  O   UNL     1      39.504  14.051 -35.629  1.00  0.00    -0.550 OA
ENDBRANCH   1   2
BRANCH   1   5
ATOM      5  C   UNL     1      42.015  12.063 -35.686  1.00  0.00     0.059 C 
BRANCH   5   6
ATOM      6  C   UNL     1      43.478  11.929 -35.398  1.00  0.00     0.042 C 
ATOM      7  O   UNL     1      43.914  12.101 -34.229  1.00  0.00    -0.550 OA
ATOM      8  O   UNL     1      44.367  11.652 -36.431  1.00  0.00    -0.550 OA
ENDBRANCH   5   6
ENDBRANCH   1   5
TORSDOF 3
ENDMDL
MODEL 4
REMARK VINA RESULT:    -3.011      4.703      6.254
REMARK INTER + INTRA:          -3.618
REMARK INTER:                  -3.550
REMARK INTRA:                  -0.068
REMARK UNBOUND:                -0.079
REMARK SMILES O=C([O-])CCC(=O)[O-]
REMARK SMILES IDX 4 1 2 2 1 3 3 4 5 5 6 6 7 7 8 8
REMARK H PARENT
REMARK Flexibility Score: inf
ROOT
ATOM      1  C   UNL     1      41.830  12.068 -35.761  1.00  0.00     0.059 C 
ENDROOT
BRANCH   1   2
ATOM      2  C   UNL     1      43.289  11.958 -35.439  1.00  0.00     0.042 C 
ATOM      3  O   UNL     1      43.682  12.038 -34.245  1.00  0.00    -0.550 OA
ATOM      4  O   UNL     1      44.210  11.725 -36.452  1.00  0.00    -0.550 OA
ENDBRANCH   1   2
BRANCH   1   5
ATOM      5  C   UNL     1      41.526  13.323 -36.586  1.00  0.00     0.059 C 
BRANCH   5   6
ATOM      6  C   UNL     1      40.776  14.342 -35.785  1.00  0.00     0.042 C 
ATOM      7  O   UNL     1      41.374  15.344 -35.314  1.00  0.00    -0.550 OA
ATOM      8  O   UNL     1      39.422  14.163 -35.525  1.00  0.00    -0.550 OA
ENDBRANCH   5   6
ENDBRANCH   1   5
TORSDOF 3
ENDMDL
MODEL 5
REMARK VINA RESULT:    -2.958     18.216     19.202
REMARK INTER + INTRA:          -3.556
REMARK INTER:                  -3.487
REMARK INTRA:                  -0.070
REMARK UNBOUND:                -0.079
REMARK SMILES O=C([O-])CCC(=O)[O-]
REMARK SMILES IDX 4 1 2 2 1 3 3 4 5 5 6 6 7 7 8 8
REMARK H PARENT
REMARK Flexibility Score: inf
ROOT
ATOM      1  C   UNL     1      56.794  26.970 -33.897  1.00  0.00     0.059 C 
ENDROOT
BRANCH   1   2
ATOM      2  C   UNL     1      55.835  26.892 -35.045  1.00  0.00     0.042 C 
ATOM      3  O   UNL     1      55.598  27.915 -35.742  1.00  0.00    -0.550 OA
ATOM      4  O   UNL     1      55.238  25.682 -35.374  1.00  0.00    -0.550 OA
ENDBRANCH   1   2
BRANCH   1   5
ATOM      5  C   UNL     1      56.868  28.387 -33.317  1.00  0.00     0.059 C 
BRANCH   5   6
ATOM      6  C   UNL     1      56.248  28.459 -31.956  1.00  0.00     0.042 C 
ATOM      7  O   UNL     1      56.266  27.455 -31.196  1.00  0.00    -0.550 OA
ATOM      8  O   UNL     1      55.614  29.625 -31.542  1.00  0.00    -0.550 OA
ENDBRANCH   5   6
ENDBRANCH   1   5
TORSDOF 3
ENDMDL
MODEL 6
REMARK VINA RESULT:    -2.956     18.238     18.975
REMARK INTER + INTRA:          -3.554
REMARK INTER:                  -3.483
REMARK INTRA:                  -0.071
REMARK UNBOUND:                -0.079
REMARK SMILES O=C([O-])CCC(=O)[O-]
REMARK SMILES IDX 4 1 2 2 1 3 3 4 5 5 6 6 7 7 8 8
REMARK H PARENT
REMARK Flexibility Score: inf
ROOT
ATOM      1  C   UNL     1      56.877  28.407 -33.298  1.00  0.00     0.059 C 
ENDROOT
BRANCH   1   2
ATOM      2  C   UNL     1      56.234  28.430 -31.945  1.00  0.00     0.042 C 
ATOM      3  O   UNL     1      56.262  27.404 -31.214  1.00  0.00    -0.550 OA
ATOM      4  O   UNL     1      55.642  29.594 -31.474  1.00  0.00    -0.550 OA
ENDBRANCH   1   2
BRANCH   1   5
ATOM      5  C   UNL     1      56.830  27.009 -33.923  1.00  0.00     0.059 C 
BRANCH   5   6
ATOM      6  C   UNL     1      55.870  26.949 -35.070  1.00  0.00     0.042 C 
ATOM      7  O   UNL     1      55.621  27.984 -35.744  1.00  0.00    -0.550 OA
ATOM      8  O   UNL     1      55.218  25.759 -35.371  1.00  0.00    -0.550 OA
ENDBRANCH   5   6
ENDBRANCH   1   5
TORSDOF 3
ENDMDL
MODEL 7
REMARK VINA RESULT:    -2.878     19.051     19.824
REMARK INTER + INTRA:          -3.461
REMARK INTER:                  -3.359
REMARK INTRA:                  -0.102
REMARK UNBOUND:                -0.079
REMARK SMILES O=C([O-])CCC(=O)[O-]
REMARK SMILES IDX 4 1 2 2 1 3 3 4 5 5 6 6 7 7 8 8
REMARK H PARENT
REMARK Flexibility Score: inf
ROOT
ATOM      1  C   UNL     1      56.872  28.759 -34.125  1.00  0.00     0.059 C 
ENDROOT
BRANCH   1   2
ATOM      2  C   UNL     1      56.337  27.447 -33.635  1.00  0.00     0.042 C 
ATOM      3  O   UNL     1      56.062  27.292 -32.416  1.00  0.00    -0.550 OA
ATOM      4  O   UNL     1      56.104  26.412 -34.531  1.00  0.00    -0.550 OA
ENDBRANCH   1   2
BRANCH   1   5
ATOM      5  C   UNL     1      57.096  28.747 -35.641  1.00  0.00     0.059 C 
BRANCH   5   6
ATOM      6  C   UNL     1      55.928  29.329 -36.375  1.00  0.00     0.042 C 
ATOM      7  O   UNL     1      55.184  28.590 -37.072  1.00  0.00    -0.550 OA
ATOM      8  O   UNL     1      55.685  30.697 -36.321  1.00  0.00    -0.550 OA
ENDBRANCH   5   6
ENDBRANCH   1   5
TORSDOF 3
ENDMDL
MODEL 8
REMARK VINA RESULT:    -2.842     19.157     20.238
REMARK INTER + INTRA:          -3.419
REMARK INTER:                  -3.375
REMARK INTRA:                  -0.044
REMARK UNBOUND:                -0.079
REMARK SMILES O=C([O-])CCC(=O)[O-]
REMARK SMILES IDX 4 1 2 2 1 3 3 4 5 5 6 6 7 7 8 8
REMARK H PARENT
REMARK Flexibility Score: inf
ROOT
ATOM      1  C   UNL     1      55.633  28.720 -36.714  1.00  0.00     0.059 C 
ENDROOT
BRANCH   1   2
ATOM      2  C   UNL     1      55.264  30.162 -36.883  1.00  0.00     0.042 C 
ATOM      3  O   UNL     1      54.426  30.502 -37.761  1.00  0.00    -0.550 OA
ATOM      4  O   UNL     1      55.811  31.125 -36.045  1.00  0.00    -0.550 OA
ENDBRANCH   1   2
BRANCH   1   5
ATOM      5  C   UNL     1      56.375  28.478 -35.395  1.00  0.00     0.059 C 
BRANCH   5   6
ATOM      6  C   UNL     1      55.884  27.244 -34.704  1.00  0.00     0.042 C 
ATOM      7  O   UNL     1      55.350  26.315 -35.366  1.00  0.00    -0.550 OA
ATOM      8  O   UNL     1      55.979  27.138 -33.321  1.00  0.00    -0.550 OA
ENDBRANCH   5   6
ENDBRANCH   1   5
TORSDOF 3
ENDMDL
MODEL 9
REMARK VINA RESULT:    -2.835     19.101     19.862
REMARK INTER + INTRA:          -3.411
REMARK INTER:                  -3.312
REMARK INTRA:                  -0.099
REMARK UNBOUND:                -0.079
REMARK SMILES O=C([O-])CCC(=O)[O-]
REMARK SMILES IDX 4 1 2 2 1 3 3 4 5 5 6 6 7 7 8 8
REMARK H PARENT
REMARK Flexibility Score: inf
ROOT
ATOM      1  C   UNL     1      56.964  28.116 -35.164  1.00  0.00     0.059 C 
ENDROOT
BRANCH   1   2
ATOM      2  C   UNL     1      56.063  27.197 -34.396  1.00  0.00     0.042 C 
ATOM      3  O   UNL     1      55.359  26.347 -35.004  1.00  0.00    -0.550 OA
ATOM      4  O   UNL     1      56.033  27.249 -33.009  1.00  0.00    -0.550 OA
ENDBRANCH   1   2
BRANCH   1   5
ATOM      5  C   UNL     1      56.439  29.556 -35.159  1.00  0.00     0.059 C 
BRANCH   5   6
ATOM      6  C   UNL     1      55.726  29.888 -36.433  1.00  0.00     0.042 C 
ATOM      7  O   UNL     1      55.353  31.068 -36.663  1.00  0.00    -0.550 OA
ATOM      8  O   UNL     1      55.438  28.884 -37.350  1.00  0.00    -0.550 OA
ENDBRANCH   5   6
ENDBRANCH   1   5
TORSDOF 3
ENDMDL
