MODEL 1
REMARK VINA RESULT:    -6.689      0.000      0.000
REMARK INTER + INTRA:          -7.123
REMARK INTER:                  -7.080
REMARK INTRA:                  -0.043
REMARK UNBOUND:                -0.043
REMARK SMILES COc1ccc2ccc(=O)oc2c1
REMARK SMILES IDX 3 1 13 2 12 3 6 4 5 5 4 6 7 7 8 8 9 9 10 10 11 11 2 12 1 13
REMARK H PARENT
REMARK Flexibility Score: inf
ROOT
ATOM      1  C   UNL     1      10.876  -7.376 -11.594  1.00  0.00     0.122 A 
ATOM      2  C   UNL     1      11.869  -7.097 -12.541  1.00  0.00     0.094 A 
ATOM      3  C   UNL     1      12.385  -5.804 -12.670  1.00  0.00     0.142 A 
ATOM      4  C   UNL     1      11.903  -4.770 -11.838  1.00  0.00     0.018 A 
ATOM      5  C   UNL     1      10.910  -5.044 -10.889  1.00  0.00     0.016 A 
ATOM      6  C   UNL     1      10.398  -6.340 -10.767  1.00  0.00     0.047 A 
ATOM      7  C   UNL     1      12.439  -3.487 -11.990  1.00  0.00     0.019 A 
ATOM      8  C   UNL     1      13.426  -3.267 -12.949  1.00  0.00     0.094 A 
ATOM      9  C   UNL     1      13.856  -4.339 -13.738  1.00  0.00     0.336 A 
ATOM     10  O   UNL     1      14.746  -4.161 -14.609  1.00  0.00    -0.246 OA
ATOM     11  O   UNL     1      13.329  -5.550 -13.573  1.00  0.00    -0.423 OA
ENDROOT
BRANCH   1  12
ATOM     12  O   UNL     1      10.392  -8.690 -11.507  1.00  0.00    -0.497 OA
ATOM     13  C   UNL     1      10.814  -9.760 -12.346  1.00  0.00     0.278 C 
ENDBRANCH   1  12
TORSDOF 1
ENDMDL
MODEL 2
REMARK VINA RESULT:    -6.617      1.525      1.996
REMARK INTER + INTRA:          -7.047
REMARK INTER:                  -7.014
REMARK INTRA:                  -0.033
REMARK UNBOUND:                -0.043
REMARK SMILES COc1ccc2ccc(=O)oc2c1
REMARK SMILES IDX 3 1 13 2 12 3 6 4 5 5 4 6 7 7 8 8 9 9 10 10 11 11 2 12 1 13
REMARK H PARENT
REMARK Flexibility Score: inf
ROOT
ATOM      1  C   UNL     1      10.963  -5.772 -11.435  1.00  0.00     0.122 A 
ATOM      2  C   UNL     1      11.727  -6.227 -12.517  1.00  0.00     0.094 A 
ATOM      3  C   UNL     1      12.701  -5.406 -13.094  1.00  0.00     0.142 A 
ATOM      4  C   UNL     1      12.919  -4.109 -12.583  1.00  0.00     0.018 A 
ATOM      5  C   UNL     1      12.157  -3.649 -11.500  1.00  0.00     0.016 A 
ATOM      6  C   UNL     1      11.185  -4.475 -10.928  1.00  0.00     0.047 A 
ATOM      7  C   UNL     1      13.899  -3.311 -13.181  1.00  0.00     0.019 A 
ATOM      8  C   UNL     1      14.630  -3.816 -14.256  1.00  0.00     0.094 A 
ATOM      9  C   UNL     1      14.360  -5.112 -14.710  1.00  0.00     0.336 A 
ATOM     10  O   UNL     1      15.009  -5.585 -15.678  1.00  0.00    -0.246 OA
ATOM     11  O   UNL     1      13.420  -5.849 -14.122  1.00  0.00    -0.423 OA
ENDROOT
BRANCH   1  12
ATOM     12  O   UNL     1       9.998  -6.635 -10.893  1.00  0.00    -0.497 OA
ATOM     13  C   UNL     1       8.732  -6.215 -10.396  1.00  0.00     0.278 C 
ENDBRANCH   1  12
TORSDOF 1
ENDMDL
MODEL 3
REMARK VINA RESULT:    -6.586      1.017      4.623
REMARK INTER + INTRA:          -7.014
REMARK INTER:                  -6.981
REMARK INTRA:                  -0.033
REMARK UNBOUND:                -0.043
REMARK SMILES COc1ccc2ccc(=O)oc2c1
REMARK SMILES IDX 3 1 13 2 12 3 6 4 5 5 4 6 7 7 8 8 9 9 10 10 11 11 2 12 1 13
REMARK H PARENT
REMARK Flexibility Score: inf
ROOT
ATOM      1  C   UNL     1      13.688  -4.221 -13.450  1.00  0.00     0.122 A 
ATOM      2  C   UNL     1      13.233  -5.543 -13.367  1.00  0.00     0.094 A 
ATOM      3  C   UNL     1      12.216  -5.890 -12.471  1.00  0.00     0.142 A 
ATOM      4  C   UNL     1      11.641  -4.900 -11.645  1.00  0.00     0.018 A 
ATOM      5  C   UNL     1      12.093  -3.576 -11.725  1.00  0.00     0.016 A 
ATOM      6  C   UNL     1      13.110  -3.237 -12.622  1.00  0.00     0.047 A 
ATOM      7  C   UNL     1      10.626  -5.276 -10.760  1.00  0.00     0.019 A 
ATOM      8  C   UNL     1      10.212  -6.608 -10.720  1.00  0.00     0.094 A 
ATOM      9  C   UNL     1      10.827  -7.535 -11.569  1.00  0.00     0.336 A 
ATOM     10  O   UNL     1      10.468  -8.740 -11.548  1.00  0.00    -0.246 OA
ATOM     11  O   UNL     1      11.791  -7.149 -12.401  1.00  0.00    -0.423 OA
ENDROOT
BRANCH   1  12
ATOM     12  O   UNL     1      14.711  -3.927 -14.364  1.00  0.00    -0.497 OA
ATOM     13  C   UNL     1      16.101  -4.038 -14.077  1.00  0.00     0.278 C 
ENDBRANCH   1  12
TORSDOF 1
ENDMDL
MODEL 4
REMARK VINA RESULT:    -6.263      1.946      2.883
REMARK INTER + INTRA:          -6.673
REMARK INTER:                  -6.637
REMARK INTRA:                  -0.036
REMARK UNBOUND:                -0.043
REMARK SMILES COc1ccc2ccc(=O)oc2c1
REMARK SMILES IDX 3 1 13 2 12 3 6 4 5 5 4 6 7 7 8 8 9 9 10 10 11 11 2 12 1 13
REMARK H PARENT
REMARK Flexibility Score: inf
ROOT
ATOM      1  C   UNL     1      11.061  -5.073 -11.796  1.00  0.00     0.122 A 
ATOM      2  C   UNL     1      12.001  -4.043 -11.935  1.00  0.00     0.094 A 
ATOM      3  C   UNL     1      13.036  -4.147 -12.870  1.00  0.00     0.142 A 
ATOM      4  C   UNL     1      13.135  -5.298 -13.682  1.00  0.00     0.018 A 
ATOM      5  C   UNL     1      12.198  -6.330 -13.546  1.00  0.00     0.016 A 
ATOM      6  C   UNL     1      11.166  -6.219 -12.609  1.00  0.00     0.047 A 
ATOM      7  C   UNL     1      14.181  -5.373 -14.607  1.00  0.00     0.019 A 
ATOM      8  C   UNL     1      15.087  -4.318 -14.703  1.00  0.00     0.094 A 
ATOM      9  C   UNL     1      14.927  -3.208 -13.866  1.00  0.00     0.336 A 
ATOM     10  O   UNL     1      15.734  -2.246 -13.937  1.00  0.00    -0.246 OA
ATOM     11  O   UNL     1      13.922  -3.163 -12.993  1.00  0.00    -0.423 OA
ENDROOT
BRANCH   1  12
ATOM     12  O   UNL     1      10.044  -4.919 -10.843  1.00  0.00    -0.497 OA
ATOM     13  C   UNL     1       9.085  -5.921 -10.521  1.00  0.00     0.278 C 
ENDBRANCH   1  12
TORSDOF 1
ENDMDL
MODEL 5
REMARK VINA RESULT:    -6.175      2.311      3.121
REMARK INTER + INTRA:          -6.579
REMARK INTER:                  -6.536
REMARK INTRA:                  -0.043
REMARK UNBOUND:                -0.043
REMARK SMILES COc1ccc2ccc(=O)oc2c1
REMARK SMILES IDX 3 1 13 2 12 3 6 4 5 5 4 6 7 7 8 8 9 9 10 10 11 11 2 12 1 13
REMARK H PARENT
REMARK Flexibility Score: inf
ROOT
ATOM      1  C   UNL     1      11.169  -8.604 -12.603  1.00  0.00     0.122 A 
ATOM      2  C   UNL     1      10.876  -7.838 -11.467  1.00  0.00     0.094 A 
ATOM      3  C   UNL     1      11.221  -6.483 -11.415  1.00  0.00     0.142 A 
ATOM      4  C   UNL     1      11.869  -5.881 -12.515  1.00  0.00     0.018 A 
ATOM      5  C   UNL     1      12.164  -6.643 -13.653  1.00  0.00     0.016 A 
ATOM      6  C   UNL     1      11.816  -7.997 -13.698  1.00  0.00     0.047 A 
ATOM      7  C   UNL     1      12.201  -4.526 -12.433  1.00  0.00     0.019 A 
ATOM      8  C   UNL     1      11.885  -3.812 -11.278  1.00  0.00     0.094 A 
ATOM      9  C   UNL     1      11.242  -4.474 -10.226  1.00  0.00     0.336 A 
ATOM     10  O   UNL     1      10.948  -3.848  -9.176  1.00  0.00    -0.246 OA
ATOM     11  O   UNL     1      10.937  -5.766 -10.331  1.00  0.00    -0.423 OA
ENDROOT
BRANCH   1  12
ATOM     12  O   UNL     1      10.802  -9.958 -12.603  1.00  0.00    -0.497 OA
ATOM     13  C   UNL     1      10.178 -10.622 -11.509  1.00  0.00     0.278 C 
ENDBRANCH   1  12
TORSDOF 1
ENDMDL
MODEL 6
REMARK VINA RESULT:    -5.902      2.191      5.190
REMARK INTER + INTRA:          -6.291
REMARK INTER:                  -6.250
REMARK INTRA:                  -0.041
REMARK UNBOUND:                -0.043
REMARK SMILES COc1ccc2ccc(=O)oc2c1
REMARK SMILES IDX 3 1 13 2 12 3 6 4 5 5 4 6 7 7 8 8 9 9 10 10 11 11 2 12 1 13
REMARK H PARENT
REMARK Flexibility Score: inf
ROOT
ATOM      1  C   UNL     1      11.342  -5.312 -11.401  1.00  0.00     0.122 A 
ATOM      2  C   UNL     1      10.775  -6.475 -10.864  1.00  0.00     0.094 A 
ATOM      3  C   UNL     1      10.858  -7.690 -11.551  1.00  0.00     0.142 A 
ATOM      4  C   UNL     1      11.518  -7.748 -12.797  1.00  0.00     0.018 A 
ATOM      5  C   UNL     1      12.087  -6.588 -13.340  1.00  0.00     0.016 A 
ATOM      6  C   UNL     1      12.001  -5.376 -12.646  1.00  0.00     0.047 A 
ATOM      7  C   UNL     1      11.585  -8.976 -13.461  1.00  0.00     0.019 A 
ATOM      8  C   UNL     1      11.003 -10.101 -12.878  1.00  0.00     0.094 A 
ATOM      9  C   UNL     1      10.364  -9.970 -11.640  1.00  0.00     0.336 A 
ATOM     10  O   UNL     1       9.833 -10.973 -11.098  1.00  0.00    -0.246 OA
ATOM     11  O   UNL     1      10.315  -8.787 -11.030  1.00  0.00    -0.423 OA
ENDROOT
BRANCH   1  12
ATOM     12  O   UNL     1      11.230  -4.120 -10.671  1.00  0.00    -0.497 OA
ATOM     13  C   UNL     1      11.156  -4.050  -9.251  1.00  0.00     0.278 C 
ENDBRANCH   1  12
TORSDOF 1
ENDMDL
MODEL 7
REMARK VINA RESULT:    -5.871      2.026      5.387
REMARK INTER + INTRA:          -6.258
REMARK INTER:                  -6.220
REMARK INTRA:                  -0.038
REMARK UNBOUND:                -0.043
REMARK SMILES COc1ccc2ccc(=O)oc2c1
REMARK SMILES IDX 3 1 13 2 12 3 6 4 5 5 4 6 7 7 8 8 9 9 10 10 11 11 2 12 1 13
REMARK H PARENT
REMARK Flexibility Score: inf
ROOT
ATOM      1  C   UNL     1      15.057  -3.752 -14.010  1.00  0.00     0.122 A 
ATOM      2  C   UNL     1      14.109  -3.537 -13.001  1.00  0.00     0.094 A 
ATOM      3  C   UNL     1      13.024  -4.407 -12.849  1.00  0.00     0.142 A 
ATOM      4  C   UNL     1      12.882  -5.511 -13.717  1.00  0.00     0.018 A 
ATOM      5  C   UNL     1      13.827  -5.730 -14.727  1.00  0.00     0.016 A 
ATOM      6  C   UNL     1      14.909  -4.856 -14.873  1.00  0.00     0.047 A 
ATOM      7  C   UNL     1      11.787  -6.363 -13.540  1.00  0.00     0.019 A 
ATOM      8  C   UNL     1      10.874  -6.100 -12.518  1.00  0.00     0.094 A 
ATOM      9  C   UNL     1      11.079  -4.987 -11.696  1.00  0.00     0.336 A 
ATOM     10  O   UNL     1      10.267  -4.734 -10.769  1.00  0.00    -0.246 OA
ATOM     11  O   UNL     1      12.129  -4.193 -11.887  1.00  0.00    -0.423 OA
ENDROOT
BRANCH   1  12
ATOM     12  O   UNL     1      16.125  -2.850 -14.120  1.00  0.00    -0.497 OA
ATOM     13  C   UNL     1      15.984  -1.433 -14.121  1.00  0.00     0.278 C 
ENDBRANCH   1  12
TORSDOF 1
ENDMDL
MODEL 8
REMARK VINA RESULT:    -5.458     14.107     14.803
REMARK INTER + INTRA:          -5.821
REMARK INTER:                  -5.785
REMARK INTRA:                  -0.036
REMARK UNBOUND:                -0.043
REMARK SMILES COc1ccc2ccc(=O)oc2c1
REMARK SMILES IDX 3 1 13 2 12 3 6 4 5 5 4 6 7 7 8 8 9 9 10 10 11 11 2 12 1 13
REMARK H PARENT
REMARK Flexibility Score: inf
ROOT
ATOM      1  C   UNL     1      -1.519  -8.325  -6.466  1.00  0.00     0.122 A 
ATOM      2  C   UNL     1      -1.194  -7.292  -7.354  1.00  0.00     0.094 A 
ATOM      3  C   UNL     1      -1.223  -5.958  -6.935  1.00  0.00     0.142 A 
ATOM      4  C   UNL     1      -1.582  -5.648  -5.605  1.00  0.00     0.018 A 
ATOM      5  C   UNL     1      -1.908  -6.677  -4.713  1.00  0.00     0.016 A 
ATOM      6  C   UNL     1      -1.877  -8.009  -5.139  1.00  0.00     0.047 A 
ATOM      7  C   UNL     1      -1.602  -4.305  -5.215  1.00  0.00     0.019 A 
ATOM      8  C   UNL     1      -1.269  -3.318  -6.142  1.00  0.00     0.094 A 
ATOM      9  C   UNL     1      -0.923  -3.699  -7.443  1.00  0.00     0.336 A 
ATOM     10  O   UNL     1      -0.619  -2.824  -8.294  1.00  0.00    -0.246 OA
ATOM     11  O   UNL     1      -0.912  -4.985  -7.788  1.00  0.00    -0.423 OA
ENDROOT
BRANCH   1  12
ATOM     12  O   UNL     1      -1.475  -9.645  -6.938  1.00  0.00    -0.497 OA
ATOM     13  C   UNL     1      -1.824 -10.788  -6.163  1.00  0.00     0.278 C 
ENDBRANCH   1  12
TORSDOF 1
ENDMDL
MODEL 9
REMARK VINA RESULT:    -5.440     13.691     15.573
REMARK INTER + INTRA:          -5.801
REMARK INTER:                  -5.768
REMARK INTRA:                  -0.033
REMARK UNBOUND:                -0.043
REMARK SMILES COc1ccc2ccc(=O)oc2c1
REMARK SMILES IDX 3 1 13 2 12 3 6 4 5 5 4 6 7 7 8 8 9 9 10 10 11 11 2 12 1 13
REMARK H PARENT
REMARK Flexibility Score: inf
ROOT
ATOM      1  C   UNL     1      -3.213  -1.979  -6.050  1.00  0.00     0.122 A 
ATOM      2  C   UNL     1      -1.851  -2.286  -6.163  1.00  0.00     0.094 A 
ATOM      3  C   UNL     1      -1.389  -3.093  -7.208  1.00  0.00     0.142 A 
ATOM      4  C   UNL     1      -2.301  -3.602  -8.158  1.00  0.00     0.018 A 
ATOM      5  C   UNL     1      -3.664  -3.297  -8.049  1.00  0.00     0.016 A 
ATOM      6  C   UNL     1      -4.119  -2.490  -7.001  1.00  0.00     0.047 A 
ATOM      7  C   UNL     1      -1.810  -4.405  -9.191  1.00  0.00     0.019 A 
ATOM      8  C   UNL     1      -0.443  -4.678  -9.255  1.00  0.00     0.094 A 
ATOM      9  C   UNL     1       0.402  -4.140  -8.279  1.00  0.00     0.336 A 
ATOM     10  O   UNL     1       1.637  -4.374  -8.319  1.00  0.00    -0.246 OA
ATOM     11  O   UNL     1      -0.093  -3.378  -7.306  1.00  0.00    -0.423 OA
ENDROOT
BRANCH   1  12
ATOM     12  O   UNL     1      -3.624  -1.166  -4.983  1.00  0.00    -0.497 OA
ATOM     13  C   UNL     1      -4.125   0.159  -5.128  1.00  0.00     0.278 C 
ENDBRANCH   1  12
TORSDOF 1
ENDMDL
