MODEL 1
REMARK VINA RESULT:    -2.987      0.000      0.000
REMARK INTER + INTRA:          -3.249
REMARK INTER:                  -3.249
REMARK INTRA:                   0.000
REMARK UNBOUND:                 0.000
REMARK SMILES [NH3+]CC(=O)[O-]
REMARK SMILES IDX 2 1 1 2 3 6 4 7 5 8
REMARK H PARENT 1 3 1 4 1 5
REMARK Flexibility Score: inf
ROOT
ATOM      1  C   UNL     1     156.579 166.704 230.053  1.00  0.00     0.312 C 
ENDROOT
BRANCH   1   2
ATOM      2  N   UNL     1     156.111 167.283 228.795  1.00  0.00    -0.353 N 
ATOM      3  H   UNL     1     155.238 166.800 228.481  1.00  0.00     0.344 HD
ATOM      4  H   UNL     1     155.926 168.305 228.917  1.00  0.00     0.344 HD
ATOM      5  H   UNL     1     156.849 167.158 228.066  1.00  0.00     0.344 HD
ENDBRANCH   1   2
BRANCH   1   6
ATOM      6  C   UNL     1     157.880 167.320 230.466  1.00  0.00     0.096 C 
ATOM      7  O   UNL     1     157.934 168.072 231.474  1.00  0.00    -0.544 OA
ATOM      8  O   UNL     1     159.043 167.021 229.768  1.00  0.00    -0.544 OA
ENDBRANCH   1   6
TORSDOF 2
ENDMDL
MODEL 2
REMARK VINA RESULT:    -2.987     16.685     16.982
REMARK INTER + INTRA:          -3.249
REMARK INTER:                  -3.249
REMARK INTRA:                   0.000
REMARK UNBOUND:                 0.000
REMARK SMILES [NH3+]CC(=O)[O-]
REMARK SMILES IDX 2 1 1 2 3 6 4 7 5 8
REMARK H PARENT 1 3 1 4 1 5
REMARK Flexibility Score: inf
ROOT
ATOM      1  C   UNL     1     161.422 151.299 230.053  1.00  0.00     0.312 C 
ENDROOT
BRANCH   1   2
ATOM      2  N   UNL     1     161.899 150.711 228.804  1.00  0.00    -0.353 N 
ATOM      3  H   UNL     1     161.722 149.680 228.802  1.00  0.00     0.344 HD
ATOM      4  H   UNL     1     161.415 151.155 227.989  1.00  0.00     0.344 HD
ATOM      5  H   UNL     1     162.927 150.878 228.718  1.00  0.00     0.344 HD
ENDBRANCH   1   2
BRANCH   1   6
ATOM      6  C   UNL     1     160.121 150.680 230.466  1.00  0.00     0.096 C 
ATOM      7  O   UNL     1     160.068 149.928 231.474  1.00  0.00    -0.544 OA
ATOM      8  O   UNL     1     158.958 150.977 229.766  1.00  0.00    -0.544 OA
ENDBRANCH   1   6
TORSDOF 2
ENDMDL
MODEL 3
REMARK VINA RESULT:    -2.951     15.339     15.691
REMARK INTER + INTRA:          -3.210
REMARK INTER:                  -3.210
REMARK INTRA:                   0.000
REMARK UNBOUND:                 0.000
REMARK SMILES [NH3+]CC(=O)[O-]
REMARK SMILES IDX 2 1 1 2 3 6 4 7 5 8
REMARK H PARENT 1 3 1 4 1 5
REMARK Flexibility Score: inf
ROOT
ATOM      1  C   UNL     1     161.523 153.098 229.615  1.00  0.00     0.312 C 
ENDROOT
BRANCH   1   2
ATOM      2  N   UNL     1     162.844 152.488 229.486  1.00  0.00    -0.353 N 
ATOM      3  H   UNL     1     162.821 151.729 228.766  1.00  0.00     0.344 HD
ATOM      4  H   UNL     1     163.549 153.212 229.214  1.00  0.00     0.344 HD
ATOM      5  H   UNL     1     163.122 152.075 230.405  1.00  0.00     0.344 HD
ENDBRANCH   1   2
BRANCH   1   6
ATOM      6  C   UNL     1     160.450 152.110 229.271  1.00  0.00     0.096 C 
ATOM      7  O   UNL     1     160.637 150.880 229.457  1.00  0.00    -0.544 OA
ATOM      8  O   UNL     1     159.223 152.556 228.793  1.00  0.00    -0.544 OA
ENDBRANCH   1   6
TORSDOF 2
ENDMDL
MODEL 4
REMARK VINA RESULT:    -2.926      1.819      2.373
REMARK INTER + INTRA:          -3.183
REMARK INTER:                  -3.183
REMARK INTRA:                   0.000
REMARK UNBOUND:                 0.000
REMARK SMILES [NH3+]CC(=O)[O-]
REMARK SMILES IDX 2 1 1 2 3 6 4 7 5 8
REMARK H PARENT 1 3 1 4 1 5
REMARK Flexibility Score: inf
ROOT
ATOM      1  C   UNL     1     156.490 164.924 229.609  1.00  0.00     0.312 C 
ENDROOT
BRANCH   1   2
ATOM      2  N   UNL     1     155.236 165.670 229.535  1.00  0.00    -0.353 N 
ATOM      3  H   UNL     1     154.847 165.814 230.495  1.00  0.00     0.344 HD
ATOM      4  H   UNL     1     155.395 166.596 229.075  1.00  0.00     0.344 HD
ATOM      5  H   UNL     1     154.547 165.125 228.969  1.00  0.00     0.344 HD
ENDBRANCH   1   2
BRANCH   1   6
ATOM      6  C   UNL     1     157.657 165.822 229.334  1.00  0.00     0.096 C 
ATOM      7  O   UNL     1     158.702 165.361 228.805  1.00  0.00    -0.544 OA
ATOM      8  O   UNL     1     157.569 167.180 229.615  1.00  0.00    -0.544 OA
ENDBRANCH   1   6
TORSDOF 2
ENDMDL
MODEL 5
REMARK VINA RESULT:    -2.869     15.351     15.672
REMARK INTER + INTRA:          -3.121
REMARK INTER:                  -3.121
REMARK INTRA:                   0.000
REMARK UNBOUND:                 0.000
REMARK SMILES [NH3+]CC(=O)[O-]
REMARK SMILES IDX 2 1 1 2 3 6 4 7 5 8
REMARK H PARENT 1 3 1 4 1 5
REMARK Flexibility Score: inf
ROOT
ATOM      1  C   UNL     1     160.934 151.184 229.757  1.00  0.00     0.312 C 
ENDROOT
BRANCH   1   2
ATOM      2  N   UNL     1     161.915 150.693 228.792  1.00  0.00    -0.353 N 
ATOM      3  H   UNL     1     162.225 151.473 228.168  1.00  0.00     0.344 HD
ATOM      4  H   UNL     1     162.740 150.289 229.291  1.00  0.00     0.344 HD
ATOM      5  H   UNL     1     161.475 149.946 228.207  1.00  0.00     0.344 HD
ENDBRANCH   1   2
BRANCH   1   6
ATOM      6  C   UNL     1     160.369 152.499 229.315  1.00  0.00     0.096 C 
ATOM      7  O   UNL     1     159.215 152.558 228.818  1.00  0.00    -0.544 OA
ATOM      8  O   UNL     1     161.100 153.666 229.501  1.00  0.00    -0.544 OA
ENDBRANCH   1   6
TORSDOF 2
ENDMDL
MODEL 6
REMARK VINA RESULT:    -2.815     11.109     11.357
REMARK INTER + INTRA:          -3.062
REMARK INTER:                  -3.062
REMARK INTRA:                   0.000
REMARK UNBOUND:                 0.000
REMARK SMILES [NH3+]CC(=O)[O-]
REMARK SMILES IDX 2 1 1 2 3 6 4 7 5 8
REMARK H PARENT 1 3 1 4 1 5
REMARK Flexibility Score: inf
ROOT
ATOM      1  C   UNL     1     162.491 156.410 228.801  1.00  0.00     0.312 C 
ENDROOT
BRANCH   1   2
ATOM      2  N   UNL     1     163.602 155.910 227.995  1.00  0.00    -0.353 N 
ATOM      3  H   UNL     1     164.508 156.080 228.489  1.00  0.00     0.344 HD
ATOM      4  H   UNL     1     163.483 154.887 227.814  1.00  0.00     0.344 HD
ATOM      5  H   UNL     1     163.615 156.415 227.080  1.00  0.00     0.344 HD
ENDBRANCH   1   2
BRANCH   1   6
ATOM      6  C   UNL     1     162.567 157.900 228.938  1.00  0.00     0.096 C 
ATOM      7  O   UNL     1     162.861 158.421 230.046  1.00  0.00    -0.544 OA
ATOM      8  O   UNL     1     162.364 158.711 227.828  1.00  0.00    -0.544 OA
ENDBRANCH   1   6
TORSDOF 2
ENDMDL
MODEL 7
REMARK VINA RESULT:    -2.795     16.119     16.390
REMARK INTER + INTRA:          -3.040
REMARK INTER:                  -3.040
REMARK INTRA:                   0.000
REMARK UNBOUND:                 0.000
REMARK SMILES [NH3+]CC(=O)[O-]
REMARK SMILES IDX 2 1 1 2 3 6 4 7 5 8
REMARK H PARENT 1 3 1 4 1 5
REMARK Flexibility Score: inf
ROOT
ATOM      1  C   UNL     1     159.354 153.399 221.425  1.00  0.00     0.312 C 
ENDROOT
BRANCH   1   2
ATOM      2  N   UNL     1     160.613 153.723 222.092  1.00  0.00    -0.353 N 
ATOM      3  H   UNL     1     161.321 152.977 221.903  1.00  0.00     0.344 HD
ATOM      4  H   UNL     1     160.972 154.645 221.755  1.00  0.00     0.344 HD
ATOM      5  H   UNL     1     160.448 153.780 223.123  1.00  0.00     0.344 HD
ENDBRANCH   1   2
BRANCH   1   6
ATOM      6  C   UNL     1     159.059 154.392 220.342  1.00  0.00     0.096 C 
ATOM      7  O   UNL     1     159.872 155.321 220.096  1.00  0.00    -0.544 OA
ATOM      8  O   UNL     1     157.911 154.259 219.571  1.00  0.00    -0.544 OA
ENDBRANCH   1   6
TORSDOF 2
ENDMDL
MODEL 8
REMARK VINA RESULT:    -2.783      9.747     10.267
REMARK INTER + INTRA:          -3.027
REMARK INTER:                  -3.027
REMARK INTRA:                   0.000
REMARK UNBOUND:                 0.000
REMARK SMILES [NH3+]CC(=O)[O-]
REMARK SMILES IDX 2 1 1 2 3 6 4 7 5 8
REMARK H PARENT 1 3 1 4 1 5
REMARK Flexibility Score: inf
ROOT
ATOM      1  C   UNL     1     158.669 164.500 221.384  1.00  0.00     0.312 C 
ENDROOT
BRANCH   1   2
ATOM      2  N   UNL     1     157.415 164.275 222.100  1.00  0.00    -0.353 N 
ATOM      3  H   UNL     1     156.853 163.539 221.614  1.00  0.00     0.344 HD
ATOM      4  H   UNL     1     157.610 163.980 223.084  1.00  0.00     0.344 HD
ATOM      5  H   UNL     1     156.866 165.165 222.116  1.00  0.00     0.344 HD
ENDBRANCH   1   2
BRANCH   1   6
ATOM      6  C   UNL     1     159.004 163.323 220.521  1.00  0.00     0.096 C 
ATOM      7  O   UNL     1     159.397 162.246 221.042  1.00  0.00    -0.544 OA
ATOM      8  O   UNL     1     158.832 163.399 219.145  1.00  0.00    -0.544 OA
ENDBRANCH   1   6
TORSDOF 2
ENDMDL
MODEL 9
REMARK VINA RESULT:    -2.690     16.747     16.974
REMARK INTER + INTRA:          -2.926
REMARK INTER:                  -2.926
REMARK INTRA:                   0.000
REMARK UNBOUND:                 0.000
REMARK SMILES [NH3+]CC(=O)[O-]
REMARK SMILES IDX 2 1 1 2 3 6 4 7 5 8
REMARK H PARENT 1 3 1 4 1 5
REMARK Flexibility Score: inf
ROOT
ATOM      1  C   UNL     1     149.633 159.795 216.855  1.00  0.00     0.312 C 
ENDROOT
BRANCH   1   2
ATOM      2  N   UNL     1     149.080 159.018 215.748  1.00  0.00    -0.353 N 
ATOM      3  H   UNL     1     148.601 158.164 216.114  1.00  0.00     0.344 HD
ATOM      4  H   UNL     1     148.402 159.599 215.204  1.00  0.00     0.344 HD
ATOM      5  H   UNL     1     149.858 158.725 215.114  1.00  0.00     0.344 HD
ENDBRANCH   1   2
BRANCH   1   6
ATOM      6  C   UNL     1     151.088 159.488 217.041  1.00  0.00     0.096 C 
ATOM      7  O   UNL     1     151.951 160.039 216.309  1.00  0.00    -0.544 OA
ATOM      8  O   UNL     1     151.492 158.632 218.058  1.00  0.00    -0.544 OA
ENDBRANCH   1   6
TORSDOF 2
ENDMDL
