MODEL 1
REMARK VINA RESULT:    -3.659      0.000      0.000
REMARK INTER + INTRA:          -4.414
REMARK INTER:                  -4.301
REMARK INTRA:                  -0.113
REMARK UNBOUND:                -0.113
REMARK SMILES O=C([O-])CCC(=O)[O-]
REMARK SMILES IDX 4 1 2 2 1 3 3 4 5 5 6 6 7 7 8 8
REMARK H PARENT
REMARK Flexibility Score: inf
ROOT
ATOM      1  C   UNL     1     116.530 101.305 131.020  1.00  0.00     0.059 C 
ENDROOT
BRANCH   1   2
ATOM      2  C   UNL     1     116.383 102.099 129.759  1.00  0.00     0.042 C 
ATOM      3  O   UNL     1     116.530 103.350 129.778  1.00  0.00    -0.550 OA
ATOM      4  O   UNL     1     116.044 101.464 128.571  1.00  0.00    -0.550 OA
ENDBRANCH   1   2
BRANCH   1   5
ATOM      5  C   UNL     1     117.841 101.632 131.745  1.00  0.00     0.059 C 
BRANCH   5   6
ATOM      6  C   UNL     1     117.595 102.096 133.148  1.00  0.00     0.042 C 
ATOM      7  O   UNL     1     116.836 103.076 133.367  1.00  0.00    -0.550 OA
ATOM      8  O   UNL     1     118.173 101.420 134.215  1.00  0.00    -0.550 OA
ENDBRANCH   5   6
ENDBRANCH   1   5
TORSDOF 3
ENDMDL
MODEL 2
REMARK VINA RESULT:    -3.509      9.640     10.783
REMARK INTER + INTRA:          -4.238
REMARK INTER:                  -4.153
REMARK INTRA:                  -0.085
REMARK UNBOUND:                -0.113
REMARK SMILES O=C([O-])CCC(=O)[O-]
REMARK SMILES IDX 4 1 2 2 1 3 3 4 5 5 6 6 7 7 8 8
REMARK H PARENT
REMARK Flexibility Score: inf
ROOT
ATOM      1  C   UNL     1     127.683 103.410 129.746  1.00  0.00     0.059 C 
ENDROOT
BRANCH   1   2
ATOM      2  C   UNL     1     126.942 102.982 130.975  1.00  0.00     0.042 C 
ATOM      3  O   UNL     1     125.743 102.605 130.892  1.00  0.00    -0.550 OA
ATOM      4  O   UNL     1     127.561 103.038 132.217  1.00  0.00    -0.550 OA
ENDBRANCH   1   2
BRANCH   1   5
ATOM      5  C   UNL     1     126.896 103.087 128.470  1.00  0.00     0.059 C 
BRANCH   5   6
ATOM      6  C   UNL     1     126.364 104.329 127.823  1.00  0.00     0.042 C 
ATOM      7  O   UNL     1     127.150 105.243 127.463  1.00  0.00    -0.550 OA
ATOM      8  O   UNL     1     125.002 104.457 127.582  1.00  0.00    -0.550 OA
ENDBRANCH   5   6
ENDBRANCH   1   5
TORSDOF 3
ENDMDL
MODEL 3
REMARK VINA RESULT:    -3.502      9.297      9.823
REMARK INTER + INTRA:          -4.230
REMARK INTER:                  -4.107
REMARK INTRA:                  -0.123
REMARK UNBOUND:                -0.113
REMARK SMILES O=C([O-])CCC(=O)[O-]
REMARK SMILES IDX 4 1 2 2 1 3 3 4 5 5 6 6 7 7 8 8
REMARK H PARENT
REMARK Flexibility Score: inf
ROOT
ATOM      1  C   UNL     1     126.376 102.780 128.455  1.00  0.00     0.059 C 
ENDROOT
BRANCH   1   2
ATOM      2  C   UNL     1     126.020 104.142 127.943  1.00  0.00     0.042 C 
ATOM      3  O   UNL     1     125.000 104.300 127.221  1.00  0.00    -0.550 OA
ATOM      4  O   UNL     1     126.835 105.229 128.229  1.00  0.00    -0.550 OA
ENDBRANCH   1   2
BRANCH   1   5
ATOM      5  C   UNL     1     125.746 102.510 129.827  1.00  0.00     0.059 C 
BRANCH   5   6
ATOM      6  C   UNL     1     126.673 102.888 130.943  1.00  0.00     0.042 C 
ATOM      7  O   UNL     1     127.919 102.883 130.761  1.00  0.00    -0.550 OA
ATOM      8  O   UNL     1     126.158 103.282 132.171  1.00  0.00    -0.550 OA
ENDBRANCH   5   6
ENDBRANCH   1   5
TORSDOF 3
ENDMDL
MODEL 4
REMARK VINA RESULT:    -3.501      9.528     10.606
REMARK INTER + INTRA:          -4.228
REMARK INTER:                  -4.119
REMARK INTRA:                  -0.109
REMARK UNBOUND:                -0.113
REMARK SMILES O=C([O-])CCC(=O)[O-]
REMARK SMILES IDX 4 1 2 2 1 3 3 4 5 5 6 6 7 7 8 8
REMARK H PARENT
REMARK Flexibility Score: inf
ROOT
ATOM      1  C   UNL     1     127.616 103.317 129.777  1.00  0.00     0.059 C 
ENDROOT
BRANCH   1   2
ATOM      2  C   UNL     1     126.848 103.000 131.024  1.00  0.00     0.042 C 
ATOM      3  O   UNL     1     127.423 103.019 132.144  1.00  0.00    -0.550 OA
ATOM      4  O   UNL     1     125.508 102.643 130.944  1.00  0.00    -0.550 OA
ENDBRANCH   1   2
BRANCH   1   5
ATOM      5  C   UNL     1     126.796 103.017 128.517  1.00  0.00     0.059 C 
BRANCH   5   6
ATOM      6  C   UNL     1     126.238 104.269 127.912  1.00  0.00     0.042 C 
ATOM      7  O   UNL     1     125.004 104.510 127.975  1.00  0.00    -0.550 OA
ATOM      8  O   UNL     1     127.089 105.189 127.311  1.00  0.00    -0.550 OA
ENDBRANCH   5   6
ENDBRANCH   1   5
TORSDOF 3
ENDMDL
MODEL 5
REMARK VINA RESULT:    -3.500      9.610     10.056
REMARK INTER + INTRA:          -4.227
REMARK INTER:                  -4.152
REMARK INTRA:                  -0.075
REMARK UNBOUND:                -0.113
REMARK SMILES O=C([O-])CCC(=O)[O-]
REMARK SMILES IDX 4 1 2 2 1 3 3 4 5 5 6 6 7 7 8 8
REMARK H PARENT
REMARK Flexibility Score: inf
ROOT
ATOM      1  C   UNL     1     126.818 103.047 128.473  1.00  0.00     0.059 C 
ENDROOT
BRANCH   1   2
ATOM      2  C   UNL     1     126.374 104.282 127.753  1.00  0.00     0.042 C 
ATOM      3  O   UNL     1     127.183 105.228 127.560  1.00  0.00    -0.550 OA
ATOM      4  O   UNL     1     125.056 104.407 127.331  1.00  0.00    -0.550 OA
ENDBRANCH   1   2
BRANCH   1   5
ATOM      5  C   UNL     1     127.603 103.386 129.746  1.00  0.00     0.059 C 
BRANCH   5   6
ATOM      6  C   UNL     1     126.862 102.966 130.979  1.00  0.00     0.042 C 
ATOM      7  O   UNL     1     125.678 102.547 130.894  1.00  0.00    -0.550 OA
ATOM      8  O   UNL     1     127.493 103.002 132.215  1.00  0.00    -0.550 OA
ENDBRANCH   5   6
ENDBRANCH   1   5
TORSDOF 3
ENDMDL
MODEL 6
REMARK VINA RESULT:    -3.486      9.773     10.727
REMARK INTER + INTRA:          -4.210
REMARK INTER:                  -4.089
REMARK INTRA:                  -0.121
REMARK UNBOUND:                -0.113
REMARK SMILES O=C([O-])CCC(=O)[O-]
REMARK SMILES IDX 4 1 2 2 1 3 3 4 5 5 6 6 7 7 8 8
REMARK H PARENT
REMARK Flexibility Score: inf
ROOT
ATOM      1  C   UNL     1     127.853 103.696 128.772  1.00  0.00     0.059 C 
ENDROOT
BRANCH   1   2
ATOM      2  C   UNL     1     128.052 103.615 130.254  1.00  0.00     0.042 C 
ATOM      3  O   UNL     1     128.795 104.447 130.839  1.00  0.00    -0.550 OA
ATOM      4  O   UNL     1     127.451 102.598 130.983  1.00  0.00    -0.550 OA
ENDBRANCH   1   2
BRANCH   1   5
ATOM      5  C   UNL     1     126.590 102.947 128.330  1.00  0.00     0.059 C 
BRANCH   5   6
ATOM      6  C   UNL     1     125.386 103.838 128.348  1.00  0.00     0.042 C 
ATOM      7  O   UNL     1     125.022 104.434 127.301  1.00  0.00    -0.550 OA
ATOM      8  O   UNL     1     124.643 103.978 129.513  1.00  0.00    -0.550 OA
ENDBRANCH   5   6
ENDBRANCH   1   5
TORSDOF 3
ENDMDL
MODEL 7
REMARK VINA RESULT:    -3.466     10.007     10.497
REMARK INTER + INTRA:          -4.187
REMARK INTER:                  -3.997
REMARK INTRA:                  -0.190
REMARK UNBOUND:                -0.113
REMARK SMILES O=C([O-])CCC(=O)[O-]
REMARK SMILES IDX 4 1 2 2 1 3 3 4 5 5 6 6 7 7 8 8
REMARK H PARENT
REMARK Flexibility Score: inf
ROOT
ATOM      1  C   UNL     1     126.467 102.794 128.728  1.00  0.00     0.059 C 
ENDROOT
BRANCH   1   2
ATOM      2  C   UNL     1     125.346 103.783 128.643  1.00  0.00     0.042 C 
ATOM      3  O   UNL     1     124.612 103.995 129.644  1.00  0.00    -0.550 OA
ATOM      4  O   UNL     1     125.085 104.440 127.447  1.00  0.00    -0.550 OA
ENDBRANCH   1   2
BRANCH   1   5
ATOM      5  C   UNL     1     127.823 103.451 128.441  1.00  0.00     0.059 C 
BRANCH   5   6
ATOM      6  C   UNL     1     128.093 104.589 129.377  1.00  0.00     0.042 C 
ATOM      7  O   UNL     1     128.272 104.372 130.604  1.00  0.00    -0.550 OA
ATOM      8  O   UNL     1     128.185 105.886 128.886  1.00  0.00    -0.550 OA
ENDBRANCH   5   6
ENDBRANCH   1   5
TORSDOF 3
ENDMDL
MODEL 8
REMARK VINA RESULT:    -3.464      9.095     10.143
REMARK INTER + INTRA:          -4.185
REMARK INTER:                  -4.049
REMARK INTRA:                  -0.135
REMARK UNBOUND:                -0.113
REMARK SMILES O=C([O-])CCC(=O)[O-]
REMARK SMILES IDX 4 1 2 2 1 3 3 4 5 5 6 6 7 7 8 8
REMARK H PARENT
REMARK Flexibility Score: inf
ROOT
ATOM      1  C   UNL     1     125.484 102.546 129.781  1.00  0.00     0.059 C 
ENDROOT
BRANCH   1   2
ATOM      2  C   UNL     1     126.080 103.204 130.987  1.00  0.00     0.042 C 
ATOM      3  O   UNL     1     125.550 104.240 131.470  1.00  0.00    -0.550 OA
ATOM      4  O   UNL     1     127.242 102.697 131.554  1.00  0.00    -0.550 OA
ENDBRANCH   1   2
BRANCH   1   5
ATOM      5  C   UNL     1     126.349 102.764 128.534  1.00  0.00     0.059 C 
BRANCH   5   6
ATOM      6  C   UNL     1     126.073 104.091 127.896  1.00  0.00     0.042 C 
ATOM      7  O   UNL     1     125.050 104.250 127.179  1.00  0.00    -0.550 OA
ATOM      8  O   UNL     1     126.925 105.164 128.127  1.00  0.00    -0.550 OA
ENDBRANCH   5   6
ENDBRANCH   1   5
TORSDOF 3
ENDMDL
MODEL 9
REMARK VINA RESULT:    -3.427      8.897     10.138
REMARK INTER + INTRA:          -4.141
REMARK INTER:                  -4.029
REMARK INTRA:                  -0.112
REMARK UNBOUND:                -0.113
REMARK SMILES O=C([O-])CCC(=O)[O-]
REMARK SMILES IDX 4 1 2 2 1 3 3 4 5 5 6 6 7 7 8 8
REMARK H PARENT
REMARK Flexibility Score: inf
ROOT
ATOM      1  C   UNL     1     125.588 102.623 130.704  1.00  0.00     0.059 C 
ENDROOT
BRANCH   1   2
ATOM      2  C   UNL     1     126.591 103.148 131.684  1.00  0.00     0.042 C 
ATOM      3  O   UNL     1     127.824 103.037 131.450  1.00  0.00    -0.550 OA
ATOM      4  O   UNL     1     126.166 103.724 132.875  1.00  0.00    -0.550 OA
ENDBRANCH   1   2
BRANCH   1   5
ATOM      5  C   UNL     1     125.029 103.739 129.814  1.00  0.00     0.059 C 
BRANCH   5   6
ATOM      6  C   UNL     1     125.600 103.678 128.430  1.00  0.00     0.042 C 
ATOM      7  O   UNL     1     126.542 102.885 128.167  1.00  0.00    -0.550 OA
ATOM      8  O   UNL     1     125.064 104.468 127.421  1.00  0.00    -0.550 OA
ENDBRANCH   5   6
ENDBRANCH   1   5
TORSDOF 3
ENDMDL
