MODEL 1
REMARK VINA RESULT:     6.708      0.000      0.000
REMARK INTER + INTRA:           9.251
REMARK INTER:                   9.453
REMARK INTRA:                  -0.202
REMARK UNBOUND:                -0.202
REMARK SMILES CCCCCCCCC(=O)[O-]
REMARK SMILES IDX 6 1 7 2 8 3 9 4 10 5 11 6 5 7 4 8 3 9 2 10 1 11
REMARK H PARENT
REMARK Flexibility Score: inf
ROOT
ATOM      1  C   UNL     1      -2.914  -8.221  24.115  1.00  0.00     0.000 C 
ENDROOT
BRANCH   1   2
ATOM      2  C   UNL     1      -1.385  -8.189  24.297  1.00  0.00     0.006 C 
BRANCH   2   3
ATOM      3  C   UNL     1      -0.873  -9.077  25.446  1.00  0.00     0.053 C 
BRANCH   3   4
ATOM      4  C   UNL     1       0.229  -8.429  26.226  1.00  0.00     0.041 C 
ATOM      5  O   UNL     1       0.837  -9.076  27.121  1.00  0.00    -0.550 OA
ATOM      6  O   UNL     1       0.564  -7.101  25.993  1.00  0.00    -0.550 OA
ENDBRANCH   3   4
ENDBRANCH   2   3
ENDBRANCH   1   2
BRANCH   1   7
ATOM      7  C   UNL     1      -3.466  -6.953  23.447  1.00  0.00     0.000 C 
BRANCH   7   8
ATOM      8  C   UNL     1      -3.821  -7.216  21.979  1.00  0.00    -0.000 C 
BRANCH   8   9
ATOM      9  C   UNL     1      -2.559  -7.246  21.104  1.00  0.00    -0.000 C 
BRANCH   9  10
ATOM     10  C   UNL     1      -2.876  -7.138  19.605  1.00  0.00    -0.003 C 
ATOM     11  C   UNL     1      -4.284  -7.624  19.262  1.00  0.00     0.004 C 
ENDBRANCH   9  10
ENDBRANCH   8   9
ENDBRANCH   7   8
ENDBRANCH   1   7
TORSDOF 7
ENDMDL
MODEL 2
REMARK VINA RESULT:     8.796      3.135      6.134
REMARK INTER + INTRA:          12.194
REMARK INTER:                  12.158
REMARK INTRA:                   0.036
REMARK UNBOUND:                -0.202
REMARK SMILES CCCCCCCCC(=O)[O-]
REMARK SMILES IDX 6 1 7 2 8 3 9 4 10 5 11 6 5 7 4 8 3 9 2 10 1 11
REMARK H PARENT
REMARK Flexibility Score: inf
ROOT
ATOM      1  C   UNL     1      -2.683  -8.302  23.278  1.00  0.00     0.000 C 
ENDROOT
BRANCH   1   2
ATOM      2  C   UNL     1      -3.133  -6.894  22.844  1.00  0.00     0.006 C 
BRANCH   2   3
ATOM      3  C   UNL     1      -3.958  -6.875  21.545  1.00  0.00     0.053 C 
BRANCH   3   4
ATOM      4  C   UNL     1      -3.121  -7.128  20.329  1.00  0.00     0.041 C 
ATOM      5  O   UNL     1      -3.590  -6.912  19.180  1.00  0.00    -0.550 OA
ATOM      6  O   UNL     1      -1.834  -7.636  20.459  1.00  0.00    -0.550 OA
ENDBRANCH   3   4
ENDBRANCH   2   3
ENDBRANCH   1   2
BRANCH   1   7
ATOM      7  C   UNL     1      -2.283  -8.375  24.760  1.00  0.00     0.000 C 
BRANCH   7   8
ATOM      8  C   UNL     1      -0.792  -8.697  24.911  1.00  0.00    -0.000 C 
BRANCH   8   9
ATOM      9  C   UNL     1      -0.017  -7.482  25.441  1.00  0.00    -0.000 C 
BRANCH   9  10
ATOM     10  C   UNL     1       0.626  -7.741  26.812  1.00  0.00    -0.003 C 
ATOM     11  C   UNL     1       0.776  -9.230  27.122  1.00  0.00     0.004 C 
ENDBRANCH   9  10
ENDBRANCH   8   9
ENDBRANCH   7   8
ENDBRANCH   1   7
TORSDOF 7
ENDMDL
MODEL 3
REMARK VINA RESULT:     9.104      2.487      3.585
REMARK INTER + INTRA:          12.627
REMARK INTER:                  12.891
REMARK INTRA:                  -0.264
REMARK UNBOUND:                -0.202
REMARK SMILES CCCCCCCCC(=O)[O-]
REMARK SMILES IDX 6 1 7 2 8 3 9 4 10 5 11 6 5 7 4 8 3 9 2 10 1 11
REMARK H PARENT
REMARK Flexibility Score: inf
ROOT
ATOM      1  C   UNL     1      -2.875  -8.377  23.966  1.00  0.00     0.000 C 
ENDROOT
BRANCH   1   2
ATOM      2  C   UNL     1      -1.394  -8.181  24.343  1.00  0.00     0.006 C 
BRANCH   2   3
ATOM      3  C   UNL     1      -0.927  -9.058  25.519  1.00  0.00     0.053 C 
BRANCH   3   4
ATOM      4  C   UNL     1       0.190  -8.430  26.295  1.00  0.00     0.041 C 
ATOM      5  O   UNL     1       0.849  -9.114  27.123  1.00  0.00    -0.550 OA
ATOM      6  O   UNL     1       0.482  -7.082  26.134  1.00  0.00    -0.550 OA
ENDBRANCH   3   4
ENDBRANCH   2   3
ENDBRANCH   1   2
BRANCH   1   7
ATOM      7  C   UNL     1      -3.727  -8.899  25.133  1.00  0.00     0.000 C 
BRANCH   7   8
ATOM      8  C   UNL     1      -5.221  -8.697  24.854  1.00  0.00    -0.000 C 
BRANCH   8   9
ATOM      9  C   UNL     1      -5.989 -10.020  24.985  1.00  0.00    -0.000 C 
BRANCH   9  10
ATOM     10  C   UNL     1      -5.972 -10.845  23.689  1.00  0.00    -0.003 C 
ATOM     11  C   UNL     1      -6.629 -12.215  23.850  1.00  0.00     0.004 C 
ENDBRANCH   9  10
ENDBRANCH   8   9
ENDBRANCH   7   8
ENDBRANCH   1   7
TORSDOF 7
ENDMDL
MODEL 4
REMARK VINA RESULT:     9.136     13.479     14.188
REMARK INTER + INTRA:          12.673
REMARK INTER:                  12.902
REMARK INTRA:                  -0.229
REMARK UNBOUND:                -0.202
REMARK SMILES CCCCCCCCC(=O)[O-]
REMARK SMILES IDX 6 1 7 2 8 3 9 4 10 5 11 6 5 7 4 8 3 9 2 10 1 11
REMARK H PARENT
REMARK Flexibility Score: inf
ROOT
ATOM      1  C   UNL     1       4.807 -17.600  15.165  1.00  0.00     0.000 C 
ENDROOT
BRANCH   1   2
ATOM      2  C   UNL     1       5.125 -16.640  16.327  1.00  0.00     0.006 C 
BRANCH   2   3
ATOM      3  C   UNL     1       4.888 -17.246  17.722  1.00  0.00     0.053 C 
BRANCH   3   4
ATOM      4  C   UNL     1       4.184 -16.301  18.647  1.00  0.00     0.041 C 
ATOM      5  O   UNL     1       3.126 -16.656  19.231  1.00  0.00    -0.550 OA
ATOM      6  O   UNL     1       4.676 -15.017  18.841  1.00  0.00    -0.550 OA
ENDBRANCH   3   4
ENDBRANCH   2   3
ENDBRANCH   1   2
BRANCH   1   7
ATOM      7  C   UNL     1       4.867 -16.919  13.790  1.00  0.00     0.000 C 
BRANCH   7   8
ATOM      8  C   UNL     1       4.887 -17.959  12.663  1.00  0.00    -0.000 C 
BRANCH   8   9
ATOM      9  C   UNL     1       3.865 -19.074  12.924  1.00  0.00    -0.000 C 
BRANCH   9  10
ATOM     10  C   UNL     1       2.549 -18.861  12.162  1.00  0.00    -0.003 C 
ATOM     11  C   UNL     1       1.799 -20.166  11.899  1.00  0.00     0.004 C 
ENDBRANCH   9  10
ENDBRANCH   8   9
ENDBRANCH   7   8
ENDBRANCH   1   7
TORSDOF 7
ENDMDL
