MODEL 1
REMARK VINA RESULT:    -4.492      0.000      0.000
REMARK INTER + INTRA:          -5.574
REMARK INTER:                  -5.280
REMARK INTRA:                  -0.295
REMARK UNBOUND:                -0.295
REMARK SMILES O=c1cc(-c2ccc(O)c(O)c2)oc2cc(O)cc(O)c12
REMARK SMILES IDX 4 1 3 2 2 3 1 4 21 5 19 6 18 7 16 8 15 9 14 10 13 11 5 12
REMARK SMILES IDX 6 13 7 14 8 15 12 16 10 17 9 18 11 20 20 22 17 24
REMARK H PARENT 9 19 11 21 20 23 17 25
REMARK Flexibility Score: inf
ROOT
ATOM      1  C   UNL     1       1.228  32.720   6.621  1.00  0.00     0.138 A 
ATOM      2  C   UNL     1       1.897  31.503   6.809  1.00  0.00     0.100 A 
ATOM      3  C   UNL     1       2.450  31.203   8.054  1.00  0.00     0.197 A 
ATOM      4  O   UNL     1       3.091  30.127   8.174  1.00  0.00    -0.289 OA
ATOM      5  C   UNL     1       2.300  32.113   9.129  1.00  0.00     0.107 A 
ATOM      6  C   UNL     1       2.792  31.898  10.451  1.00  0.00     0.134 A 
ATOM      7  C   UNL     1       2.670  32.916  11.406  1.00  0.00     0.093 A 
ATOM      8  C   UNL     1       2.023  34.113  11.104  1.00  0.00     0.123 A 
ATOM      9  C   UNL     1       1.494  34.314   9.828  1.00  0.00     0.094 A 
ATOM     10  C   UNL     1       1.631  33.333   8.844  1.00  0.00     0.146 A 
ATOM     11  O   UNL     1       1.129  33.570   7.636  1.00  0.00    -0.456 OA
ENDROOT
BRANCH   1  12
ATOM     12  C   UNL     1       0.618  33.089   5.319  1.00  0.00     0.021 A 
ATOM     13  C   UNL     1      -0.094  34.292   5.148  1.00  0.00     0.016 A 
ATOM     14  C   UNL     1      -0.665  34.608   3.913  1.00  0.00     0.051 A 
ATOM     15  C   UNL     1      -0.544  33.732   2.831  1.00  0.00     0.157 A 
ATOM     16  C   UNL     1       0.725  32.205   4.230  1.00  0.00     0.062 A 
ATOM     17  C   UNL     1       0.152  32.523   2.990  1.00  0.00     0.158 A 
BRANCH  15  18
ATOM     18  O   UNL     1      -1.125  34.075   1.611  1.00  0.00    -0.504 OA
ATOM     19  H   UNL     1      -2.117  33.970   1.439  1.00  0.00     0.293 HD
ENDBRANCH  15  18
BRANCH  17  20
ATOM     20  O   UNL     1       0.274  31.641   1.916  1.00  0.00    -0.504 OA
ATOM     21  H   UNL     1      -0.026  30.676   1.985  1.00  0.00     0.293 HD
ENDBRANCH  17  20
ENDBRANCH   1  12
BRANCH   6  22
ATOM     22  O   UNL     1       3.385  30.708  10.885  1.00  0.00    -0.507 OA
ATOM     23  H   UNL     1       3.838  30.577  11.776  1.00  0.00     0.293 HD
ENDBRANCH   6  22
BRANCH   8  24
ATOM     24  O   UNL     1       1.906  35.097  12.084  1.00  0.00    -0.508 OA
ATOM     25  H   UNL     1       2.297  36.022  11.955  1.00  0.00     0.293 HD
ENDBRANCH   8  24
TORSDOF 5
ENDMDL
MODEL 2
REMARK VINA RESULT:    -3.317      1.314      2.616
REMARK INTER + INTRA:          -4.193
REMARK INTER:                  -3.895
REMARK INTRA:                  -0.298
REMARK UNBOUND:                -0.295
REMARK SMILES O=c1cc(-c2ccc(O)c(O)c2)oc2cc(O)cc(O)c12
REMARK SMILES IDX 4 1 3 2 2 3 1 4 21 5 19 6 18 7 16 8 15 9 14 10 13 11 5 12
REMARK SMILES IDX 6 13 7 14 8 15 12 16 10 17 9 18 11 20 20 22 17 24
REMARK H PARENT 9 19 11 21 20 23 17 25
REMARK Flexibility Score: inf
ROOT
ATOM      1  C   UNL     1       0.894  33.321   6.569  1.00  0.00     0.138 A 
ATOM      2  C   UNL     1       0.271  33.812   7.725  1.00  0.00     0.100 A 
ATOM      3  C   UNL     1       0.803  33.507   8.979  1.00  0.00     0.197 A 
ATOM      4  O   UNL     1       0.189  33.916   9.997  1.00  0.00    -0.289 OA
ATOM      5  C   UNL     1       1.987  32.736   9.073  1.00  0.00     0.107 A 
ATOM      6  C   UNL     1       2.639  32.392  10.295  1.00  0.00     0.134 A 
ATOM      7  C   UNL     1       3.750  31.539  10.267  1.00  0.00     0.093 A 
ATOM      8  C   UNL     1       4.267  31.068   9.062  1.00  0.00     0.123 A 
ATOM      9  C   UNL     1       3.668  31.438   7.857  1.00  0.00     0.094 A 
ATOM     10  C   UNL     1       2.537  32.259   7.853  1.00  0.00     0.146 A 
ATOM     11  O   UNL     1       1.986  32.574   6.686  1.00  0.00    -0.456 OA
ENDROOT
BRANCH   1  12
ATOM     12  C   UNL     1       0.373  33.617   5.210  1.00  0.00     0.021 A 
ATOM     13  C   UNL     1      -0.157  34.879   4.878  1.00  0.00     0.016 A 
ATOM     14  C   UNL     1      -0.648  35.125   3.594  1.00  0.00     0.051 A 
ATOM     15  C   UNL     1      -0.628  34.121   2.623  1.00  0.00     0.157 A 
ATOM     16  C   UNL     1       0.379  32.606   4.233  1.00  0.00     0.062 A 
ATOM     17  C   UNL     1      -0.113  32.854   2.943  1.00  0.00     0.158 A 
BRANCH  15  18
ATOM     18  O   UNL     1      -1.125  34.397   1.350  1.00  0.00    -0.504 OA
ATOM     19  H   UNL     1      -0.698  34.021   0.512  1.00  0.00     0.293 HD
ENDBRANCH  15  18
BRANCH  17  20
ATOM     20  O   UNL     1      -0.093  31.845   1.980  1.00  0.00    -0.504 OA
ATOM     21  H   UNL     1      -0.832  31.751   1.293  1.00  0.00     0.293 HD
ENDBRANCH  17  20
ENDBRANCH   1  12
BRANCH   6  22
ATOM     22  O   UNL     1       2.255  32.871  11.551  1.00  0.00    -0.507 OA
ATOM     23  H   UNL     1       1.813  32.320  12.272  1.00  0.00     0.293 HD
ENDBRANCH   6  22
BRANCH   8  24
ATOM     24  O   UNL     1       5.384  30.234   9.072  1.00  0.00    -0.508 OA
ATOM     25  H   UNL     1       5.663  29.733   9.906  1.00  0.00     0.293 HD
ENDBRANCH   8  24
TORSDOF 5
ENDMDL
MODEL 3
REMARK VINA RESULT:    -3.128      2.375      2.677
REMARK INTER + INTRA:          -3.971
REMARK INTER:                  -3.708
REMARK INTRA:                  -0.263
REMARK UNBOUND:                -0.295
REMARK SMILES O=c1cc(-c2ccc(O)c(O)c2)oc2cc(O)cc(O)c12
REMARK SMILES IDX 4 1 3 2 2 3 1 4 21 5 19 6 18 7 16 8 15 9 14 10 13 11 5 12
REMARK SMILES IDX 6 13 7 14 8 15 12 16 10 17 9 18 11 20 20 22 17 24
REMARK H PARENT 9 19 11 21 20 23 17 25
REMARK Flexibility Score: inf
ROOT
ATOM      1  C   UNL     1       0.900  32.186   6.086  1.00  0.00     0.138 A 
ATOM      2  C   UNL     1       0.054  31.431   6.910  1.00  0.00     0.100 A 
ATOM      3  C   UNL     1       0.590  30.720   7.984  1.00  0.00     0.197 A 
ATOM      4  O   UNL     1      -0.188  30.009   8.671  1.00  0.00    -0.289 OA
ATOM      5  C   UNL     1       1.978  30.795   8.256  1.00  0.00     0.107 A 
ATOM      6  C   UNL     1       2.631  30.140   9.344  1.00  0.00     0.134 A 
ATOM      7  C   UNL     1       4.026  30.207   9.451  1.00  0.00     0.093 A 
ATOM      8  C   UNL     1       4.784  30.951   8.549  1.00  0.00     0.123 A 
ATOM      9  C   UNL     1       4.151  31.637   7.510  1.00  0.00     0.094 A 
ATOM     10  C   UNL     1       2.765  31.561   7.355  1.00  0.00     0.146 A 
ATOM     11  O   UNL     1       2.203  32.214   6.343  1.00  0.00    -0.456 OA
ENDROOT
BRANCH   1  12
ATOM     12  C   UNL     1       0.383  32.964   4.931  1.00  0.00     0.021 A 
ATOM     13  C   UNL     1       0.319  34.370   4.955  1.00  0.00     0.016 A 
ATOM     14  C   UNL     1      -0.182  35.075   3.858  1.00  0.00     0.051 A 
ATOM     15  C   UNL     1      -0.631  34.394   2.723  1.00  0.00     0.157 A 
ATOM     16  C   UNL     1      -0.083  32.283   3.793  1.00  0.00     0.062 A 
ATOM     17  C   UNL     1      -0.584  32.991   2.690  1.00  0.00     0.158 A 
BRANCH  15  18
ATOM     18  O   UNL     1      -1.125  35.125   1.643  1.00  0.00    -0.504 OA
ATOM     19  H   UNL     1      -2.099  35.089   1.370  1.00  0.00     0.293 HD
ENDBRANCH  15  18
BRANCH  17  20
ATOM     20  O   UNL     1      -1.035  32.304   1.564  1.00  0.00    -0.504 OA
ATOM     21  H   UNL     1      -1.146  31.297   1.565  1.00  0.00     0.293 HD
ENDBRANCH  17  20
ENDBRANCH   1  12
BRANCH   6  22
ATOM     22  O   UNL     1       1.963  29.434  10.349  1.00  0.00    -0.507 OA
ATOM     23  H   UNL     1       1.561  28.516  10.244  1.00  0.00     0.293 HD
ENDBRANCH   6  22
BRANCH   8  24
ATOM     24  O   UNL     1       6.169  31.009   8.697  1.00  0.00    -0.508 OA
ATOM     25  H   UNL     1       6.716  30.178   8.887  1.00  0.00     0.293 HD
ENDBRANCH   8  24
TORSDOF 5
ENDMDL
