MODEL 1
REMARK VINA RESULT:    -2.714      0.000      0.000
REMARK INTER + INTRA:          -3.549
REMARK INTER:                  -3.349
REMARK INTRA:                  -0.200
REMARK UNBOUND:                -0.200
REMARK SMILES CCCCCC(C)=O
REMARK SMILES IDX 4 1 3 2 2 3 1 4 5 5 6 6 8 7 7 8
REMARK H PARENT
REMARK Flexibility Score: inf
ROOT
ATOM      1  C   UNL     1     133.126 140.232 140.209  1.00  0.00     0.008 C 
ENDROOT
BRANCH   1   2
ATOM      2  C   UNL     1     132.020 140.434 141.255  1.00  0.00     0.000 C 
BRANCH   2   3
ATOM      3  C   UNL     1     131.174 141.671 140.927  1.00  0.00    -0.003 C 
ATOM      4  C   UNL     1     131.267 142.712 142.039  1.00  0.00     0.004 C 
ENDBRANCH   2   3
ENDBRANCH   1   2
BRANCH   1   5
ATOM      5  C   UNL     1     133.160 141.365 139.175  1.00  0.00     0.075 C 
BRANCH   5   6
ATOM      6  C   UNL     1     134.270 142.346 139.450  1.00  0.00     0.129 C 
ATOM      7  O   UNL     1     134.003 143.522 139.648  1.00  0.00    -0.300 OA
ATOM      8  C   UNL     1     135.705 141.909 139.451  1.00  0.00     0.087 C 
ENDBRANCH   5   6
ENDBRANCH   1   5
TORSDOF 4
ENDMDL
MODEL 2
REMARK VINA RESULT:    -2.708     10.216     11.311
REMARK INTER + INTRA:          -3.541
REMARK INTER:                  -3.329
REMARK INTRA:                  -0.213
REMARK UNBOUND:                -0.200
REMARK SMILES CCCCCC(C)=O
REMARK SMILES IDX 4 1 3 2 2 3 1 4 5 5 6 6 8 7 7 8
REMARK H PARENT
REMARK Flexibility Score: inf
ROOT
ATOM      1  C   UNL     1     140.234 148.562 140.275  1.00  0.00     0.008 C 
ENDROOT
BRANCH   1   2
ATOM      2  C   UNL     1     140.409 149.656 141.338  1.00  0.00     0.000 C 
BRANCH   2   3
ATOM      3  C   UNL     1     141.636 150.525 141.034  1.00  0.00    -0.003 C 
ATOM      4  C   UNL     1     142.702 150.372 142.115  1.00  0.00     0.004 C 
ENDBRANCH   2   3
ENDBRANCH   1   2
BRANCH   1   5
ATOM      5  C   UNL     1     141.328 148.618 139.199  1.00  0.00     0.075 C 
BRANCH   5   6
ATOM      6  C   UNL     1     142.276 147.451 139.299  1.00  0.00     0.129 C 
ATOM      7  O   UNL     1     143.318 147.571 139.925  1.00  0.00    -0.300 OA
ATOM      8  C   UNL     1     141.976 146.152 138.612  1.00  0.00     0.087 C 
ENDBRANCH   5   6
ENDBRANCH   1   5
TORSDOF 4
ENDMDL
MODEL 3
REMARK VINA RESULT:    -2.707     10.225     11.397
REMARK INTER + INTRA:          -3.541
REMARK INTER:                  -3.335
REMARK INTRA:                  -0.206
REMARK UNBOUND:                -0.200
REMARK SMILES CCCCCC(C)=O
REMARK SMILES IDX 4 1 3 2 2 3 1 4 5 5 6 6 8 7 7 8
REMARK H PARENT
REMARK Flexibility Score: inf
ROOT
ATOM      1  C   UNL     1     141.337 133.082 140.200  1.00  0.00     0.008 C 
ENDROOT
BRANCH   1   2
ATOM      2  C   UNL     1     141.239 131.946 141.228  1.00  0.00     0.000 C 
BRANCH   2   3
ATOM      3  C   UNL     1     140.002 131.077 140.970  1.00  0.00    -0.003 C 
ATOM      4  C   UNL     1     138.964 131.255 142.075  1.00  0.00     0.004 C 
ENDBRANCH   2   3
ENDBRANCH   1   2
BRANCH   1   5
ATOM      5  C   UNL     1     140.281 132.954 139.093  1.00  0.00     0.075 C 
BRANCH   5   6
ATOM      6  C   UNL     1     139.297 134.094 139.118  1.00  0.00     0.129 C 
ATOM      7  O   UNL     1     138.137 133.899 138.786  1.00  0.00    -0.300 OA
ATOM      8  C   UNL     1     139.725 135.476 139.514  1.00  0.00     0.087 C 
ENDBRANCH   5   6
ENDBRANCH   1   5
TORSDOF 4
ENDMDL
MODEL 4
REMARK VINA RESULT:    -2.700     13.630     16.044
REMARK INTER + INTRA:          -3.532
REMARK INTER:                  -3.327
REMARK INTRA:                  -0.205
REMARK UNBOUND:                -0.200
REMARK SMILES CCCCCC(C)=O
REMARK SMILES IDX 4 1 3 2 2 3 1 4 5 5 6 6 8 7 7 8
REMARK H PARENT
REMARK Flexibility Score: inf
ROOT
ATOM      1  C   UNL     1     148.503 141.260 140.200  1.00  0.00     0.008 C 
ENDROOT
BRANCH   1   2
ATOM      2  C   UNL     1     149.636 141.143 141.231  1.00  0.00     0.000 C 
BRANCH   2   3
ATOM      3  C   UNL     1     150.490 139.896 140.970  1.00  0.00    -0.003 C 
ATOM      4  C   UNL     1     150.327 138.873 142.090  1.00  0.00     0.004 C 
ENDBRANCH   2   3
ENDBRANCH   1   2
BRANCH   1   5
ATOM      5  C   UNL     1     148.616 140.202 139.093  1.00  0.00     0.075 C 
BRANCH   5   6
ATOM      6  C   UNL     1     147.489 139.203 139.151  1.00  0.00     0.129 C 
ATOM      7  O   UNL     1     147.697 138.040 138.842  1.00  0.00    -0.300 OA
ATOM      8  C   UNL     1     146.106 139.621 139.552  1.00  0.00     0.087 C 
ENDBRANCH   5   6
ENDBRANCH   1   5
TORSDOF 4
ENDMDL
MODEL 5
REMARK VINA RESULT:    -2.646     11.803     12.735
REMARK INTER + INTRA:          -3.465
REMARK INTER:                  -3.211
REMARK INTRA:                  -0.253
REMARK UNBOUND:                -0.200
REMARK SMILES CCCCCC(C)=O
REMARK SMILES IDX 4 1 3 2 2 3 1 4 5 5 6 6 8 7 7 8
REMARK H PARENT
REMARK Flexibility Score: inf
ROOT
ATOM      1  C   UNL     1     140.394 133.167 139.074  1.00  0.00     0.008 C 
ENDROOT
BRANCH   1   2
ATOM      2  C   UNL     1     141.081 133.512 137.744  1.00  0.00     0.000 C 
BRANCH   2   3
ATOM      3  C   UNL     1     140.725 132.488 136.660  1.00  0.00    -0.003 C 
ATOM      4  C   UNL     1     139.710 131.470 137.175  1.00  0.00     0.004 C 
ENDBRANCH   2   3
ENDBRANCH   1   2
BRANCH   1   5
ATOM      5  C   UNL     1     141.397 133.045 140.229  1.00  0.00     0.075 C 
BRANCH   5   6
ATOM      6  C   UNL     1     141.021 131.946 141.189  1.00  0.00     0.129 C 
ATOM      7  O   UNL     1     141.538 131.907 142.296  1.00  0.00    -0.300 OA
ATOM      8  C   UNL     1     140.045 130.877 140.796  1.00  0.00     0.087 C 
ENDBRANCH   5   6
ENDBRANCH   1   5
TORSDOF 4
ENDMDL
MODEL 6
REMARK VINA RESULT:    -2.634     10.700     11.783
REMARK INTER + INTRA:          -3.450
REMARK INTER:                  -3.080
REMARK INTRA:                  -0.370
REMARK UNBOUND:                -0.200
REMARK SMILES CCCCCC(C)=O
REMARK SMILES IDX 4 1 3 2 2 3 1 4 5 5 6 6 8 7 7 8
REMARK H PARENT
REMARK Flexibility Score: inf
ROOT
ATOM      1  C   UNL     1     139.776 132.019 138.883  1.00  0.00     0.008 C 
ENDROOT
BRANCH   1   2
ATOM      2  C   UNL     1     138.414 132.723 138.800  1.00  0.00     0.000 C 
BRANCH   2   3
ATOM      3  C   UNL     1     138.496 134.145 139.368  1.00  0.00    -0.003 C 
ATOM      4  C   UNL     1     139.937 134.646 139.393  1.00  0.00     0.004 C 
ENDBRANCH   2   3
ENDBRANCH   1   2
BRANCH   1   5
ATOM      5  C   UNL     1     139.777 130.875 139.906  1.00  0.00     0.075 C 
BRANCH   5   6
ATOM      6  C   UNL     1     140.075 131.365 141.300  1.00  0.00     0.129 C 
ATOM      7  O   UNL     1     139.208 131.309 142.158  1.00  0.00    -0.300 OA
ATOM      8  C   UNL     1     141.411 131.954 141.642  1.00  0.00     0.087 C 
ENDBRANCH   5   6
ENDBRANCH   1   5
TORSDOF 4
ENDMDL
MODEL 7
REMARK VINA RESULT:    -2.633     10.403     12.112
REMARK INTER + INTRA:          -3.450
REMARK INTER:                  -3.088
REMARK INTRA:                  -0.361
REMARK UNBOUND:                -0.200
REMARK SMILES CCCCCC(C)=O
REMARK SMILES IDX 4 1 3 2 2 3 1 4 5 5 6 6 8 7 7 8
REMARK H PARENT
REMARK Flexibility Score: inf
ROOT
ATOM      1  C   UNL     1     143.192 149.895 139.333  1.00  0.00     0.008 C 
ENDROOT
BRANCH   1   2
ATOM      2  C   UNL     1     142.658 148.579 138.750  1.00  0.00     0.000 C 
BRANCH   2   3
ATOM      3  C   UNL     1     141.576 148.844 137.696  1.00  0.00    -0.003 C 
ATOM      4  C   UNL     1     140.312 148.041 137.989  1.00  0.00     0.004 C 
ENDBRANCH   2   3
ENDBRANCH   1   2
BRANCH   1   5
ATOM      5  C   UNL     1     142.083 150.734 139.984  1.00  0.00     0.075 C 
BRANCH   5   6
ATOM      6  C   UNL     1     141.672 150.182 141.324  1.00  0.00     0.129 C 
ATOM      7  O   UNL     1     142.486 150.135 142.234  1.00  0.00    -0.300 OA
ATOM      8  C   UNL     1     140.285 149.657 141.551  1.00  0.00     0.087 C 
ENDBRANCH   5   6
ENDBRANCH   1   5
TORSDOF 4
ENDMDL
MODEL 8
REMARK VINA RESULT:    -2.612     10.161     11.389
REMARK INTER + INTRA:          -3.424
REMARK INTER:                  -3.154
REMARK INTRA:                  -0.270
REMARK UNBOUND:                -0.200
REMARK SMILES CCCCCC(C)=O
REMARK SMILES IDX 4 1 3 2 2 3 1 4 5 5 6 6 8 7 7 8
REMARK H PARENT
REMARK Flexibility Score: inf
ROOT
ATOM      1  C   UNL     1     141.265 148.344 139.045  1.00  0.00     0.008 C 
ENDROOT
BRANCH   1   2
ATOM      2  C   UNL     1     140.624 148.032 137.685  1.00  0.00     0.000 C 
BRANCH   2   3
ATOM      3  C   UNL     1     140.923 149.143 136.670  1.00  0.00    -0.003 C 
ATOM      4  C   UNL     1     142.164 149.936 137.070  1.00  0.00     0.004 C 
ENDBRANCH   2   3
ENDBRANCH   1   2
BRANCH   1   5
ATOM      5  C   UNL     1     140.215 148.566 140.143  1.00  0.00     0.075 C 
BRANCH   5   6
ATOM      6  C   UNL     1     140.629 149.645 141.109  1.00  0.00     0.129 C 
ATOM      7  O   UNL     1     140.148 149.668 142.232  1.00  0.00    -0.300 OA
ATOM      8  C   UNL     1     141.600 150.714 140.704  1.00  0.00     0.087 C 
ENDBRANCH   5   6
ENDBRANCH   1   5
TORSDOF 4
ENDMDL
MODEL 9
REMARK VINA RESULT:    -2.606     14.952     15.854
REMARK INTER + INTRA:          -3.416
REMARK INTER:                  -3.194
REMARK INTRA:                  -0.222
REMARK UNBOUND:                -0.200
REMARK SMILES CCCCCC(C)=O
REMARK SMILES IDX 4 1 3 2 2 3 1 4 5 5 6 6 8 7 7 8
REMARK H PARENT
REMARK Flexibility Score: inf
ROOT
ATOM      1  C   UNL     1     147.826 139.950 139.455  1.00  0.00     0.008 C 
ENDROOT
BRANCH   1   2
ATOM      2  C   UNL     1     147.492 140.064 137.960  1.00  0.00     0.000 C 
BRANCH   2   3
ATOM      3  C   UNL     1     148.120 141.325 137.352  1.00  0.00    -0.003 C 
ATOM      4  C   UNL     1     147.116 142.077 136.484  1.00  0.00     0.004 C 
ENDBRANCH   2   3
ENDBRANCH   1   2
BRANCH   1   5
ATOM      5  C   UNL     1     148.509 141.214 139.995  1.00  0.00     0.075 C 
BRANCH   5   6
ATOM      6  C   UNL     1     149.616 140.888 140.963  1.00  0.00     0.129 C 
ATOM      7  O   UNL     1     149.639 141.428 142.059  1.00  0.00    -0.300 OA
ATOM      8  C   UNL     1     150.711 139.933 140.592  1.00  0.00     0.087 C 
ENDBRANCH   5   6
ENDBRANCH   1   5
TORSDOF 4
ENDMDL
