MODEL 1
REMARK VINA RESULT:    -3.765      0.000      0.000
REMARK INTER + INTRA:         -11.662
REMARK INTER:                  -8.167
REMARK INTRA:                  -3.494
REMARK UNBOUND:                -3.494
REMARK SMILES CCCCCCCCCCCCCCCCCCCCCC(=O)[O-]
REMARK SMILES IDX 12 1 11 2 10 3 9 4 8 5 7 6 6 7 5 8 4 9 3 10 2 11 1 12 13 13
REMARK SMILES IDX 14 14 15 15 16 16 17 17 18 18 19 19 20 20 21 21 22 22 23 23
REMARK SMILES IDX 24 24
REMARK H PARENT
REMARK Flexibility Score: inf
ROOT
ATOM      1  C   UNL     1     -22.625   7.956  20.515  1.00  0.00     0.000 C 
ENDROOT
BRANCH   1   2
ATOM      2  C   UNL     1     -23.975   7.373  20.982  1.00  0.00     0.000 C 
BRANCH   2   3
ATOM      3  C   UNL     1     -23.907   5.887  21.373  1.00  0.00     0.000 C 
BRANCH   3   4
ATOM      4  C   UNL     1     -22.496   5.292  21.235  1.00  0.00    -0.000 C 
BRANCH   4   5
ATOM      5  C   UNL     1     -22.443   4.127  20.226  1.00  0.00    -0.000 C 
BRANCH   5   6
ATOM      6  C   UNL     1     -21.188   3.239  20.354  1.00  0.00    -0.000 C 
BRANCH   6   7
ATOM      7  C   UNL     1     -21.323   2.095  21.383  1.00  0.00    -0.000 C 
BRANCH   7   8
ATOM      8  C   UNL     1     -22.024   0.844  20.821  1.00  0.00    -0.000 C 
BRANCH   8   9
ATOM      9  C   UNL     1     -23.520   0.808  21.176  1.00  0.00    -0.000 C 
BRANCH   9  10
ATOM     10  C   UNL     1     -23.793   1.166  22.649  1.00  0.00    -0.000 C 
BRANCH  10  11
ATOM     11  C   UNL     1     -24.688   2.401  22.860  1.00  0.00    -0.003 C 
ATOM     12  C   UNL     1     -24.214   3.291  24.010  1.00  0.00     0.004 C 
ENDBRANCH  10  11
ENDBRANCH   9  10
ENDBRANCH   8   9
ENDBRANCH   7   8
ENDBRANCH   6   7
ENDBRANCH   5   6
ENDBRANCH   4   5
ENDBRANCH   3   4
ENDBRANCH   2   3
ENDBRANCH   1   2
BRANCH   1  13
ATOM     13  C   UNL     1     -22.754   8.764  19.215  1.00  0.00     0.000 C 
BRANCH  13  14
ATOM     14  C   UNL     1     -21.873   8.166  18.109  1.00  0.00     0.000 C 
BRANCH  14  15
ATOM     15  C   UNL     1     -22.332   6.763  17.673  1.00  0.00     0.000 C 
BRANCH  15  16
ATOM     16  C   UNL     1     -21.491   6.121  16.550  1.00  0.00     0.000 C 
BRANCH  16  17
ATOM     17  C   UNL     1     -20.349   6.998  15.998  1.00  0.00     0.000 C 
BRANCH  17  18
ATOM     18  C   UNL     1     -18.928   6.471  16.267  1.00  0.00     0.000 C 
BRANCH  18  19
ATOM     19  C   UNL     1     -18.414   6.832  17.671  1.00  0.00     0.000 C 
BRANCH  19  20
ATOM     20  C   UNL     1     -18.797   5.788  18.736  1.00  0.00     0.006 C 
BRANCH  20  21
ATOM     21  C   UNL     1     -19.212   6.395  20.089  1.00  0.00     0.053 C 
BRANCH  21  22
ATOM     22  C   UNL     1     -18.477   5.791  21.247  1.00  0.00     0.041 C 
ATOM     23  O   UNL     1     -17.225   5.655  21.207  1.00  0.00    -0.550 OA
ATOM     24  O   UNL     1     -19.180   5.350  22.361  1.00  0.00    -0.550 OA
ENDBRANCH  21  22
ENDBRANCH  20  21
ENDBRANCH  19  20
ENDBRANCH  18  19
ENDBRANCH  17  18
ENDBRANCH  16  17
ENDBRANCH  15  16
ENDBRANCH  14  15
ENDBRANCH  13  14
ENDBRANCH   1  13
TORSDOF 20
ENDMDL
MODEL 2
REMARK VINA RESULT:    -3.760      1.396      2.939
REMARK INTER + INTRA:         -11.650
REMARK INTER:                  -7.903
REMARK INTRA:                  -3.747
REMARK UNBOUND:                -3.494
REMARK SMILES CCCCCCCCCCCCCCCCCCCCCC(=O)[O-]
REMARK SMILES IDX 12 1 11 2 10 3 9 4 8 5 7 6 6 7 5 8 4 9 3 10 2 11 1 12 13 13
REMARK SMILES IDX 14 14 15 15 16 16 17 17 18 18 19 19 20 20 21 21 22 22 23 23
REMARK SMILES IDX 24 24
REMARK H PARENT
REMARK Flexibility Score: inf
ROOT
ATOM      1  C   UNL     1     -22.560   5.895  21.098  1.00  0.00     0.000 C 
ENDROOT
BRANCH   1   2
ATOM      2  C   UNL     1     -22.623   4.620  20.231  1.00  0.00     0.000 C 
BRANCH   2   3
ATOM      3  C   UNL     1     -21.255   3.950  20.013  1.00  0.00     0.000 C 
BRANCH   3   4
ATOM      4  C   UNL     1     -20.886   2.959  21.129  1.00  0.00    -0.000 C 
BRANCH   4   5
ATOM      5  C   UNL     1     -19.905   3.564  22.154  1.00  0.00    -0.000 C 
BRANCH   5   6
ATOM      6  C   UNL     1     -20.557   3.944  23.500  1.00  0.00    -0.000 C 
BRANCH   6   7
ATOM      7  C   UNL     1     -21.754   3.052  23.901  1.00  0.00    -0.000 C 
BRANCH   7   8
ATOM      8  C   UNL     1     -23.019   3.852  24.261  1.00  0.00    -0.000 C 
BRANCH   8   9
ATOM      9  C   UNL     1     -24.215   3.483  23.365  1.00  0.00    -0.000 C 
BRANCH   9  10
ATOM     10  C   UNL     1     -24.290   1.974  23.063  1.00  0.00    -0.000 C 
BRANCH  10  11
ATOM     11  C   UNL     1     -24.315   1.615  21.565  1.00  0.00    -0.003 C 
ATOM     12  C   UNL     1     -23.550   0.329  21.248  1.00  0.00     0.004 C 
ENDBRANCH  10  11
ENDBRANCH   9  10
ENDBRANCH   8   9
ENDBRANCH   7   8
ENDBRANCH   6   7
ENDBRANCH   5   6
ENDBRANCH   4   5
ENDBRANCH   3   4
ENDBRANCH   2   3
ENDBRANCH   1   2
BRANCH   1  13
ATOM     13  C   UNL     1     -23.891   6.661  21.111  1.00  0.00     0.000 C 
BRANCH  13  14
ATOM     14  C   UNL     1     -23.777   7.970  20.315  1.00  0.00     0.000 C 
BRANCH  14  15
ATOM     15  C   UNL     1     -22.319   8.350  19.997  1.00  0.00     0.000 C 
BRANCH  15  16
ATOM     16  C   UNL     1     -21.968   8.387  18.495  1.00  0.00     0.000 C 
BRANCH  16  17
ATOM     17  C   UNL     1     -22.514   7.211  17.661  1.00  0.00     0.000 C 
BRANCH  17  18
ATOM     18  C   UNL     1     -21.445   6.327  16.993  1.00  0.00     0.000 C 
BRANCH  18  19
ATOM     19  C   UNL     1     -20.273   7.141  16.418  1.00  0.00     0.000 C 
BRANCH  19  20
ATOM     20  C   UNL     1     -18.930   6.392  16.494  1.00  0.00     0.006 C 
BRANCH  20  21
ATOM     21  C   UNL     1     -18.636   5.766  17.870  1.00  0.00     0.053 C 
BRANCH  21  22
ATOM     22  C   UNL     1     -18.432   6.790  18.944  1.00  0.00     0.041 C 
ATOM     23  O   UNL     1     -17.518   7.651  18.837  1.00  0.00    -0.550 OA
ATOM     24  O   UNL     1     -19.233   6.776  20.078  1.00  0.00    -0.550 OA
ENDBRANCH  21  22
ENDBRANCH  20  21
ENDBRANCH  19  20
ENDBRANCH  18  19
ENDBRANCH  17  18
ENDBRANCH  16  17
ENDBRANCH  15  16
ENDBRANCH  14  15
ENDBRANCH  13  14
ENDBRANCH   1  13
TORSDOF 20
ENDMDL
MODEL 3
REMARK VINA RESULT:    -3.760      2.380      5.859
REMARK INTER + INTRA:         -11.650
REMARK INTER:                  -8.067
REMARK INTRA:                  -3.583
REMARK UNBOUND:                -3.494
REMARK SMILES CCCCCCCCCCCCCCCCCCCCCC(=O)[O-]
REMARK SMILES IDX 12 1 11 2 10 3 9 4 8 5 7 6 6 7 5 8 4 9 3 10 2 11 1 12 13 13
REMARK SMILES IDX 14 14 15 15 16 16 17 17 18 18 19 19 20 20 21 21 22 22 23 23
REMARK SMILES IDX 24 24
REMARK H PARENT
REMARK Flexibility Score: inf
ROOT
ATOM      1  C   UNL     1     -22.289   6.209  17.973  1.00  0.00     0.000 C 
ENDROOT
BRANCH   1   2
ATOM      2  C   UNL     1     -21.653   6.130  16.568  1.00  0.00     0.000 C 
BRANCH   2   3
ATOM      3  C   UNL     1     -20.479   7.103  16.363  1.00  0.00     0.000 C 
BRANCH   3   4
ATOM      4  C   UNL     1     -19.134   6.387  16.154  1.00  0.00    -0.000 C 
BRANCH   4   5
ATOM      5  C   UNL     1     -18.146   6.642  17.310  1.00  0.00    -0.000 C 
BRANCH   5   6
ATOM      6  C   UNL     1     -18.740   7.457  18.478  1.00  0.00    -0.000 C 
BRANCH   6   7
ATOM      7  C   UNL     1     -18.770   6.704  19.827  1.00  0.00    -0.000 C 
BRANCH   7   8
ATOM      8  C   UNL     1     -19.107   5.208  19.686  1.00  0.00    -0.000 C 
BRANCH   8   9
ATOM      9  C   UNL     1     -20.250   4.779  20.622  1.00  0.00    -0.000 C 
BRANCH   9  10
ATOM     10  C   UNL     1     -20.990   3.523  20.124  1.00  0.00    -0.000 C 
BRANCH  10  11
ATOM     11  C   UNL     1     -20.360   2.187  20.559  1.00  0.00    -0.003 C 
ATOM     12  C   UNL     1     -19.954   2.171  22.033  1.00  0.00     0.004 C 
ENDBRANCH  10  11
ENDBRANCH   9  10
ENDBRANCH   8   9
ENDBRANCH   7   8
ENDBRANCH   6   7
ENDBRANCH   5   6
ENDBRANCH   4   5
ENDBRANCH   3   4
ENDBRANCH   2   3
ENDBRANCH   1   2
BRANCH   1  13
ATOM     13  C   UNL     1     -22.611   7.652  18.389  1.00  0.00     0.000 C 
BRANCH  13  14
ATOM     14  C   UNL     1     -22.270   7.883  19.869  1.00  0.00     0.000 C 
BRANCH  14  15
ATOM     15  C   UNL     1     -23.498   8.269  20.712  1.00  0.00     0.000 C 
BRANCH  15  16
ATOM     16  C   UNL     1     -24.410   7.090  21.113  1.00  0.00     0.000 C 
BRANCH  16  17
ATOM     17  C   UNL     1     -23.682   5.760  21.396  1.00  0.00     0.000 C 
BRANCH  17  18
ATOM     18  C   UNL     1     -24.215   4.963  22.600  1.00  0.00     0.000 C 
BRANCH  18  19
ATOM     19  C   UNL     1     -23.202   3.933  23.129  1.00  0.00     0.000 C 
BRANCH  19  20
ATOM     20  C   UNL     1     -23.744   2.492  23.103  1.00  0.00     0.006 C 
BRANCH  20  21
ATOM     21  C   UNL     1     -23.849   1.886  21.691  1.00  0.00     0.053 C 
BRANCH  21  22
ATOM     22  C   UNL     1     -23.509   0.427  21.657  1.00  0.00     0.041 C 
ATOM     23  O   UNL     1     -23.770  -0.265  20.637  1.00  0.00    -0.550 OA
ATOM     24  O   UNL     1     -22.928  -0.176  22.766  1.00  0.00    -0.550 OA
ENDBRANCH  21  22
ENDBRANCH  20  21
ENDBRANCH  19  20
ENDBRANCH  18  19
ENDBRANCH  17  18
ENDBRANCH  16  17
ENDBRANCH  15  16
ENDBRANCH  14  15
ENDBRANCH  13  14
ENDBRANCH   1  13
TORSDOF 20
ENDMDL
MODEL 4
REMARK VINA RESULT:    -3.719      1.421      2.761
REMARK INTER + INTRA:         -11.561
REMARK INTER:                  -8.483
REMARK INTRA:                  -3.078
REMARK UNBOUND:                -3.494
REMARK SMILES CCCCCCCCCCCCCCCCCCCCCC(=O)[O-]
REMARK SMILES IDX 12 1 11 2 10 3 9 4 8 5 7 6 6 7 5 8 4 9 3 10 2 11 1 12 13 13
REMARK SMILES IDX 14 14 15 15 16 16 17 17 18 18 19 19 20 20 21 21 22 22 23 23
REMARK SMILES IDX 24 24
REMARK H PARENT
REMARK Flexibility Score: inf
ROOT
ATOM      1  C   UNL     1     -22.642   5.776  21.298  1.00  0.00     0.000 C 
ENDROOT
BRANCH   1   2
ATOM      2  C   UNL     1     -22.802   4.302  20.868  1.00  0.00     0.000 C 
BRANCH   2   3
ATOM      3  C   UNL     1     -21.654   3.786  19.983  1.00  0.00     0.000 C 
BRANCH   3   4
ATOM      4  C   UNL     1     -20.650   2.910  20.750  1.00  0.00    -0.000 C 
BRANCH   4   5
ATOM      5  C   UNL     1     -21.162   2.515  22.150  1.00  0.00    -0.000 C 
BRANCH   5   6
ATOM      6  C   UNL     1     -21.405   1.001  22.328  1.00  0.00    -0.000 C 
BRANCH   6   7
ATOM      7  C   UNL     1     -22.122   0.329  21.136  1.00  0.00    -0.000 C 
BRANCH   7   8
ATOM      8  C   UNL     1     -23.632   0.625  21.084  1.00  0.00    -0.000 C 
BRANCH   8   9
ATOM      9  C   UNL     1     -24.262   0.678  22.487  1.00  0.00    -0.000 C 
BRANCH   9  10
ATOM     10  C   UNL     1     -25.025   1.991  22.748  1.00  0.00    -0.000 C 
BRANCH  10  11
ATOM     11  C   UNL     1     -24.465   2.846  23.900  1.00  0.00    -0.003 C 
ATOM     12  C   UNL     1     -25.010   4.275  23.901  1.00  0.00     0.004 C 
ENDBRANCH  10  11
ENDBRANCH   9  10
ENDBRANCH   8   9
ENDBRANCH   7   8
ENDBRANCH   6   7
ENDBRANCH   5   6
ENDBRANCH   4   5
ENDBRANCH   3   4
ENDBRANCH   2   3
ENDBRANCH   1   2
BRANCH   1  13
ATOM     13  C   UNL     1     -23.940   6.579  21.127  1.00  0.00     0.000 C 
BRANCH  13  14
ATOM     14  C   UNL     1     -23.634   8.041  20.768  1.00  0.00     0.000 C 
BRANCH  14  15
ATOM     15  C   UNL     1     -22.218   8.232  20.196  1.00  0.00     0.000 C 
BRANCH  15  16
ATOM     16  C   UNL     1     -22.159   8.506  18.679  1.00  0.00     0.000 C 
BRANCH  16  17
ATOM     17  C   UNL     1     -22.609   7.337  17.779  1.00  0.00     0.000 C 
BRANCH  17  18
ATOM     18  C   UNL     1     -21.543   6.255  17.527  1.00  0.00     0.000 C 
BRANCH  18  19
ATOM     19  C   UNL     1     -20.765   6.479  16.219  1.00  0.00     0.000 C 
BRANCH  19  20
ATOM     20  C   UNL     1     -19.301   6.894  16.456  1.00  0.00     0.006 C 
BRANCH  20  21
ATOM     21  C   UNL     1     -18.874   6.875  17.936  1.00  0.00     0.053 C 
BRANCH  21  22
ATOM     22  C   UNL     1     -17.572   6.168  18.157  1.00  0.00     0.041 C 
ATOM     23  O   UNL     1     -16.491   6.692  17.776  1.00  0.00    -0.550 OA
ATOM     24  O   UNL     1     -17.554   4.916  18.757  1.00  0.00    -0.550 OA
ENDBRANCH  21  22
ENDBRANCH  20  21
ENDBRANCH  19  20
ENDBRANCH  18  19
ENDBRANCH  17  18
ENDBRANCH  16  17
ENDBRANCH  15  16
ENDBRANCH  14  15
ENDBRANCH  13  14
ENDBRANCH   1  13
TORSDOF 20
ENDMDL
MODEL 5
REMARK VINA RESULT:    -3.715      1.621      3.708
REMARK INTER + INTRA:         -11.553
REMARK INTER:                  -7.633
REMARK INTRA:                  -3.920
REMARK UNBOUND:                -3.494
REMARK SMILES CCCCCCCCCCCCCCCCCCCCCC(=O)[O-]
REMARK SMILES IDX 12 1 11 2 10 3 9 4 8 5 7 6 6 7 5 8 4 9 3 10 2 11 1 12 13 13
REMARK SMILES IDX 14 14 15 15 16 16 17 17 18 18 19 19 20 20 21 21 22 22 23 23
REMARK SMILES IDX 24 24
REMARK H PARENT
REMARK Flexibility Score: inf
ROOT
ATOM      1  C   UNL     1     -20.527   5.097  21.336  1.00  0.00     0.000 C 
ENDROOT
BRANCH   1   2
ATOM      2  C   UNL     1     -21.356   4.642  20.116  1.00  0.00     0.000 C 
BRANCH   2   3
ATOM      3  C   UNL     1     -22.840   4.389  20.434  1.00  0.00     0.000 C 
BRANCH   3   4
ATOM      4  C   UNL     1     -23.342   5.194  21.645  1.00  0.00    -0.000 C 
BRANCH   4   5
ATOM      5  C   UNL     1     -24.048   4.307  22.690  1.00  0.00    -0.000 C 
BRANCH   5   6
ATOM      6  C   UNL     1     -23.963   2.795  22.393  1.00  0.00    -0.000 C 
BRANCH   6   7
ATOM      7  C   UNL     1     -23.115   1.996  23.408  1.00  0.00    -0.000 C 
BRANCH   7   8
ATOM      8  C   UNL     1     -21.598   2.148  23.192  1.00  0.00    -0.000 C 
BRANCH   8   9
ATOM      9  C   UNL     1     -20.994   0.946  22.446  1.00  0.00    -0.000 C 
BRANCH   9  10
ATOM     10  C   UNL     1     -21.274   0.981  20.932  1.00  0.00    -0.000 C 
BRANCH  10  11
ATOM     11  C   UNL     1     -21.835  -0.328  20.347  1.00  0.00    -0.003 C 
ATOM     12  C   UNL     1     -23.341  -0.482  20.568  1.00  0.00     0.004 C 
ENDBRANCH  10  11
ENDBRANCH   9  10
ENDBRANCH   8   9
ENDBRANCH   7   8
ENDBRANCH   6   7
ENDBRANCH   5   6
ENDBRANCH   4   5
ENDBRANCH   3   4
ENDBRANCH   2   3
ENDBRANCH   1   2
BRANCH   1  13
ATOM     13  C   UNL     1     -19.797   6.424  21.085  1.00  0.00     0.000 C 
BRANCH  13  14
ATOM     14  C   UNL     1     -20.462   7.569  21.865  1.00  0.00     0.000 C 
BRANCH  14  15
ATOM     15  C   UNL     1     -21.136   8.605  20.946  1.00  0.00     0.000 C 
BRANCH  15  16
ATOM     16  C   UNL     1     -22.660   8.433  20.779  1.00  0.00     0.000 C 
BRANCH  16  17
ATOM     17  C   UNL     1     -23.136   8.130  19.344  1.00  0.00     0.000 C 
BRANCH  17  18
ATOM     18  C   UNL     1     -22.030   8.121  18.273  1.00  0.00     0.000 C 
BRANCH  18  19
ATOM     19  C   UNL     1     -22.069   6.865  17.386  1.00  0.00     0.000 C 
BRANCH  19  20
ATOM     20  C   UNL     1     -20.684   6.476  16.837  1.00  0.00     0.006 C 
BRANCH  20  21
ATOM     21  C   UNL     1     -19.513   7.228  17.496  1.00  0.00     0.053 C 
BRANCH  21  22
ATOM     22  C   UNL     1     -18.300   6.368  17.682  1.00  0.00     0.041 C 
ATOM     23  O   UNL     1     -18.422   5.151  17.986  1.00  0.00    -0.550 OA
ATOM     24  O   UNL     1     -17.032   6.918  17.547  1.00  0.00    -0.550 OA
ENDBRANCH  21  22
ENDBRANCH  20  21
ENDBRANCH  19  20
ENDBRANCH  18  19
ENDBRANCH  17  18
ENDBRANCH  16  17
ENDBRANCH  15  16
ENDBRANCH  14  15
ENDBRANCH  13  14
ENDBRANCH   1  13
TORSDOF 20
ENDMDL
MODEL 6
REMARK VINA RESULT:    -3.682      2.458      6.805
REMARK INTER + INTRA:         -11.482
REMARK INTER:                  -8.273
REMARK INTRA:                  -3.209
REMARK UNBOUND:                -3.494
REMARK SMILES CCCCCCCCCCCCCCCCCCCCCC(=O)[O-]
REMARK SMILES IDX 12 1 11 2 10 3 9 4 8 5 7 6 6 7 5 8 4 9 3 10 2 11 1 12 13 13
REMARK SMILES IDX 14 14 15 15 16 16 17 17 18 18 19 19 20 20 21 21 22 22 23 23
REMARK SMILES IDX 24 24
REMARK H PARENT
REMARK Flexibility Score: inf
ROOT
ATOM      1  C   UNL     1     -18.591   4.990  18.879  1.00  0.00     0.000 C 
ENDROOT
BRANCH   1   2
ATOM      2  C   UNL     1     -17.593   6.060  18.388  1.00  0.00     0.000 C 
BRANCH   2   3
ATOM      3  C   UNL     1     -18.129   6.926  17.235  1.00  0.00     0.000 C 
BRANCH   3   4
ATOM      4  C   UNL     1     -19.058   6.153  16.284  1.00  0.00    -0.000 C 
BRANCH   4   5
ATOM      5  C   UNL     1     -20.422   6.849  16.100  1.00  0.00    -0.000 C 
BRANCH   5   6
ATOM      6  C   UNL     1     -21.602   6.109  16.765  1.00  0.00    -0.000 C 
BRANCH   6   7
ATOM      7  C   UNL     1     -22.408   6.968  17.764  1.00  0.00    -0.000 C 
BRANCH   7   8
ATOM      8  C   UNL     1     -21.704   8.283  18.148  1.00  0.00    -0.000 C 
BRANCH   8   9
ATOM      9  C   UNL     1     -20.951   8.169  19.485  1.00  0.00    -0.000 C 
BRANCH   9  10
ATOM     10  C   UNL     1     -21.842   7.653  20.630  1.00  0.00    -0.000 C 
BRANCH  10  11
ATOM     11  C   UNL     1     -23.208   8.353  20.752  1.00  0.00    -0.003 C 
ATOM     12  C   UNL     1     -24.362   7.375  20.978  1.00  0.00     0.004 C 
ENDBRANCH  10  11
ENDBRANCH   9  10
ENDBRANCH   8   9
ENDBRANCH   7   8
ENDBRANCH   6   7
ENDBRANCH   5   6
ENDBRANCH   4   5
ENDBRANCH   3   4
ENDBRANCH   2   3
ENDBRANCH   1   2
BRANCH   1  13
ATOM     13  C   UNL     1     -18.932   5.148  20.368  1.00  0.00     0.000 C 
BRANCH  13  14
ATOM     14  C   UNL     1     -20.059   4.187  20.776  1.00  0.00     0.000 C 
BRANCH  14  15
ATOM     15  C   UNL     1     -21.259   4.231  19.812  1.00  0.00     0.000 C 
BRANCH  15  16
ATOM     16  C   UNL     1     -22.642   4.141  20.489  1.00  0.00     0.000 C 
BRANCH  16  17
ATOM     17  C   UNL     1     -22.639   4.312  22.022  1.00  0.00     0.000 C 
BRANCH  17  18
ATOM     18  C   UNL     1     -23.749   3.553  22.770  1.00  0.00     0.000 C 
BRANCH  18  19
ATOM     19  C   UNL     1     -23.281   2.190  23.309  1.00  0.00     0.000 C 
BRANCH  19  20
ATOM     20  C   UNL     1     -24.062   1.007  22.707  1.00  0.00     0.006 C 
BRANCH  20  21
ATOM     21  C   UNL     1     -23.879   0.842  21.187  1.00  0.00     0.053 C 
BRANCH  21  22
ATOM     22  C   UNL     1     -23.379  -0.518  20.805  1.00  0.00     0.041 C 
ATOM     23  O   UNL     1     -22.207  -0.667  20.369  1.00  0.00    -0.550 OA
ATOM     24  O   UNL     1     -24.220  -1.619  20.905  1.00  0.00    -0.550 OA
ENDBRANCH  21  22
ENDBRANCH  20  21
ENDBRANCH  19  20
ENDBRANCH  18  19
ENDBRANCH  17  18
ENDBRANCH  16  17
ENDBRANCH  15  16
ENDBRANCH  14  15
ENDBRANCH  13  14
ENDBRANCH   1  13
TORSDOF 20
ENDMDL
MODEL 7
REMARK VINA RESULT:    -3.674      2.363      6.335
REMARK INTER + INTRA:         -11.464
REMARK INTER:                  -8.477
REMARK INTRA:                  -2.987
REMARK UNBOUND:                -3.494
REMARK SMILES CCCCCCCCCCCCCCCCCCCCCC(=O)[O-]
REMARK SMILES IDX 12 1 11 2 10 3 9 4 8 5 7 6 6 7 5 8 4 9 3 10 2 11 1 12 13 13
REMARK SMILES IDX 14 14 15 15 16 16 17 17 18 18 19 19 20 20 21 21 22 22 23 23
REMARK SMILES IDX 24 24
REMARK H PARENT
REMARK Flexibility Score: inf
ROOT
ATOM      1  C   UNL     1     -22.007   7.790  20.340  1.00  0.00     0.000 C 
ENDROOT
BRANCH   1   2
ATOM      2  C   UNL     1     -21.333   8.311  19.053  1.00  0.00     0.000 C 
BRANCH   2   3
ATOM      3  C   UNL     1     -22.060   7.901  17.761  1.00  0.00     0.000 C 
BRANCH   3   4
ATOM      4  C   UNL     1     -21.427   6.678  17.077  1.00  0.00    -0.000 C 
BRANCH   4   5
ATOM      5  C   UNL     1     -20.368   7.072  16.028  1.00  0.00    -0.000 C 
BRANCH   5   6
ATOM      6  C   UNL     1     -18.993   6.405  16.240  1.00  0.00    -0.000 C 
BRANCH   6   7
ATOM      7  C   UNL     1     -18.361   6.679  17.622  1.00  0.00    -0.000 C 
BRANCH   7   8
ATOM      8  C   UNL     1     -18.187   5.412  18.479  1.00  0.00    -0.000 C 
BRANCH   8   9
ATOM      9  C   UNL     1     -19.071   5.435  19.738  1.00  0.00    -0.000 C 
BRANCH   9  10
ATOM     10  C   UNL     1     -20.266   4.467  19.646  1.00  0.00    -0.000 C 
BRANCH  10  11
ATOM     11  C   UNL     1     -20.249   3.320  20.672  1.00  0.00    -0.003 C 
ATOM     12  C   UNL     1     -19.345   3.606  21.872  1.00  0.00     0.004 C 
ENDBRANCH  10  11
ENDBRANCH   9  10
ENDBRANCH   8   9
ENDBRANCH   7   8
ENDBRANCH   6   7
ENDBRANCH   5   6
ENDBRANCH   4   5
ENDBRANCH   3   4
ENDBRANCH   2   3
ENDBRANCH   1   2
BRANCH   1  13
ATOM     13  C   UNL     1     -23.529   7.997  20.328  1.00  0.00     0.000 C 
BRANCH  13  14
ATOM     14  C   UNL     1     -24.236   6.903  21.142  1.00  0.00     0.000 C 
BRANCH  14  15
ATOM     15  C   UNL     1     -23.511   5.547  21.074  1.00  0.00     0.000 C 
BRANCH  15  16
ATOM     16  C   UNL     1     -23.052   4.985  22.436  1.00  0.00     0.000 C 
BRANCH  16  17
ATOM     17  C   UNL     1     -24.155   4.313  23.278  1.00  0.00     0.000 C 
BRANCH  17  18
ATOM     18  C   UNL     1     -23.817   2.905  23.801  1.00  0.00     0.000 C 
BRANCH  18  19
ATOM     19  C   UNL     1     -24.771   1.824  23.264  1.00  0.00     0.000 C 
BRANCH  19  20
ATOM     20  C   UNL     1     -24.716   1.684  21.732  1.00  0.00     0.006 C 
BRANCH  20  21
ATOM     21  C   UNL     1     -23.316   1.356  21.180  1.00  0.00     0.053 C 
BRANCH  21  22
ATOM     22  C   UNL     1     -23.135  -0.101  20.881  1.00  0.00     0.041 C 
ATOM     23  O   UNL     1     -24.087  -0.909  21.051  1.00  0.00    -0.550 OA
ATOM     24  O   UNL     1     -21.905  -0.571  20.440  1.00  0.00    -0.550 OA
ENDBRANCH  21  22
ENDBRANCH  20  21
ENDBRANCH  19  20
ENDBRANCH  18  19
ENDBRANCH  17  18
ENDBRANCH  16  17
ENDBRANCH  15  16
ENDBRANCH  14  15
ENDBRANCH  13  14
ENDBRANCH   1  13
TORSDOF 20
ENDMDL
MODEL 8
REMARK VINA RESULT:    -3.659      2.478      6.233
REMARK INTER + INTRA:         -11.432
REMARK INTER:                  -7.790
REMARK INTRA:                  -3.642
REMARK UNBOUND:                -3.494
REMARK SMILES CCCCCCCCCCCCCCCCCCCCCC(=O)[O-]
REMARK SMILES IDX 12 1 11 2 10 3 9 4 8 5 7 6 6 7 5 8 4 9 3 10 2 11 1 12 13 13
REMARK SMILES IDX 14 14 15 15 16 16 17 17 18 18 19 19 20 20 21 21 22 22 23 23
REMARK SMILES IDX 24 24
REMARK H PARENT
REMARK Flexibility Score: inf
ROOT
ATOM      1  C   UNL     1     -23.036   8.337  20.406  1.00  0.00     0.000 C 
ENDROOT
BRANCH   1   2
ATOM      2  C   UNL     1     -23.104   8.558  18.880  1.00  0.00     0.000 C 
BRANCH   2   3
ATOM      3  C   UNL     1     -21.942   7.911  18.107  1.00  0.00     0.000 C 
BRANCH   3   4
ATOM      4  C   UNL     1     -22.326   6.574  17.450  1.00  0.00    -0.000 C 
BRANCH   4   5
ATOM      5  C   UNL     1     -21.197   6.006  16.566  1.00  0.00    -0.000 C 
BRANCH   5   6
ATOM      6  C   UNL     1     -20.215   7.072  16.038  1.00  0.00    -0.000 C 
BRANCH   6   7
ATOM      7  C   UNL     1     -18.763   6.902  16.539  1.00  0.00    -0.000 C 
BRANCH   7   8
ATOM      8  C   UNL     1     -18.574   5.686  17.465  1.00  0.00    -0.000 C 
BRANCH   8   9
ATOM      9  C   UNL     1     -17.426   5.893  18.468  1.00  0.00    -0.000 C 
BRANCH   9  10
ATOM     10  C   UNL     1     -17.190   7.376  18.808  1.00  0.00    -0.000 C 
BRANCH  10  11
ATOM     11  C   UNL     1     -17.857   7.856  20.110  1.00  0.00    -0.003 C 
ATOM     12  C   UNL     1     -19.080   8.740  19.862  1.00  0.00     0.004 C 
ENDBRANCH  10  11
ENDBRANCH   9  10
ENDBRANCH   8   9
ENDBRANCH   7   8
ENDBRANCH   6   7
ENDBRANCH   5   6
ENDBRANCH   4   5
ENDBRANCH   3   4
ENDBRANCH   2   3
ENDBRANCH   1   2
BRANCH   1  13
ATOM     13  C   UNL     1     -23.935   7.183  20.871  1.00  0.00     0.000 C 
BRANCH  13  14
ATOM     14  C   UNL     1     -23.122   5.891  21.040  1.00  0.00     0.000 C 
BRANCH  14  15
ATOM     15  C   UNL     1     -21.678   6.151  21.507  1.00  0.00     0.000 C 
BRANCH  15  16
ATOM     16  C   UNL     1     -20.591   5.391  20.717  1.00  0.00     0.000 C 
BRANCH  16  17
ATOM     17  C   UNL     1     -21.098   4.207  19.869  1.00  0.00     0.000 C 
BRANCH  17  18
ATOM     18  C   UNL     1     -20.752   2.811  20.417  1.00  0.00     0.000 C 
BRANCH  18  19
ATOM     19  C   UNL     1     -21.996   2.003  20.822  1.00  0.00     0.000 C 
BRANCH  19  20
ATOM     20  C   UNL     1     -22.140   1.849  22.347  1.00  0.00     0.006 C 
BRANCH  20  21
ATOM     21  C   UNL     1     -23.061   2.895  23.001  1.00  0.00     0.053 C 
BRANCH  21  22
ATOM     22  C   UNL     1     -24.305   2.294  23.581  1.00  0.00     0.041 C 
ATOM     23  O   UNL     1     -24.483   2.279  24.828  1.00  0.00    -0.550 OA
ATOM     24  O   UNL     1     -25.256   1.724  22.745  1.00  0.00    -0.550 OA
ENDBRANCH  21  22
ENDBRANCH  20  21
ENDBRANCH  19  20
ENDBRANCH  18  19
ENDBRANCH  17  18
ENDBRANCH  16  17
ENDBRANCH  15  16
ENDBRANCH  14  15
ENDBRANCH  13  14
ENDBRANCH   1  13
TORSDOF 20
ENDMDL
MODEL 9
REMARK VINA RESULT:    -3.649      2.531      6.810
REMARK INTER + INTRA:         -11.410
REMARK INTER:                  -7.479
REMARK INTRA:                  -3.931
REMARK UNBOUND:                -3.494
REMARK SMILES CCCCCCCCCCCCCCCCCCCCCC(=O)[O-]
REMARK SMILES IDX 12 1 11 2 10 3 9 4 8 5 7 6 6 7 5 8 4 9 3 10 2 11 1 12 13 13
REMARK SMILES IDX 14 14 15 15 16 16 17 17 18 18 19 19 20 20 21 21 22 22 23 23
REMARK SMILES IDX 24 24
REMARK H PARENT
REMARK Flexibility Score: inf
ROOT
ATOM      1  C   UNL     1     -22.743   4.638  20.271  1.00  0.00     0.000 C 
ENDROOT
BRANCH   1   2
ATOM      2  C   UNL     1     -23.119   5.999  20.893  1.00  0.00     0.000 C 
BRANCH   2   3
ATOM      3  C   UNL     1     -21.910   6.901  21.190  1.00  0.00     0.000 C 
BRANCH   3   4
ATOM      4  C   UNL     1     -22.107   8.349  20.711  1.00  0.00    -0.000 C 
BRANCH   4   5
ATOM      5  C   UNL     1     -22.885   8.428  19.381  1.00  0.00    -0.000 C 
BRANCH   5   6
ATOM      6  C   UNL     1     -22.021   8.164  18.130  1.00  0.00    -0.000 C 
BRANCH   6   7
ATOM      7  C   UNL     1     -22.404   6.885  17.352  1.00  0.00    -0.000 C 
BRANCH   7   8
ATOM      8  C   UNL     1     -21.231   6.273  16.565  1.00  0.00    -0.000 C 
BRANCH   8   9
ATOM      9  C   UNL     1     -19.927   7.067  16.754  1.00  0.00    -0.000 C 
BRANCH   9  10
ATOM     10  C   UNL     1     -18.692   6.159  16.902  1.00  0.00    -0.000 C 
BRANCH  10  11
ATOM     11  C   UNL     1     -18.076   6.129  18.313  1.00  0.00    -0.003 C 
ATOM     12  C   UNL     1     -18.724   7.133  19.268  1.00  0.00     0.004 C 
ENDBRANCH  10  11
ENDBRANCH   9  10
ENDBRANCH   8   9
ENDBRANCH   7   8
ENDBRANCH   6   7
ENDBRANCH   5   6
ENDBRANCH   4   5
ENDBRANCH   3   4
ENDBRANCH   2   3
ENDBRANCH   1   2
BRANCH   1  13
ATOM     13  C   UNL     1     -21.254   4.553  19.905  1.00  0.00     0.000 C 
BRANCH  13  14
ATOM     14  C   UNL     1     -20.674   3.183  20.289  1.00  0.00     0.000 C 
BRANCH  14  15
ATOM     15  C   UNL     1     -21.754   2.181  20.735  1.00  0.00     0.000 C 
BRANCH  15  16
ATOM     16  C   UNL     1     -21.473   1.476  22.078  1.00  0.00     0.000 C 
BRANCH  16  17
ATOM     17  C   UNL     1     -20.572   2.255  23.057  1.00  0.00     0.000 C 
BRANCH  17  18
ATOM     18  C   UNL     1     -21.293   2.850  24.281  1.00  0.00     0.000 C 
BRANCH  18  19
ATOM     19  C   UNL     1     -22.094   4.119  23.942  1.00  0.00     0.000 C 
BRANCH  19  20
ATOM     20  C   UNL     1     -23.545   4.067  24.454  1.00  0.00     0.006 C 
BRANCH  20  21
ATOM     21  C   UNL     1     -24.580   3.707  23.372  1.00  0.00     0.053 C 
BRANCH  21  22
ATOM     22  C   UNL     1     -24.841   2.234  23.283  1.00  0.00     0.041 C 
ATOM     23  O   UNL     1     -24.852   1.525  24.324  1.00  0.00    -0.550 OA
ATOM     24  O   UNL     1     -25.042   1.639  22.045  1.00  0.00    -0.550 OA
ENDBRANCH  21  22
ENDBRANCH  20  21
ENDBRANCH  19  20
ENDBRANCH  18  19
ENDBRANCH  17  18
ENDBRANCH  16  17
ENDBRANCH  15  16
ENDBRANCH  14  15
ENDBRANCH  13  14
ENDBRANCH   1  13
TORSDOF 20
ENDMDL
