MODEL 1
REMARK VINA RESULT:    -6.508      0.000      0.000
REMARK INTER + INTRA:          -6.699
REMARK INTER:                  -6.699
REMARK INTRA:                   0.000
REMARK UNBOUND:                 0.000
REMARK SMILES C=C1CCC[C@]2(C)C[C@]3(O)OC(=O)C(C)=C3C[C@H]12
REMARK SMILES IDX 15 1 14 2 16 3 17 4 18 5 2 6 1 7 3 8 4 9 5 10 6 11 8 12 9 13
REMARK SMILES IDX 11 14 12 15 13 16 7 17 10 18
REMARK H PARENT 10 19
REMARK Flexibility Score: inf
ROOT
ATOM      1  C   UNL     1      22.001 -16.654  -9.760  1.00  0.00     0.052 C 
ATOM      2  C   UNL     1      21.381 -16.805 -11.115  1.00  0.00     0.040 C 
ATOM      3  C   UNL     1      21.112 -17.953 -11.735  1.00  0.00     0.012 C 
ATOM      4  C   UNL     1      21.449 -19.322 -11.228  1.00  0.00     0.047 C 
ATOM      5  C   UNL     1      21.154 -20.376 -12.316  1.00  0.00     0.025 C 
ATOM      6  C   UNL     1      21.572 -21.752 -11.824  1.00  0.00    -0.073 C 
ATOM      7  C   UNL     1      20.692 -22.541 -11.186  1.00  0.00     0.008 C 
ATOM      8  C   UNL     1      23.023 -22.154 -11.911  1.00  0.00     0.031 C 
ATOM      9  C   UNL     1      23.579 -21.864 -13.305  1.00  0.00     0.005 C 
ATOM     10  C   UNL     1      23.313 -20.411 -13.723  1.00  0.00     0.008 C 
ATOM     11  C   UNL     1      21.802 -20.025 -13.716  1.00  0.00    -0.019 C 
ATOM     12  C   UNL     1      21.686 -18.490 -14.076  1.00  0.00     0.092 C 
ATOM     13  C   UNL     1      20.723 -17.709 -13.170  1.00  0.00     0.235 C 
ATOM     14  O   UNL     1      20.880 -16.299 -13.327  1.00  0.00    -0.426 OA
ATOM     15  C   UNL     1      21.248 -15.760 -12.108  1.00  0.00     0.336 C 
ATOM     16  O   UNL     1      21.467 -14.534 -11.918  1.00  0.00    -0.246 OA
ATOM     17  C   UNL     1      21.056 -20.827 -14.814  1.00  0.00     0.012 C 
ENDROOT
BRANCH  13  18
ATOM     18  O   UNL     1      19.391 -18.085 -13.417  1.00  0.00    -0.353 OA
ATOM     19  H   UNL     1      18.885 -17.945 -12.575  1.00  0.00     0.215 HD
ENDBRANCH  13  18
TORSDOF 1
ENDMDL
MODEL 2
REMARK VINA RESULT:    -6.420      2.433      4.996
REMARK INTER + INTRA:          -6.607
REMARK INTER:                  -6.607
REMARK INTRA:                   0.000
REMARK UNBOUND:                 0.000
REMARK SMILES C=C1CCC[C@]2(C)C[C@]3(O)OC(=O)C(C)=C3C[C@H]12
REMARK SMILES IDX 15 1 14 2 16 3 17 4 18 5 2 6 1 7 3 8 4 9 5 10 6 11 8 12 9 13
REMARK SMILES IDX 11 14 12 15 13 16 7 17 10 18
REMARK H PARENT 10 19
REMARK Flexibility Score: inf
ROOT
ATOM      1  C   UNL     1      21.048 -23.591 -11.491  1.00  0.00     0.052 C 
ATOM      2  C   UNL     1      21.279 -22.554 -12.546  1.00  0.00     0.040 C 
ATOM      3  C   UNL     1      21.980 -21.430 -12.408  1.00  0.00     0.012 C 
ATOM      4  C   UNL     1      22.613 -20.945 -11.139  1.00  0.00     0.047 C 
ATOM      5  C   UNL     1      23.163 -19.516 -11.337  1.00  0.00     0.025 C 
ATOM      6  C   UNL     1      23.734 -19.001 -10.026  1.00  0.00    -0.073 C 
ATOM      7  C   UNL     1      25.031 -19.182  -9.730  1.00  0.00     0.008 C 
ATOM      8  C   UNL     1      22.796 -18.432  -8.990  1.00  0.00     0.031 C 
ATOM      9  C   UNL     1      21.843 -17.420  -9.625  1.00  0.00     0.005 C 
ATOM     10  C   UNL     1      21.130 -18.013 -10.848  1.00  0.00     0.008 C 
ATOM     11  C   UNL     1      22.103 -18.520 -11.955  1.00  0.00    -0.019 C 
ATOM     12  C   UNL     1      21.240 -19.180 -13.104  1.00  0.00     0.092 C 
ATOM     13  C   UNL     1      21.787 -20.526 -13.598  1.00  0.00     0.235 C 
ATOM     14  O   UNL     1      20.830 -21.222 -14.397  1.00  0.00    -0.426 OA
ATOM     15  C   UNL     1      20.546 -22.430 -13.789  1.00  0.00     0.336 C 
ATOM     16  O   UNL     1      19.731 -23.274 -14.248  1.00  0.00    -0.246 OA
ATOM     17  C   UNL     1      22.864 -17.315 -12.568  1.00  0.00     0.012 C 
ENDROOT
BRANCH  13  18
ATOM     18  O   UNL     1      22.984 -20.346 -14.311  1.00  0.00    -0.353 OA
ATOM     19  H   UNL     1      23.443 -21.226 -14.344  1.00  0.00     0.215 HD
ENDBRANCH  13  18
TORSDOF 1
ENDMDL
MODEL 3
REMARK VINA RESULT:    -6.173      3.225      5.664
REMARK INTER + INTRA:          -6.354
REMARK INTER:                  -6.354
REMARK INTRA:                   0.000
REMARK UNBOUND:                 0.000
REMARK SMILES C=C1CCC[C@]2(C)C[C@]3(O)OC(=O)C(C)=C3C[C@H]12
REMARK SMILES IDX 15 1 14 2 16 3 17 4 18 5 2 6 1 7 3 8 4 9 5 10 6 11 8 12 9 13
REMARK SMILES IDX 11 14 12 15 13 16 7 17 10 18
REMARK H PARENT 10 19
REMARK Flexibility Score: inf
ROOT
ATOM      1  C   UNL     1      20.918 -24.247 -10.908  1.00  0.00     0.052 C 
ATOM      2  C   UNL     1      22.102 -23.714 -11.654  1.00  0.00     0.040 C 
ATOM      3  C   UNL     1      22.441 -22.433 -11.783  1.00  0.00     0.012 C 
ATOM      4  C   UNL     1      21.657 -21.264 -11.268  1.00  0.00     0.047 C 
ATOM      5  C   UNL     1      22.271 -19.946 -11.785  1.00  0.00     0.025 C 
ATOM      6  C   UNL     1      21.426 -18.771 -11.323  1.00  0.00    -0.073 C 
ATOM      7  C   UNL     1      21.704 -18.145 -10.168  1.00  0.00     0.008 C 
ATOM      8  C   UNL     1      20.176 -18.419 -12.091  1.00  0.00     0.031 C 
ATOM      9  C   UNL     1      20.466 -18.348 -13.589  1.00  0.00     0.005 C 
ATOM     10  C   UNL     1      21.160 -19.624 -14.086  1.00  0.00     0.008 C 
ATOM     11  C   UNL     1      22.498 -19.936 -13.349  1.00  0.00    -0.019 C 
ATOM     12  C   UNL     1      23.051 -21.313 -13.897  1.00  0.00     0.092 C 
ATOM     13  C   UNL     1      23.541 -22.267 -12.799  1.00  0.00     0.235 C 
ATOM     14  O   UNL     1      23.737 -23.589 -13.300  1.00  0.00    -0.426 OA
ATOM     15  C   UNL     1      22.904 -24.449 -12.610  1.00  0.00     0.336 C 
ATOM     16  O   UNL     1      22.839 -25.689 -12.824  1.00  0.00    -0.246 OA
ATOM     17  C   UNL     1      23.543 -18.840 -13.685  1.00  0.00     0.012 C 
ENDROOT
BRANCH  13  18
ATOM     18  O   UNL     1      24.722 -21.785 -12.210  1.00  0.00    -0.353 OA
ATOM     19  H   UNL     1      25.137 -22.542 -11.720  1.00  0.00     0.215 HD
ENDBRANCH  13  18
TORSDOF 1
ENDMDL
MODEL 4
REMARK VINA RESULT:    -6.142      3.366      5.763
REMARK INTER + INTRA:          -6.321
REMARK INTER:                  -6.321
REMARK INTRA:                   0.000
REMARK UNBOUND:                 0.000
REMARK SMILES C=C1CCC[C@]2(C)C[C@]3(O)OC(=O)C(C)=C3C[C@H]12
REMARK SMILES IDX 15 1 14 2 16 3 17 4 18 5 2 6 1 7 3 8 4 9 5 10 6 11 8 12 9 13
REMARK SMILES IDX 11 14 12 15 13 16 7 17 10 18
REMARK H PARENT 10 19
REMARK Flexibility Score: inf
ROOT
ATOM      1  C   UNL     1      19.776 -22.808 -14.587  1.00  0.00     0.052 C 
ATOM      2  C   UNL     1      20.751 -23.137 -13.499  1.00  0.00     0.040 C 
ATOM      3  C   UNL     1      21.294 -22.276 -12.640  1.00  0.00     0.012 C 
ATOM      4  C   UNL     1      21.092 -20.791 -12.644  1.00  0.00     0.047 C 
ATOM      5  C   UNL     1      22.039 -20.127 -11.622  1.00  0.00     0.025 C 
ATOM      6  C   UNL     1      21.885 -18.616 -11.688  1.00  0.00    -0.073 C 
ATOM      7  C   UNL     1      21.004 -17.987 -10.892  1.00  0.00     0.008 C 
ATOM      8  C   UNL     1      22.609 -17.850 -12.767  1.00  0.00     0.031 C 
ATOM      9  C   UNL     1      24.077 -18.268 -12.831  1.00  0.00     0.005 C 
ATOM     10  C   UNL     1      24.221 -19.792 -12.950  1.00  0.00     0.008 C 
ATOM     11  C   UNL     1      23.546 -20.577 -11.784  1.00  0.00    -0.019 C 
ATOM     12  C   UNL     1      23.694 -22.123 -12.082  1.00  0.00     0.092 C 
ATOM     13  C   UNL     1      22.405 -22.926 -11.857  1.00  0.00     0.235 C 
ATOM     14  O   UNL     1      22.495 -24.233 -12.423  1.00  0.00    -0.426 OA
ATOM     15  C   UNL     1      21.504 -24.368 -13.378  1.00  0.00     0.336 C 
ATOM     16  O   UNL     1      21.323 -25.410 -14.062  1.00  0.00    -0.246 OA
ATOM     17  C   UNL     1      24.290 -20.277 -10.457  1.00  0.00     0.012 C 
ENDROOT
BRANCH  13  18
ATOM     18  O   UNL     1      22.099 -23.003 -10.488  1.00  0.00    -0.353 OA
ATOM     19  H   UNL     1      21.225 -22.550 -10.356  1.00  0.00     0.215 HD
ENDBRANCH  13  18
TORSDOF 1
ENDMDL
MODEL 5
REMARK VINA RESULT:    -6.058      2.732      3.883
REMARK INTER + INTRA:          -6.235
REMARK INTER:                  -6.235
REMARK INTRA:                   0.000
REMARK UNBOUND:                 0.000
REMARK SMILES C=C1CCC[C@]2(C)C[C@]3(O)OC(=O)C(C)=C3C[C@H]12
REMARK SMILES IDX 15 1 14 2 16 3 17 4 18 5 2 6 1 7 3 8 4 9 5 10 6 11 8 12 9 13
REMARK SMILES IDX 11 14 12 15 13 16 7 17 10 18
REMARK H PARENT 10 19
REMARK Flexibility Score: inf
ROOT
ATOM      1  C   UNL     1      22.177 -16.434 -10.787  1.00  0.00     0.052 C 
ATOM      2  C   UNL     1      23.083 -17.601 -10.542  1.00  0.00     0.040 C 
ATOM      3  C   UNL     1      23.270 -18.638 -11.356  1.00  0.00     0.012 C 
ATOM      4  C   UNL     1      22.549 -18.877 -12.648  1.00  0.00     0.047 C 
ATOM      5  C   UNL     1      22.900 -20.277 -13.197  1.00  0.00     0.025 C 
ATOM      6  C   UNL     1      22.106 -20.543 -14.466  1.00  0.00    -0.073 C 
ATOM      7  C   UNL     1      22.617 -20.227 -15.667  1.00  0.00     0.008 C 
ATOM      8  C   UNL     1      20.676 -21.011 -14.353  1.00  0.00     0.031 C 
ATOM      9  C   UNL     1      20.566 -22.173 -13.367  1.00  0.00     0.005 C 
ATOM     10  C   UNL     1      21.213 -21.827 -12.018  1.00  0.00     0.008 C 
ATOM     11  C   UNL     1      22.717 -21.429 -12.130  1.00  0.00    -0.019 C 
ATOM     12  C   UNL     1      23.223 -21.015 -10.690  1.00  0.00     0.092 C 
ATOM     13  C   UNL     1      24.055 -19.726 -10.670  1.00  0.00     0.235 C 
ATOM     14  O   UNL     1      24.226 -19.230  -9.342  1.00  0.00    -0.426 OA
ATOM     15  C   UNL     1      23.671 -17.966  -9.270  1.00  0.00     0.336 C 
ATOM     16  O   UNL     1      23.658 -17.263  -8.225  1.00  0.00    -0.246 OA
ATOM     17  C   UNL     1      23.546 -22.656 -12.589  1.00  0.00     0.012 C 
ENDROOT
BRANCH  13  18
ATOM     18  O   UNL     1      25.304 -19.928 -11.283  1.00  0.00    -0.353 OA
ATOM     19  H   UNL     1      25.145 -19.992 -12.261  1.00  0.00     0.215 HD
ENDBRANCH  13  18
TORSDOF 1
ENDMDL
MODEL 6
REMARK VINA RESULT:    -6.038      3.299      6.062
REMARK INTER + INTRA:          -6.215
REMARK INTER:                  -6.215
REMARK INTRA:                   0.000
REMARK UNBOUND:                 0.000
REMARK SMILES C=C1CCC[C@]2(C)C[C@]3(O)OC(=O)C(C)=C3C[C@H]12
REMARK SMILES IDX 15 1 14 2 16 3 17 4 18 5 2 6 1 7 3 8 4 9 5 10 6 11 8 12 9 13
REMARK SMILES IDX 11 14 12 15 13 16 7 17 10 18
REMARK H PARENT 10 19
REMARK Flexibility Score: inf
ROOT
ATOM      1  C   UNL     1      24.583 -24.763 -13.133  1.00  0.00     0.052 C 
ATOM      2  C   UNL     1      23.166 -24.333 -12.907  1.00  0.00     0.040 C 
ATOM      3  C   UNL     1      22.705 -23.084 -12.953  1.00  0.00     0.012 C 
ATOM      4  C   UNL     1      23.532 -21.853 -13.165  1.00  0.00     0.047 C 
ATOM      5  C   UNL     1      22.666 -20.593 -12.958  1.00  0.00     0.025 C 
ATOM      6  C   UNL     1      23.529 -19.349 -13.097  1.00  0.00    -0.073 C 
ATOM      7  C   UNL     1      23.663 -18.745 -14.289  1.00  0.00     0.008 C 
ATOM      8  C   UNL     1      24.362 -18.897 -11.923  1.00  0.00     0.031 C 
ATOM      9  C   UNL     1      23.518 -18.856 -10.650  1.00  0.00     0.005 C 
ATOM     10  C   UNL     1      22.790 -20.187 -10.417  1.00  0.00     0.008 C 
ATOM     11  C   UNL     1      21.861 -20.606 -11.597  1.00  0.00    -0.019 C 
ATOM     12  C   UNL     1      21.251 -22.026 -11.261  1.00  0.00     0.092 C 
ATOM     13  C   UNL     1      21.292 -23.014 -12.435  1.00  0.00     0.235 C 
ATOM     14  O   UNL     1      21.023 -24.350 -12.008  1.00  0.00    -0.426 OA
ATOM     15  C   UNL     1      22.121 -25.135 -12.306  1.00  0.00     0.336 C 
ATOM     16  O   UNL     1      22.196 -26.366 -12.049  1.00  0.00    -0.246 OA
ATOM     17  C   UNL     1      20.685 -19.602 -11.714  1.00  0.00     0.012 C 
ENDROOT
BRANCH  13  18
ATOM     18  O   UNL     1      20.389 -22.629 -13.441  1.00  0.00    -0.353 OA
ATOM     19  H   UNL     1      19.474 -22.805 -13.099  1.00  0.00     0.215 HD
ENDBRANCH  13  18
TORSDOF 1
ENDMDL
MODEL 7
REMARK VINA RESULT:    -6.011      2.703      4.046
REMARK INTER + INTRA:          -6.187
REMARK INTER:                  -6.187
REMARK INTRA:                   0.000
REMARK UNBOUND:                 0.000
REMARK SMILES C=C1CCC[C@]2(C)C[C@]3(O)OC(=O)C(C)=C3C[C@H]12
REMARK SMILES IDX 15 1 14 2 16 3 17 4 18 5 2 6 1 7 3 8 4 9 5 10 6 11 8 12 9 13
REMARK SMILES IDX 11 14 12 15 13 16 7 17 10 18
REMARK H PARENT 10 19
REMARK Flexibility Score: inf
ROOT
ATOM      1  C   UNL     1      24.460 -18.335 -13.522  1.00  0.00     0.052 C 
ATOM      2  C   UNL     1      23.954 -18.993 -12.275  1.00  0.00     0.040 C 
ATOM      3  C   UNL     1      23.711 -20.292 -12.112  1.00  0.00     0.012 C 
ATOM      4  C   UNL     1      23.825 -21.343 -13.173  1.00  0.00     0.047 C 
ATOM      5  C   UNL     1      23.273 -22.686 -12.648  1.00  0.00     0.025 C 
ATOM      6  C   UNL     1      23.320 -23.727 -13.755  1.00  0.00    -0.073 C 
ATOM      7  C   UNL     1      24.394 -24.520 -13.897  1.00  0.00     0.008 C 
ATOM      8  C   UNL     1      22.223 -23.749 -14.789  1.00  0.00     0.031 C 
ATOM      9  C   UNL     1      20.850 -23.702 -14.120  1.00  0.00     0.005 C 
ATOM     10  C   UNL     1      20.748 -22.531 -13.133  1.00  0.00     0.008 C 
ATOM     11  C   UNL     1      21.831 -22.561 -12.012  1.00  0.00    -0.019 C 
ATOM     12  C   UNL     1      21.662 -21.259 -11.131  1.00  0.00     0.092 C 
ATOM     13  C   UNL     1      22.984 -20.544 -10.817  1.00  0.00     0.235 C 
ATOM     14  O   UNL     1      22.762 -19.234 -10.295  1.00  0.00    -0.426 OA
ATOM     15  C   UNL     1      23.354 -18.317 -11.144  1.00  0.00     0.336 C 
ATOM     16  O   UNL     1      23.330 -17.071 -10.960  1.00  0.00    -0.246 OA
ATOM     17  C   UNL     1      21.594 -23.788 -11.093  1.00  0.00     0.012 C 
ENDROOT
BRANCH  13  18
ATOM     18  O   UNL     1      23.761 -21.303  -9.925  1.00  0.00    -0.353 OA
ATOM     19  H   UNL     1      23.785 -20.811  -9.063  1.00  0.00     0.215 HD
ENDBRANCH  13  18
TORSDOF 1
ENDMDL
MODEL 8
REMARK VINA RESULT:    -5.881      2.282      2.801
REMARK INTER + INTRA:          -6.053
REMARK INTER:                  -6.053
REMARK INTRA:                   0.000
REMARK UNBOUND:                 0.000
REMARK SMILES C=C1CCC[C@]2(C)C[C@]3(O)OC(=O)C(C)=C3C[C@H]12
REMARK SMILES IDX 15 1 14 2 16 3 17 4 18 5 2 6 1 7 3 8 4 9 5 10 6 11 8 12 9 13
REMARK SMILES IDX 11 14 12 15 13 16 7 17 10 18
REMARK H PARENT 10 19
REMARK Flexibility Score: inf
ROOT
ATOM      1  C   UNL     1      24.784 -20.291  -9.393  1.00  0.00     0.052 C 
ATOM      2  C   UNL     1      23.742 -19.357  -9.928  1.00  0.00     0.040 C 
ATOM      3  C   UNL     1      22.833 -19.641 -10.859  1.00  0.00     0.012 C 
ATOM      4  C   UNL     1      22.725 -20.932 -11.612  1.00  0.00     0.047 C 
ATOM      5  C   UNL     1      21.675 -20.802 -12.736  1.00  0.00     0.025 C 
ATOM      6  C   UNL     1      21.627 -22.088 -13.544  1.00  0.00    -0.073 C 
ATOM      7  C   UNL     1      20.771 -23.068 -13.212  1.00  0.00     0.008 C 
ATOM      8  C   UNL     1      22.661 -22.320 -14.618  1.00  0.00     0.031 C 
ATOM      9  C   UNL     1      22.784 -21.094 -15.521  1.00  0.00     0.005 C 
ATOM     10  C   UNL     1      23.017 -19.816 -14.702  1.00  0.00     0.008 C 
ATOM     11  C   UNL     1      21.898 -19.533 -13.653  1.00  0.00    -0.019 C 
ATOM     12  C   UNL     1      22.312 -18.248 -12.830  1.00  0.00     0.092 C 
ATOM     13  C   UNL     1      22.122 -18.393 -11.314  1.00  0.00     0.235 C 
ATOM     14  O   UNL     1      22.783 -17.349 -10.598  1.00  0.00    -0.426 OA
ATOM     15  C   UNL     1      23.726 -17.919  -9.763  1.00  0.00     0.336 C 
ATOM     16  O   UNL     1      24.480 -17.259  -9.001  1.00  0.00    -0.246 OA
ATOM     17  C   UNL     1      20.568 -19.219 -14.385  1.00  0.00     0.012 C 
ENDROOT
BRANCH  13  18
ATOM     18  O   UNL     1      20.756 -18.425 -10.983  1.00  0.00    -0.353 OA
ATOM     19  H   UNL     1      20.274 -17.897 -11.673  1.00  0.00     0.215 HD
ENDBRANCH  13  18
TORSDOF 1
ENDMDL
