MODEL 1
REMARK VINA RESULT:    -3.991      0.000      0.000
REMARK INTER + INTRA:          -4.107
REMARK INTER:                  -4.107
REMARK INTRA:                   0.000
REMARK UNBOUND:                 0.000
REMARK SMILES CC1(C)[C@@H]2CC[C@@](C)(C2)[C@@H]1O
REMARK SMILES IDX 1 1 2 2 4 3 5 4 6 5 7 6 9 7 10 8 8 9 3 10 11 11
REMARK H PARENT 11 12
REMARK Flexibility Score: inf
ROOT
ATOM      1  C   UNL     1     138.082 139.589 131.318  1.00  0.00     0.014 C 
ATOM      2  C   UNL     1     138.404 139.668 129.803  1.00  0.00    -0.006 C 
ATOM      3  C   UNL     1     138.352 138.280 129.071  1.00  0.00    -0.002 C 
ATOM      4  C   UNL     1     139.157 137.209 129.835  1.00  0.00     0.005 C 
ATOM      5  C   UNL     1     140.610 137.663 129.634  1.00  0.00     0.010 C 
ATOM      6  C   UNL     1     140.462 138.906 128.721  1.00  0.00    -0.006 C 
ATOM      7  C   UNL     1     139.273 138.493 127.877  1.00  0.00     0.013 C 
ATOM      8  C   UNL     1     139.863 140.131 129.475  1.00  0.00     0.126 C 
ATOM      9  C   UNL     1     141.719 139.231 127.909  1.00  0.00     0.014 C 
ATOM     10  C   UNL     1     137.367 140.632 129.172  1.00  0.00     0.014 C 
ENDROOT
BRANCH   8  11
ATOM     11  O   UNL     1     140.624 140.584 130.573  1.00  0.00    -0.392 OA
ATOM     12  H   UNL     1     140.060 141.126 131.170  1.00  0.00     0.211 HD
ENDBRANCH   8  11
TORSDOF 1
ENDMDL
MODEL 2
REMARK VINA RESULT:    -3.987      2.841      4.088
REMARK INTER + INTRA:          -4.103
REMARK INTER:                  -4.103
REMARK INTRA:                   0.000
REMARK UNBOUND:                 0.000
REMARK SMILES CC1(C)[C@@H]2CC[C@@](C)(C2)[C@@H]1O
REMARK SMILES IDX 1 1 2 2 4 3 5 4 6 5 7 6 9 7 10 8 8 9 3 10 11 11
REMARK H PARENT 11 12
REMARK Flexibility Score: inf
ROOT
ATOM      1  C   UNL     1     139.582 137.114 131.378  1.00  0.00     0.014 C 
ATOM      2  C   UNL     1     139.704 136.825 129.859  1.00  0.00    -0.006 C 
ATOM      3  C   UNL     1     138.337 136.889 129.090  1.00  0.00    -0.002 C 
ATOM      4  C   UNL     1     137.248 136.064 129.806  1.00  0.00     0.005 C 
ATOM      5  C   UNL     1     137.713 134.617 129.587  1.00  0.00     0.010 C 
ATOM      6  C   UNL     1     138.980 134.788 128.713  1.00  0.00    -0.006 C 
ATOM      7  C   UNL     1     138.586 135.994 127.883  1.00  0.00     0.013 C 
ATOM      8  C   UNL     1     140.181 135.374 129.513  1.00  0.00     0.126 C 
ATOM      9  C   UNL     1     139.332 133.550 127.883  1.00  0.00     0.014 C 
ATOM     10  C   UNL     1     140.682 137.878 129.278  1.00  0.00     0.014 C 
ENDROOT
BRANCH   8  11
ATOM     11  O   UNL     1     140.606 134.592 130.606  1.00  0.00    -0.392 OA
ATOM     12  H   UNL     1     140.049 134.786 131.395  1.00  0.00     0.211 HD
ENDBRANCH   8  11
TORSDOF 1
ENDMDL
MODEL 3
REMARK VINA RESULT:    -3.974      2.884      4.191
REMARK INTER + INTRA:          -4.090
REMARK INTER:                  -4.090
REMARK INTRA:                   0.000
REMARK UNBOUND:                 0.000
REMARK SMILES CC1(C)[C@@H]2CC[C@@](C)(C2)[C@@H]1O
REMARK SMILES IDX 1 1 2 2 4 3 5 4 6 5 7 6 9 7 10 8 8 9 3 10 11 11
REMARK H PARENT 11 12
REMARK Flexibility Score: inf
ROOT
ATOM      1  C   UNL     1     135.682 138.137 131.435  1.00  0.00     0.014 C 
ATOM      2  C   UNL     1     135.512 138.398 129.915  1.00  0.00    -0.006 C 
ATOM      3  C   UNL     1     136.858 138.344 129.109  1.00  0.00    -0.002 C 
ATOM      4  C   UNL     1     137.953 139.198 129.780  1.00  0.00     0.005 C 
ATOM      5  C   UNL     1     137.457 140.634 129.550  1.00  0.00     0.010 C 
ATOM      6  C   UNL     1     136.169 140.427 128.715  1.00  0.00    -0.006 C 
ATOM      7  C   UNL     1     136.559 139.213 127.894  1.00  0.00     0.013 C 
ATOM      8  C   UNL     1     135.001 139.834 129.559  1.00  0.00     0.126 C 
ATOM      9  C   UNL     1     135.772 141.644 127.875  1.00  0.00     0.014 C 
ATOM     10  C   UNL     1     134.536 137.319 129.380  1.00  0.00     0.014 C 
ENDROOT
BRANCH   8  11
ATOM     11  O   UNL     1     134.594 140.629 130.651  1.00  0.00    -0.392 OA
ATOM     12  H   UNL     1     135.378 140.893 131.184  1.00  0.00     0.211 HD
ENDBRANCH   8  11
TORSDOF 1
ENDMDL
MODEL 4
REMARK VINA RESULT:    -3.944      4.257      5.830
REMARK INTER + INTRA:          -4.059
REMARK INTER:                  -4.059
REMARK INTRA:                   0.000
REMARK UNBOUND:                 0.000
REMARK SMILES CC1(C)[C@@H]2CC[C@@](C)(C2)[C@@H]1O
REMARK SMILES IDX 1 1 2 2 4 3 5 4 6 5 7 6 9 7 10 8 8 9 3 10 11 11
REMARK H PARENT 11 12
REMARK Flexibility Score: inf
ROOT
ATOM      1  C   UNL     1     137.151 135.399 131.279  1.00  0.00     0.014 C 
ATOM      2  C   UNL     1     136.835 135.446 129.761  1.00  0.00    -0.006 C 
ATOM      3  C   UNL     1     136.917 136.887 129.142  1.00  0.00    -0.002 C 
ATOM      4  C   UNL     1     136.129 137.910 129.985  1.00  0.00     0.005 C 
ATOM      5  C   UNL     1     134.668 137.500 129.744  1.00  0.00     0.010 C 
ATOM      6  C   UNL     1     134.797 136.331 128.736  1.00  0.00    -0.006 C 
ATOM      7  C   UNL     1     135.998 136.787 127.931  1.00  0.00     0.013 C 
ATOM      8  C   UNL     1     135.368 135.040 129.392  1.00  0.00     0.126 C 
ATOM      9  C   UNL     1     133.538 136.096 127.896  1.00  0.00     0.014 C 
ATOM     10  C   UNL     1     137.856 134.515 129.060  1.00  0.00     0.014 C 
ENDROOT
BRANCH   8  11
ATOM     11  O   UNL     1     134.594 134.516 130.448  1.00  0.00    -0.392 OA
ATOM     12  H   UNL     1     133.653 134.439 130.168  1.00  0.00     0.211 HD
ENDBRANCH   8  11
TORSDOF 1
ENDMDL
MODEL 5
REMARK VINA RESULT:    -3.841      2.831      4.272
REMARK INTER + INTRA:          -3.953
REMARK INTER:                  -3.953
REMARK INTRA:                   0.000
REMARK UNBOUND:                 0.000
REMARK SMILES CC1(C)[C@@H]2CC[C@@](C)(C2)[C@@H]1O
REMARK SMILES IDX 1 1 2 2 4 3 5 4 6 5 7 6 9 7 10 8 8 9 3 10 11 11
REMARK H PARENT 11 12
REMARK Flexibility Score: inf
ROOT
ATOM      1  C   UNL     1     136.897 134.726 129.410  1.00  0.00     0.014 C 
ATOM      2  C   UNL     1     138.416 134.775 129.100  1.00  0.00    -0.006 C 
ATOM      3  C   UNL     1     139.327 134.614 130.369  1.00  0.00    -0.002 C 
ATOM      4  C   UNL     1     138.881 135.555 131.506  1.00  0.00     0.005 C 
ATOM      5  C   UNL     1     139.259 136.944 130.970  1.00  0.00     0.010 C 
ATOM      6  C   UNL     1     139.937 136.621 129.615  1.00  0.00    -0.006 C 
ATOM      7  C   UNL     1     140.617 135.307 129.949  1.00  0.00     0.013 C 
ATOM      8  C   UNL     1     138.918 136.147 128.537  1.00  0.00     0.126 C 
ATOM      9  C   UNL     1     140.896 137.710 129.127  1.00  0.00     0.014 C 
ATOM     10  C   UNL     1     138.708 133.630 128.096  1.00  0.00     0.014 C 
ENDROOT
BRANCH   8  11
ATOM     11  O   UNL     1     137.912 137.083 128.218  1.00  0.00    -0.392 OA
ATOM     12  H   UNL     1     137.510 137.439 129.043  1.00  0.00     0.211 HD
ENDBRANCH   8  11
TORSDOF 1
ENDMDL
MODEL 6
REMARK VINA RESULT:    -3.825      4.410      5.128
REMARK INTER + INTRA:          -3.937
REMARK INTER:                  -3.937
REMARK INTRA:                   0.000
REMARK UNBOUND:                 0.000
REMARK SMILES CC1(C)[C@@H]2CC[C@@](C)(C2)[C@@H]1O
REMARK SMILES IDX 1 1 2 2 4 3 5 4 6 5 7 6 9 7 10 8 8 9 3 10 11 11
REMARK H PARENT 11 12
REMARK Flexibility Score: inf
ROOT
ATOM      1  C   UNL     1     134.699 138.342 129.370  1.00  0.00     0.014 C 
ATOM      2  C   UNL     1     134.755 136.820 129.076  1.00  0.00    -0.006 C 
ATOM      3  C   UNL     1     134.619 135.923 130.357  1.00  0.00    -0.002 C 
ATOM      4  C   UNL     1     135.573 136.387 131.476  1.00  0.00     0.005 C 
ATOM      5  C   UNL     1     136.957 136.013 130.924  1.00  0.00     0.010 C 
ATOM      6  C   UNL     1     136.620 135.318 129.581  1.00  0.00    -0.006 C 
ATOM      7  C   UNL     1     135.316 134.633 129.941  1.00  0.00     0.013 C 
ATOM      8  C   UNL     1     136.123 136.322 128.499  1.00  0.00     0.126 C 
ATOM      9  C   UNL     1     137.709 134.362 129.088  1.00  0.00     0.014 C 
ATOM     10  C   UNL     1     133.598 136.509 128.092  1.00  0.00     0.014 C 
ENDROOT
BRANCH   8  11
ATOM     11  O   UNL     1     137.047 137.331 128.155  1.00  0.00    -0.392 OA
ATOM     12  H   UNL     1     137.369 137.192 127.235  1.00  0.00     0.211 HD
ENDBRANCH   8  11
TORSDOF 1
ENDMDL
MODEL 7
REMARK VINA RESULT:    -3.795      1.595      2.279
REMARK INTER + INTRA:          -3.906
REMARK INTER:                  -3.906
REMARK INTRA:                   0.000
REMARK UNBOUND:                 0.000
REMARK SMILES CC1(C)[C@@H]2CC[C@@](C)(C2)[C@@H]1O
REMARK SMILES IDX 1 1 2 2 4 3 5 4 6 5 7 6 9 7 10 8 8 9 3 10 11 11
REMARK H PARENT 11 12
REMARK Flexibility Score: inf
ROOT
ATOM      1  C   UNL     1     136.721 139.882 130.471  1.00  0.00     0.014 C 
ATOM      2  C   UNL     1     137.748 138.887 129.870  1.00  0.00    -0.006 C 
ATOM      3  C   UNL     1     138.958 138.577 130.821  1.00  0.00    -0.002 C 
ATOM      4  C   UNL     1     139.582 139.872 131.381  1.00  0.00     0.005 C 
ATOM      5  C   UNL     1     140.250 140.494 130.145  1.00  0.00     0.010 C 
ATOM      6  C   UNL     1     139.981 139.442 129.040  1.00  0.00    -0.006 C 
ATOM      7  C   UNL     1     140.054 138.162 129.848  1.00  0.00     0.013 C 
ATOM      8  C   UNL     1     138.489 139.413 128.595  1.00  0.00     0.126 C 
ATOM      9  C   UNL     1     140.975 139.500 127.876  1.00  0.00     0.014 C 
ATOM     10  C   UNL     1     136.978 137.579 129.558  1.00  0.00     0.014 C 
ENDROOT
BRANCH   8  11
ATOM     11  O   UNL     1     138.004 140.624 128.060  1.00  0.00    -0.392 OA
ATOM     12  H   UNL     1     137.721 140.488 127.127  1.00  0.00     0.211 HD
ENDBRANCH   8  11
TORSDOF 1
ENDMDL
MODEL 8
REMARK VINA RESULT:    -3.791      2.338      3.438
REMARK INTER + INTRA:          -3.901
REMARK INTER:                  -3.901
REMARK INTRA:                   0.000
REMARK UNBOUND:                 0.000
REMARK SMILES CC1(C)[C@@H]2CC[C@@](C)(C2)[C@@H]1O
REMARK SMILES IDX 1 1 2 2 4 3 5 4 6 5 7 6 9 7 10 8 8 9 3 10 11 11
REMARK H PARENT 11 12
REMARK Flexibility Score: inf
ROOT
ATOM      1  C   UNL     1     139.890 138.488 130.485  1.00  0.00     0.014 C 
ATOM      2  C   UNL     1     138.891 137.451 129.910  1.00  0.00    -0.006 C 
ATOM      3  C   UNL     1     138.579 136.263 130.888  1.00  0.00    -0.002 C 
ATOM      4  C   UNL     1     139.872 135.648 131.460  1.00  0.00     0.005 C 
ATOM      5  C   UNL     1     140.490 134.951 130.238  1.00  0.00     0.010 C 
ATOM      6  C   UNL     1     139.438 135.197 129.128  1.00  0.00    -0.006 C 
ATOM      7  C   UNL     1     138.159 135.146 129.940  1.00  0.00     0.013 C 
ATOM      8  C   UNL     1     139.412 136.679 128.651  1.00  0.00     0.126 C 
ATOM      9  C   UNL     1     139.491 134.178 127.987  1.00  0.00     0.014 C 
ATOM     10  C   UNL     1     137.584 138.217 129.582  1.00  0.00     0.014 C 
ENDROOT
BRANCH   8  11
ATOM     11  O   UNL     1     140.623 137.149 128.103  1.00  0.00    -0.392 OA
ATOM     12  H   UNL     1     141.271 137.327 128.823  1.00  0.00     0.211 HD
ENDBRANCH   8  11
TORSDOF 1
ENDMDL
MODEL 9
REMARK VINA RESULT:    -3.774      3.306      4.759
REMARK INTER + INTRA:          -3.885
REMARK INTER:                  -3.885
REMARK INTRA:                   0.000
REMARK UNBOUND:                 0.000
REMARK SMILES CC1(C)[C@@H]2CC[C@@](C)(C2)[C@@H]1O
REMARK SMILES IDX 1 1 2 2 4 3 5 4 6 5 7 6 9 7 10 8 8 9 3 10 11 11
REMARK H PARENT 11 12
REMARK Flexibility Score: inf
ROOT
ATOM      1  C   UNL     1     135.348 136.732 130.506  1.00  0.00     0.014 C 
ATOM      2  C   UNL     1     136.353 137.764 129.931  1.00  0.00    -0.006 C 
ATOM      3  C   UNL     1     136.669 138.952 130.908  1.00  0.00    -0.002 C 
ATOM      4  C   UNL     1     135.377 139.575 131.475  1.00  0.00     0.005 C 
ATOM      5  C   UNL     1     134.765 140.272 130.251  1.00  0.00     0.010 C 
ATOM      6  C   UNL     1     135.819 140.019 129.144  1.00  0.00    -0.006 C 
ATOM      7  C   UNL     1     137.097 140.065 129.959  1.00  0.00     0.013 C 
ATOM      8  C   UNL     1     135.839 138.536 128.669  1.00  0.00     0.126 C 
ATOM      9  C   UNL     1     135.774 141.036 128.001  1.00  0.00     0.014 C 
ATOM     10  C   UNL     1     137.657 136.990 129.608  1.00  0.00     0.014 C 
ENDROOT
BRANCH   8  11
ATOM     11  O   UNL     1     134.626 138.071 128.119  1.00  0.00    -0.392 OA
ATOM     12  H   UNL     1     134.648 138.157 127.139  1.00  0.00     0.211 HD
ENDBRANCH   8  11
TORSDOF 1
ENDMDL
