MODEL 1
REMARK VINA RESULT:    -4.989      0.000      0.000
REMARK INTER + INTRA:          -9.807
REMARK INTER:                  -8.781
REMARK INTRA:                  -1.026
REMARK UNBOUND:                -1.026
REMARK SMILES CCCCCCCCCCCCCCC(=O)[O-]
REMARK SMILES IDX 9 1 10 2 11 3 12 4 13 5 14 6 15 7 16 8 17 9 8 10 7 11 6 12
REMARK SMILES IDX 5 13 4 14 3 15 2 16 1 17
REMARK H PARENT
REMARK Flexibility Score: inf
ROOT
ATOM      1  C   UNL     1     -50.534 -50.401  18.493  1.00  0.00     0.000 C 
ENDROOT
BRANCH   1   2
ATOM      2  C   UNL     1     -49.162 -50.681  19.122  1.00  0.00     0.000 C 
BRANCH   2   3
ATOM      3  C   UNL     1     -48.081 -50.820  18.043  1.00  0.00     0.000 C 
BRANCH   3   4
ATOM      4  C   UNL     1     -47.526 -49.450  17.639  1.00  0.00     0.000 C 
BRANCH   4   5
ATOM      5  C   UNL     1     -47.589 -49.258  16.116  1.00  0.00     0.006 C 
BRANCH   5   6
ATOM      6  C   UNL     1     -48.103 -50.510  15.393  1.00  0.00     0.053 C 
BRANCH   6   7
ATOM      7  C   UNL     1     -49.374 -50.240  14.648  1.00  0.00     0.041 C 
ATOM      8  O   UNL     1     -49.487 -49.205  13.940  1.00  0.00    -0.550 OA
ATOM      9  O   UNL     1     -50.422 -51.149  14.712  1.00  0.00    -0.550 OA
ENDBRANCH   6   7
ENDBRANCH   5   6
ENDBRANCH   4   5
ENDBRANCH   3   4
ENDBRANCH   2   3
ENDBRANCH   1   2
BRANCH   1  10
ATOM     10  C   UNL     1     -51.370 -49.394  19.303  1.00  0.00     0.000 C 
BRANCH  10  11
ATOM     11  C   UNL     1     -50.616 -48.705  20.460  1.00  0.00    -0.000 C 
BRANCH  11  12
ATOM     12  C   UNL     1     -51.207 -48.949  21.863  1.00  0.00    -0.000 C 
BRANCH  12  13
ATOM     13  C   UNL     1     -52.728 -48.745  21.971  1.00  0.00    -0.000 C 
BRANCH  13  14
ATOM     14  C   UNL     1     -53.125 -47.261  22.053  1.00  0.00    -0.000 C 
BRANCH  14  15
ATOM     15  C   UNL     1     -54.657 -47.066  22.022  1.00  0.00    -0.000 C 
BRANCH  15  16
ATOM     16  C   UNL     1     -55.381 -48.041  21.078  1.00  0.00    -0.003 C 
ATOM     17  C   UNL     1     -56.876 -47.754  20.953  1.00  0.00     0.004 C 
ENDBRANCH  15  16
ENDBRANCH  14  15
ENDBRANCH  13  14
ENDBRANCH  12  13
ENDBRANCH  11  12
ENDBRANCH  10  11
ENDBRANCH   1  10
TORSDOF 13
ENDMDL
MODEL 2
REMARK VINA RESULT:    -4.895      2.944      7.273
REMARK INTER + INTRA:          -9.641
REMARK INTER:                  -8.449
REMARK INTRA:                  -1.192
REMARK UNBOUND:                -1.026
REMARK SMILES CCCCCCCCCCCCCCC(=O)[O-]
REMARK SMILES IDX 9 1 10 2 11 3 12 4 13 5 14 6 15 7 16 8 17 9 8 10 7 11 6 12
REMARK SMILES IDX 5 13 4 14 3 15 2 16 1 17
REMARK H PARENT
REMARK Flexibility Score: inf
ROOT
ATOM      1  C   UNL     1     -51.786 -50.034  20.449  1.00  0.00     0.000 C 
ENDROOT
BRANCH   1   2
ATOM      2  C   UNL     1     -51.015 -49.424  21.630  1.00  0.00     0.000 C 
BRANCH   2   3
ATOM      3  C   UNL     1     -51.962 -48.670  22.572  1.00  0.00     0.000 C 
BRANCH   3   4
ATOM      4  C   UNL     1     -52.659 -47.516  21.845  1.00  0.00     0.000 C 
BRANCH   4   5
ATOM      5  C   UNL     1     -54.103 -47.345  22.340  1.00  0.00     0.006 C 
BRANCH   5   6
ATOM      6  C   UNL     1     -55.047 -46.872  21.226  1.00  0.00     0.053 C 
BRANCH   6   7
ATOM      7  C   UNL     1     -55.589 -48.021  20.432  1.00  0.00     0.041 C 
ATOM      8  O   UNL     1     -54.956 -48.460  19.437  1.00  0.00    -0.550 OA
ATOM      9  O   UNL     1     -56.780 -48.627  20.813  1.00  0.00    -0.550 OA
ENDBRANCH   6   7
ENDBRANCH   5   6
ENDBRANCH   4   5
ENDBRANCH   3   4
ENDBRANCH   2   3
ENDBRANCH   1   2
BRANCH   1  10
ATOM     10  C   UNL     1     -51.145 -49.713  19.087  1.00  0.00     0.000 C 
BRANCH  10  11
ATOM     11  C   UNL     1     -49.759 -49.039  19.162  1.00  0.00    -0.000 C 
BRANCH  11  12
ATOM     12  C   UNL     1     -48.567 -49.953  18.818  1.00  0.00    -0.000 C 
BRANCH  12  13
ATOM     13  C   UNL     1     -47.363 -49.237  18.181  1.00  0.00    -0.000 C 
BRANCH  13  14
ATOM     14  C   UNL     1     -47.421 -49.227  16.644  1.00  0.00    -0.000 C 
BRANCH  14  15
ATOM     15  C   UNL     1     -47.783 -50.612  16.066  1.00  0.00    -0.000 C 
BRANCH  15  16
ATOM     16  C   UNL     1     -48.950 -50.574  15.065  1.00  0.00    -0.003 C 
ATOM     17  C   UNL     1     -50.237 -51.179  15.622  1.00  0.00     0.004 C 
ENDBRANCH  15  16
ENDBRANCH  14  15
ENDBRANCH  13  14
ENDBRANCH  12  13
ENDBRANCH  11  12
ENDBRANCH  10  11
ENDBRANCH   1  10
TORSDOF 13
ENDMDL
MODEL 3
REMARK VINA RESULT:    -4.892      1.210      1.773
REMARK INTER + INTRA:          -9.637
REMARK INTER:                  -8.756
REMARK INTRA:                  -0.881
REMARK UNBOUND:                -1.026
REMARK SMILES CCCCCCCCCCCCCCC(=O)[O-]
REMARK SMILES IDX 9 1 10 2 11 3 12 4 13 5 14 6 15 7 16 8 17 9 8 10 7 11 6 12
REMARK SMILES IDX 5 13 4 14 3 15 2 16 1 17
REMARK H PARENT
REMARK Flexibility Score: inf
ROOT
ATOM      1  C   UNL     1     -48.969 -47.991  20.181  1.00  0.00     0.000 C 
ENDROOT
BRANCH   1   2
ATOM      2  C   UNL     1     -48.564 -47.776  18.715  1.00  0.00     0.000 C 
BRANCH   2   3
ATOM      3  C   UNL     1     -47.359 -48.650  18.345  1.00  0.00     0.000 C 
BRANCH   3   4
ATOM      4  C   UNL     1     -47.426 -49.089  16.878  1.00  0.00     0.000 C 
BRANCH   4   5
ATOM      5  C   UNL     1     -48.008 -50.505  16.753  1.00  0.00     0.006 C 
BRANCH   5   6
ATOM      6  C   UNL     1     -48.502 -50.807  15.332  1.00  0.00     0.053 C 
BRANCH   6   7
ATOM      7  C   UNL     1     -49.975 -51.074  15.301  1.00  0.00     0.041 C 
ATOM      8  O   UNL     1     -50.534 -51.427  14.230  1.00  0.00    -0.550 OA
ATOM      9  O   UNL     1     -50.725 -50.963  16.465  1.00  0.00    -0.550 OA
ENDBRANCH   6   7
ENDBRANCH   5   6
ENDBRANCH   4   5
ENDBRANCH   3   4
ENDBRANCH   2   3
ENDBRANCH   1   2
BRANCH   1  10
ATOM     10  C   UNL     1     -49.648 -49.351  20.420  1.00  0.00     0.000 C 
BRANCH  10  11
ATOM     11  C   UNL     1     -50.954 -49.575  19.629  1.00  0.00    -0.000 C 
BRANCH  11  12
ATOM     12  C   UNL     1     -52.214 -49.782  20.492  1.00  0.00    -0.000 C 
BRANCH  12  13
ATOM     13  C   UNL     1     -52.445 -48.710  21.572  1.00  0.00    -0.000 C 
BRANCH  13  14
ATOM     14  C   UNL     1     -53.917 -48.609  22.006  1.00  0.00    -0.000 C 
BRANCH  14  15
ATOM     15  C   UNL     1     -54.488 -47.189  21.802  1.00  0.00    -0.000 C 
BRANCH  15  16
ATOM     16  C   UNL     1     -55.984 -47.174  21.445  1.00  0.00    -0.003 C 
ATOM     17  C   UNL     1     -56.507 -48.537  20.997  1.00  0.00     0.004 C 
ENDBRANCH  15  16
ENDBRANCH  14  15
ENDBRANCH  13  14
ENDBRANCH  12  13
ENDBRANCH  11  12
ENDBRANCH  10  11
ENDBRANCH   1  10
TORSDOF 13
ENDMDL
MODEL 4
REMARK VINA RESULT:    -4.888     13.284     14.843
REMARK INTER + INTRA:          -9.629
REMARK INTER:                  -8.349
REMARK INTRA:                  -1.280
REMARK UNBOUND:                -1.026
REMARK SMILES CCCCCCCCCCCCCCC(=O)[O-]
REMARK SMILES IDX 9 1 10 2 11 3 12 4 13 5 14 6 15 7 16 8 17 9 8 10 7 11 6 12
REMARK SMILES IDX 5 13 4 14 3 15 2 16 1 17
REMARK H PARENT
REMARK Flexibility Score: inf
ROOT
ATOM      1  C   UNL     1     -43.756 -48.126  29.395  1.00  0.00     0.000 C 
ENDROOT
BRANCH   1   2
ATOM      2  C   UNL     1     -43.327 -49.220  28.405  1.00  0.00     0.000 C 
BRANCH   2   3
ATOM      3  C   UNL     1     -42.204 -50.083  28.994  1.00  0.00     0.000 C 
BRANCH   3   4
ATOM      4  C   UNL     1     -41.015 -49.220  29.429  1.00  0.00     0.000 C 
BRANCH   4   5
ATOM      5  C   UNL     1     -40.225 -48.718  28.212  1.00  0.00     0.006 C 
BRANCH   5   6
ATOM      6  C   UNL     1     -39.622 -47.326  28.444  1.00  0.00     0.053 C 
BRANCH   6   7
ATOM      7  C   UNL     1     -38.183 -47.405  28.854  1.00  0.00     0.041 C 
ATOM      8  O   UNL     1     -37.591 -46.386  29.294  1.00  0.00    -0.550 OA
ATOM      9  O   UNL     1     -37.506 -48.616  28.779  1.00  0.00    -0.550 OA
ENDBRANCH   6   7
ENDBRANCH   5   6
ENDBRANCH   4   5
ENDBRANCH   3   4
ENDBRANCH   2   3
ENDBRANCH   1   2
BRANCH   1  10
ATOM     10  C   UNL     1     -44.583 -48.676  30.571  1.00  0.00     0.000 C 
BRANCH  10  11
ATOM     11  C   UNL     1     -45.853 -49.452  30.167  1.00  0.00    -0.000 C 
BRANCH  11  12
ATOM     12  C   UNL     1     -46.831 -49.754  31.321  1.00  0.00    -0.000 C 
BRANCH  12  13
ATOM     13  C   UNL     1     -46.720 -48.807  32.529  1.00  0.00    -0.000 C 
BRANCH  13  14
ATOM     14  C   UNL     1     -46.646 -49.558  33.869  1.00  0.00    -0.000 C 
BRANCH  14  15
ATOM     15  C   UNL     1     -46.370 -51.066  33.677  1.00  0.00    -0.000 C 
BRANCH  15  16
ATOM     16  C   UNL     1     -44.962 -51.494  34.123  1.00  0.00    -0.003 C 
ATOM     17  C   UNL     1     -43.950 -51.507  32.980  1.00  0.00     0.004 C 
ENDBRANCH  15  16
ENDBRANCH  14  15
ENDBRANCH  13  14
ENDBRANCH  12  13
ENDBRANCH  11  12
ENDBRANCH  10  11
ENDBRANCH   1  10
TORSDOF 13
ENDMDL
MODEL 5
REMARK VINA RESULT:    -4.845     12.350     14.792
REMARK INTER + INTRA:          -9.553
REMARK INTER:                  -7.811
REMARK INTRA:                  -1.743
REMARK UNBOUND:                -1.026
REMARK SMILES CCCCCCCCCCCCCCC(=O)[O-]
REMARK SMILES IDX 9 1 10 2 11 3 12 4 13 5 14 6 15 7 16 8 17 9 8 10 7 11 6 12
REMARK SMILES IDX 5 13 4 14 3 15 2 16 1 17
REMARK H PARENT
REMARK Flexibility Score: inf
ROOT
ATOM      1  C   UNL     1     -43.065 -50.363  30.228  1.00  0.00     0.000 C 
ENDROOT
BRANCH   1   2
ATOM      2  C   UNL     1     -43.776 -49.011  30.068  1.00  0.00     0.000 C 
BRANCH   2   3
ATOM      3  C   UNL     1     -45.300 -49.186  30.092  1.00  0.00     0.000 C 
BRANCH   3   4
ATOM      4  C   UNL     1     -45.856 -48.985  31.506  1.00  0.00     0.000 C 
BRANCH   4   5
ATOM      5  C   UNL     1     -46.953 -50.013  31.818  1.00  0.00     0.006 C 
BRANCH   5   6
ATOM      6  C   UNL     1     -46.573 -50.932  32.987  1.00  0.00     0.053 C 
BRANCH   6   7
ATOM      7  C   UNL     1     -45.509 -51.912  32.599  1.00  0.00     0.041 C 
ATOM      8  O   UNL     1     -44.469 -52.029  33.299  1.00  0.00    -0.550 OA
ATOM      9  O   UNL     1     -45.681 -52.718  31.481  1.00  0.00    -0.550 OA
ENDBRANCH   6   7
ENDBRANCH   5   6
ENDBRANCH   4   5
ENDBRANCH   3   4
ENDBRANCH   2   3
ENDBRANCH   1   2
BRANCH   1  10
ATOM     10  C   UNL     1     -41.752 -50.446  29.429  1.00  0.00     0.000 C 
BRANCH  10  11
ATOM     11  C   UNL     1     -40.847 -49.201  29.533  1.00  0.00    -0.000 C 
BRANCH  11  12
ATOM     12  C   UNL     1     -40.241 -48.719  28.200  1.00  0.00    -0.000 C 
BRANCH  12  13
ATOM     13  C   UNL     1     -40.600 -47.274  27.809  1.00  0.00    -0.000 C 
BRANCH  13  14
ATOM     14  C   UNL     1     -41.413 -47.194  26.506  1.00  0.00    -0.000 C 
BRANCH  14  15
ATOM     15  C   UNL     1     -42.845 -47.747  26.678  1.00  0.00    -0.000 C 
BRANCH  15  16
ATOM     16  C   UNL     1     -43.128 -48.995  25.826  1.00  0.00    -0.003 C 
ATOM     17  C   UNL     1     -44.073 -49.983  26.506  1.00  0.00     0.004 C 
ENDBRANCH  15  16
ENDBRANCH  14  15
ENDBRANCH  13  14
ENDBRANCH  12  13
ENDBRANCH  11  12
ENDBRANCH  10  11
ENDBRANCH   1  10
TORSDOF 13
ENDMDL
MODEL 6
REMARK VINA RESULT:    -4.826      1.664      2.826
REMARK INTER + INTRA:          -9.519
REMARK INTER:                  -7.886
REMARK INTRA:                  -1.633
REMARK UNBOUND:                -1.026
REMARK SMILES CCCCCCCCCCCCCCC(=O)[O-]
REMARK SMILES IDX 9 1 10 2 11 3 12 4 13 5 14 6 15 7 16 8 17 9 8 10 7 11 6 12
REMARK SMILES IDX 5 13 4 14 3 15 2 16 1 17
REMARK H PARENT
REMARK Flexibility Score: inf
ROOT
ATOM      1  C   UNL     1     -49.366 -48.132  19.149  1.00  0.00     0.000 C 
ENDROOT
BRANCH   1   2
ATOM      2  C   UNL     1     -48.138 -47.427  18.553  1.00  0.00     0.000 C 
BRANCH   2   3
ATOM      3  C   UNL     1     -47.323 -48.389  17.680  1.00  0.00     0.000 C 
BRANCH   3   4
ATOM      4  C   UNL     1     -47.905 -49.805  17.727  1.00  0.00     0.000 C 
BRANCH   4   5
ATOM      5  C   UNL     1     -47.758 -50.507  16.369  1.00  0.00     0.006 C 
BRANCH   5   6
ATOM      6  C   UNL     1     -48.992 -51.347  16.012  1.00  0.00     0.053 C 
BRANCH   6   7
ATOM      7  C   UNL     1     -49.698 -50.810  14.804  1.00  0.00     0.041 C 
ATOM      8  O   UNL     1     -49.308 -49.743  14.263  1.00  0.00    -0.550 OA
ATOM      9  O   UNL     1     -50.768 -51.508  14.258  1.00  0.00    -0.550 OA
ENDBRANCH   6   7
ENDBRANCH   5   6
ENDBRANCH   4   5
ENDBRANCH   3   4
ENDBRANCH   2   3
ENDBRANCH   1   2
BRANCH   1  10
ATOM     10  C   UNL     1     -49.371 -48.126  20.688  1.00  0.00     0.000 C 
BRANCH  10  11
ATOM     11  C   UNL     1     -50.546 -47.362  21.332  1.00  0.00    -0.000 C 
BRANCH  11  12
ATOM     12  C   UNL     1     -51.466 -48.213  22.230  1.00  0.00    -0.000 C 
BRANCH  12  13
ATOM     13  C   UNL     1     -52.902 -48.390  21.705  1.00  0.00    -0.000 C 
BRANCH  13  14
ATOM     14  C   UNL     1     -52.969 -49.255  20.435  1.00  0.00    -0.000 C 
BRANCH  14  15
ATOM     15  C   UNL     1     -52.227 -50.599  20.605  1.00  0.00    -0.000 C 
BRANCH  15  16
ATOM     16  C   UNL     1     -51.416 -51.014  19.366  1.00  0.00    -0.003 C 
ATOM     17  C   UNL     1     -51.998 -50.475  18.062  1.00  0.00     0.004 C 
ENDBRANCH  15  16
ENDBRANCH  14  15
ENDBRANCH  13  14
ENDBRANCH  12  13
ENDBRANCH  11  12
ENDBRANCH  10  11
ENDBRANCH   1  10
TORSDOF 13
ENDMDL
MODEL 7
REMARK VINA RESULT:    -4.814     13.125     15.359
REMARK INTER + INTRA:          -9.499
REMARK INTER:                  -8.026
REMARK INTRA:                  -1.473
REMARK UNBOUND:                -1.026
REMARK SMILES CCCCCCCCCCCCCCC(=O)[O-]
REMARK SMILES IDX 9 1 10 2 11 3 12 4 13 5 14 6 15 7 16 8 17 9 8 10 7 11 6 12
REMARK SMILES IDX 5 13 4 14 3 15 2 16 1 17
REMARK H PARENT
REMARK Flexibility Score: inf
ROOT
ATOM      1  C   UNL     1     -43.975 -49.925  27.424  1.00  0.00     0.000 C 
ENDROOT
BRANCH   1   2
ATOM      2  C   UNL     1     -42.695 -50.137  28.247  1.00  0.00     0.000 C 
BRANCH   2   3
ATOM      3  C   UNL     1     -42.857 -49.585  29.668  1.00  0.00     0.000 C 
BRANCH   3   4
ATOM      4  C   UNL     1     -41.724 -50.066  30.580  1.00  0.00     0.000 C 
BRANCH   4   5
ATOM      5  C   UNL     1     -42.268 -50.940  31.720  1.00  0.00     0.006 C 
BRANCH   5   6
ATOM      6  C   UNL     1     -43.801 -51.023  31.708  1.00  0.00     0.053 C 
BRANCH   6   7
ATOM      7  C   UNL     1     -44.329 -51.707  32.931  1.00  0.00     0.041 C 
ATOM      8  O   UNL     1     -43.785 -51.517  34.050  1.00  0.00    -0.550 OA
ATOM      9  O   UNL     1     -45.444 -52.531  32.838  1.00  0.00    -0.550 OA
ENDBRANCH   6   7
ENDBRANCH   5   6
ENDBRANCH   4   5
ENDBRANCH   3   4
ENDBRANCH   2   3
ENDBRANCH   1   2
BRANCH   1  10
ATOM     10  C   UNL     1     -43.785 -48.924  26.271  1.00  0.00     0.000 C 
BRANCH  10  11
ATOM     11  C   UNL     1     -42.357 -48.863  25.690  1.00  0.00    -0.000 C 
BRANCH  11  12
ATOM     12  C   UNL     1     -41.650 -47.500  25.834  1.00  0.00    -0.000 C 
BRANCH  12  13
ATOM     13  C   UNL     1     -42.000 -46.720  27.113  1.00  0.00    -0.000 C 
BRANCH  13  14
ATOM     14  C   UNL     1     -40.792 -46.539  28.049  1.00  0.00    -0.000 C 
BRANCH  14  15
ATOM     15  C   UNL     1     -39.880 -47.785  28.071  1.00  0.00    -0.000 C 
BRANCH  15  16
ATOM     16  C   UNL     1     -38.801 -47.737  29.165  1.00  0.00    -0.003 C 
ATOM     17  C   UNL     1     -37.530 -48.495  28.787  1.00  0.00     0.004 C 
ENDBRANCH  15  16
ENDBRANCH  14  15
ENDBRANCH  13  14
ENDBRANCH  12  13
ENDBRANCH  11  12
ENDBRANCH  10  11
ENDBRANCH   1  10
TORSDOF 13
ENDMDL
MODEL 8
REMARK VINA RESULT:    -4.812      1.729      2.648
REMARK INTER + INTRA:          -9.495
REMARK INTER:                  -7.779
REMARK INTRA:                  -1.716
REMARK UNBOUND:                -1.026
REMARK SMILES CCCCCCCCCCCCCCC(=O)[O-]
REMARK SMILES IDX 9 1 10 2 11 3 12 4 13 5 14 6 15 7 16 8 17 9 8 10 7 11 6 12
REMARK SMILES IDX 5 13 4 14 3 15 2 16 1 17
REMARK H PARENT
REMARK Flexibility Score: inf
ROOT
ATOM      1  C   UNL     1     -49.260 -47.997  21.354  1.00  0.00     0.000 C 
ENDROOT
BRANCH   1   2
ATOM      2  C   UNL     1     -49.392 -47.991  19.824  1.00  0.00     0.000 C 
BRANCH   2   3
ATOM      3  C   UNL     1     -49.077 -49.374  19.241  1.00  0.00     0.000 C 
BRANCH   3   4
ATOM      4  C   UNL     1     -47.840 -49.324  18.338  1.00  0.00     0.000 C 
BRANCH   4   5
ATOM      5  C   UNL     1     -47.650 -50.651  17.589  1.00  0.00     0.006 C 
BRANCH   5   6
ATOM      6  C   UNL     1     -47.775 -50.484  16.069  1.00  0.00     0.053 C 
BRANCH   6   7
ATOM      7  C   UNL     1     -49.022 -51.124  15.540  1.00  0.00     0.041 C 
ATOM      8  O   UNL     1     -50.055 -51.190  16.256  1.00  0.00    -0.550 OA
ATOM      9  O   UNL     1     -49.051 -51.621  14.243  1.00  0.00    -0.550 OA
ENDBRANCH   6   7
ENDBRANCH   5   6
ENDBRANCH   4   5
ENDBRANCH   3   4
ENDBRANCH   2   3
ENDBRANCH   1   2
BRANCH   1  10
ATOM     10  C   UNL     1     -49.221 -49.417  21.946  1.00  0.00     0.000 C 
BRANCH  10  11
ATOM     11  C   UNL     1     -50.147 -49.643  23.158  1.00  0.00    -0.000 C 
BRANCH  11  12
ATOM     12  C   UNL     1     -50.791 -48.368  23.737  1.00  0.00    -0.000 C 
BRANCH  12  13
ATOM     13  C   UNL     1     -52.321 -48.423  23.885  1.00  0.00    -0.000 C 
BRANCH  13  14
ATOM     14  C   UNL     1     -53.059 -47.906  22.638  1.00  0.00    -0.000 C 
BRANCH  14  15
ATOM     15  C   UNL     1     -53.589 -49.057  21.756  1.00  0.00    -0.000 C 
BRANCH  15  16
ATOM     16  C   UNL     1     -52.815 -49.227  20.438  1.00  0.00    -0.003 C 
ATOM     17  C   UNL     1     -52.261 -50.637  20.247  1.00  0.00     0.004 C 
ENDBRANCH  15  16
ENDBRANCH  14  15
ENDBRANCH  13  14
ENDBRANCH  12  13
ENDBRANCH  11  12
ENDBRANCH  10  11
ENDBRANCH   1  10
TORSDOF 13
ENDMDL
MODEL 9
REMARK VINA RESULT:    -4.778      1.367      2.293
REMARK INTER + INTRA:          -9.435
REMARK INTER:                  -8.126
REMARK INTRA:                  -1.309
REMARK UNBOUND:                -1.026
REMARK SMILES CCCCCCCCCCCCCCC(=O)[O-]
REMARK SMILES IDX 9 1 10 2 11 3 12 4 13 5 14 6 15 7 16 8 17 9 8 10 7 11 6 12
REMARK SMILES IDX 5 13 4 14 3 15 2 16 1 17
REMARK H PARENT
REMARK Flexibility Score: inf
ROOT
ATOM      1  C   UNL     1     -50.320 -48.120  20.509  1.00  0.00     0.000 C 
ENDROOT
BRANCH   1   2
ATOM      2  C   UNL     1     -49.079 -48.016  19.610  1.00  0.00     0.000 C 
BRANCH   2   3
ATOM      3  C   UNL     1     -48.813 -49.341  18.886  1.00  0.00     0.000 C 
BRANCH   3   4
ATOM      4  C   UNL     1     -47.410 -49.361  18.270  1.00  0.00     0.000 C 
BRANCH   4   5
ATOM      5  C   UNL     1     -47.482 -49.303  16.736  1.00  0.00     0.006 C 
BRANCH   5   6
ATOM      6  C   UNL     1     -47.815 -50.668  16.118  1.00  0.00     0.053 C 
BRANCH   6   7
ATOM      7  C   UNL     1     -49.164 -50.667  15.467  1.00  0.00     0.041 C 
ATOM      8  O   UNL     1     -49.288 -50.322  14.263  1.00  0.00    -0.550 OA
ATOM      9  O   UNL     1     -50.281 -51.080  16.183  1.00  0.00    -0.550 OA
ENDBRANCH   6   7
ENDBRANCH   5   6
ENDBRANCH   4   5
ENDBRANCH   3   4
ENDBRANCH   2   3
ENDBRANCH   1   2
BRANCH   1  10
ATOM     10  C   UNL     1     -50.507 -49.524  21.111  1.00  0.00     0.000 C 
BRANCH  10  11
ATOM     11  C   UNL     1     -51.870 -50.182  20.816  1.00  0.00    -0.000 C 
BRANCH  11  12
ATOM     12  C   UNL     1     -52.945 -49.235  20.247  1.00  0.00    -0.000 C 
BRANCH  12  13
ATOM     13  C   UNL     1     -54.088 -48.892  21.219  1.00  0.00    -0.000 C 
BRANCH  13  14
ATOM     14  C   UNL     1     -54.432 -47.393  21.229  1.00  0.00    -0.000 C 
BRANCH  14  15
ATOM     15  C   UNL     1     -54.143 -46.738  22.597  1.00  0.00    -0.000 C 
BRANCH  15  16
ATOM     16  C   UNL     1     -52.645 -46.655  22.934  1.00  0.00    -0.003 C 
ATOM     17  C   UNL     1     -52.237 -47.580  24.078  1.00  0.00     0.004 C 
ENDBRANCH  15  16
ENDBRANCH  14  15
ENDBRANCH  13  14
ENDBRANCH  12  13
ENDBRANCH  11  12
ENDBRANCH  10  11
ENDBRANCH   1  10
TORSDOF 13
ENDMDL
