MODEL 1
REMARK VINA RESULT:    -4.866      0.000      0.000
REMARK INTER + INTRA:          -4.866
REMARK INTER:                  -4.866
REMARK INTRA:                   0.000
REMARK UNBOUND:                 0.000
REMARK SMILES CC1=CC[C@]2(C)CCCC(C)(C)[C@@]23C[C@@H]13
REMARK SMILES IDX 1 1 2 2 3 3 4 4 5 5 7 6 8 7 9 8 10 9 13 10 15 11 14 12 11 13
REMARK SMILES IDX 12 14 6 15
REMARK H PARENT
REMARK Flexibility Score: inf
ROOT
ATOM      1  C   UNL     1     143.538 142.574 130.378  1.00  0.00     0.039 C 
ATOM      2  C   UNL     1     144.504 143.237 131.323  1.00  0.00    -0.074 C 
ATOM      3  C   UNL     1     144.569 142.802 132.588  1.00  0.00    -0.027 C 
ATOM      4  C   UNL     1     145.606 143.294 133.543  1.00  0.00     0.034 C 
ATOM      5  C   UNL     1     145.947 144.810 133.400  1.00  0.00    -0.022 C 
ATOM      6  C   UNL     1     144.844 145.626 134.124  1.00  0.00     0.008 C 
ATOM      7  C   UNL     1     144.991 147.144 133.952  1.00  0.00     0.001 C 
ATOM      8  C   UNL     1     144.983 147.555 132.476  1.00  0.00     0.007 C 
ATOM      9  C   UNL     1     146.065 146.857 131.604  1.00  0.00    -0.029 C 
ATOM     10  C   UNL     1     146.029 145.292 131.894  1.00  0.00    -0.012 C 
ATOM     11  C   UNL     1     145.289 144.436 130.841  1.00  0.00     0.022 C 
ATOM     12  C   UNL     1     146.811 144.357 130.955  1.00  0.00     0.017 C 
ATOM     13  C   UNL     1     147.470 147.438 131.911  1.00  0.00     0.012 C 
ATOM     14  C   UNL     1     145.749 147.250 130.130  1.00  0.00     0.012 C 
ATOM     15  C   UNL     1     147.309 144.994 134.124  1.00  0.00     0.012 C 
ENDROOT
TORSDOF 0
ENDMDL
MODEL 2
REMARK VINA RESULT:    -4.823      1.203      4.032
REMARK INTER + INTRA:          -4.823
REMARK INTER:                  -4.823
REMARK INTRA:                   0.000
REMARK UNBOUND:                 0.000
REMARK SMILES CC1=CC[C@]2(C)CCCC(C)(C)[C@@]23C[C@@H]13
REMARK SMILES IDX 1 1 2 2 3 3 4 4 5 5 7 6 8 7 9 8 10 9 13 10 15 11 14 12 11 13
REMARK SMILES IDX 12 14 6 15
REMARK H PARENT
REMARK Flexibility Score: inf
ROOT
ATOM      1  C   UNL     1     147.171 148.271 130.439  1.00  0.00     0.039 C 
ATOM      2  C   UNL     1     146.206 147.584 131.368  1.00  0.00    -0.074 C 
ATOM      3  C   UNL     1     146.131 147.996 132.639  1.00  0.00    -0.027 C 
ATOM      4  C   UNL     1     145.094 147.479 133.580  1.00  0.00     0.034 C 
ATOM      5  C   UNL     1     144.767 145.963 133.410  1.00  0.00    -0.022 C 
ATOM      6  C   UNL     1     145.873 145.144 134.125  1.00  0.00     0.008 C 
ATOM      7  C   UNL     1     145.740 143.628 133.926  1.00  0.00     0.001 C 
ATOM      8  C   UNL     1     145.758 143.243 132.443  1.00  0.00     0.007 C 
ATOM      9  C   UNL     1     144.675 143.947 131.578  1.00  0.00    -0.029 C 
ATOM     10  C   UNL     1     144.696 145.506 131.895  1.00  0.00    -0.012 C 
ATOM     11  C   UNL     1     145.434 146.387 130.861  1.00  0.00     0.022 C 
ATOM     12  C   UNL     1     143.911 146.451 130.969  1.00  0.00     0.017 C 
ATOM     13  C   UNL     1     143.273 143.348 131.868  1.00  0.00     0.012 C 
ATOM     14  C   UNL     1     145.001 143.582 130.099  1.00  0.00     0.012 C 
ATOM     15  C   UNL     1     143.403 145.755 134.124  1.00  0.00     0.012 C 
ENDROOT
TORSDOF 0
ENDMDL
MODEL 3
REMARK VINA RESULT:    -3.867      1.283      4.048
REMARK INTER + INTRA:          -3.867
REMARK INTER:                  -3.867
REMARK INTRA:                   0.000
REMARK UNBOUND:                 0.000
REMARK SMILES CC1=CC[C@]2(C)CCCC(C)(C)[C@@]23C[C@@H]13
REMARK SMILES IDX 1 1 2 2 3 3 4 4 5 5 7 6 8 7 9 8 10 9 13 10 15 11 14 12 11 13
REMARK SMILES IDX 12 14 6 15
REMARK H PARENT
REMARK Flexibility Score: inf
ROOT
ATOM      1  C   UNL     1     142.282 147.976 131.913  1.00  0.00     0.039 C 
ATOM      2  C   UNL     1     143.506 147.295 132.463  1.00  0.00    -0.074 C 
ATOM      3  C   UNL     1     144.624 148.013 132.624  1.00  0.00    -0.027 C 
ATOM      4  C   UNL     1     145.830 147.458 133.308  1.00  0.00     0.034 C 
ATOM      5  C   UNL     1     146.108 145.952 133.005  1.00  0.00    -0.022 C 
ATOM      6  C   UNL     1     146.806 145.857 131.623  1.00  0.00     0.008 C 
ATOM      7  C   UNL     1     147.024 144.415 131.144  1.00  0.00     0.001 C 
ATOM      8  C   UNL     1     145.707 143.637 131.058  1.00  0.00     0.007 C 
ATOM      9  C   UNL     1     144.892 143.595 132.381  1.00  0.00    -0.029 C 
ATOM     10  C   UNL     1     144.795 145.069 132.973  1.00  0.00    -0.012 C 
ATOM     11  C   UNL     1     143.460 145.805 132.714  1.00  0.00     0.022 C 
ATOM     12  C   UNL     1     143.809 145.331 134.125  1.00  0.00     0.017 C 
ATOM     13  C   UNL     1     145.561 142.638 133.402  1.00  0.00     0.012 C 
ATOM     14  C   UNL     1     143.521 142.949 132.021  1.00  0.00     0.012 C 
ATOM     15  C   UNL     1     147.076 145.481 134.125  1.00  0.00     0.012 C 
ENDROOT
TORSDOF 0
ENDMDL
MODEL 4
REMARK VINA RESULT:    -3.850      1.387      2.673
REMARK INTER + INTRA:          -3.850
REMARK INTER:                  -3.850
REMARK INTRA:                   0.000
REMARK UNBOUND:                 0.000
REMARK SMILES CC1=CC[C@]2(C)CCCC(C)(C)[C@@]23C[C@@H]13
REMARK SMILES IDX 1 1 2 2 3 3 4 4 5 5 7 6 8 7 9 8 10 9 13 10 15 11 14 12 11 13
REMARK SMILES IDX 12 14 6 15
REMARK H PARENT
REMARK Flexibility Score: inf
ROOT
ATOM      1  C   UNL     1     148.373 142.775 131.886  1.00  0.00     0.039 C 
ATOM      2  C   UNL     1     147.166 143.480 132.443  1.00  0.00    -0.074 C 
ATOM      3  C   UNL     1     146.031 142.788 132.597  1.00  0.00    -0.027 C 
ATOM      4  C   UNL     1     144.839 143.365 133.287  1.00  0.00     0.034 C 
ATOM      5  C   UNL     1     144.597 144.880 132.999  1.00  0.00    -0.022 C 
ATOM      6  C   UNL     1     143.902 145.007 131.619  1.00  0.00     0.008 C 
ATOM      7  C   UNL     1     143.719 146.458 131.154  1.00  0.00     0.001 C 
ATOM      8  C   UNL     1     145.055 147.205 131.075  1.00  0.00     0.007 C 
ATOM      9  C   UNL     1     145.871 147.213 132.399  1.00  0.00    -0.029 C 
ATOM     10  C   UNL     1     145.932 145.732 132.976  1.00  0.00    -0.012 C 
ATOM     11  C   UNL     1     147.249 144.966 132.709  1.00  0.00     0.022 C 
ATOM     12  C   UNL     1     146.911 145.434 134.124  1.00  0.00     0.017 C 
ATOM     13  C   UNL     1     145.225 148.176 133.430  1.00  0.00     0.012 C 
ATOM     14  C   UNL     1     147.257 147.829 132.045  1.00  0.00     0.012 C 
ATOM     15  C   UNL     1     143.641 145.363 134.125  1.00  0.00     0.012 C 
ENDROOT
TORSDOF 0
ENDMDL
MODEL 5
REMARK VINA RESULT:    -3.624      1.588      2.893
REMARK INTER + INTRA:          -3.624
REMARK INTER:                  -3.624
REMARK INTRA:                   0.000
REMARK UNBOUND:                 0.000
REMARK SMILES CC1=CC[C@]2(C)CCCC(C)(C)[C@@]23C[C@@H]13
REMARK SMILES IDX 1 1 2 2 3 3 4 4 5 5 7 6 8 7 9 8 10 9 13 10 15 11 14 12 11 13
REMARK SMILES IDX 12 14 6 15
REMARK H PARENT
REMARK Flexibility Score: inf
ROOT
ATOM      1  C   UNL     1     142.682 147.237 130.418  1.00  0.00     0.039 C 
ATOM      2  C   UNL     1     143.317 146.242 131.353  1.00  0.00    -0.074 C 
ATOM      3  C   UNL     1     142.894 146.190 132.621  1.00  0.00    -0.027 C 
ATOM      4  C   UNL     1     143.356 145.131 133.568  1.00  0.00     0.034 C 
ATOM      5  C   UNL     1     144.857 144.733 133.407  1.00  0.00    -0.022 C 
ATOM      6  C   UNL     1     145.722 145.801 134.125  1.00  0.00     0.008 C 
ATOM      7  C   UNL     1     147.232 145.597 133.935  1.00  0.00     0.001 C 
ATOM      8  C   UNL     1     147.626 145.594 132.455  1.00  0.00     0.007 C 
ATOM      9  C   UNL     1     146.877 144.543 131.588  1.00  0.00    -0.029 C 
ATOM     10  C   UNL     1     145.319 144.638 131.895  1.00  0.00    -0.012 C 
ATOM     11  C   UNL     1     144.480 145.414 130.854  1.00  0.00     0.022 C 
ATOM     12  C   UNL     1     144.344 143.896 130.964  1.00  0.00     0.017 C 
ATOM     13  C   UNL     1     147.408 143.115 131.883  1.00  0.00     0.012 C 
ATOM     14  C   UNL     1     147.266 144.849 130.110  1.00  0.00     0.012 C 
ATOM     15  C   UNL     1     144.996 143.362 134.125  1.00  0.00     0.012 C 
ENDROOT
TORSDOF 0
ENDMDL
MODEL 6
REMARK VINA RESULT:    -3.555      1.651      2.812
REMARK INTER + INTRA:          -3.555
REMARK INTER:                  -3.555
REMARK INTRA:                   0.000
REMARK UNBOUND:                 0.000
REMARK SMILES CC1=CC[C@]2(C)CCCC(C)(C)[C@@]23C[C@@H]13
REMARK SMILES IDX 1 1 2 2 3 3 4 4 5 5 7 6 8 7 9 8 10 9 13 10 15 11 14 12 11 13
REMARK SMILES IDX 12 14 6 15
REMARK H PARENT
REMARK Flexibility Score: inf
ROOT
ATOM      1  C   UNL     1     148.078 143.501 130.386  1.00  0.00     0.039 C 
ATOM      2  C   UNL     1     147.439 144.485 131.329  1.00  0.00    -0.074 C 
ATOM      3  C   UNL     1     147.871 144.538 132.595  1.00  0.00    -0.027 C 
ATOM      4  C   UNL     1     147.404 145.588 133.548  1.00  0.00     0.034 C 
ATOM      5  C   UNL     1     145.898 145.969 133.400  1.00  0.00    -0.022 C 
ATOM      6  C   UNL     1     145.051 144.889 134.122  1.00  0.00     0.008 C 
ATOM      7  C   UNL     1     143.538 145.075 133.945  1.00  0.00     0.001 C 
ATOM      8  C   UNL     1     143.131 145.078 132.468  1.00  0.00     0.007 C 
ATOM      9  C   UNL     1     143.861 146.141 131.598  1.00  0.00    -0.029 C 
ATOM     10  C   UNL     1     145.423 146.064 131.893  1.00  0.00    -0.012 C 
ATOM     11  C   UNL     1     146.262 145.301 130.842  1.00  0.00     0.022 C 
ATOM     12  C   UNL     1     146.381 146.820 130.957  1.00  0.00     0.017 C 
ATOM     13  C   UNL     1     143.316 147.561 131.903  1.00  0.00     0.012 C 
ATOM     14  C   UNL     1     143.464 145.835 130.123  1.00  0.00     0.012 C 
ATOM     15  C   UNL     1     145.748 147.336 134.124  1.00  0.00     0.012 C 
ENDROOT
TORSDOF 0
ENDMDL
MODEL 7
REMARK VINA RESULT:    -3.457      1.274      4.104
REMARK INTER + INTRA:          -3.457
REMARK INTER:                  -3.457
REMARK INTRA:                   0.000
REMARK UNBOUND:                 0.000
REMARK SMILES CC1=CC[C@]2(C)CCCC(C)(C)[C@@]23C[C@@H]13
REMARK SMILES IDX 1 1 2 2 3 3 4 4 5 5 7 6 8 7 9 8 10 9 13 10 15 11 14 12 11 13
REMARK SMILES IDX 12 14 6 15
REMARK H PARENT
REMARK Flexibility Score: inf
ROOT
ATOM      1  C   UNL     1     145.004 148.749 134.121  1.00  0.00     0.039 C 
ATOM      2  C   UNL     1     144.959 147.605 133.144  1.00  0.00    -0.074 C 
ATOM      3  C   UNL     1     143.793 147.306 132.556  1.00  0.00    -0.027 C 
ATOM      4  C   UNL     1     143.694 146.294 131.463  1.00  0.00     0.034 C 
ATOM      5  C   UNL     1     144.623 145.053 131.646  1.00  0.00    -0.022 C 
ATOM      6  C   UNL     1     143.945 144.084 132.650  1.00  0.00     0.008 C 
ATOM      7  C   UNL     1     144.816 142.875 133.018  1.00  0.00     0.001 C 
ATOM      8  C   UNL     1     146.162 143.300 133.614  1.00  0.00     0.007 C 
ATOM      9  C   UNL     1     146.999 144.249 132.710  1.00  0.00    -0.029 C 
ATOM     10  C   UNL     1     146.062 145.425 132.191  1.00  0.00    -0.012 C 
ATOM     11  C   UNL     1     146.203 146.770 132.942  1.00  0.00     0.022 C 
ATOM     12  C   UNL     1     146.721 146.638 131.510  1.00  0.00     0.017 C 
ATOM     13  C   UNL     1     147.608 143.467 131.517  1.00  0.00     0.012 C 
ATOM     14  C   UNL     1     148.205 144.716 133.579  1.00  0.00     0.012 C 
ATOM     15  C   UNL     1     144.707 144.394 130.242  1.00  0.00     0.012 C 
ENDROOT
TORSDOF 0
ENDMDL
MODEL 8
REMARK VINA RESULT:    -3.380      1.305      2.090
REMARK INTER + INTRA:          -3.380
REMARK INTER:                  -3.380
REMARK INTRA:                   0.000
REMARK UNBOUND:                 0.000
REMARK SMILES CC1=CC[C@]2(C)CCCC(C)(C)[C@@]23C[C@@H]13
REMARK SMILES IDX 1 1 2 2 3 3 4 4 5 5 7 6 8 7 9 8 10 9 13 10 15 11 14 12 11 13
REMARK SMILES IDX 12 14 6 15
REMARK H PARENT
REMARK Flexibility Score: inf
ROOT
ATOM      1  C   UNL     1     145.003 145.007 128.089  1.00  0.00     0.039 C 
ATOM      2  C   UNL     1     145.075 144.627 129.544  1.00  0.00    -0.074 C 
ATOM      3  C   UNL     1     144.251 143.677 130.003  1.00  0.00    -0.027 C 
ATOM      4  C   UNL     1     144.365 143.131 131.388  1.00  0.00     0.034 C 
ATOM      5  C   UNL     1     144.738 144.191 132.471  1.00  0.00    -0.022 C 
ATOM      6  C   UNL     1     143.453 144.973 132.848  1.00  0.00     0.008 C 
ATOM      7  C   UNL     1     143.704 146.137 133.816  1.00  0.00     0.001 C 
ATOM      8  C   UNL     1     144.714 147.142 133.252  1.00  0.00     0.007 C 
ATOM      9  C   UNL     1     146.087 146.527 132.858  1.00  0.00    -0.029 C 
ATOM     10  C   UNL     1     145.835 145.223 131.982  1.00  0.00    -0.012 C 
ATOM     11  C   UNL     1     145.999 145.404 130.455  1.00  0.00     0.022 C 
ATOM     12  C   UNL     1     147.031 144.597 131.243  1.00  0.00     0.017 C 
ATOM     13  C   UNL     1     146.913 146.185 134.125  1.00  0.00     0.012 C 
ATOM     14  C   UNL     1     146.870 147.658 132.126  1.00  0.00     0.012 C 
ATOM     15  C   UNL     1     145.241 143.371 133.691  1.00  0.00     0.012 C 
ENDROOT
TORSDOF 0
ENDMDL
MODEL 9
REMARK VINA RESULT:    -3.368      1.322      3.753
REMARK INTER + INTRA:          -3.368
REMARK INTER:                  -3.368
REMARK INTRA:                   0.000
REMARK UNBOUND:                 0.000
REMARK SMILES CC1=CC[C@]2(C)CCCC(C)(C)[C@@]23C[C@@H]13
REMARK SMILES IDX 1 1 2 2 3 3 4 4 5 5 7 6 8 7 9 8 10 9 13 10 15 11 14 12 11 13
REMARK SMILES IDX 12 14 6 15
REMARK H PARENT
REMARK Flexibility Score: inf
ROOT
ATOM      1  C   UNL     1     145.748 145.743 128.092  1.00  0.00     0.039 C 
ATOM      2  C   UNL     1     145.675 146.122 129.547  1.00  0.00    -0.074 C 
ATOM      3  C   UNL     1     146.498 147.071 130.007  1.00  0.00    -0.027 C 
ATOM      4  C   UNL     1     146.383 147.617 131.392  1.00  0.00     0.034 C 
ATOM      5  C   UNL     1     146.009 146.556 132.474  1.00  0.00    -0.022 C 
ATOM      6  C   UNL     1     147.293 145.774 132.852  1.00  0.00     0.008 C 
ATOM      7  C   UNL     1     147.041 144.609 133.819  1.00  0.00     0.001 C 
ATOM      8  C   UNL     1     146.032 143.605 133.253  1.00  0.00     0.007 C 
ATOM      9  C   UNL     1     144.659 144.219 132.858  1.00  0.00    -0.029 C 
ATOM     10  C   UNL     1     144.912 145.524 131.983  1.00  0.00    -0.012 C 
ATOM     11  C   UNL     1     144.750 145.344 130.456  1.00  0.00     0.022 C 
ATOM     12  C   UNL     1     143.717 146.150 131.243  1.00  0.00     0.017 C 
ATOM     13  C   UNL     1     143.832 144.561 134.124  1.00  0.00     0.012 C 
ATOM     14  C   UNL     1     143.877 143.089 132.125  1.00  0.00     0.012 C 
ATOM     15  C   UNL     1     145.504 147.375 133.694  1.00  0.00     0.012 C 
ENDROOT
TORSDOF 0
ENDMDL
