MODEL 1
REMARK VINA RESULT:    -5.943      0.000      0.000
REMARK INTER + INTRA:          -6.708
REMARK INTER:                  -6.291
REMARK INTRA:                  -0.417
REMARK UNBOUND:                -0.417
REMARK SMILES CC1=CC[C@@H]2[C@H]3[C@@H](C(C)C)CC[C@]2(C)[C@@H]13
REMARK SMILES IDX 1 1 2 2 3 3 4 4 5 5 6 6 15 7 13 8 12 9 11 10 7 11 14 12 8 13
REMARK SMILES IDX 9 14 10 15
REMARK H PARENT
REMARK Flexibility Score: inf
ROOT
ATOM      1  C   UNL     1       5.761   6.082  10.882  1.00  0.00     0.039 C 
ATOM      2  C   UNL     1       6.308   6.194  12.274  1.00  0.00    -0.073 C 
ATOM      3  C   UNL     1       7.133   5.254  12.805  1.00  0.00    -0.027 C 
ATOM      4  C   UNL     1       7.646   5.445  14.236  1.00  0.00     0.031 C 
ATOM      5  C   UNL     1       7.046   6.746  14.862  1.00  0.00     0.003 C 
ATOM      6  C   UNL     1       5.525   6.754  14.549  1.00  0.00     0.004 C 
ATOM      7  C   UNL     1       5.908   7.361  13.180  1.00  0.00     0.024 C 
ATOM      8  C   UNL     1       7.152   7.947  13.888  1.00  0.00    -0.022 C 
ATOM      9  C   UNL     1       6.751   9.272  14.608  1.00  0.00     0.008 C 
ATOM     10  C   UNL     1       5.658   9.057  15.687  1.00  0.00     0.005 C 
ATOM     11  C   UNL     1       4.755   7.822  15.388  1.00  0.00    -0.005 C 
ATOM     12  C   UNL     1       8.447   8.136  13.065  1.00  0.00     0.012 C 
ENDROOT
BRANCH  11  13
ATOM     13  C   UNL     1       4.089   7.251  16.679  1.00  0.00    -0.014 C 
ATOM     14  C   UNL     1       3.747   5.761  16.522  1.00  0.00     0.007 C 
ATOM     15  C   UNL     1       4.920   7.465  17.955  1.00  0.00     0.007 C 
ENDBRANCH  11  13
TORSDOF 1
ENDMDL
MODEL 2
REMARK VINA RESULT:    -5.924     12.198     14.863
REMARK INTER + INTRA:          -6.687
REMARK INTER:                  -6.270
REMARK INTRA:                  -0.417
REMARK UNBOUND:                -0.417
REMARK SMILES CC1=CC[C@@H]2[C@H]3[C@@H](C(C)C)CC[C@]2(C)[C@@H]13
REMARK SMILES IDX 1 1 2 2 3 3 4 4 5 5 6 6 15 7 13 8 12 9 11 10 7 11 14 12 8 13
REMARK SMILES IDX 9 14 10 15
REMARK H PARENT
REMARK Flexibility Score: inf
ROOT
ATOM      1  C   UNL     1      11.016   4.148  30.957  1.00  0.00     0.039 C 
ATOM      2  C   UNL     1      10.615   4.556  29.571  1.00  0.00    -0.073 C 
ATOM      3  C   UNL     1       9.830   3.773  28.785  1.00  0.00    -0.027 C 
ATOM      4  C   UNL     1       9.468   4.264  27.380  1.00  0.00     0.031 C 
ATOM      5  C   UNL     1      10.154   5.639  27.089  1.00  0.00     0.003 C 
ATOM      6  C   UNL     1      11.635   5.525  27.540  1.00  0.00     0.004 C 
ATOM      7  C   UNL     1      11.127   5.862  28.961  1.00  0.00     0.024 C 
ATOM      8  C   UNL     1       9.973   6.626  28.270  1.00  0.00    -0.022 C 
ATOM      9  C   UNL     1      10.470   8.051  27.874  1.00  0.00     0.008 C 
ATOM     10  C   UNL     1      11.664   8.011  26.883  1.00  0.00     0.005 C 
ATOM     11  C   UNL     1      12.508   6.707  27.011  1.00  0.00    -0.005 C 
ATOM     12  C   UNL     1       8.605   6.698  28.987  1.00  0.00     0.012 C 
ENDROOT
BRANCH  11  13
ATOM     13  C   UNL     1      13.290   6.378  25.702  1.00  0.00    -0.014 C 
ATOM     14  C   UNL     1      13.580   4.873  25.585  1.00  0.00     0.007 C 
ATOM     15  C   UNL     1      12.598   6.878  24.422  1.00  0.00     0.007 C 
ENDBRANCH  11  13
TORSDOF 1
ENDMDL
MODEL 3
REMARK VINA RESULT:    -5.624     12.052     14.108
REMARK INTER + INTRA:          -6.370
REMARK INTER:                  -6.096
REMARK INTRA:                  -0.275
REMARK UNBOUND:                -0.417
REMARK SMILES CC1=CC[C@@H]2[C@H]3[C@@H](C(C)C)CC[C@]2(C)[C@@H]13
REMARK SMILES IDX 1 1 2 2 3 3 4 4 5 5 6 6 15 7 13 8 12 9 11 10 7 11 14 12 8 13
REMARK SMILES IDX 9 14 10 15
REMARK H PARENT
REMARK Flexibility Score: inf
ROOT
ATOM      1  C   UNL     1      10.957   8.262  27.149  1.00  0.00     0.039 C 
ATOM      2  C   UNL     1      12.055   7.581  26.387  1.00  0.00    -0.073 C 
ATOM      3  C   UNL     1      12.289   6.247  26.493  1.00  0.00    -0.027 C 
ATOM      4  C   UNL     1      13.433   5.631  25.681  1.00  0.00     0.031 C 
ATOM      5  C   UNL     1      14.185   6.737  24.872  1.00  0.00     0.003 C 
ATOM      6  C   UNL     1      14.438   7.928  25.835  1.00  0.00     0.004 C 
ATOM      7  C   UNL     1      13.001   8.385  25.492  1.00  0.00     0.024 C 
ATOM      8  C   UNL     1      13.195   7.673  24.133  1.00  0.00    -0.022 C 
ATOM      9  C   UNL     1      13.961   8.626  23.164  1.00  0.00     0.008 C 
ATOM     10  C   UNL     1      15.368   9.010  23.695  1.00  0.00     0.005 C 
ATOM     11  C   UNL     1      15.458   8.956  25.250  1.00  0.00    -0.005 C 
ATOM     12  C   UNL     1      11.956   7.061  23.440  1.00  0.00     0.012 C 
ENDROOT
BRANCH  11  13
ATOM     13  C   UNL     1      16.921   8.748  25.751  1.00  0.00    -0.014 C 
ATOM     14  C   UNL     1      17.776   8.025  24.698  1.00  0.00     0.007 C 
ATOM     15  C   UNL     1      17.619  10.047  26.189  1.00  0.00     0.007 C 
ENDBRANCH  11  13
TORSDOF 1
ENDMDL
MODEL 4
REMARK VINA RESULT:    -5.596      1.196      4.580
REMARK INTER + INTRA:          -6.340
REMARK INTER:                  -5.926
REMARK INTRA:                  -0.414
REMARK UNBOUND:                -0.417
REMARK SMILES CC1=CC[C@@H]2[C@H]3[C@@H](C(C)C)CC[C@]2(C)[C@@H]13
REMARK SMILES IDX 1 1 2 2 3 3 4 4 5 5 6 6 15 7 13 8 12 9 11 10 7 11 14 12 8 13
REMARK SMILES IDX 9 14 10 15
REMARK H PARENT
REMARK Flexibility Score: inf
ROOT
ATOM      1  C   UNL     1       6.403   7.508  19.158  1.00  0.00     0.039 C 
ATOM      2  C   UNL     1       5.900   7.516  17.746  1.00  0.00    -0.073 C 
ATOM      3  C   UNL     1       4.713   6.952  17.397  1.00  0.00    -0.027 C 
ATOM      4  C   UNL     1       4.274   7.003  15.930  1.00  0.00     0.031 C 
ATOM      5  C   UNL     1       5.369   7.697  15.057  1.00  0.00     0.003 C 
ATOM      6  C   UNL     1       6.740   7.093  15.461  1.00  0.00     0.004 C 
ATOM      7  C   UNL     1       6.741   8.119  16.618  1.00  0.00     0.024 C 
ATOM      8  C   UNL     1       5.866   9.013  15.709  1.00  0.00    -0.022 C 
ATOM      9  C   UNL     1       6.790   9.796  14.725  1.00  0.00     0.008 C 
ATOM     10  C   UNL     1       7.613   8.857  13.805  1.00  0.00     0.005 C 
ATOM     11  C   UNL     1       7.870   7.460  14.448  1.00  0.00    -0.005 C 
ATOM     12  C   UNL     1       4.840   9.958  16.374  1.00  0.00     0.012 C 
ENDROOT
BRANCH  11  13
ATOM     13  C   UNL     1       8.141   6.358  13.377  1.00  0.00    -0.014 C 
ATOM     14  C   UNL     1       7.594   4.994  13.826  1.00  0.00     0.007 C 
ATOM     15  C   UNL     1       7.602   6.703  11.978  1.00  0.00     0.007 C 
ENDBRANCH  11  13
TORSDOF 1
ENDMDL
MODEL 5
REMARK VINA RESULT:    -5.304      2.729      5.026
REMARK INTER + INTRA:          -6.031
REMARK INTER:                  -5.620
REMARK INTRA:                  -0.411
REMARK UNBOUND:                -0.417
REMARK SMILES CC1=CC[C@@H]2[C@H]3[C@@H](C(C)C)CC[C@]2(C)[C@@H]13
REMARK SMILES IDX 1 1 2 2 3 3 4 4 5 5 6 6 15 7 13 8 12 9 11 10 7 11 14 12 8 13
REMARK SMILES IDX 9 14 10 15
REMARK H PARENT
REMARK Flexibility Score: inf
ROOT
ATOM      1  C   UNL     1       6.130   9.721  15.385  1.00  0.00     0.039 C 
ATOM      2  C   UNL     1       5.159   8.812  16.076  1.00  0.00    -0.073 C 
ATOM      3  C   UNL     1       4.908   7.551  15.637  1.00  0.00    -0.027 C 
ATOM      4  C   UNL     1       3.900   6.688  16.402  1.00  0.00     0.031 C 
ATOM      5  C   UNL     1       3.280   7.496  17.588  1.00  0.00     0.003 C 
ATOM      6  C   UNL     1       2.887   8.896  17.044  1.00  0.00     0.004 C 
ATOM      7  C   UNL     1       4.360   9.298  17.288  1.00  0.00     0.024 C 
ATOM      8  C   UNL     1       4.372   8.231  18.407  1.00  0.00    -0.022 C 
ATOM      9  C   UNL     1       3.763   8.846  19.705  1.00  0.00     0.008 C 
ATOM     10  C   UNL     1       2.293   9.305  19.513  1.00  0.00     0.005 C 
ATOM     11  C   UNL     1       1.969   9.679  18.035  1.00  0.00    -0.005 C 
ATOM     12  C   UNL     1       5.701   7.501  18.714  1.00  0.00     0.012 C 
ENDROOT
BRANCH  11  13
ATOM     13  C   UNL     1       0.447   9.559  17.715  1.00  0.00    -0.014 C 
ATOM     14  C   UNL     1       0.201   9.409  16.205  1.00  0.00     0.007 C 
ATOM     15  C   UNL     1      -0.261   8.424  18.474  1.00  0.00     0.007 C 
ENDBRANCH  11  13
TORSDOF 1
ENDMDL
MODEL 6
REMARK VINA RESULT:    -5.286     11.476     13.244
REMARK INTER + INTRA:          -6.012
REMARK INTER:                  -5.744
REMARK INTRA:                  -0.268
REMARK UNBOUND:                -0.417
REMARK SMILES CC1=CC[C@@H]2[C@H]3[C@@H](C(C)C)CC[C@]2(C)[C@@H]13
REMARK SMILES IDX 1 1 2 2 3 3 4 4 5 5 6 6 15 7 13 8 12 9 11 10 7 11 14 12 8 13
REMARK SMILES IDX 9 14 10 15
REMARK H PARENT
REMARK Flexibility Score: inf
ROOT
ATOM      1  C   UNL     1      17.314   7.167  24.010  1.00  0.00     0.039 C 
ATOM      2  C   UNL     1      16.101   8.013  24.253  1.00  0.00    -0.073 C 
ATOM      3  C   UNL     1      16.189   9.333  24.567  1.00  0.00    -0.027 C 
ATOM      4  C   UNL     1      14.899  10.125  24.801  1.00  0.00     0.031 C 
ATOM      5  C   UNL     1      13.654   9.190  24.670  1.00  0.00     0.003 C 
ATOM      6  C   UNL     1      13.956   7.896  25.473  1.00  0.00     0.004 C 
ATOM      7  C   UNL     1      14.699   7.401  24.211  1.00  0.00     0.024 C 
ATOM      8  C   UNL     1      13.739   8.304  23.401  1.00  0.00    -0.022 C 
ATOM      9  C   UNL     1      12.396   7.543  23.173  1.00  0.00     0.008 C 
ATOM     10  C   UNL     1      11.684   7.179  24.503  1.00  0.00     0.005 C 
ATOM     11  C   UNL     1      12.679   7.024  25.693  1.00  0.00    -0.005 C 
ATOM     12  C   UNL     1      14.251   8.927  22.082  1.00  0.00     0.012 C 
ENDROOT
BRANCH  11  13
ATOM     13  C   UNL     1      11.988   7.253  27.073  1.00  0.00    -0.014 C 
ATOM     14  C   UNL     1      10.951   8.385  27.001  1.00  0.00     0.007 C 
ATOM     15  C   UNL     1      11.340   5.987  27.662  1.00  0.00     0.007 C 
ENDBRANCH  11  13
TORSDOF 1
ENDMDL
MODEL 7
REMARK VINA RESULT:    -5.215      1.260      2.773
REMARK INTER + INTRA:          -5.936
REMARK INTER:                  -5.534
REMARK INTRA:                  -0.403
REMARK UNBOUND:                -0.417
REMARK SMILES CC1=CC[C@@H]2[C@H]3[C@@H](C(C)C)CC[C@]2(C)[C@@H]13
REMARK SMILES IDX 1 1 2 2 3 3 4 4 5 5 6 6 15 7 13 8 12 9 11 10 7 11 14 12 8 13
REMARK SMILES IDX 9 14 10 15
REMARK H PARENT
REMARK Flexibility Score: inf
ROOT
ATOM      1  C   UNL     1       7.927   4.131  14.399  1.00  0.00     0.039 C 
ATOM      2  C   UNL     1       7.455   5.546  14.243  1.00  0.00    -0.073 C 
ATOM      3  C   UNL     1       8.225   6.507  13.669  1.00  0.00    -0.027 C 
ATOM      4  C   UNL     1       7.666   7.929  13.550  1.00  0.00     0.031 C 
ATOM      5  C   UNL     1       6.245   8.012  14.196  1.00  0.00     0.003 C 
ATOM      6  C   UNL     1       6.314   7.291  15.569  1.00  0.00     0.004 C 
ATOM      7  C   UNL     1       6.090   5.979  14.783  1.00  0.00     0.024 C 
ATOM      8  C   UNL     1       5.342   6.838  13.736  1.00  0.00    -0.022 C 
ATOM      9  C   UNL     1       3.873   7.058  14.214  1.00  0.00     0.008 C 
ATOM     10  C   UNL     1       3.794   7.802  15.573  1.00  0.00     0.005 C 
ATOM     11  C   UNL     1       5.061   7.582  16.454  1.00  0.00    -0.005 C 
ATOM     12  C   UNL     1       5.381   6.394  12.256  1.00  0.00     0.012 C 
ENDROOT
BRANCH  11  13
ATOM     13  C   UNL     1       5.270   8.732  17.487  1.00  0.00    -0.014 C 
ATOM     14  C   UNL     1       6.710   8.749  18.023  1.00  0.00     0.007 C 
ATOM     15  C   UNL     1       4.895  10.125  16.953  1.00  0.00     0.007 C 
ENDBRANCH  11  13
TORSDOF 1
ENDMDL
MODEL 8
REMARK VINA RESULT:    -5.109      9.394     11.077
REMARK INTER + INTRA:          -5.825
REMARK INTER:                  -5.417
REMARK INTRA:                  -0.408
REMARK UNBOUND:                -0.417
REMARK SMILES CC1=CC[C@@H]2[C@H]3[C@@H](C(C)C)CC[C@]2(C)[C@@H]13
REMARK SMILES IDX 1 1 2 2 3 3 4 4 5 5 6 6 15 7 13 8 12 9 11 10 7 11 14 12 8 13
REMARK SMILES IDX 9 14 10 15
REMARK H PARENT
REMARK Flexibility Score: inf
ROOT
ATOM      1  C   UNL     1       8.952   9.292  22.880  1.00  0.00     0.039 C 
ATOM      2  C   UNL     1      10.231   8.626  22.469  1.00  0.00    -0.073 C 
ATOM      3  C   UNL     1      10.266   7.347  22.011  1.00  0.00    -0.027 C 
ATOM      4  C   UNL     1      11.616   6.741  21.613  1.00  0.00     0.031 C 
ATOM      5  C   UNL     1      12.770   7.764  21.873  1.00  0.00     0.003 C 
ATOM      6  C   UNL     1      12.548   8.368  23.285  1.00  0.00     0.004 C 
ATOM      7  C   UNL     1      11.571   9.353  22.604  1.00  0.00     0.024 C 
ATOM      8  C   UNL     1      12.418   9.170  21.324  1.00  0.00    -0.022 C 
ATOM      9  C   UNL     1      13.659  10.112  21.395  1.00  0.00     0.008 C 
ATOM     10  C   UNL     1      14.574   9.802  22.609  1.00  0.00     0.005 C 
ATOM     11  C   UNL     1      13.798   9.154  23.795  1.00  0.00    -0.005 C 
ATOM     12  C   UNL     1      11.714   9.287  19.952  1.00  0.00     0.012 C 
ENDROOT
BRANCH  11  13
ATOM     13  C   UNL     1      14.731   8.320  24.727  1.00  0.00    -0.014 C 
ATOM     14  C   UNL     1      13.931   7.311  25.566  1.00  0.00     0.007 C 
ATOM     15  C   UNL     1      15.867   7.595  23.983  1.00  0.00     0.007 C 
ENDBRANCH  11  13
TORSDOF 1
ENDMDL
MODEL 9
REMARK VINA RESULT:    -5.064     11.249     13.330
REMARK INTER + INTRA:          -5.778
REMARK INTER:                  -5.509
REMARK INTRA:                  -0.269
REMARK UNBOUND:                -0.417
REMARK SMILES CC1=CC[C@@H]2[C@H]3[C@@H](C(C)C)CC[C@]2(C)[C@@H]13
REMARK SMILES IDX 1 1 2 2 3 3 4 4 5 5 6 6 15 7 13 8 12 9 11 10 7 11 14 12 8 13
REMARK SMILES IDX 9 14 10 15
REMARK H PARENT
REMARK Flexibility Score: inf
ROOT
ATOM      1  C   UNL     1      11.290   6.849  21.909  1.00  0.00     0.039 C 
ATOM      2  C   UNL     1      11.801   7.762  22.982  1.00  0.00    -0.073 C 
ATOM      3  C   UNL     1      11.473   9.080  23.028  1.00  0.00    -0.027 C 
ATOM      4  C   UNL     1      12.040   9.944  24.160  1.00  0.00     0.031 C 
ATOM      5  C   UNL     1      12.983   9.095  25.073  1.00  0.00     0.003 C 
ATOM      6  C   UNL     1      13.920   8.277  24.144  1.00  0.00     0.004 C 
ATOM      7  C   UNL     1      12.769   7.249  24.051  1.00  0.00     0.024 C 
ATOM      8  C   UNL     1      12.337   7.738  25.453  1.00  0.00    -0.022 C 
ATOM      9  C   UNL     1      13.193   7.007  26.533  1.00  0.00     0.008 C 
ATOM     10  C   UNL     1      14.711   7.294  26.385  1.00  0.00     0.005 C 
ATOM     11  C   UNL     1      15.116   7.642  24.921  1.00  0.00    -0.005 C 
ATOM     12  C   UNL     1      10.835   7.696  25.817  1.00  0.00     0.012 C 
ENDROOT
BRANCH  11  13
ATOM     13  C   UNL     1      16.429   8.481  24.855  1.00  0.00    -0.014 C 
ATOM     14  C   UNL     1      16.703   9.200  26.185  1.00  0.00     0.007 C 
ATOM     15  C   UNL     1      17.667   7.669  24.436  1.00  0.00     0.007 C 
ENDBRANCH  11  13
TORSDOF 1
ENDMDL
