MODEL 1
REMARK VINA RESULT:    17.765      0.000      0.000
REMARK INTER + INTRA:          23.225
REMARK INTER:                  23.476
REMARK INTRA:                  -0.251
REMARK UNBOUND:                -0.251
REMARK SMILES C=C(CC[C@@H](C)[C@H]1CC[C@@]2(C)[C@@H]3CC[C@H]4C(C)(C)[C@H](O)CC[C@]45C[C@@]35CC[C@@]12C)C(C)C
REMARK SMILES IDX 4 1 3 2 2 3 1 4 30 5 31 6 32 7 5 8 6 9 7 10 8 11 28 12 9 13
REMARK SMILES IDX 10 14 27 15 29 16 11 17 12 18 26 19 25 20 13 21 23 22 24 23
REMARK SMILES IDX 14 24 15 25 22 26 16 27 21 28 19 29 17 30 18 31 20 32
REMARK H PARENT 20 33
REMARK Flexibility Score: inf
ROOT
ATOM      1  C   UNL     1     136.518 134.059 139.464  1.00  0.00     0.008 C 
ENDROOT
BRANCH   1   2
ATOM      2  C   UNL     1     137.938 134.360 139.985  1.00  0.00     0.031 C 
BRANCH   2   3
ATOM      3  C   UNL     1     138.671 133.144 140.522  1.00  0.00    -0.075 C 
ATOM      4  C   UNL     1     138.019 131.970 140.627  1.00  0.00     0.008 C 
BRANCH   3   5
ATOM      5  C   UNL     1     140.105 133.287 141.016  1.00  0.00     0.008 C 
ATOM      6  C   UNL     1     140.276 134.590 141.806  1.00  0.00     0.012 C 
ATOM      7  C   UNL     1     140.556 132.079 141.850  1.00  0.00     0.012 C 
ENDBRANCH   3   5
ENDBRANCH   2   3
ENDBRANCH   1   2
BRANCH   1   8
ATOM      8  C   UNL     1     136.292 134.347 137.949  1.00  0.00    -0.010 C 
ATOM      9  C   UNL     1     137.339 133.582 137.112  1.00  0.00     0.008 C 
BRANCH   8  10
ATOM     10  C   UNL     1     134.844 134.025 137.401  1.00  0.00    -0.002 C 
ATOM     11  C   UNL     1     134.748 133.590 135.936  1.00  0.00     0.005 C 
ATOM     12  C   UNL     1     133.922 133.044 138.194  1.00  0.00    -0.024 C 
ATOM     13  C   UNL     1     133.426 132.826 135.795  1.00  0.00     0.008 C 
ATOM     14  C   UNL     1     132.716 132.815 137.181  1.00  0.00    -0.024 C 
ATOM     15  C   UNL     1     134.673 131.705 138.478  1.00  0.00     0.008 C 
ATOM     16  C   UNL     1     133.516 133.704 139.544  1.00  0.00     0.012 C 
ATOM     17  C   UNL     1     131.700 133.999 137.181  1.00  0.00     0.012 C 
ATOM     18  C   UNL     1     131.905 131.458 137.331  1.00  0.00     0.002 C 
ATOM     19  C   UNL     1     133.734 130.573 138.873  1.00  0.00     0.008 C 
ATOM     20  C   UNL     1     132.826 130.283 137.651  1.00  0.00    -0.020 C 
ATOM     21  C   UNL     1     130.784 131.457 138.439  1.00  0.00     0.005 C 
ATOM     22  C   UNL     1     131.954 128.969 137.489  1.00  0.00    -0.020 C 
ATOM     23  C   UNL     1     133.361 129.097 136.901  1.00  0.00     0.015 C 
ATOM     24  C   UNL     1     130.232 130.055 138.894  1.00  0.00     0.005 C 
ATOM     25  C   UNL     1     131.263 128.865 138.861  1.00  0.00     0.004 C 
ATOM     26  C   UNL     1     130.952 128.705 136.301  1.00  0.00     0.010 C 
ATOM     27  C   UNL     1     130.666 127.409 139.080  1.00  0.00    -0.006 C 
ATOM     28  C   UNL     1     129.961 127.564 136.614  1.00  0.00     0.033 C 
ATOM     29  C   UNL     1     130.462 126.633 137.724  1.00  0.00     0.120 C 
ATOM     30  C   UNL     1     129.318 127.446 139.847  1.00  0.00     0.014 C 
ATOM     31  C   UNL     1     131.647 126.603 139.975  1.00  0.00     0.014 C 
BRANCH  29  32
ATOM     32  O   UNL     1     131.661 126.038 137.282  1.00  0.00    -0.393 OA
ATOM     33  H   UNL     1     132.166 126.727 136.772  1.00  0.00     0.210 HD
ENDBRANCH  29  32
ENDBRANCH   8  10
ENDBRANCH   1   8
TORSDOF 6
ENDMDL
MODEL 2
REMARK VINA RESULT:    18.566      2.459      8.494
REMARK INTER + INTRA:          24.284
REMARK INTER:                  25.095
REMARK INTRA:                  -0.810
REMARK UNBOUND:                -0.251
REMARK SMILES C=C(CC[C@@H](C)[C@H]1CC[C@@]2(C)[C@@H]3CC[C@H]4C(C)(C)[C@H](O)CC[C@]45C[C@@]35CC[C@@]12C)C(C)C
REMARK SMILES IDX 4 1 3 2 2 3 1 4 30 5 31 6 32 7 5 8 6 9 7 10 8 11 28 12 9 13
REMARK SMILES IDX 10 14 27 15 29 16 11 17 12 18 26 19 25 20 13 21 23 22 24 23
REMARK SMILES IDX 14 24 15 25 22 26 16 27 21 28 19 29 17 30 18 31 20 32
REMARK H PARENT 20 33
REMARK Flexibility Score: inf
ROOT
ATOM      1  C   UNL     1     131.543 130.716 138.289  1.00  0.00     0.008 C 
ENDROOT
BRANCH   1   2
ATOM      2  C   UNL     1     131.534 129.242 137.834  1.00  0.00     0.031 C 
BRANCH   2   3
ATOM      3  C   UNL     1     130.921 128.287 138.841  1.00  0.00    -0.075 C 
ATOM      4  C   UNL     1     130.728 128.696 140.110  1.00  0.00     0.008 C 
BRANCH   3   5
ATOM      5  C   UNL     1     130.613 126.854 138.428  1.00  0.00     0.008 C 
ATOM      6  C   UNL     1     129.187 126.745 137.877  1.00  0.00     0.012 C 
ATOM      7  C   UNL     1     131.632 126.308 137.417  1.00  0.00     0.012 C 
ENDBRANCH   3   5
ENDBRANCH   2   3
ENDBRANCH   1   2
BRANCH   1   8
ATOM      8  C   UNL     1     132.227 131.711 137.303  1.00  0.00    -0.010 C 
ATOM      9  C   UNL     1     131.215 132.156 136.227  1.00  0.00     0.008 C 
BRANCH   8  10
ATOM     10  C   UNL     1     132.884 132.987 137.966  1.00  0.00    -0.002 C 
ATOM     11  C   UNL     1     132.404 133.350 139.374  1.00  0.00     0.005 C 
ATOM     12  C   UNL     1     134.441 133.119 138.003  1.00  0.00    -0.024 C 
ATOM     13  C   UNL     1     133.509 134.209 140.002  1.00  0.00     0.008 C 
ATOM     14  C   UNL     1     134.654 134.374 138.959  1.00  0.00    -0.024 C 
ATOM     15  C   UNL     1     135.079 131.835 138.620  1.00  0.00     0.008 C 
ATOM     16  C   UNL     1     134.971 133.314 136.553  1.00  0.00     0.012 C 
ATOM     17  C   UNL     1     134.412 135.732 138.230  1.00  0.00     0.012 C 
ATOM     18  C   UNL     1     136.041 134.458 139.729  1.00  0.00     0.002 C 
ATOM     19  C   UNL     1     136.522 132.044 139.060  1.00  0.00     0.008 C 
ATOM     20  C   UNL     1     136.503 133.085 140.208  1.00  0.00    -0.020 C 
ATOM     21  C   UNL     1     137.238 135.066 138.903  1.00  0.00     0.005 C 
ATOM     22  C   UNL     1     137.721 133.338 141.192  1.00  0.00    -0.020 C 
ATOM     23  C   UNL     1     136.581 132.373 141.529  1.00  0.00     0.015 C 
ATOM     24  C   UNL     1     138.688 134.815 139.459  1.00  0.00     0.005 C 
ATOM     25  C   UNL     1     138.908 133.453 140.219  1.00  0.00     0.004 C 
ATOM     26  C   UNL     1     137.754 134.459 142.300  1.00  0.00     0.010 C 
ATOM     27  C   UNL     1     140.287 133.291 140.992  1.00  0.00    -0.006 C 
ATOM     28  C   UNL     1     139.185 134.735 142.810  1.00  0.00     0.033 C 
ATOM     29  C   UNL     1     140.145 133.572 142.536  1.00  0.00     0.120 C 
ATOM     30  C   UNL     1     141.388 134.217 140.411  1.00  0.00     0.014 C 
ATOM     31  C   UNL     1     140.798 131.838 140.793  1.00  0.00     0.014 C 
BRANCH  29  32
ATOM     32  O   UNL     1     139.663 132.441 143.227  1.00  0.00    -0.393 OA
ATOM     33  H   UNL     1     139.806 131.650 142.641  1.00  0.00     0.210 HD
ENDBRANCH  29  32
ENDBRANCH   8  10
ENDBRANCH   1   8
TORSDOF 6
ENDMDL
MODEL 3
REMARK VINA RESULT:    19.770      2.542      7.796
REMARK INTER + INTRA:          25.875
REMARK INTER:                  26.294
REMARK INTRA:                  -0.419
REMARK UNBOUND:                -0.251
REMARK SMILES C=C(CC[C@@H](C)[C@H]1CC[C@@]2(C)[C@@H]3CC[C@H]4C(C)(C)[C@H](O)CC[C@]45C[C@@]35CC[C@@]12C)C(C)C
REMARK SMILES IDX 4 1 3 2 2 3 1 4 30 5 31 6 32 7 5 8 6 9 7 10 8 11 28 12 9 13
REMARK SMILES IDX 10 14 27 15 29 16 11 17 12 18 26 19 25 20 13 21 23 22 24 23
REMARK SMILES IDX 14 24 15 25 22 26 16 27 21 28 19 29 17 30 18 31 20 32
REMARK H PARENT 20 33
REMARK Flexibility Score: inf
ROOT
ATOM      1  C   UNL     1     131.121 127.286 139.799  1.00  0.00     0.008 C 
ENDROOT
BRANCH   1   2
ATOM      2  C   UNL     1     131.580 125.936 140.386  1.00  0.00     0.031 C 
BRANCH   2   3
ATOM      3  C   UNL     1     131.871 125.974 141.874  1.00  0.00    -0.075 C 
ATOM      4  C   UNL     1     131.417 127.005 142.612  1.00  0.00     0.008 C 
BRANCH   3   5
ATOM      5  C   UNL     1     132.747 124.895 142.498  1.00  0.00     0.008 C 
ATOM      6  C   UNL     1     131.890 123.724 142.994  1.00  0.00     0.012 C 
ATOM      7  C   UNL     1     133.838 124.403 141.535  1.00  0.00     0.012 C 
ENDBRANCH   3   5
ENDBRANCH   2   3
ENDBRANCH   1   2
BRANCH   1   8
ATOM      8  C   UNL     1     130.741 127.259 138.288  1.00  0.00    -0.010 C 
ATOM      9  C   UNL     1     129.410 126.503 138.099  1.00  0.00     0.008 C 
BRANCH   8  10
ATOM     10  C   UNL     1     130.648 128.671 137.581  1.00  0.00    -0.002 C 
ATOM     11  C   UNL     1     129.596 129.641 138.126  1.00  0.00     0.005 C 
ATOM     12  C   UNL     1     131.946 129.521 137.387  1.00  0.00    -0.024 C 
ATOM     13  C   UNL     1     130.044 131.047 137.709  1.00  0.00     0.008 C 
ATOM     14  C   UNL     1     131.366 130.919 136.896  1.00  0.00    -0.024 C 
ATOM     15  C   UNL     1     132.700 129.675 138.744  1.00  0.00     0.008 C 
ATOM     16  C   UNL     1     132.873 128.808 136.359  1.00  0.00     0.012 C 
ATOM     17  C   UNL     1     130.973 130.910 135.387  1.00  0.00     0.012 C 
ATOM     18  C   UNL     1     132.263 132.201 137.173  1.00  0.00     0.002 C 
ATOM     19  C   UNL     1     133.725 130.801 138.726  1.00  0.00     0.008 C 
ATOM     20  C   UNL     1     132.945 132.127 138.537  1.00  0.00    -0.020 C 
ATOM     21  C   UNL     1     133.406 132.468 136.120  1.00  0.00     0.005 C 
ATOM     22  C   UNL     1     133.561 133.563 138.810  1.00  0.00    -0.020 C 
ATOM     23  C   UNL     1     132.765 132.796 139.870  1.00  0.00     0.015 C 
ATOM     24  C   UNL     1     134.547 133.465 136.544  1.00  0.00     0.005 C 
ATOM     25  C   UNL     1     134.911 133.483 138.076  1.00  0.00     0.004 C 
ATOM     26  C   UNL     1     132.814 134.922 138.529  1.00  0.00     0.010 C 
ATOM     27  C   UNL     1     135.881 134.647 138.556  1.00  0.00    -0.006 C 
ATOM     28  C   UNL     1     133.780 136.125 138.497  1.00  0.00     0.033 C 
ATOM     29  C   UNL     1     135.101 135.842 139.223  1.00  0.00     0.120 C 
ATOM     30  C   UNL     1     136.746 135.197 137.391  1.00  0.00     0.014 C 
ATOM     31  C   UNL     1     136.880 134.062 139.592  1.00  0.00     0.014 C 
BRANCH  29  32
ATOM     32  O   UNL     1     134.803 135.578 140.575  1.00  0.00    -0.393 OA
ATOM     33  H   UNL     1     135.520 134.985 140.929  1.00  0.00     0.210 HD
ENDBRANCH  29  32
ENDBRANCH   8  10
ENDBRANCH   1   8
TORSDOF 6
ENDMDL
MODEL 4
REMARK VINA RESULT:    20.271      2.553      8.323
REMARK INTER + INTRA:          26.537
REMARK INTER:                  25.744
REMARK INTRA:                   0.794
REMARK UNBOUND:                -0.251
REMARK SMILES C=C(CC[C@@H](C)[C@H]1CC[C@@]2(C)[C@@H]3CC[C@H]4C(C)(C)[C@H](O)CC[C@]45C[C@@]35CC[C@@]12C)C(C)C
REMARK SMILES IDX 4 1 3 2 2 3 1 4 30 5 31 6 32 7 5 8 6 9 7 10 8 11 28 12 9 13
REMARK SMILES IDX 10 14 27 15 29 16 11 17 12 18 26 19 25 20 13 21 23 22 24 23
REMARK SMILES IDX 14 24 15 25 22 26 16 27 21 28 19 29 17 30 18 31 20 32
REMARK H PARENT 20 33
REMARK Flexibility Score: inf
ROOT
ATOM      1  C   UNL     1     131.208 131.111 137.265  1.00  0.00     0.008 C 
ENDROOT
BRANCH   1   2
ATOM      2  C   UNL     1     131.971 129.869 137.769  1.00  0.00     0.031 C 
BRANCH   2   3
ATOM      3  C   UNL     1     131.076 128.775 138.321  1.00  0.00    -0.075 C 
ATOM      4  C   UNL     1     130.734 128.792 139.624  1.00  0.00     0.008 C 
BRANCH   3   5
ATOM      5  C   UNL     1     130.649 127.624 137.418  1.00  0.00     0.008 C 
ATOM      6  C   UNL     1     131.857 126.763 137.033  1.00  0.00     0.012 C 
ATOM      7  C   UNL     1     129.545 126.765 138.053  1.00  0.00     0.012 C 
ENDBRANCH   3   5
ENDBRANCH   2   3
ENDBRANCH   1   2
BRANCH   1   8
ATOM      8  C   UNL     1     131.502 132.430 138.041  1.00  0.00    -0.010 C 
ATOM      9  C   UNL     1     131.554 132.143 139.556  1.00  0.00     0.008 C 
BRANCH   8  10
ATOM     10  C   UNL     1     132.814 133.200 137.607  1.00  0.00    -0.002 C 
ATOM     11  C   UNL     1     132.878 134.690 137.953  1.00  0.00     0.005 C 
ATOM     12  C   UNL     1     134.212 132.616 137.993  1.00  0.00    -0.024 C 
ATOM     13  C   UNL     1     134.364 135.070 137.961  1.00  0.00     0.008 C 
ATOM     14  C   UNL     1     135.197 133.804 137.603  1.00  0.00    -0.024 C 
ATOM     15  C   UNL     1     134.272 132.321 139.525  1.00  0.00     0.008 C 
ATOM     16  C   UNL     1     134.448 131.295 137.204  1.00  0.00     0.012 C 
ATOM     17  C   UNL     1     135.484 133.867 136.072  1.00  0.00     0.012 C 
ATOM     18  C   UNL     1     136.582 133.865 138.378  1.00  0.00     0.002 C 
ATOM     19  C   UNL     1     135.694 132.143 140.037  1.00  0.00     0.008 C 
ATOM     20  C   UNL     1     136.421 133.499 139.851  1.00  0.00    -0.020 C 
ATOM     21  C   UNL     1     137.717 132.931 137.810  1.00  0.00     0.005 C 
ATOM     22  C   UNL     1     137.788 133.875 140.560  1.00  0.00    -0.020 C 
ATOM     23  C   UNL     1     136.427 134.246 141.155  1.00  0.00     0.015 C 
ATOM     24  C   UNL     1     138.951 132.657 138.748  1.00  0.00     0.005 C 
ATOM     25  C   UNL     1     138.648 132.626 140.293  1.00  0.00     0.004 C 
ATOM     26  C   UNL     1     138.589 135.209 140.305  1.00  0.00     0.010 C 
ATOM     27  C   UNL     1     139.910 132.595 141.258  1.00  0.00    -0.006 C 
ATOM     28  C   UNL     1     140.048 135.119 140.801  1.00  0.00     0.033 C 
ATOM     29  C   UNL     1     140.252 134.017 141.846  1.00  0.00     0.120 C 
ATOM     30  C   UNL     1     141.167 132.027 140.549  1.00  0.00     0.014 C 
ATOM     31  C   UNL     1     139.607 131.627 142.436  1.00  0.00     0.014 C 
BRANCH  29  32
ATOM     32  O   UNL     1     139.447 134.324 142.962  1.00  0.00    -0.393 OA
ATOM     33  H   UNL     1     139.924 135.017 143.492  1.00  0.00     0.210 HD
ENDBRANCH  29  32
ENDBRANCH   8  10
ENDBRANCH   1   8
TORSDOF 6
ENDMDL
