MODEL 1
REMARK VINA RESULT:    -9.214      0.000      0.000
REMARK INTER + INTRA:         -17.224
REMARK INTER:                 -15.140
REMARK INTRA:                  -2.084
REMARK UNBOUND:                -2.084
REMARK SMILES COc1ccc([C@H]2CC(=O)c3c(O)cc(O[C@@H]4O[C@H](CO[C@@H]5O[C@H](C)[C@@H](O)[C@@H](O)[C@@H]5O)[C@H](O)[C@H](O)[C@H]4O)cc3O2)cc1O
REMARK SMILES IDX 19 1 32 2 34 3 36 4 17 5 18 6 20 7 21 8 22 9 25 10 24 11
REMARK SMILES IDX 26 12 23 13 28 14 30 15 27 16 29 18 31 20 33 22 35 24 16 26
REMARK SMILES IDX 15 27 14 28 38 29 12 30 39 31 11 32 40 33 9 34 7 35 10 36
REMARK SMILES IDX 8 37 13 38 6 40 41 41 5 42 42 43 4 44 3 45 43 46 2 48 1 49
REMARK SMILES IDX 37 50
REMARK H PARENT 27 17 29 19 31 21 33 23 35 25 13 39 43 47 37 51
REMARK Flexibility Score: inf
ROOT
ATOM      1  C   UNL     1      23.911  18.951 -14.923  1.00  0.00     0.180 C 
ATOM      2  C   UNL     1      24.890  17.939 -14.283  1.00  0.00     0.177 C 
ATOM      3  C   UNL     1      24.878  16.646 -15.123  1.00  0.00     0.180 C 
ATOM      4  C   UNL     1      25.124  16.956 -16.618  1.00  0.00     0.214 C 
ATOM      5  C   UNL     1      24.184  18.093 -17.071  1.00  0.00     0.339 C 
ATOM      6  O   UNL     1      24.318  19.244 -16.249  1.00  0.00    -0.332 OA
ENDROOT
BRANCH   1   7
ATOM      7  C   UNL     1      23.826  20.268 -14.128  1.00  0.00     0.198 C 
BRANCH   7   8
ATOM      8  O   UNL     1      24.078  21.386 -14.965  1.00  0.00    -0.347 OA
BRANCH   8   9
ATOM      9  C   UNL     1      22.884  22.107 -15.235  1.00  0.00     0.281 C 
ATOM     10  C   UNL     1      24.747  22.082 -17.715  1.00  0.00     0.041 C 
ATOM     11  C   UNL     1      23.403  22.786 -17.471  1.00  0.00     0.150 C 
ATOM     12  C   UNL     1      23.555  24.264 -17.050  1.00  0.00     0.174 C 
ATOM     13  O   UNL     1      22.538  22.047 -16.615  1.00  0.00    -0.344 OA
ATOM     14  C   UNL     1      23.963  24.369 -15.570  1.00  0.00     0.179 C 
ATOM     15  C   UNL     1      22.996  23.553 -14.709  1.00  0.00     0.202 C 
BRANCH  12  16
ATOM     16  O   UNL     1      22.329  24.921 -17.259  1.00  0.00    -0.388 OA
ATOM     17  H   UNL     1      21.788  24.342 -17.859  1.00  0.00     0.211 HD
ENDBRANCH  12  16
BRANCH  14  18
ATOM     18  O   UNL     1      23.946  25.708 -15.149  1.00  0.00    -0.387 OA
ATOM     19  H   UNL     1      24.563  25.770 -14.374  1.00  0.00     0.211 HD
ENDBRANCH  14  18
BRANCH  15  20
ATOM     20  O   UNL     1      23.444  23.552 -13.377  1.00  0.00    -0.385 OA
ATOM     21  H   UNL     1      22.685  23.241 -12.823  1.00  0.00     0.211 HD
ENDBRANCH  15  20
ENDBRANCH   8   9
ENDBRANCH   7   8
ENDBRANCH   1   7
BRANCH   2  22
ATOM     22  O   UNL     1      26.191  18.472 -14.248  1.00  0.00    -0.387 OA
ATOM     23  H   UNL     1      26.309  18.893 -13.358  1.00  0.00     0.211 HD
ENDBRANCH   2  22
BRANCH   3  24
ATOM     24  O   UNL     1      25.806  15.712 -14.627  1.00  0.00    -0.387 OA
ATOM     25  H   UNL     1      26.695  15.926 -15.016  1.00  0.00     0.211 HD
ENDBRANCH   3  24
BRANCH   5  26
ATOM     26  O   UNL     1      24.410  18.440 -18.443  1.00  0.00    -0.462 OA
BRANCH  26  27
ATOM     27  C   UNL     1      23.404  18.562 -19.410  1.00  0.00     0.130 A 
ATOM     28  C   UNL     1      23.611  19.426 -20.489  1.00  0.00     0.093 A 
ATOM     29  C   UNL     1      22.191  17.868 -19.308  1.00  0.00     0.094 A 
ATOM     30  C   UNL     1      22.634  19.576 -21.485  1.00  0.00     0.133 A 
ATOM     31  C   UNL     1      21.192  18.046 -20.266  1.00  0.00     0.138 A 
ATOM     32  C   UNL     1      21.414  18.874 -21.381  1.00  0.00     0.102 A 
ATOM     33  O   UNL     1      19.965  17.395 -20.099  1.00  0.00    -0.484 OA
ATOM     34  C   UNL     1      20.339  18.978 -22.399  1.00  0.00     0.174 C 
ATOM     35  C   UNL     1      18.777  17.774 -20.797  1.00  0.00     0.211 C 
ATOM     36  O   UNL     1      20.471  19.721 -23.407  1.00  0.00    -0.294 OA
ATOM     37  C   UNL     1      19.081  18.165 -22.259  1.00  0.00     0.131 C 
BRANCH  30  38
ATOM     38  O   UNL     1      22.883  20.419 -22.569  1.00  0.00    -0.507 OA
ATOM     39  H   UNL     1      22.526  21.367 -22.598  1.00  0.00     0.293 HD
ENDBRANCH  30  38
BRANCH  35  40
ATOM     40  C   UNL     1      18.040  18.851 -20.014  1.00  0.00    -0.003 A 
ATOM     41  C   UNL     1      18.529  19.248 -18.757  1.00  0.00     0.057 A 
ATOM     42  C   UNL     1      16.932  19.532 -20.550  1.00  0.00     0.011 A 
ATOM     43  C   UNL     1      17.921  20.289 -18.044  1.00  0.00     0.158 A 
ATOM     44  C   UNL     1      16.316  20.565 -19.839  1.00  0.00     0.051 A 
ATOM     45  C   UNL     1      16.805  20.956 -18.579  1.00  0.00     0.160 A 
BRANCH  43  46
ATOM     46  O   UNL     1      18.439  20.645 -16.798  1.00  0.00    -0.504 OA
ATOM     47  H   UNL     1      18.645  19.958 -16.084  1.00  0.00     0.293 HD
ENDBRANCH  43  46
BRANCH  45  48
ATOM     48  O   UNL     1      16.211  21.993 -17.844  1.00  0.00    -0.493 OA
ATOM     49  C   UNL     1      15.875  23.269 -18.379  1.00  0.00     0.278 C 
ENDBRANCH  45  48
ENDBRANCH  35  40
ENDBRANCH  26  27
ENDBRANCH   5  26
BRANCH   4  50
ATOM     50  O   UNL     1      24.872  15.813 -17.390  1.00  0.00    -0.384 OA
ATOM     51  H   UNL     1      25.048  16.055 -18.336  1.00  0.00     0.211 HD
ENDBRANCH   4  50
TORSDOF 15
ENDMDL
MODEL 2
REMARK VINA RESULT:    -9.024      5.457      8.111
REMARK INTER + INTRA:         -16.911
REMARK INTER:                 -16.086
REMARK INTRA:                  -0.825
REMARK UNBOUND:                -2.084
REMARK SMILES COc1ccc([C@H]2CC(=O)c3c(O)cc(O[C@@H]4O[C@H](CO[C@@H]5O[C@H](C)[C@@H](O)[C@@H](O)[C@@H]5O)[C@H](O)[C@H](O)[C@H]4O)cc3O2)cc1O
REMARK SMILES IDX 19 1 32 2 34 3 36 4 17 5 18 6 20 7 21 8 22 9 25 10 24 11
REMARK SMILES IDX 26 12 23 13 28 14 30 15 27 16 29 18 31 20 33 22 35 24 16 26
REMARK SMILES IDX 15 27 14 28 38 29 12 30 39 31 11 32 40 33 9 34 7 35 10 36
REMARK SMILES IDX 8 37 13 38 6 40 41 41 5 42 42 43 4 44 3 45 43 46 2 48 1 49
REMARK SMILES IDX 37 50
REMARK H PARENT 27 17 29 19 31 21 33 23 35 25 13 39 43 47 37 51
REMARK Flexibility Score: inf
ROOT
ATOM      1  C   UNL     1      22.070  17.432  -9.320  1.00  0.00     0.180 C 
ATOM      2  C   UNL     1      21.309  16.113  -9.593  1.00  0.00     0.177 C 
ATOM      3  C   UNL     1      20.774  16.146 -11.039  1.00  0.00     0.180 C 
ATOM      4  C   UNL     1      21.904  16.482 -12.039  1.00  0.00     0.214 C 
ATOM      5  C   UNL     1      22.673  17.727 -11.550  1.00  0.00     0.339 C 
ATOM      6  O   UNL     1      23.154  17.560 -10.224  1.00  0.00    -0.332 OA
ENDROOT
BRANCH   1   7
ATOM      7  C   UNL     1      22.612  17.510  -7.881  1.00  0.00     0.198 C 
BRANCH   7   8
ATOM      8  O   UNL     1      22.039  18.600  -7.177  1.00  0.00    -0.347 OA
BRANCH   8   9
ATOM      9  C   UNL     1      20.668  18.764  -7.509  1.00  0.00     0.281 C 
ATOM     10  C   UNL     1      21.729  21.223  -5.945  1.00  0.00     0.041 C 
ATOM     11  C   UNL     1      20.317  20.881  -6.447  1.00  0.00     0.150 C 
ATOM     12  C   UNL     1      19.418  20.254  -5.360  1.00  0.00     0.174 C 
ATOM     13  O   UNL     1      20.327  20.138  -7.662  1.00  0.00    -0.344 OA
ATOM     14  C   UNL     1      19.780  18.774  -5.142  1.00  0.00     0.179 C 
ATOM     15  C   UNL     1      19.774  18.037  -6.483  1.00  0.00     0.202 C 
BRANCH  12  16
ATOM     16  O   UNL     1      18.076  20.365  -5.765  1.00  0.00    -0.388 OA
ATOM     17  H   UNL     1      17.625  19.516  -5.514  1.00  0.00     0.211 HD
ENDBRANCH  12  16
BRANCH  14  18
ATOM     18  O   UNL     1      18.861  18.166  -4.271  1.00  0.00    -0.387 OA
ATOM     19  H   UNL     1      19.391  17.622  -3.633  1.00  0.00     0.211 HD
ENDBRANCH  14  18
BRANCH  15  20
ATOM     20  O   UNL     1      20.223  16.719  -6.294  1.00  0.00    -0.385 OA
ATOM     21  H   UNL     1      19.435  16.189  -6.014  1.00  0.00     0.211 HD
ENDBRANCH  15  20
ENDBRANCH   8   9
ENDBRANCH   7   8
ENDBRANCH   1   7
BRANCH   2  22
ATOM     22  O   UNL     1      22.166  15.011  -9.428  1.00  0.00    -0.387 OA
ATOM     23  H   UNL     1      22.505  15.044  -8.496  1.00  0.00     0.211 HD
ENDBRANCH   2  22
BRANCH   3  24
ATOM     24  O   UNL     1      20.131  14.938 -11.368  1.00  0.00    -0.387 OA
ATOM     25  H   UNL     1      19.640  14.622 -10.563  1.00  0.00     0.211 HD
ENDBRANCH   3  24
BRANCH   5  26
ATOM     26  O   UNL     1      23.758  18.048 -12.430  1.00  0.00    -0.462 OA
BRANCH  26  27
ATOM     27  C   UNL     1      23.743  19.090 -13.366  1.00  0.00     0.130 A 
ATOM     28  C   UNL     1      23.002  20.240 -13.079  1.00  0.00     0.093 A 
ATOM     29  C   UNL     1      24.423  18.997 -14.588  1.00  0.00     0.094 A 
ATOM     30  C   UNL     1      22.963  21.312 -13.983  1.00  0.00     0.133 A 
ATOM     31  C   UNL     1      24.352  20.037 -15.517  1.00  0.00     0.138 A 
ATOM     32  C   UNL     1      23.651  21.218 -15.212  1.00  0.00     0.102 A 
ATOM     33  O   UNL     1      24.981  19.886 -16.757  1.00  0.00    -0.484 OA
ATOM     34  C   UNL     1      23.659  22.314 -16.213  1.00  0.00     0.174 C 
ATOM     35  C   UNL     1      24.682  20.702 -17.890  1.00  0.00     0.211 C 
ATOM     36  O   UNL     1      23.031  23.385 -16.006  1.00  0.00    -0.294 OA
ATOM     37  C   UNL     1      24.453  22.174 -17.483  1.00  0.00     0.131 C 
BRANCH  30  38
ATOM     38  O   UNL     1      22.243  22.462 -13.654  1.00  0.00    -0.507 OA
ATOM     39  H   UNL     1      21.821  23.047 -14.365  1.00  0.00     0.293 HD
ENDBRANCH  30  38
BRANCH  35  40
ATOM     40  C   UNL     1      23.527  20.095 -18.673  1.00  0.00    -0.003 A 
ATOM     41  C   UNL     1      23.714  19.744 -20.021  1.00  0.00     0.057 A 
ATOM     42  C   UNL     1      22.298  19.784 -18.062  1.00  0.00     0.011 A 
ATOM     43  C   UNL     1      22.698  19.113 -20.750  1.00  0.00     0.158 A 
ATOM     44  C   UNL     1      21.278  19.163 -18.786  1.00  0.00     0.051 A 
ATOM     45  C   UNL     1      21.467  18.818 -20.137  1.00  0.00     0.160 A 
BRANCH  43  46
ATOM     46  O   UNL     1      22.930  18.789 -22.087  1.00  0.00    -0.504 OA
ATOM     47  H   UNL     1      22.229  18.339 -22.661  1.00  0.00     0.293 HD
ENDBRANCH  43  46
BRANCH  45  48
ATOM     48  O   UNL     1      20.463  18.189 -20.889  1.00  0.00    -0.493 OA
ATOM     49  C   UNL     1      19.175  17.849 -20.387  1.00  0.00     0.278 C 
ENDBRANCH  45  48
ENDBRANCH  35  40
ENDBRANCH  26  27
ENDBRANCH   5  26
BRANCH   4  50
ATOM     50  O   UNL     1      21.359  16.742 -13.305  1.00  0.00    -0.384 OA
ATOM     51  H   UNL     1      21.060  15.873 -13.679  1.00  0.00     0.211 HD
ENDBRANCH   4  50
TORSDOF 15
ENDMDL
MODEL 3
REMARK VINA RESULT:    -8.992      3.925      8.172
REMARK INTER + INTRA:         -16.859
REMARK INTER:                 -15.467
REMARK INTRA:                  -1.391
REMARK UNBOUND:                -2.084
REMARK SMILES COc1ccc([C@H]2CC(=O)c3c(O)cc(O[C@@H]4O[C@H](CO[C@@H]5O[C@H](C)[C@@H](O)[C@@H](O)[C@@H]5O)[C@H](O)[C@H](O)[C@H]4O)cc3O2)cc1O
REMARK SMILES IDX 19 1 32 2 34 3 36 4 17 5 18 6 20 7 21 8 22 9 25 10 24 11
REMARK SMILES IDX 26 12 23 13 28 14 30 15 27 16 29 18 31 20 33 22 35 24 16 26
REMARK SMILES IDX 15 27 14 28 38 29 12 30 39 31 11 32 40 33 9 34 7 35 10 36
REMARK SMILES IDX 8 37 13 38 6 40 41 41 5 42 42 43 4 44 3 45 43 46 2 48 1 49
REMARK SMILES IDX 37 50
REMARK H PARENT 27 17 29 19 31 21 33 23 35 25 13 39 43 47 37 51
REMARK Flexibility Score: inf
ROOT
ATOM      1  C   UNL     1      23.910  19.779 -16.123  1.00  0.00     0.180 C 
ATOM      2  C   UNL     1      23.568  19.109 -17.475  1.00  0.00     0.177 C 
ATOM      3  C   UNL     1      24.874  18.914 -18.271  1.00  0.00     0.180 C 
ATOM      4  C   UNL     1      25.937  18.185 -17.418  1.00  0.00     0.214 C 
ATOM      5  C   UNL     1      26.054  18.873 -16.041  1.00  0.00     0.339 C 
ATOM      6  O   UNL     1      24.796  18.953 -15.386  1.00  0.00    -0.332 OA
ENDROOT
BRANCH   1   7
ATOM      7  C   UNL     1      22.658  20.051 -15.269  1.00  0.00     0.198 C 
BRANCH   7   8
ATOM      8  O   UNL     1      22.319  21.428 -15.284  1.00  0.00    -0.347 OA
BRANCH   8   9
ATOM      9  C   UNL     1      23.474  22.242 -15.425  1.00  0.00     0.281 C 
ATOM     10  C   UNL     1      21.542  23.422 -13.305  1.00  0.00     0.041 C 
ATOM     11  C   UNL     1      22.864  23.961 -13.875  1.00  0.00     0.150 C 
ATOM     12  C   UNL     1      22.665  24.993 -15.007  1.00  0.00     0.174 C 
ATOM     13  O   UNL     1      23.782  22.928 -14.216  1.00  0.00    -0.344 OA
ATOM     14  C   UNL     1      22.296  24.290 -16.325  1.00  0.00     0.179 C 
ATOM     15  C   UNL     1      23.319  23.194 -16.630  1.00  0.00     0.202 C 
BRANCH  12  16
ATOM     16  O   UNL     1      23.856  25.722 -15.167  1.00  0.00    -0.388 OA
ATOM     17  H   UNL     1      24.558  25.250 -14.644  1.00  0.00     0.211 HD
ENDBRANCH  12  16
BRANCH  14  18
ATOM     18  O   UNL     1      22.271  25.212 -17.384  1.00  0.00    -0.387 OA
ATOM     19  H   UNL     1      21.584  24.892 -18.024  1.00  0.00     0.211 HD
ENDBRANCH  14  18
BRANCH  15  20
ATOM     20  O   UNL     1      22.911  22.477 -17.767  1.00  0.00    -0.385 OA
ATOM     21  H   UNL     1      22.265  23.053 -18.248  1.00  0.00     0.211 HD
ENDBRANCH  15  20
ENDBRANCH   8   9
ENDBRANCH   7   8
ENDBRANCH   1   7
BRANCH   2  22
ATOM     22  O   UNL     1      22.950  17.864 -17.260  1.00  0.00    -0.387 OA
ATOM     23  H   UNL     1      22.690  17.829 -16.304  1.00  0.00     0.211 HD
ENDBRANCH   2  22
BRANCH   3  24
ATOM     24  O   UNL     1      24.631  18.242 -19.483  1.00  0.00    -0.387 OA
ATOM     25  H   UNL     1      23.873  17.615 -19.341  1.00  0.00     0.211 HD
ENDBRANCH   3  24
BRANCH   5  26
ATOM     26  O   UNL     1      27.002  18.201 -15.202  1.00  0.00    -0.462 OA
BRANCH  26  27
ATOM     27  C   UNL     1      26.686  17.158 -14.321  1.00  0.00     0.130 A 
ATOM     28  C   UNL     1      26.309  15.921 -14.851  1.00  0.00     0.093 A 
ATOM     29  C   UNL     1      26.711  17.332 -12.930  1.00  0.00     0.094 A 
ATOM     30  C   UNL     1      25.991  14.846 -14.007  1.00  0.00     0.133 A 
ATOM     31  C   UNL     1      26.349  16.284 -12.081  1.00  0.00     0.138 A 
ATOM     32  C   UNL     1      26.019  15.023 -12.607  1.00  0.00     0.102 A 
ATOM     33  O   UNL     1      26.313  16.509 -10.701  1.00  0.00    -0.484 OA
ATOM     34  C   UNL     1      25.700  13.930 -11.655  1.00  0.00     0.174 C 
ATOM     35  C   UNL     1      25.629  15.651  -9.786  1.00  0.00     0.211 C 
ATOM     36  O   UNL     1      25.376  12.786 -12.066  1.00  0.00    -0.294 OA
ATOM     37  C   UNL     1      25.797  14.165 -10.172  1.00  0.00     0.131 C 
BRANCH  30  38
ATOM     38  O   UNL     1      25.651  13.613 -14.565  1.00  0.00    -0.507 OA
ATOM     39  H   UNL     1      26.247  12.800 -14.462  1.00  0.00     0.293 HD
ENDBRANCH  30  38
BRANCH  35  40
ATOM     40  C   UNL     1      24.178  16.091  -9.653  1.00  0.00    -0.003 A 
ATOM     41  C   UNL     1      23.175  15.380 -10.335  1.00  0.00     0.057 A 
ATOM     42  C   UNL     1      23.794  17.133  -8.790  1.00  0.00     0.011 A 
ATOM     43  C   UNL     1      21.823  15.708 -10.174  1.00  0.00     0.158 A 
ATOM     44  C   UNL     1      22.448  17.471  -8.632  1.00  0.00     0.051 A 
ATOM     45  C   UNL     1      21.448  16.761  -9.321  1.00  0.00     0.160 A 
BRANCH  43  46
ATOM     46  O   UNL     1      20.865  14.977 -10.876  1.00  0.00    -0.504 OA
ATOM     47  H   UNL     1      19.872  15.140 -10.761  1.00  0.00     0.293 HD
ENDBRANCH  43  46
BRANCH  45  48
ATOM     48  O   UNL     1      20.087  17.074  -9.179  1.00  0.00    -0.493 OA
ATOM     49  C   UNL     1      19.389  17.086  -7.938  1.00  0.00     0.278 C 
ENDBRANCH  45  48
ENDBRANCH  35  40
ENDBRANCH  26  27
ENDBRANCH   5  26
BRANCH   4  50
ATOM     50  O   UNL     1      27.181  18.232 -18.064  1.00  0.00    -0.384 OA
ATOM     51  H   UNL     1      27.819  17.714 -17.507  1.00  0.00     0.211 HD
ENDBRANCH   4  50
TORSDOF 15
ENDMDL
MODEL 4
REMARK VINA RESULT:    -8.946      4.308      8.407
REMARK INTER + INTRA:         -16.782
REMARK INTER:                 -15.370
REMARK INTRA:                  -1.413
REMARK UNBOUND:                -2.084
REMARK SMILES COc1ccc([C@H]2CC(=O)c3c(O)cc(O[C@@H]4O[C@H](CO[C@@H]5O[C@H](C)[C@@H](O)[C@@H](O)[C@@H]5O)[C@H](O)[C@H](O)[C@H]4O)cc3O2)cc1O
REMARK SMILES IDX 19 1 32 2 34 3 36 4 17 5 18 6 20 7 21 8 22 9 25 10 24 11
REMARK SMILES IDX 26 12 23 13 28 14 30 15 27 16 29 18 31 20 33 22 35 24 16 26
REMARK SMILES IDX 15 27 14 28 38 29 12 30 39 31 11 32 40 33 9 34 7 35 10 36
REMARK SMILES IDX 8 37 13 38 6 40 41 41 5 42 42 43 4 44 3 45 43 46 2 48 1 49
REMARK SMILES IDX 37 50
REMARK H PARENT 27 17 29 19 31 21 33 23 35 25 13 39 43 47 37 51
REMARK Flexibility Score: inf
ROOT
ATOM      1  C   UNL     1      24.415  19.621 -17.101  1.00  0.00     0.180 C 
ATOM      2  C   UNL     1      25.496  19.371 -18.179  1.00  0.00     0.177 C 
ATOM      3  C   UNL     1      26.642  18.557 -17.546  1.00  0.00     0.180 C 
ATOM      4  C   UNL     1      26.098  17.292 -16.843  1.00  0.00     0.214 C 
ATOM      5  C   UNL     1      24.923  17.679 -15.920  1.00  0.00     0.339 C 
ATOM      6  O   UNL     1      23.911  18.384 -16.626  1.00  0.00    -0.332 OA
ENDROOT
BRANCH   1   7
ATOM      7  C   UNL     1      23.241  20.464 -17.632  1.00  0.00     0.198 C 
BRANCH   7   8
ATOM      8  O   UNL     1      23.355  21.816 -17.218  1.00  0.00    -0.347 OA
BRANCH   8   9
ATOM      9  C   UNL     1      23.714  21.907 -15.847  1.00  0.00     0.281 C 
ATOM     10  C   UNL     1      20.804  22.884 -16.296  1.00  0.00     0.041 C 
ATOM     11  C   UNL     1      21.677  22.863 -15.031  1.00  0.00     0.150 C 
ATOM     12  C   UNL     1      22.359  24.217 -14.738  1.00  0.00     0.174 C 
ATOM     13  O   UNL     1      22.579  21.763 -14.998  1.00  0.00    -0.344 OA
ATOM     14  C   UNL     1      23.573  24.425 -15.661  1.00  0.00     0.179 C 
ATOM     15  C   UNL     1      24.499  23.209 -15.580  1.00  0.00     0.202 C 
BRANCH  12  16
ATOM     16  O   UNL     1      22.770  24.234 -13.393  1.00  0.00    -0.388 OA
ATOM     17  H   UNL     1      23.764  24.249 -13.393  1.00  0.00     0.211 HD
ENDBRANCH  12  16
BRANCH  14  18
ATOM     18  O   UNL     1      24.283  25.578 -15.288  1.00  0.00    -0.387 OA
ATOM     19  H   UNL     1      24.816  25.852 -16.079  1.00  0.00     0.211 HD
ENDBRANCH  14  18
BRANCH  15  20
ATOM     20  O   UNL     1      25.539  23.350 -16.514  1.00  0.00    -0.385 OA
ATOM     21  H   UNL     1      26.195  23.974 -16.114  1.00  0.00     0.211 HD
ENDBRANCH  15  20
ENDBRANCH   8   9
ENDBRANCH   7   8
ENDBRANCH   1   7
BRANCH   2  22
ATOM     22  O   UNL     1      24.950  18.662 -19.263  1.00  0.00    -0.387 OA
ATOM     23  H   UNL     1      25.518  17.861 -19.403  1.00  0.00     0.211 HD
ENDBRANCH   2  22
BRANCH   3  24
ATOM     24  O   UNL     1      27.624  18.238 -18.502  1.00  0.00    -0.387 OA
ATOM     25  H   UNL     1      27.465  18.801 -19.305  1.00  0.00     0.211 HD
ENDBRANCH   3  24
BRANCH   5  26
ATOM     26  O   UNL     1      24.362  16.525 -15.281  1.00  0.00    -0.462 OA
BRANCH  26  27
ATOM     27  C   UNL     1      24.579  16.173 -13.942  1.00  0.00     0.130 A 
ATOM     28  C   UNL     1      24.836  14.833 -13.634  1.00  0.00     0.093 A 
ATOM     29  C   UNL     1      24.517  17.117 -12.909  1.00  0.00     0.094 A 
ATOM     30  C   UNL     1      25.066  14.435 -12.309  1.00  0.00     0.133 A 
ATOM     31  C   UNL     1      24.696  16.724 -11.581  1.00  0.00     0.138 A 
ATOM     32  C   UNL     1      25.005  15.388 -11.270  1.00  0.00     0.102 A 
ATOM     33  O   UNL     1      24.556  17.676 -10.565  1.00  0.00    -0.484 OA
ATOM     34  C   UNL     1      25.244  15.039  -9.847  1.00  0.00     0.174 C 
ATOM     35  C   UNL     1      24.361  17.331  -9.192  1.00  0.00     0.211 C 
ATOM     36  O   UNL     1      25.503  13.856  -9.504  1.00  0.00    -0.294 OA
ATOM     37  C   UNL     1      25.216  16.109  -8.789  1.00  0.00     0.131 C 
BRANCH  30  38
ATOM     38  O   UNL     1      25.354  13.097 -12.035  1.00  0.00    -0.507 OA
ATOM     39  H   UNL     1      25.981  12.557 -12.620  1.00  0.00     0.293 HD
ENDBRANCH  30  38
BRANCH  35  40
ATOM     40  C   UNL     1      22.876  17.162  -8.909  1.00  0.00    -0.003 A 
ATOM     41  C   UNL     1      22.375  17.479  -7.634  1.00  0.00     0.057 A 
ATOM     42  C   UNL     1      21.965  16.785  -9.913  1.00  0.00     0.011 A 
ATOM     43  C   UNL     1      21.003  17.409  -7.360  1.00  0.00     0.158 A 
ATOM     44  C   UNL     1      20.597  16.705  -9.644  1.00  0.00     0.051 A 
ATOM     45  C   UNL     1      20.101  17.018  -8.365  1.00  0.00     0.160 A 
BRANCH  43  46
ATOM     46  O   UNL     1      20.555  17.730  -6.079  1.00  0.00    -0.504 OA
ATOM     47  H   UNL     1      20.790  17.170  -5.269  1.00  0.00     0.293 HD
ENDBRANCH  43  46
BRANCH  45  48
ATOM     48  O   UNL     1      18.731  16.953  -8.066  1.00  0.00    -0.493 OA
ATOM     49  C   UNL     1      17.719  16.591  -8.999  1.00  0.00     0.278 C 
ENDBRANCH  45  48
ENDBRANCH  35  40
ENDBRANCH  26  27
ENDBRANCH   5  26
BRANCH   4  50
ATOM     50  O   UNL     1      27.111  16.699 -16.076  1.00  0.00    -0.384 OA
ATOM     51  H   UNL     1      26.745  16.561 -15.164  1.00  0.00     0.211 HD
ENDBRANCH   4  50
TORSDOF 15
ENDMDL
MODEL 5
REMARK VINA RESULT:    -8.920      3.851      9.273
REMARK INTER + INTRA:         -16.739
REMARK INTER:                 -15.593
REMARK INTRA:                  -1.146
REMARK UNBOUND:                -2.084
REMARK SMILES COc1ccc([C@H]2CC(=O)c3c(O)cc(O[C@@H]4O[C@H](CO[C@@H]5O[C@H](C)[C@@H](O)[C@@H](O)[C@@H]5O)[C@H](O)[C@H](O)[C@H]4O)cc3O2)cc1O
REMARK SMILES IDX 19 1 32 2 34 3 36 4 17 5 18 6 20 7 21 8 22 9 25 10 24 11
REMARK SMILES IDX 26 12 23 13 28 14 30 15 27 16 29 18 31 20 33 22 35 24 16 26
REMARK SMILES IDX 15 27 14 28 38 29 12 30 39 31 11 32 40 33 9 34 7 35 10 36
REMARK SMILES IDX 8 37 13 38 6 40 41 41 5 42 42 43 4 44 3 45 43 46 2 48 1 49
REMARK SMILES IDX 37 50
REMARK H PARENT 27 17 29 19 31 21 33 23 35 25 13 39 43 47 37 51
REMARK Flexibility Score: inf
ROOT
ATOM      1  C   UNL     1      25.295  19.887 -17.994  1.00  0.00     0.180 C 
ATOM      2  C   UNL     1      23.875  19.416 -18.387  1.00  0.00     0.177 C 
ATOM      3  C   UNL     1      23.895  17.884 -18.556  1.00  0.00     0.180 C 
ATOM      4  C   UNL     1      24.503  17.199 -17.310  1.00  0.00     0.214 C 
ATOM      5  C   UNL     1      25.839  17.880 -16.946  1.00  0.00     0.339 C 
ATOM      6  O   UNL     1      25.684  19.282 -16.773  1.00  0.00    -0.332 OA
ENDROOT
BRANCH   1   7
ATOM      7  C   UNL     1      25.383  21.417 -17.839  1.00  0.00     0.198 C 
BRANCH   7   8
ATOM      8  O   UNL     1      24.239  21.930 -17.175  1.00  0.00    -0.347 OA
BRANCH   8   9
ATOM      9  C   UNL     1      24.526  23.162 -16.530  1.00  0.00     0.281 C 
ATOM     10  C   UNL     1      22.892  21.294 -14.669  1.00  0.00     0.041 C 
ATOM     11  C   UNL     1      23.370  22.743 -14.477  1.00  0.00     0.150 C 
ATOM     12  C   UNL     1      22.285  23.792 -14.804  1.00  0.00     0.174 C 
ATOM     13  O   UNL     1      24.613  23.005 -15.117  1.00  0.00    -0.344 OA
ATOM     14  C   UNL     1      22.137  23.964 -16.326  1.00  0.00     0.179 C 
ATOM     15  C   UNL     1      23.507  24.242 -16.950  1.00  0.00     0.202 C 
BRANCH  12  16
ATOM     16  O   UNL     1      22.648  25.015 -14.215  1.00  0.00    -0.388 OA
ATOM     17  H   UNL     1      22.265  25.021 -13.298  1.00  0.00     0.211 HD
ENDBRANCH  12  16
BRANCH  14  18
ATOM     18  O   UNL     1      21.268  25.027 -16.619  1.00  0.00    -0.387 OA
ATOM     19  H   UNL     1      20.387  24.624 -16.834  1.00  0.00     0.211 HD
ENDBRANCH  14  18
BRANCH  15  20
ATOM     20  O   UNL     1      23.385  24.276 -18.349  1.00  0.00    -0.385 OA
ATOM     21  H   UNL     1      22.888  25.104 -18.569  1.00  0.00     0.211 HD
ENDBRANCH  15  20
ENDBRANCH   8   9
ENDBRANCH   7   8
ENDBRANCH   1   7
BRANCH   2  22
ATOM     22  O   UNL     1      22.948  19.773 -17.392  1.00  0.00    -0.387 OA
ATOM     23  H   UNL     1      22.600  20.671 -17.627  1.00  0.00     0.211 HD
ENDBRANCH   2  22
BRANCH   3  24
ATOM     24  O   UNL     1      22.610  17.389 -18.845  1.00  0.00    -0.387 OA
ATOM     25  H   UNL     1      22.296  17.821 -19.684  1.00  0.00     0.211 HD
ENDBRANCH   3  24
BRANCH   5  26
ATOM     26  O   UNL     1      26.415  17.300 -15.769  1.00  0.00    -0.462 OA
BRANCH  26  27
ATOM     27  C   UNL     1      25.788  17.252 -14.517  1.00  0.00     0.130 A 
ATOM     28  C   UNL     1      25.836  18.384 -13.698  1.00  0.00     0.093 A 
ATOM     29  C   UNL     1      25.145  16.096 -14.056  1.00  0.00     0.094 A 
ATOM     30  C   UNL     1      25.217  18.384 -12.439  1.00  0.00     0.133 A 
ATOM     31  C   UNL     1      24.568  16.068 -12.785  1.00  0.00     0.138 A 
ATOM     32  C   UNL     1      24.567  17.219 -11.977  1.00  0.00     0.102 A 
ATOM     33  O   UNL     1      23.996  14.877 -12.323  1.00  0.00    -0.484 OA
ATOM     34  C   UNL     1      23.887  17.149 -10.660  1.00  0.00     0.174 C 
ATOM     35  C   UNL     1      23.710  14.630 -10.946  1.00  0.00     0.211 C 
ATOM     36  O   UNL     1      23.873  18.140  -9.885  1.00  0.00    -0.294 OA
ATOM     37  C   UNL     1      23.167  15.895 -10.245  1.00  0.00     0.131 C 
BRANCH  30  38
ATOM     38  O   UNL     1      25.251  19.540 -11.658  1.00  0.00    -0.507 OA
ATOM     39  H   UNL     1      24.402  19.996 -11.345  1.00  0.00     0.293 HD
ENDBRANCH  30  38
BRANCH  35  40
ATOM     40  C   UNL     1      24.930  14.027 -10.265  1.00  0.00    -0.003 A 
ATOM     41  C   UNL     1      25.803  14.861  -9.546  1.00  0.00     0.057 A 
ATOM     42  C   UNL     1      25.163  12.639 -10.252  1.00  0.00     0.011 A 
ATOM     43  C   UNL     1      26.892  14.330  -8.843  1.00  0.00     0.158 A 
ATOM     44  C   UNL     1      26.253  12.105  -9.561  1.00  0.00     0.051 A 
ATOM     45  C   UNL     1      27.128  12.944  -8.847  1.00  0.00     0.160 A 
BRANCH  43  46
ATOM     46  O   UNL     1      27.734  15.199  -8.148  1.00  0.00    -0.504 OA
ATOM     47  H   UNL     1      28.098  16.045  -8.566  1.00  0.00     0.293 HD
ENDBRANCH  43  46
BRANCH  45  48
ATOM     48  O   UNL     1      28.227  12.436  -8.138  1.00  0.00    -0.493 OA
ATOM     49  C   UNL     1      28.214  12.117  -6.751  1.00  0.00     0.278 C 
ENDBRANCH  45  48
ENDBRANCH  35  40
ENDBRANCH  26  27
ENDBRANCH   5  26
BRANCH   4  50
ATOM     50  O   UNL     1      24.734  15.842 -17.577  1.00  0.00    -0.384 OA
ATOM     51  H   UNL     1      23.857  15.433 -17.796  1.00  0.00     0.211 HD
ENDBRANCH   4  50
TORSDOF 15
ENDMDL
MODEL 6
REMARK VINA RESULT:    -8.896      5.398      8.213
REMARK INTER + INTRA:         -16.700
REMARK INTER:                 -15.107
REMARK INTRA:                  -1.593
REMARK UNBOUND:                -2.084
REMARK SMILES COc1ccc([C@H]2CC(=O)c3c(O)cc(O[C@@H]4O[C@H](CO[C@@H]5O[C@H](C)[C@@H](O)[C@@H](O)[C@@H]5O)[C@H](O)[C@H](O)[C@H]4O)cc3O2)cc1O
REMARK SMILES IDX 19 1 32 2 34 3 36 4 17 5 18 6 20 7 21 8 22 9 25 10 24 11
REMARK SMILES IDX 26 12 23 13 28 14 30 15 27 16 29 18 31 20 33 22 35 24 16 26
REMARK SMILES IDX 15 27 14 28 38 29 12 30 39 31 11 32 40 33 9 34 7 35 10 36
REMARK SMILES IDX 8 37 13 38 6 40 41 41 5 42 42 43 4 44 3 45 43 46 2 48 1 49
REMARK SMILES IDX 37 50
REMARK H PARENT 27 17 29 19 31 21 33 23 35 25 13 39 43 47 37 51
REMARK Flexibility Score: inf
ROOT
ATOM      1  C   UNL     1      22.028  16.437 -10.582  1.00  0.00     0.180 C 
ATOM      2  C   UNL     1      21.880  15.272  -9.575  1.00  0.00     0.177 C 
ATOM      3  C   UNL     1      22.235  13.955 -10.293  1.00  0.00     0.180 C 
ATOM      4  C   UNL     1      23.609  14.059 -10.992  1.00  0.00     0.214 C 
ATOM      5  C   UNL     1      23.664  15.351 -11.835  1.00  0.00     0.339 C 
ATOM      6  O   UNL     1      23.363  16.499 -11.055  1.00  0.00    -0.332 OA
ENDROOT
BRANCH   1   7
ATOM      7  C   UNL     1      21.657  17.798  -9.964  1.00  0.00     0.198 C 
BRANCH   7   8
ATOM      8  O   UNL     1      21.171  17.642  -8.641  1.00  0.00    -0.347 OA
BRANCH   8   9
ATOM      9  C   UNL     1      20.032  18.457  -8.410  1.00  0.00     0.281 C 
ATOM     10  C   UNL     1      22.187  18.928  -6.230  1.00  0.00     0.041 C 
ATOM     11  C   UNL     1      20.765  19.492  -6.380  1.00  0.00     0.150 C 
ATOM     12  C   UNL     1      19.715  18.731  -5.542  1.00  0.00     0.174 C 
ATOM     13  O   UNL     1      20.379  19.665  -7.739  1.00  0.00    -0.344 OA
ATOM     14  C   UNL     1      19.339  17.401  -6.219  1.00  0.00     0.179 C 
ATOM     15  C   UNL     1      18.936  17.658  -7.674  1.00  0.00     0.202 C 
BRANCH  12  16
ATOM     16  O   UNL     1      18.574  19.541  -5.406  1.00  0.00    -0.388 OA
ATOM     17  H   UNL     1      18.473  19.742  -4.438  1.00  0.00     0.211 HD
ENDBRANCH  12  16
BRANCH  14  18
ATOM     18  O   UNL     1      18.273  16.789  -5.542  1.00  0.00    -0.387 OA
ATOM     19  H   UNL     1      17.616  17.504  -5.339  1.00  0.00     0.211 HD
ENDBRANCH  14  18
BRANCH  15  20
ATOM     20  O   UNL     1      18.712  16.430  -8.320  1.00  0.00    -0.385 OA
ATOM     21  H   UNL     1      19.083  16.520  -9.233  1.00  0.00     0.211 HD
ENDBRANCH  15  20
ENDBRANCH   8   9
ENDBRANCH   7   8
ENDBRANCH   1   7
BRANCH   2  22
ATOM     22  O   UNL     1      22.738  15.462  -8.478  1.00  0.00    -0.387 OA
ATOM     23  H   UNL     1      22.165  15.609  -7.682  1.00  0.00     0.211 HD
ENDBRANCH   2  22
BRANCH   3  24
ATOM     24  O   UNL     1      22.185  12.865  -9.404  1.00  0.00    -0.387 OA
ATOM     25  H   UNL     1      21.447  12.266  -9.693  1.00  0.00     0.211 HD
ENDBRANCH   3  24
BRANCH   5  26
ATOM     26  O   UNL     1      24.940  15.506 -12.467  1.00  0.00    -0.462 OA
BRANCH  26  27
ATOM     27  C   UNL     1      25.156  16.198 -13.667  1.00  0.00     0.130 A 
ATOM     28  C   UNL     1      26.470  16.440 -14.076  1.00  0.00     0.093 A 
ATOM     29  C   UNL     1      24.094  16.676 -14.446  1.00  0.00     0.094 A 
ATOM     30  C   UNL     1      26.735  17.123 -15.273  1.00  0.00     0.133 A 
ATOM     31  C   UNL     1      24.344  17.400 -15.614  1.00  0.00     0.138 A 
ATOM     32  C   UNL     1      25.663  17.601 -16.057  1.00  0.00     0.102 A 
ATOM     33  O   UNL     1      23.265  17.926 -16.332  1.00  0.00    -0.484 OA
ATOM     34  C   UNL     1      25.867  18.326 -17.336  1.00  0.00     0.174 C 
ATOM     35  C   UNL     1      23.407  18.959 -17.309  1.00  0.00     0.211 C 
ATOM     36  O   UNL     1      27.025  18.556 -17.773  1.00  0.00    -0.294 OA
ATOM     37  C   UNL     1      24.684  18.767 -18.155  1.00  0.00     0.131 C 
BRANCH  30  38
ATOM     38  O   UNL     1      28.057  17.319 -15.673  1.00  0.00    -0.507 OA
ATOM     39  H   UNL     1      28.822  16.806 -15.252  1.00  0.00     0.293 HD
ENDBRANCH  30  38
BRANCH  35  40
ATOM     40  C   UNL     1      23.314  20.321 -16.638  1.00  0.00    -0.003 A 
ATOM     41  C   UNL     1      22.051  20.857 -16.332  1.00  0.00     0.057 A 
ATOM     42  C   UNL     1      24.460  21.025 -16.224  1.00  0.00     0.011 A 
ATOM     43  C   UNL     1      21.929  22.072 -15.646  1.00  0.00     0.158 A 
ATOM     44  C   UNL     1      24.345  22.242 -15.547  1.00  0.00     0.051 A 
ATOM     45  C   UNL     1      23.078  22.777 -15.248  1.00  0.00     0.160 A 
BRANCH  43  46
ATOM     46  O   UNL     1      20.653  22.565 -15.370  1.00  0.00    -0.504 OA
ATOM     47  H   UNL     1      20.232  23.306 -15.916  1.00  0.00     0.293 HD
ENDBRANCH  43  46
BRANCH  45  48
ATOM     48  O   UNL     1      22.931  23.994 -14.564  1.00  0.00    -0.493 OA
ATOM     49  C   UNL     1      23.033  25.277 -15.172  1.00  0.00     0.278 C 
ENDBRANCH  45  48
ENDBRANCH  35  40
ENDBRANCH  26  27
ENDBRANCH   5  26
BRANCH   4  50
ATOM     50  O   UNL     1      23.804  12.952 -11.831  1.00  0.00    -0.384 OA
ATOM     51  H   UNL     1      23.809  13.290 -12.764  1.00  0.00     0.211 HD
ENDBRANCH   4  50
TORSDOF 15
ENDMDL
MODEL 7
REMARK VINA RESULT:    -8.774      5.781      9.208
REMARK INTER + INTRA:         -16.500
REMARK INTER:                 -14.862
REMARK INTRA:                  -1.638
REMARK UNBOUND:                -2.084
REMARK SMILES COc1ccc([C@H]2CC(=O)c3c(O)cc(O[C@@H]4O[C@H](CO[C@@H]5O[C@H](C)[C@@H](O)[C@@H](O)[C@@H]5O)[C@H](O)[C@H](O)[C@H]4O)cc3O2)cc1O
REMARK SMILES IDX 19 1 32 2 34 3 36 4 17 5 18 6 20 7 21 8 22 9 25 10 24 11
REMARK SMILES IDX 26 12 23 13 28 14 30 15 27 16 29 18 31 20 33 22 35 24 16 26
REMARK SMILES IDX 15 27 14 28 38 29 12 30 39 31 11 32 40 33 9 34 7 35 10 36
REMARK SMILES IDX 8 37 13 38 6 40 41 41 5 42 42 43 4 44 3 45 43 46 2 48 1 49
REMARK SMILES IDX 37 50
REMARK H PARENT 27 17 29 19 31 21 33 23 35 25 13 39 43 47 37 51
REMARK Flexibility Score: inf
ROOT
ATOM      1  C   UNL     1      31.544  18.687 -18.637  1.00  0.00     0.180 C 
ATOM      2  C   UNL     1      32.556  18.872 -17.482  1.00  0.00     0.177 C 
ATOM      3  C   UNL     1      31.772  19.134 -16.180  1.00  0.00     0.180 C 
ATOM      4  C   UNL     1      30.697  18.047 -15.954  1.00  0.00     0.214 C 
ATOM      5  C   UNL     1      29.869  17.865 -17.244  1.00  0.00     0.339 C 
ATOM      6  O   UNL     1      30.696  17.584 -18.364  1.00  0.00    -0.332 OA
ENDROOT
BRANCH   1   7
ATOM      7  C   UNL     1      32.237  18.457 -19.993  1.00  0.00     0.198 C 
BRANCH   7   8
ATOM      8  O   UNL     1      31.990  17.146 -20.476  1.00  0.00    -0.347 OA
BRANCH   8   9
ATOM      9  C   UNL     1      33.077  16.278 -20.189  1.00  0.00     0.281 C 
ATOM     10  C   UNL     1      32.734  16.647 -23.250  1.00  0.00     0.041 C 
ATOM     11  C   UNL     1      33.692  15.756 -22.443  1.00  0.00     0.150 C 
ATOM     12  C   UNL     1      33.200  14.299 -22.304  1.00  0.00     0.174 C 
ATOM     13  O   UNL     1      34.076  16.338 -21.202  1.00  0.00    -0.344 OA
ATOM     14  C   UNL     1      32.092  14.199 -21.240  1.00  0.00     0.179 C 
ATOM     15  C   UNL     1      32.569  14.843 -19.936  1.00  0.00     0.202 C 
BRANCH  12  16
ATOM     16  O   UNL     1      34.289  13.488 -21.942  1.00  0.00    -0.388 OA
ATOM     17  H   UNL     1      34.016  12.978 -21.133  1.00  0.00     0.211 HD
ENDBRANCH  12  16
BRANCH  14  18
ATOM     18  O   UNL     1      31.758  12.856 -21.002  1.00  0.00    -0.387 OA
ATOM     19  H   UNL     1      31.118  12.592 -21.713  1.00  0.00     0.211 HD
ENDBRANCH  14  18
BRANCH  15  20
ATOM     20  O   UNL     1      31.513  14.858 -19.009  1.00  0.00    -0.385 OA
ATOM     21  H   UNL     1      31.882  15.221 -18.165  1.00  0.00     0.211 HD
ENDBRANCH  15  20
ENDBRANCH   8   9
ENDBRANCH   7   8
ENDBRANCH   1   7
BRANCH   2  22
ATOM     22  O   UNL     1      33.348  17.720 -17.337  1.00  0.00    -0.387 OA
ATOM     23  H   UNL     1      34.291  18.020 -17.273  1.00  0.00     0.211 HD
ENDBRANCH   2  22
BRANCH   3  24
ATOM     24  O   UNL     1      32.642  19.240 -15.079  1.00  0.00    -0.387 OA
ATOM     25  H   UNL     1      32.902  20.194 -14.983  1.00  0.00     0.211 HD
ENDBRANCH   3  24
BRANCH   5  26
ATOM     26  O   UNL     1      28.885  16.834 -17.090  1.00  0.00    -0.462 OA
BRANCH  26  27
ATOM     27  C   UNL     1      27.554  17.053 -16.712  1.00  0.00     0.130 A 
ATOM     28  C   UNL     1      26.864  16.028 -16.058  1.00  0.00     0.093 A 
ATOM     29  C   UNL     1      26.892  18.255 -16.997  1.00  0.00     0.094 A 
ATOM     30  C   UNL     1      25.532  16.205 -15.655  1.00  0.00     0.133 A 
ATOM     31  C   UNL     1      25.552  18.425 -16.644  1.00  0.00     0.138 A 
ATOM     32  C   UNL     1      24.868  17.417 -15.941  1.00  0.00     0.102 A 
ATOM     33  O   UNL     1      24.898  19.608 -17.006  1.00  0.00    -0.484 OA
ATOM     34  C   UNL     1      23.463  17.677 -15.539  1.00  0.00     0.174 C 
ATOM     35  C   UNL     1      23.476  19.740 -17.022  1.00  0.00     0.211 C 
ATOM     36  O   UNL     1      22.792  16.805 -14.928  1.00  0.00    -0.294 OA
ATOM     37  C   UNL     1      22.826  19.009 -15.827  1.00  0.00     0.131 C 
BRANCH  30  38
ATOM     38  O   UNL     1      24.879  15.177 -14.973  1.00  0.00    -0.507 OA
ATOM     39  H   UNL     1      25.193  14.858 -14.065  1.00  0.00     0.293 HD
ENDBRANCH  30  38
BRANCH  35  40
ATOM     40  C   UNL     1      22.932  19.308 -18.376  1.00  0.00    -0.003 A 
ATOM     41  C   UNL     1      21.545  19.324 -18.601  1.00  0.00     0.057 A 
ATOM     42  C   UNL     1      23.782  18.982 -19.448  1.00  0.00     0.011 A 
ATOM     43  C   UNL     1      21.014  19.007 -19.858  1.00  0.00     0.158 A 
ATOM     44  C   UNL     1      23.259  18.657 -20.702  1.00  0.00     0.051 A 
ATOM     45  C   UNL     1      21.869  18.668 -20.921  1.00  0.00     0.160 A 
BRANCH  43  46
ATOM     46  O   UNL     1      19.630  19.031 -20.030  1.00  0.00    -0.504 OA
ATOM     47  H   UNL     1      19.196  19.429 -20.854  1.00  0.00     0.293 HD
ENDBRANCH  43  46
BRANCH  45  48
ATOM     48  O   UNL     1      21.314  18.351 -22.170  1.00  0.00    -0.493 OA
ATOM     49  C   UNL     1      21.828  18.803 -23.418  1.00  0.00     0.278 C 
ENDBRANCH  45  48
ENDBRANCH  35  40
ENDBRANCH  26  27
ENDBRANCH   5  26
BRANCH   4  50
ATOM     50  O   UNL     1      29.844  18.428 -14.909  1.00  0.00    -0.384 OA
ATOM     51  H   UNL     1      29.015  18.785 -15.322  1.00  0.00     0.211 HD
ENDBRANCH   4  50
TORSDOF 15
ENDMDL
MODEL 8
REMARK VINA RESULT:    -8.718      4.754      8.482
REMARK INTER + INTRA:         -16.409
REMARK INTER:                 -15.136
REMARK INTRA:                  -1.273
REMARK UNBOUND:                -2.084
REMARK SMILES COc1ccc([C@H]2CC(=O)c3c(O)cc(O[C@@H]4O[C@H](CO[C@@H]5O[C@H](C)[C@@H](O)[C@@H](O)[C@@H]5O)[C@H](O)[C@H](O)[C@H]4O)cc3O2)cc1O
REMARK SMILES IDX 19 1 32 2 34 3 36 4 17 5 18 6 20 7 21 8 22 9 25 10 24 11
REMARK SMILES IDX 26 12 23 13 28 14 30 15 27 16 29 18 31 20 33 22 35 24 16 26
REMARK SMILES IDX 15 27 14 28 38 29 12 30 39 31 11 32 40 33 9 34 7 35 10 36
REMARK SMILES IDX 8 37 13 38 6 40 41 41 5 42 42 43 4 44 3 45 43 46 2 48 1 49
REMARK SMILES IDX 37 50
REMARK H PARENT 27 17 29 19 31 21 33 23 35 25 13 39 43 47 37 51
REMARK Flexibility Score: inf
ROOT
ATOM      1  C   UNL     1      25.637  19.353 -16.192  1.00  0.00     0.180 C 
ATOM      2  C   UNL     1      26.201  17.965 -16.577  1.00  0.00     0.177 C 
ATOM      3  C   UNL     1      27.301  17.585 -15.565  1.00  0.00     0.180 C 
ATOM      4  C   UNL     1      26.786  17.715 -14.113  1.00  0.00     0.214 C 
ATOM      5  C   UNL     1      26.109  19.089 -13.927  1.00  0.00     0.339 C 
ATOM      6  O   UNL     1      25.084  19.305 -14.887  1.00  0.00    -0.332 OA
ENDROOT
BRANCH   1   7
ATOM      7  C   UNL     1      24.552  19.837 -17.172  1.00  0.00     0.198 C 
BRANCH   7   8
ATOM      8  O   UNL     1      23.462  20.423 -16.479  1.00  0.00    -0.347 OA
BRANCH   8   9
ATOM      9  C   UNL     1      22.707  21.273 -17.329  1.00  0.00     0.281 C 
ATOM     10  C   UNL     1      24.609  22.926 -15.520  1.00  0.00     0.041 C 
ATOM     11  C   UNL     1      23.542  23.371 -16.534  1.00  0.00     0.150 C 
ATOM     12  C   UNL     1      22.190  23.730 -15.880  1.00  0.00     0.174 C 
ATOM     13  O   UNL     1      23.412  22.473 -17.631  1.00  0.00    -0.344 OA
ATOM     14  C   UNL     1      21.412  22.455 -15.507  1.00  0.00     0.179 C 
ATOM     15  C   UNL     1      21.311  21.536 -16.727  1.00  0.00     0.202 C 
BRANCH  12  16
ATOM     16  O   UNL     1      21.442  24.503 -16.784  1.00  0.00    -0.388 OA
ATOM     17  H   UNL     1      22.025  25.252 -17.077  1.00  0.00     0.211 HD
ENDBRANCH  12  16
BRANCH  14  18
ATOM     18  O   UNL     1      20.121  22.780 -15.060  1.00  0.00    -0.387 OA
ATOM     19  H   UNL     1      20.234  23.380 -14.278  1.00  0.00     0.211 HD
ENDBRANCH  14  18
BRANCH  15  20
ATOM     20  O   UNL     1      20.707  20.325 -16.350  1.00  0.00    -0.385 OA
ATOM     21  H   UNL     1      21.030  19.638 -16.986  1.00  0.00     0.211 HD
ENDBRANCH  15  20
ENDBRANCH   8   9
ENDBRANCH   7   8
ENDBRANCH   1   7
BRANCH   2  22
ATOM     22  O   UNL     1      25.179  16.999 -16.555  1.00  0.00    -0.387 OA
ATOM     23  H   UNL     1      24.486  17.323 -15.925  1.00  0.00     0.211 HD
ENDBRANCH   2  22
BRANCH   3  24
ATOM     24  O   UNL     1      27.803  16.296 -15.824  1.00  0.00    -0.387 OA
ATOM     25  H   UNL     1      27.335  15.657 -15.223  1.00  0.00     0.211 HD
ENDBRANCH   3  24
BRANCH   5  26
ATOM     26  O   UNL     1      25.579  19.233 -12.603  1.00  0.00    -0.462 OA
BRANCH  26  27
ATOM     27  C   UNL     1      24.604  18.399 -12.041  1.00  0.00     0.130 A 
ATOM     28  C   UNL     1      23.559  17.946 -12.852  1.00  0.00     0.093 A 
ATOM     29  C   UNL     1      24.633  18.034 -10.688  1.00  0.00     0.094 A 
ATOM     30  C   UNL     1      22.564  17.103 -12.334  1.00  0.00     0.133 A 
ATOM     31  C   UNL     1      23.622  17.236 -10.150  1.00  0.00     0.138 A 
ATOM     32  C   UNL     1      22.596  16.735 -10.972  1.00  0.00     0.102 A 
ATOM     33  O   UNL     1      23.639  16.948  -8.781  1.00  0.00    -0.484 OA
ATOM     34  C   UNL     1      21.582  15.843 -10.358  1.00  0.00     0.174 C 
ATOM     35  C   UNL     1      22.498  16.462  -8.070  1.00  0.00     0.211 C 
ATOM     36  O   UNL     1      20.628  15.381 -11.037  1.00  0.00    -0.294 OA
ATOM     37  C   UNL     1      21.699  15.444  -8.911  1.00  0.00     0.131 C 
BRANCH  30  38
ATOM     38  O   UNL     1      21.552  16.638 -13.175  1.00  0.00    -0.507 OA
ATOM     39  H   UNL     1      21.752  16.039 -13.967  1.00  0.00     0.293 HD
ENDBRANCH  30  38
BRANCH  35  40
ATOM     40  C   UNL     1      21.666  17.633  -7.568  1.00  0.00    -0.003 A 
ATOM     41  C   UNL     1      22.292  18.673  -6.860  1.00  0.00     0.057 A 
ATOM     42  C   UNL     1      20.298  17.757  -7.873  1.00  0.00     0.011 A 
ATOM     43  C   UNL     1      21.572  19.802  -6.450  1.00  0.00     0.158 A 
ATOM     44  C   UNL     1      19.573  18.877  -7.460  1.00  0.00     0.051 A 
ATOM     45  C   UNL     1      20.202  19.913  -6.746  1.00  0.00     0.160 A 
BRANCH  43  46
ATOM     46  O   UNL     1      22.237  20.806  -5.745  1.00  0.00    -0.504 OA
ATOM     47  H   UNL     1      22.578  20.667  -4.802  1.00  0.00     0.293 HD
ENDBRANCH  43  46
BRANCH  45  48
ATOM     48  O   UNL     1      19.501  21.053  -6.323  1.00  0.00    -0.493 OA
ATOM     49  C   UNL     1      18.106  21.082  -6.041  1.00  0.00     0.278 C 
ENDBRANCH  45  48
ENDBRANCH  35  40
ENDBRANCH  26  27
ENDBRANCH   5  26
BRANCH   4  50
ATOM     50  O   UNL     1      27.856  17.601 -13.215  1.00  0.00    -0.384 OA
ATOM     51  H   UNL     1      28.010  16.632 -13.065  1.00  0.00     0.211 HD
ENDBRANCH   4  50
TORSDOF 15
ENDMDL
MODEL 9
REMARK VINA RESULT:    -8.714      4.446      9.232
REMARK INTER + INTRA:         -16.401
REMARK INTER:                 -14.415
REMARK INTRA:                  -1.987
REMARK UNBOUND:                -2.084
REMARK SMILES COc1ccc([C@H]2CC(=O)c3c(O)cc(O[C@@H]4O[C@H](CO[C@@H]5O[C@H](C)[C@@H](O)[C@@H](O)[C@@H]5O)[C@H](O)[C@H](O)[C@H]4O)cc3O2)cc1O
REMARK SMILES IDX 19 1 32 2 34 3 36 4 17 5 18 6 20 7 21 8 22 9 25 10 24 11
REMARK SMILES IDX 26 12 23 13 28 14 30 15 27 16 29 18 31 20 33 22 35 24 16 26
REMARK SMILES IDX 15 27 14 28 38 29 12 30 39 31 11 32 40 33 9 34 7 35 10 36
REMARK SMILES IDX 8 37 13 38 6 40 41 41 5 42 42 43 4 44 3 45 43 46 2 48 1 49
REMARK SMILES IDX 37 50
REMARK H PARENT 27 17 29 19 31 21 33 23 35 25 13 39 43 47 37 51
REMARK Flexibility Score: inf
ROOT
ATOM      1  C   UNL     1      23.401  14.726  -8.926  1.00  0.00     0.180 C 
ATOM      2  C   UNL     1      22.029  14.566  -9.621  1.00  0.00     0.177 C 
ATOM      3  C   UNL     1      21.345  15.946  -9.680  1.00  0.00     0.180 C 
ATOM      4  C   UNL     1      22.286  17.004 -10.301  1.00  0.00     0.214 C 
ATOM      5  C   UNL     1      23.666  16.935  -9.611  1.00  0.00     0.339 C 
ATOM      6  O   UNL     1      24.213  15.625  -9.661  1.00  0.00    -0.332 OA
ENDROOT
BRANCH   1   7
ATOM      7  C   UNL     1      24.147  13.385  -8.786  1.00  0.00     0.198 C 
BRANCH   7   8
ATOM      8  O   UNL     1      25.551  13.572  -8.863  1.00  0.00    -0.347 OA
BRANCH   8   9
ATOM      9  C   UNL     1      26.163  12.563  -9.652  1.00  0.00     0.281 C 
ATOM     10  C   UNL     1      28.299  14.418  -8.381  1.00  0.00     0.041 C 
ATOM     11  C   UNL     1      28.439  13.249  -9.369  1.00  0.00     0.150 C 
ATOM     12  C   UNL     1      28.548  13.703 -10.841  1.00  0.00     0.174 C 
ATOM     13  O   UNL     1      27.461  12.234  -9.168  1.00  0.00    -0.344 OA
ATOM     14  C   UNL     1      27.167  14.101 -11.391  1.00  0.00     0.179 C 
ATOM     15  C   UNL     1      26.166  12.969 -11.141  1.00  0.00     0.202 C 
BRANCH  12  16
ATOM     16  O   UNL     1      29.083  12.648 -11.600  1.00  0.00    -0.388 OA
ATOM     17  H   UNL     1      28.661  11.811 -11.271  1.00  0.00     0.211 HD
ENDBRANCH  12  16
BRANCH  14  18
ATOM     18  O   UNL     1      27.242  14.361 -12.769  1.00  0.00    -0.387 OA
ATOM     19  H   UNL     1      28.151  14.719 -12.941  1.00  0.00     0.211 HD
ENDBRANCH  14  18
BRANCH  15  20
ATOM     20  O   UNL     1      24.883  13.386 -11.534  1.00  0.00    -0.385 OA
ATOM     21  H   UNL     1      24.651  12.862 -12.342  1.00  0.00     0.211 HD
ENDBRANCH  15  20
ENDBRANCH   8   9
ENDBRANCH   7   8
ENDBRANCH   1   7
BRANCH   2  22
ATOM     22  O   UNL     1      22.196  14.061 -10.923  1.00  0.00    -0.387 OA
ATOM     23  H   UNL     1      22.638  14.771 -11.455  1.00  0.00     0.211 HD
ENDBRANCH   2  22
BRANCH   3  24
ATOM     24  O   UNL     1      20.119  15.875 -10.368  1.00  0.00    -0.387 OA
ATOM     25  H   UNL     1      19.766  14.951 -10.271  1.00  0.00     0.211 HD
ENDBRANCH   3  24
BRANCH   5  26
ATOM     26  O   UNL     1      24.583  17.873 -10.188  1.00  0.00    -0.462 OA
BRANCH  26  27
ATOM     27  C   UNL     1      25.112  17.776 -11.482  1.00  0.00     0.130 A 
ATOM     28  C   UNL     1      26.486  17.963 -11.661  1.00  0.00     0.093 A 
ATOM     29  C   UNL     1      24.301  17.528 -12.597  1.00  0.00     0.094 A 
ATOM     30  C   UNL     1      27.062  17.868 -12.937  1.00  0.00     0.133 A 
ATOM     31  C   UNL     1      24.855  17.480 -13.878  1.00  0.00     0.138 A 
ATOM     32  C   UNL     1      26.243  17.616 -14.058  1.00  0.00     0.102 A 
ATOM     33  O   UNL     1      24.009  17.303 -14.979  1.00  0.00    -0.484 OA
ATOM     34  C   UNL     1      26.783  17.497 -15.436  1.00  0.00     0.174 C 
ATOM     35  C   UNL     1      24.403  17.594 -16.321  1.00  0.00     0.211 C 
ATOM     36  O   UNL     1      28.014  17.631 -15.663  1.00  0.00    -0.294 OA
ATOM     37  C   UNL     1      25.866  17.176 -16.585  1.00  0.00     0.131 C 
BRANCH  30  38
ATOM     38  O   UNL     1      28.441  18.025 -13.081  1.00  0.00    -0.507 OA
ATOM     39  H   UNL     1      29.024  18.338 -12.314  1.00  0.00     0.293 HD
ENDBRANCH  30  38
BRANCH  35  40
ATOM     40  C   UNL     1      24.114  19.054 -16.639  1.00  0.00    -0.003 A 
ATOM     41  C   UNL     1      22.952  19.656 -16.126  1.00  0.00     0.057 A 
ATOM     42  C   UNL     1      25.025  19.852 -17.355  1.00  0.00     0.011 A 
ATOM     43  C   UNL     1      22.693  21.017 -16.334  1.00  0.00     0.158 A 
ATOM     44  C   UNL     1      24.768  21.208 -17.573  1.00  0.00     0.051 A 
ATOM     45  C   UNL     1      23.601  21.806 -17.063  1.00  0.00     0.160 A 
BRANCH  43  46
ATOM     46  O   UNL     1      21.524  21.568 -15.810  1.00  0.00    -0.504 OA
ATOM     47  H   UNL     1      21.255  21.441 -14.842  1.00  0.00     0.293 HD
ENDBRANCH  43  46
BRANCH  45  48
ATOM     48  O   UNL     1      23.318  23.166 -17.261  1.00  0.00    -0.493 OA
ATOM     49  C   UNL     1      23.699  24.206 -16.366  1.00  0.00     0.278 C 
ENDBRANCH  45  48
ENDBRANCH  35  40
ENDBRANCH  26  27
ENDBRANCH   5  26
BRANCH   4  50
ATOM     50  O   UNL     1      21.746  18.286 -10.127  1.00  0.00    -0.384 OA
ATOM     51  H   UNL     1      21.604  18.668 -11.031  1.00  0.00     0.211 HD
ENDBRANCH   4  50
TORSDOF 15
ENDMDL
