MODEL 1
REMARK VINA RESULT:    -3.191      0.000      0.000
REMARK INTER + INTRA:          -5.144
REMARK INTER:                  -4.870
REMARK INTRA:                  -0.274
REMARK UNBOUND:                -0.274
REMARK SMILES CC1=CCC[C@@H](C)C(=O)C[C@H](C(C)C)C(=O)C1
REMARK SMILES IDX 8 1 9 2 6 3 7 4 5 5 4 6 3 7 2 8 1 9 10 11 11 12 15 13 16 14
REMARK SMILES IDX 17 15 12 17 13 18 14 19
REMARK H PARENT
REMARK Flexibility Score: 70.00
ROOT
ATOM      1  C   UNL     1      14.595  23.782  38.004  1.00  0.00     0.136 C 
ATOM      2  O   UNL     1      13.894  24.559  37.369  1.00  0.00    -0.299 OA
ENDROOT
BRANCH   1   3
ATOM      3  C   UNL     1      16.099  23.804  37.826  1.00  0.00     0.053 C 
ATOM      4  C   UNL     1      16.625  25.212  38.124  1.00  0.00     0.016 C 
BRANCH   3   5
ATOM      5  C   UNL     1      16.519  23.365  36.404  1.00  0.00     0.015 C 
BRANCH   5   6
ATOM      6  C   UNL     1      16.650  21.843  36.251  1.00  0.00     0.028 C 
BRANCH   6   7
ATOM      7  C   UNL     1      17.296  21.224  37.468  1.00  0.00    -0.028 C 
ATOM      8  C   UNL     1      16.746  20.272  38.256  1.00  0.00    -0.070 CG0
ATOM      9  C   UNL     1      17.549  19.782  39.436  1.00  0.00     0.039 C 
ATOM     10  G   UNL     1      15.358  19.704  38.037  1.00  0.00     0.000 G0
ENDBRANCH   6   7
ENDBRANCH   5   6
ENDBRANCH   3   5
ENDBRANCH   1   3
BRANCH   1  11
ATOM     11  C   UNL     1      13.942  22.844  38.985  1.00  0.00     0.087 C 
BRANCH  11  12
ATOM     12  C   UNL     1      13.475  21.531  38.305  1.00  0.00     0.066 C 
BRANCH  12  13
ATOM     13  C   UNL     1      14.291  20.369  38.849  1.00  0.00     0.140 C 
ATOM     14  O   UNL     1      14.037  19.926  39.962  1.00  0.00    -0.299 OA
BRANCH  13  15
ATOM     15  C   UNL     1      15.347  19.689  38.016  1.00  0.00     0.106 CG0
ATOM     16  G   UNL     1      16.716  20.285  38.276  1.00  0.00     0.000 G0
ENDBRANCH  13  15
ENDBRANCH  12  13
BRANCH  12  17
ATOM     17  C   UNL     1      11.947  21.266  38.510  1.00  0.00    -0.006 C 
ATOM     18  C   UNL     1      11.125  21.724  37.288  1.00  0.00     0.008 C 
ATOM     19  C   UNL     1      11.395  21.976  39.763  1.00  0.00     0.008 C 
ENDBRANCH  12  17
ENDBRANCH  11  12
ENDBRANCH   1  11
TORSDOF 1
ENDMDL
MODEL 2
REMARK VINA RESULT:    -3.145      2.056      4.101
REMARK INTER + INTRA:          -5.074
REMARK INTER:                  -4.857
REMARK INTRA:                  -0.216
REMARK UNBOUND:                -0.274
REMARK SMILES CC1=CCC[C@@H](C)C(=O)C[C@H](C(C)C)C(=O)C1
REMARK SMILES IDX 8 1 9 2 6 3 7 4 5 5 4 6 3 7 2 8 1 9 10 11 11 12 15 13 16 14
REMARK SMILES IDX 17 15 12 17 13 18 14 19
REMARK H PARENT
REMARK Flexibility Score: 70.00
ROOT
ATOM      1  C   UNL     1      16.905  21.090  37.018  1.00  0.00     0.136 C 
ATOM      2  O   UNL     1      18.104  20.844  37.034  1.00  0.00    -0.299 OA
ENDROOT
BRANCH   1   3
ATOM      3  C   UNL     1      16.404  22.367  36.377  1.00  0.00     0.053 C 
ATOM      4  C   UNL     1      17.190  22.631  35.088  1.00  0.00     0.016 C 
BRANCH   3   5
ATOM      5  C   UNL     1      16.523  23.578  37.332  1.00  0.00     0.015 C 
BRANCH   5   6
ATOM      6  C   UNL     1      15.169  24.224  37.665  1.00  0.00     0.028 C 
BRANCH   6   7
ATOM      7  C   UNL     1      14.054  23.607  36.855  1.00  0.00    -0.028 C 
ATOM      8  C   UNL     1      13.158  22.699  37.306  1.00  0.00    -0.070 CG0
ATOM      9  C   UNL     1      12.118  22.193  36.338  1.00  0.00     0.039 C 
ATOM     10  G   UNL     1      13.173  22.140  38.715  1.00  0.00     0.000 G0
ENDBRANCH   6   7
ENDBRANCH   5   6
ENDBRANCH   3   5
ENDBRANCH   1   3
BRANCH   1  11
ATOM     11  C   UNL     1      15.947  20.087  37.605  1.00  0.00     0.087 C 
BRANCH  11  12
ATOM     12  C   UNL     1      15.317  20.596  38.927  1.00  0.00     0.066 C 
BRANCH  12  13
ATOM     13  C   UNL     1      13.817  20.757  38.736  1.00  0.00     0.140 C 
ATOM     14  O   UNL     1      13.109  19.760  38.679  1.00  0.00    -0.299 OA
BRANCH  13  15
ATOM     15  C   UNL     1      13.168  22.117  38.708  1.00  0.00     0.106 CG0
ATOM     16  G   UNL     1      13.151  22.685  37.302  1.00  0.00     0.000 G0
ENDBRANCH  13  15
ENDBRANCH  12  13
BRANCH  12  17
ATOM     17  C   UNL     1      15.613  19.643  40.132  1.00  0.00    -0.006 C 
ATOM     18  C   UNL     1      15.725  20.425  41.456  1.00  0.00     0.008 C 
ATOM     19  C   UNL     1      16.911  18.835  39.931  1.00  0.00     0.008 C 
ENDBRANCH  12  17
ENDBRANCH  11  12
ENDBRANCH   1  11
TORSDOF 1
ENDMDL
MODEL 3
REMARK VINA RESULT:    -3.125      2.019      5.262
REMARK INTER + INTRA:          -5.043
REMARK INTER:                  -4.964
REMARK INTRA:                  -0.079
REMARK UNBOUND:                -0.274
REMARK SMILES CC1=CCC[C@@H](C)C(=O)C[C@H](C(C)C)C(=O)C1
REMARK SMILES IDX 8 1 9 2 6 3 7 4 5 5 4 6 3 7 2 8 1 9 10 11 11 12 15 13 16 14
REMARK SMILES IDX 17 15 12 17 13 18 14 19
REMARK H PARENT
REMARK Flexibility Score: 70.00
ROOT
ATOM      1  C   UNL     1      15.778  19.812  38.073  1.00  0.00     0.136 C 
ATOM      2  O   UNL     1      15.703  18.827  37.351  1.00  0.00    -0.299 OA
ENDROOT
BRANCH   1   3
ATOM      3  C   UNL     1      14.795  19.990  39.212  1.00  0.00     0.053 C 
ATOM      4  C   UNL     1      15.152  19.024  40.347  1.00  0.00     0.016 C 
BRANCH   3   5
ATOM      5  C   UNL     1      13.335  19.763  38.755  1.00  0.00     0.015 C 
BRANCH   5   6
ATOM      6  C   UNL     1      12.812  20.864  37.822  1.00  0.00     0.028 C 
BRANCH   6   7
ATOM      7  C   UNL     1      12.920  22.226  38.467  1.00  0.00    -0.028 C 
ATOM      8  C   UNL     1      13.631  23.272  37.988  1.00  0.00    -0.070 CG0
ATOM      9  C   UNL     1      13.622  24.554  38.783  1.00  0.00     0.039 C 
ATOM     10  G   UNL     1      14.465  23.208  36.723  1.00  0.00     0.000 G0
ENDBRANCH   6   7
ENDBRANCH   5   6
ENDBRANCH   3   5
ENDBRANCH   1   3
BRANCH   1  11
ATOM     11  C   UNL     1      16.881  20.810  37.836  1.00  0.00     0.087 C 
BRANCH  11  12
ATOM     12  C   UNL     1      16.609  21.683  36.583  1.00  0.00     0.066 C 
BRANCH  12  13
ATOM     13  C   UNL     1      15.910  22.964  37.010  1.00  0.00     0.140 C 
ATOM     14  O   UNL     1      16.559  23.851  37.549  1.00  0.00    -0.299 OA
BRANCH  13  15
ATOM     15  C   UNL     1      14.455  23.208  36.701  1.00  0.00     0.106 CG0
ATOM     16  G   UNL     1      13.629  23.263  37.971  1.00  0.00     0.000 G0
ENDBRANCH  13  15
ENDBRANCH  12  13
BRANCH  12  17
ATOM     17  C   UNL     1      17.919  22.014  35.794  1.00  0.00    -0.006 C 
ATOM     18  C   UNL     1      17.612  22.757  34.478  1.00  0.00     0.008 C 
ATOM     19  C   UNL     1      18.735  20.749  35.462  1.00  0.00     0.008 C 
ENDBRANCH  12  17
ENDBRANCH  11  12
ENDBRANCH   1  11
TORSDOF 1
ENDMDL
MODEL 4
REMARK VINA RESULT:    -3.120     13.001     15.293
REMARK INTER + INTRA:          -5.035
REMARK INTER:                  -4.720
REMARK INTRA:                  -0.315
REMARK UNBOUND:                -0.274
REMARK SMILES CC1=CCC[C@@H](C)C(=O)C[C@H](C(C)C)C(=O)C1
REMARK SMILES IDX 8 1 9 2 6 3 7 4 5 5 4 6 3 7 2 8 1 9 10 11 11 12 15 13 16 14
REMARK SMILES IDX 17 15 12 17 13 18 14 19
REMARK H PARENT
REMARK Flexibility Score: 70.00
ROOT
ATOM      1  C   UNL     1      16.596  11.936  49.876  1.00  0.00     0.136 C 
ATOM      2  O   UNL     1      17.794  12.111  49.700  1.00  0.00    -0.299 OA
ENDROOT
BRANCH   1   3
ATOM      3  C   UNL     1      16.110  10.691  50.590  1.00  0.00     0.053 C 
ATOM      4  C   UNL     1      16.814  10.576  51.946  1.00  0.00     0.016 C 
BRANCH   3   5
ATOM      5  C   UNL     1      16.352   9.414  49.752  1.00  0.00     0.015 C 
BRANCH   5   6
ATOM      6  C   UNL     1      15.219   9.116  48.758  1.00  0.00     0.028 C 
BRANCH   6   7
ATOM      7  C   UNL     1      13.866   9.383  49.374  1.00  0.00    -0.028 C 
ATOM      8  C   UNL     1      12.927  10.224  48.883  1.00  0.00    -0.070 CG0
ATOM      9  C   UNL     1      11.634  10.363  49.648  1.00  0.00     0.039 C 
ATOM     10  G   UNL     1      13.123  11.057  47.631  1.00  0.00     0.000 G0
ENDBRANCH   6   7
ENDBRANCH   5   6
ENDBRANCH   3   5
ENDBRANCH   1   3
BRANCH   1  11
ATOM     11  C   UNL     1      15.628  12.992  49.411  1.00  0.00     0.087 C 
BRANCH  11  12
ATOM     12  C   UNL     1      15.145  12.734  47.961  1.00  0.00     0.066 C 
BRANCH  12  13
ATOM     13  C   UNL     1      13.653  12.441  47.976  1.00  0.00     0.140 C 
ATOM     14  O   UNL     1      12.865  13.350  48.200  1.00  0.00    -0.299 OA
BRANCH  13  15
ATOM     15  C   UNL     1      13.114  11.076  47.631  1.00  0.00     0.106 CG0
ATOM     16  G   UNL     1      12.921  10.234  48.878  1.00  0.00     0.000 G0
ENDBRANCH  13  15
ENDBRANCH  12  13
BRANCH  12  17
ATOM     17  C   UNL     1      15.453  13.936  47.008  1.00  0.00    -0.006 C 
ATOM     18  C   UNL     1      16.586  13.596  46.018  1.00  0.00     0.008 C 
ATOM     19  C   UNL     1      15.849  15.208  47.785  1.00  0.00     0.008 C 
ENDBRANCH  12  17
ENDBRANCH  11  12
ENDBRANCH   1  11
TORSDOF 1
ENDMDL
MODEL 5
REMARK VINA RESULT:    -2.918      1.907      3.175
REMARK INTER + INTRA:          -4.728
REMARK INTER:                  -4.973
REMARK INTRA:                   0.246
REMARK UNBOUND:                -0.274
REMARK SMILES CC1=CCC[C@@H](C)C(=O)C[C@H](C(C)C)C(=O)C1
REMARK SMILES IDX 8 1 9 2 6 3 7 4 5 5 4 6 3 7 2 8 1 9 10 11 11 12 15 13 16 14
REMARK SMILES IDX 17 15 12 17 13 18 14 19
REMARK H PARENT
REMARK Flexibility Score: 70.00
ROOT
ATOM      1  C   UNL     1      17.248  22.132  35.937  1.00  0.00     0.136 C 
ATOM      2  O   UNL     1      16.499  22.524  35.052  1.00  0.00    -0.299 OA
ENDROOT
BRANCH   1   3
ATOM      3  C   UNL     1      18.571  21.487  35.577  1.00  0.00     0.053 C 
ATOM      4  C   UNL     1      18.833  21.666  34.079  1.00  0.00     0.016 C 
BRANCH   3   5
ATOM      5  C   UNL     1      18.601  19.986  35.950  1.00  0.00     0.015 C 
BRANCH   5   6
ATOM      6  C   UNL     1      19.125  19.723  37.370  1.00  0.00     0.028 C 
BRANCH   6   7
ATOM      7  C   UNL     1      18.332  18.634  38.054  1.00  0.00    -0.028 C 
ATOM      8  C   UNL     1      17.275  18.824  38.875  1.00  0.00    -0.070 CG0
ATOM      9  C   UNL     1      16.616  17.605  39.471  1.00  0.00     0.039 C 
ATOM     10  G   UNL     1      16.747  20.194  39.256  1.00  0.00     0.000 G0
ENDBRANCH   6   7
ENDBRANCH   5   6
ENDBRANCH   3   5
ENDBRANCH   1   3
BRANCH   1  11
ATOM     11  C   UNL     1      16.851  22.342  37.375  1.00  0.00     0.087 C 
BRANCH  11  12
ATOM     12  C   UNL     1      15.416  21.827  37.658  1.00  0.00     0.066 C 
BRANCH  12  13
ATOM     13  C   UNL     1      15.497  20.552  38.483  1.00  0.00     0.140 C 
ATOM     14  O   UNL     1      14.564  19.760  38.456  1.00  0.00    -0.299 OA
BRANCH  13  15
ATOM     15  C   UNL     1      16.736  20.196  39.263  1.00  0.00     0.106 CG0
ATOM     16  G   UNL     1      17.254  18.827  38.869  1.00  0.00     0.000 G0
ENDBRANCH  13  15
ENDBRANCH  12  13
BRANCH  12  17
ATOM     17  C   UNL     1      14.535  22.894  38.389  1.00  0.00    -0.006 C 
ATOM     18  C   UNL     1      13.105  22.936  37.813  1.00  0.00     0.008 C 
ATOM     19  C   UNL     1      15.140  24.310  38.299  1.00  0.00     0.008 C 
ENDBRANCH  12  17
ENDBRANCH  11  12
ENDBRANCH   1  11
TORSDOF 1
ENDMDL
MODEL 6
REMARK VINA RESULT:    -2.916      2.739      4.734
REMARK INTER + INTRA:          -4.723
REMARK INTER:                  -4.522
REMARK INTRA:                  -0.201
REMARK UNBOUND:                -0.274
REMARK SMILES CC1=CCC[C@@H](C)C(=O)C[C@H](C(C)C)C(=O)C1
REMARK SMILES IDX 8 1 9 2 6 3 7 4 5 5 4 6 3 7 2 8 1 9 10 11 11 12 15 13 16 14
REMARK SMILES IDX 17 15 12 17 13 18 14 19
REMARK H PARENT
REMARK Flexibility Score: 70.00
ROOT
ATOM      1  C   UNL     1      14.323  21.276  38.161  1.00  0.00     0.136 C 
ATOM      2  O   UNL     1      15.149  21.190  39.059  1.00  0.00    -0.299 OA
ENDROOT
BRANCH   1   3
ATOM      3  C   UNL     1      14.498  22.311  37.069  1.00  0.00     0.053 C 
ATOM      4  C   UNL     1      15.968  22.358  36.644  1.00  0.00     0.016 C 
BRANCH   3   5
ATOM      5  C   UNL     1      14.028  23.713  37.523  1.00  0.00     0.015 C 
BRANCH   5   6
ATOM      6  C   UNL     1      12.890  24.281  36.662  1.00  0.00     0.028 C 
BRANCH   6   7
ATOM      7  C   UNL     1      11.624  24.450  37.469  1.00  0.00    -0.028 C 
ATOM      8  C   UNL     1      10.689  23.495  37.680  1.00  0.00    -0.070 CG0
ATOM      9  C   UNL     1       9.483  23.860  38.511  1.00  0.00     0.039 C 
ATOM     10  G   UNL     1      10.773  22.099  37.096  1.00  0.00     0.000 G0
ENDBRANCH   6   7
ENDBRANCH   5   6
ENDBRANCH   3   5
ENDBRANCH   1   3
BRANCH   1  11
ATOM     11  C   UNL     1      13.165  20.313  38.140  1.00  0.00     0.087 C 
BRANCH  11  12
ATOM     12  C   UNL     1      11.998  20.794  39.041  1.00  0.00     0.066 C 
BRANCH  12  13
ATOM     13  C   UNL     1      10.769  21.035  38.179  1.00  0.00     0.140 C 
ATOM     14  O   UNL     1       9.737  20.423  38.420  1.00  0.00    -0.299 OA
BRANCH  13  15
ATOM     15  C   UNL     1      10.762  22.078  37.090  1.00  0.00     0.106 CG0
ATOM     16  G   UNL     1      10.693  23.476  37.674  1.00  0.00     0.000 G0
ENDBRANCH  13  15
ENDBRANCH  12  13
BRANCH  12  17
ATOM     17  C   UNL     1      11.670  19.777  40.184  1.00  0.00    -0.006 C 
ATOM     18  C   UNL     1      12.038  20.347  41.569  1.00  0.00     0.008 C 
ATOM     19  C   UNL     1      12.404  18.434  39.997  1.00  0.00     0.008 C 
ENDBRANCH  12  17
ENDBRANCH  11  12
ENDBRANCH   1  11
TORSDOF 1
ENDMDL
MODEL 7
REMARK VINA RESULT:    -2.910     13.540     15.679
REMARK INTER + INTRA:          -4.715
REMARK INTER:                  -4.471
REMARK INTRA:                  -0.244
REMARK UNBOUND:                -0.274
REMARK SMILES CC1=CCC[C@@H](C)C(=O)C[C@H](C(C)C)C(=O)C1
REMARK SMILES IDX 8 1 9 2 6 3 7 4 5 5 4 6 3 7 2 8 1 9 10 11 11 12 15 13 16 14
REMARK SMILES IDX 17 15 12 17 13 18 14 19
REMARK H PARENT
REMARK Flexibility Score: 70.00
ROOT
ATOM      1  C   UNL     1      15.100  13.051  47.974  1.00  0.00     0.136 C 
ATOM      2  O   UNL     1      15.494  14.184  48.220  1.00  0.00    -0.299 OA
ENDROOT
BRANCH   1   3
ATOM      3  C   UNL     1      13.757  12.846  47.305  1.00  0.00     0.053 C 
ATOM      4  C   UNL     1      13.774  13.500  45.920  1.00  0.00     0.016 C 
BRANCH   3   5
ATOM      5  C   UNL     1      12.596  13.420  48.152  1.00  0.00     0.015 C 
BRANCH   5   6
ATOM      6  C   UNL     1      12.253  12.556  49.375  1.00  0.00     0.028 C 
BRANCH   6   7
ATOM      7  C   UNL     1      11.799  11.176  48.961  1.00  0.00    -0.028 C 
ATOM      8  C   UNL     1      12.339  10.009  49.380  1.00  0.00    -0.070 CG0
ATOM      9  C   UNL     1      11.750   8.727  48.846  1.00  0.00     0.039 C 
ATOM     10  G   UNL     1      13.523   9.926  50.323  1.00  0.00     0.000 G0
ENDBRANCH   6   7
ENDBRANCH   5   6
ENDBRANCH   3   5
ENDBRANCH   1   3
BRANCH   1  11
ATOM     11  C   UNL     1      15.988  11.881  48.308  1.00  0.00     0.087 C 
BRANCH  11  12
ATOM     12  C   UNL     1      15.694  11.320  49.723  1.00  0.00     0.066 C 
BRANCH  12  13
ATOM     13  C   UNL     1      14.849  10.061  49.595  1.00  0.00     0.140 C 
ATOM     14  O   UNL     1      15.275   9.116  48.944  1.00  0.00    -0.299 OA
BRANCH  13  15
ATOM     15  C   UNL     1      13.540   9.914  50.327  1.00  0.00     0.106 CG0
ATOM     16  G   UNL     1      12.367  10.013  49.372  1.00  0.00     0.000 G0
ENDBRANCH  13  15
ENDBRANCH  12  13
BRANCH  12  17
ATOM     17  C   UNL     1      17.002  11.017  50.526  1.00  0.00    -0.006 C 
ATOM     18  C   UNL     1      16.690  10.598  51.978  1.00  0.00     0.008 C 
ATOM     19  C   UNL     1      17.958  12.227  50.562  1.00  0.00     0.008 C 
ENDBRANCH  12  17
ENDBRANCH  11  12
ENDBRANCH   1  11
TORSDOF 1
ENDMDL
MODEL 8
REMARK VINA RESULT:    -2.894      2.263      5.317
REMARK INTER + INTRA:          -4.690
REMARK INTER:                  -4.432
REMARK INTRA:                  -0.258
REMARK UNBOUND:                -0.274
REMARK SMILES CC1=CCC[C@@H](C)C(=O)C[C@H](C(C)C)C(=O)C1
REMARK SMILES IDX 8 1 9 2 6 3 7 4 5 5 4 6 3 7 2 8 1 9 10 11 11 12 15 13 16 14
REMARK SMILES IDX 17 15 12 17 13 18 14 19
REMARK H PARENT
REMARK Flexibility Score: 70.00
ROOT
ATOM      1  C   UNL     1      15.123  21.377  39.325  1.00  0.00     0.136 C 
ATOM      2  O   UNL     1      16.337  21.325  39.472  1.00  0.00    -0.299 OA
ENDROOT
BRANCH   1   3
ATOM      3  C   UNL     1      14.265  20.187  39.703  1.00  0.00     0.053 C 
ATOM      4  C   UNL     1      14.301  19.154  38.572  1.00  0.00     0.016 C 
BRANCH   3   5
ATOM      5  C   UNL     1      12.804  20.601  40.002  1.00  0.00     0.015 C 
BRANCH   5   6
ATOM      6  C   UNL     1      11.824  20.223  38.882  1.00  0.00     0.028 C 
BRANCH   6   7
ATOM      7  C   UNL     1      10.739  21.262  38.728  1.00  0.00    -0.028 C 
ATOM      8  C   UNL     1      10.650  22.169  37.729  1.00  0.00    -0.070 CG0
ATOM      9  C   UNL     1       9.491  23.134  37.754  1.00  0.00     0.039 C 
ATOM     10  G   UNL     1      11.671  22.289  36.615  1.00  0.00     0.000 G0
ENDBRANCH   6   7
ENDBRANCH   5   6
ENDBRANCH   3   5
ENDBRANCH   1   3
BRANCH   1  11
ATOM     11  C   UNL     1      14.504  22.649  38.807  1.00  0.00     0.087 C 
BRANCH  11  12
ATOM     12  C   UNL     1      14.210  22.570  37.287  1.00  0.00     0.066 C 
BRANCH  12  13
ATOM     13  C   UNL     1      12.838  23.166  37.013  1.00  0.00     0.140 C 
ATOM     14  O   UNL     1      12.693  24.381  37.053  1.00  0.00    -0.299 OA
BRANCH  13  15
ATOM     15  C   UNL     1      11.672  22.304  36.601  1.00  0.00     0.106 CG0
ATOM     16  G   UNL     1      10.667  22.171  37.728  1.00  0.00     0.000 G0
ENDBRANCH  13  15
ENDBRANCH  12  13
BRANCH  12  17
ATOM     17  C   UNL     1      15.300  23.296  36.432  1.00  0.00    -0.006 C 
ATOM     18  C   UNL     1      16.323  22.296  35.854  1.00  0.00     0.008 C 
ATOM     19  C   UNL     1      16.063  24.362  37.244  1.00  0.00     0.008 C 
ENDBRANCH  12  17
ENDBRANCH  11  12
ENDBRANCH   1  11
TORSDOF 1
ENDMDL
MODEL 9
REMARK VINA RESULT:    -2.828      1.976      4.099
REMARK INTER + INTRA:          -4.589
REMARK INTER:                  -4.297
REMARK INTRA:                  -0.292
REMARK UNBOUND:                -0.274
REMARK SMILES CC1=CCC[C@@H](C)C(=O)C[C@H](C(C)C)C(=O)C1
REMARK SMILES IDX 8 1 9 2 6 3 7 4 5 5 4 6 3 7 2 8 1 9 10 11 11 12 15 13 16 14
REMARK SMILES IDX 17 15 12 17 13 18 14 19
REMARK H PARENT
REMARK Flexibility Score: 70.00
ROOT
ATOM      1  C   UNL     1      12.645  20.426  39.137  1.00  0.00     0.136 C 
ATOM      2  O   UNL     1      11.989  20.267  40.157  1.00  0.00    -0.299 OA
ENDROOT
BRANCH   1   3
ATOM      3  C   UNL     1      14.071  19.919  39.068  1.00  0.00     0.053 C 
ATOM      4  C   UNL     1      14.079  18.398  39.248  1.00  0.00     0.016 C 
BRANCH   3   5
ATOM      5  C   UNL     1      14.973  20.588  40.132  1.00  0.00     0.015 C 
BRANCH   5   6
ATOM      6  C   UNL     1      15.407  22.011  39.752  1.00  0.00     0.028 C 
BRANCH   6   7
ATOM      7  C   UNL     1      15.907  22.070  38.328  1.00  0.00    -0.028 C 
ATOM      8  C   UNL     1      15.422  22.872  37.353  1.00  0.00    -0.070 CG0
ATOM      9  C   UNL     1      16.051  22.780  35.985  1.00  0.00     0.039 C 
ATOM     10  G   UNL     1      14.258  23.823  37.555  1.00  0.00     0.000 G0
ENDBRANCH   6   7
ENDBRANCH   5   6
ENDBRANCH   3   5
ENDBRANCH   1   3
BRANCH   1  11
ATOM     11  C   UNL     1      11.998  21.089  37.949  1.00  0.00     0.087 C 
BRANCH  11  12
ATOM     12  C   UNL     1      11.967  22.632  38.096  1.00  0.00     0.066 C 
BRANCH  12  13
ATOM     13  C   UNL     1      12.948  23.247  37.110  1.00  0.00     0.140 C 
ATOM     14  O   UNL     1      12.635  23.340  35.931  1.00  0.00    -0.299 OA
BRANCH  13  15
ATOM     15  C   UNL     1      14.262  23.830  37.565  1.00  0.00     0.106 CG0
ATOM     16  G   UNL     1      15.400  22.854  37.340  1.00  0.00     0.000 G0
ENDBRANCH  13  15
ENDBRANCH  12  13
BRANCH  12  17
ATOM     17  C   UNL     1      10.535  23.222  37.878  1.00  0.00    -0.006 C 
ATOM     18  C   UNL     1      10.169  24.240  38.978  1.00  0.00     0.008 C 
ATOM     19  C   UNL     1       9.451  22.125  37.848  1.00  0.00     0.008 C 
ENDBRANCH  12  17
ENDBRANCH  11  12
ENDBRANCH   1  11
TORSDOF 1
ENDMDL
