MODEL 1
REMARK VINA RESULT:    -4.414      0.000      0.000
REMARK INTER + INTRA:          -5.513
REMARK INTER:                  -5.317
REMARK INTRA:                  -0.196
REMARK UNBOUND:                -0.196
REMARK SMILES OCC(O)CO
REMARK SMILES IDX 3 1 5 2 6 3 2 5 1 6 4 8
REMARK H PARENT 6 4 1 7 4 9
REMARK Flexibility Score: inf
ROOT
ATOM      1  C   UNL     1     152.752  64.539  32.019  1.00  0.00     0.165 C 
ENDROOT
BRANCH   1   2
ATOM      2  C   UNL     1     152.708  65.772  31.101  1.00  0.00     0.190 C 
BRANCH   2   3
ATOM      3  O   UNL     1     152.131  65.444  29.866  1.00  0.00    -0.394 OA
ATOM      4  H   UNL     1     152.477  64.547  29.620  1.00  0.00     0.210 HD
ENDBRANCH   2   3
ENDBRANCH   1   2
BRANCH   1   5
ATOM      5  C   UNL     1     153.320  63.316  31.279  1.00  0.00     0.190 C 
BRANCH   5   6
ATOM      6  O   UNL     1     152.353  62.766  30.427  1.00  0.00    -0.394 OA
ATOM      7  H   UNL     1     151.876  62.071  30.950  1.00  0.00     0.210 HD
ENDBRANCH   5   6
ENDBRANCH   1   5
BRANCH   1   8
ATOM      8  O   UNL     1     151.475  64.258  32.537  1.00  0.00    -0.388 OA
ATOM      9  H   UNL     1     150.825  64.843  32.067  1.00  0.00     0.211 HD
ENDBRANCH   1   8
TORSDOF 5
ENDMDL
MODEL 2
REMARK VINA RESULT:    -4.186      1.092      2.401
REMARK INTER + INTRA:          -5.239
REMARK INTER:                  -5.058
REMARK INTRA:                  -0.181
REMARK UNBOUND:                -0.196
REMARK SMILES OCC(O)CO
REMARK SMILES IDX 3 1 5 2 6 3 2 5 1 6 4 8
REMARK H PARENT 6 4 1 7 4 9
REMARK Flexibility Score: inf
ROOT
ATOM      1  C   UNL     1     152.991  64.357  31.937  1.00  0.00     0.165 C 
ENDROOT
BRANCH   1   2
ATOM      2  C   UNL     1     153.315  63.231  30.941  1.00  0.00     0.190 C 
BRANCH   2   3
ATOM      3  O   UNL     1     152.138  62.726  30.371  1.00  0.00    -0.394 OA
ATOM      4  H   UNL     1     152.183  61.738  30.454  1.00  0.00     0.210 HD
ENDBRANCH   2   3
ENDBRANCH   1   2
BRANCH   1   5
ATOM      5  C   UNL     1     152.642  65.664  31.203  1.00  0.00     0.190 C 
BRANCH   5   6
ATOM      6  O   UNL     1     152.164  65.389  29.914  1.00  0.00    -0.394 OA
ATOM      7  H   UNL     1     151.214  65.672  29.897  1.00  0.00     0.210 HD
ENDBRANCH   5   6
ENDBRANCH   1   5
BRANCH   1   8
ATOM      8  O   UNL     1     154.060  64.557  32.828  1.00  0.00    -0.388 OA
ATOM      9  H   UNL     1     154.612  63.732  32.824  1.00  0.00     0.211 HD
ENDBRANCH   1   8
TORSDOF 5
ENDMDL
MODEL 3
REMARK VINA RESULT:    -4.167      0.630      2.449
REMARK INTER + INTRA:          -5.216
REMARK INTER:                  -5.016
REMARK INTRA:                  -0.200
REMARK UNBOUND:                -0.196
REMARK SMILES OCC(O)CO
REMARK SMILES IDX 3 1 5 2 6 3 2 5 1 6 4 8
REMARK H PARENT 6 4 1 7 4 9
REMARK Flexibility Score: inf
ROOT
ATOM      1  C   UNL     1     152.899  64.700  31.355  1.00  0.00     0.165 C 
ENDROOT
BRANCH   1   2
ATOM      2  C   UNL     1     153.196  63.217  31.075  1.00  0.00     0.190 C 
BRANCH   2   3
ATOM      3  O   UNL     1     152.226  62.676  30.219  1.00  0.00    -0.394 OA
ATOM      4  H   UNL     1     152.240  61.693  30.360  1.00  0.00     0.210 HD
ENDBRANCH   2   3
ENDBRANCH   1   2
BRANCH   1   5
ATOM      5  C   UNL     1     152.168  64.875  32.697  1.00  0.00     0.190 C 
BRANCH   5   6
ATOM      6  O   UNL     1     151.063  64.015  32.770  1.00  0.00    -0.394 OA
ATOM      7  H   UNL     1     150.453  64.393  33.455  1.00  0.00     0.210 HD
ENDBRANCH   5   6
ENDBRANCH   1   5
BRANCH   1   8
ATOM      8  O   UNL     1     152.154  65.265  30.305  1.00  0.00    -0.388 OA
ATOM      9  H   UNL     1     152.731  65.271  29.497  1.00  0.00     0.211 HD
ENDBRANCH   1   8
TORSDOF 5
ENDMDL
MODEL 4
REMARK VINA RESULT:    -3.271      1.371      2.798
REMARK INTER + INTRA:          -4.137
REMARK INTER:                  -4.046
REMARK INTRA:                  -0.091
REMARK UNBOUND:                -0.196
REMARK SMILES OCC(O)CO
REMARK SMILES IDX 3 1 5 2 6 3 2 5 1 6 4 8
REMARK H PARENT 6 4 1 7 4 9
REMARK Flexibility Score: inf
ROOT
ATOM      1  C   UNL     1     153.009  63.803  30.724  1.00  0.00     0.165 C 
ENDROOT
BRANCH   1   2
ATOM      2  C   UNL     1     153.769  63.387  31.994  1.00  0.00     0.190 C 
BRANCH   2   3
ATOM      3  O   UNL     1     154.125  64.516  32.746  1.00  0.00    -0.394 OA
ATOM      4  H   UNL     1     153.917  64.304  33.693  1.00  0.00     0.210 HD
ENDBRANCH   2   3
ENDBRANCH   1   2
BRANCH   1   5
ATOM      5  C   UNL     1     152.202  65.092  30.957  1.00  0.00     0.190 C 
BRANCH   5   6
ATOM      6  O   UNL     1     152.734  66.147  30.201  1.00  0.00    -0.394 OA
ATOM      7  H   UNL     1     153.507  66.501  30.711  1.00  0.00     0.210 HD
ENDBRANCH   5   6
ENDBRANCH   1   5
BRANCH   1   8
ATOM      8  O   UNL     1     152.171  62.765  30.282  1.00  0.00    -0.388 OA
ATOM      9  H   UNL     1     151.922  62.960  29.341  1.00  0.00     0.211 HD
ENDBRANCH   1   8
TORSDOF 5
ENDMDL
MODEL 5
REMARK VINA RESULT:    -2.496     19.595     19.890
REMARK INTER + INTRA:          -3.204
REMARK INTER:                  -2.981
REMARK INTRA:                  -0.222
REMARK UNBOUND:                -0.196
REMARK SMILES OCC(O)CO
REMARK SMILES IDX 3 1 5 2 6 3 2 5 1 6 4 8
REMARK H PARENT 6 4 1 7 4 9
REMARK Flexibility Score: inf
ROOT
ATOM      1  C   UNL     1     135.968  54.577  29.115  1.00  0.00     0.165 C 
ENDROOT
BRANCH   1   2
ATOM      2  C   UNL     1     134.664  55.363  29.328  1.00  0.00     0.190 C 
BRANCH   2   3
ATOM      3  O   UNL     1     134.023  55.593  28.102  1.00  0.00    -0.394 OA
ATOM      4  H   UNL     1     133.153  55.118  28.143  1.00  0.00     0.210 HD
ENDBRANCH   2   3
ENDBRANCH   1   2
BRANCH   1   5
ATOM      5  C   UNL     1     135.715  53.288  28.315  1.00  0.00     0.190 C 
BRANCH   5   6
ATOM      6  O   UNL     1     135.715  53.558  26.939  1.00  0.00    -0.394 OA
ATOM      7  H   UNL     1     135.179  52.842  26.509  1.00  0.00     0.210 HD
ENDBRANCH   5   6
ENDBRANCH   1   5
BRANCH   1   8
ATOM      8  O   UNL     1     136.581  54.286  30.347  1.00  0.00    -0.388 OA
ATOM      9  H   UNL     1     135.862  54.198  31.026  1.00  0.00     0.211 HD
ENDBRANCH   1   8
TORSDOF 5
ENDMDL
MODEL 6
REMARK VINA RESULT:    -2.436     19.316     19.656
REMARK INTER + INTRA:          -3.131
REMARK INTER:                  -2.908
REMARK INTRA:                  -0.222
REMARK UNBOUND:                -0.196
REMARK SMILES OCC(O)CO
REMARK SMILES IDX 3 1 5 2 6 3 2 5 1 6 4 8
REMARK H PARENT 6 4 1 7 4 9
REMARK Flexibility Score: inf
ROOT
ATOM      1  C   UNL     1     135.002  54.123  30.753  1.00  0.00     0.165 C 
ENDROOT
BRANCH   1   2
ATOM      2  C   UNL     1     135.907  54.083  29.511  1.00  0.00     0.190 C 
BRANCH   2   3
ATOM      3  O   UNL     1     137.115  54.748  29.764  1.00  0.00    -0.394 OA
ATOM      4  H   UNL     1     136.904  55.717  29.801  1.00  0.00     0.210 HD
ENDBRANCH   2   3
ENDBRANCH   1   2
BRANCH   1   5
ATOM      5  C   UNL     1     134.378  55.517  30.940  1.00  0.00     0.190 C 
BRANCH   5   6
ATOM      6  O   UNL     1     134.714  56.352  29.866  1.00  0.00    -0.394 OA
ATOM      7  H   UNL     1     134.984  55.759  29.118  1.00  0.00     0.210 HD
ENDBRANCH   5   6
ENDBRANCH   1   5
BRANCH   1   8
ATOM      8  O   UNL     1     135.715  53.739  31.902  1.00  0.00    -0.388 OA
ATOM      9  H   UNL     1     135.708  54.508  32.531  1.00  0.00     0.211 HD
ENDBRANCH   1   8
TORSDOF 5
ENDMDL
MODEL 7
REMARK VINA RESULT:    -2.432     23.621     24.119
REMARK INTER + INTRA:          -3.126
REMARK INTER:                  -2.905
REMARK INTRA:                  -0.222
REMARK UNBOUND:                -0.196
REMARK SMILES OCC(O)CO
REMARK SMILES IDX 3 1 5 2 6 3 2 5 1 6 4 8
REMARK H PARENT 6 4 1 7 4 9
REMARK Flexibility Score: inf
ROOT
ATOM      1  C   UNL     1     134.286  52.108  20.912  1.00  0.00     0.165 C 
ENDROOT
BRANCH   1   2
ATOM      2  C   UNL     1     135.069  51.085  21.751  1.00  0.00     0.190 C 
BRANCH   2   3
ATOM      3  O   UNL     1     134.968  49.806  21.184  1.00  0.00    -0.394 OA
ATOM      4  H   UNL     1     134.758  49.182  21.927  1.00  0.00     0.210 HD
ENDBRANCH   2   3
ENDBRANCH   1   2
BRANCH   1   5
ATOM      5  C   UNL     1     134.839  52.191  19.479  1.00  0.00     0.190 C 
BRANCH   5   6
ATOM      6  O   UNL     1     136.173  51.761  19.443  1.00  0.00    -0.394 OA
ATOM      7  H   UNL     1     136.364  51.355  20.328  1.00  0.00     0.210 HD
ENDBRANCH   5   6
ENDBRANCH   1   5
BRANCH   1   8
ATOM      8  O   UNL     1     134.304  53.373  21.526  1.00  0.00    -0.388 OA
ATOM      9  H   UNL     1     133.406  53.527  21.922  1.00  0.00     0.211 HD
ENDBRANCH   1   8
TORSDOF 5
ENDMDL
MODEL 8
REMARK VINA RESULT:    -2.416     19.549     19.853
REMARK INTER + INTRA:          -3.106
REMARK INTER:                  -2.891
REMARK INTRA:                  -0.215
REMARK UNBOUND:                -0.196
REMARK SMILES OCC(O)CO
REMARK SMILES IDX 3 1 5 2 6 3 2 5 1 6 4 8
REMARK H PARENT 6 4 1 7 4 9
REMARK Flexibility Score: inf
ROOT
ATOM      1  C   UNL     1     134.664  54.417  28.934  1.00  0.00     0.165 C 
ENDROOT
BRANCH   1   2
ATOM      2  C   UNL     1     134.398  55.426  30.063  1.00  0.00     0.190 C 
BRANCH   2   3
ATOM      3  O   UNL     1     134.605  56.736  29.609  1.00  0.00    -0.394 OA
ATOM      4  H   UNL     1     134.398  57.337  30.372  1.00  0.00     0.210 HD
ENDBRANCH   2   3
ENDBRANCH   1   2
BRANCH   1   5
ATOM      5  C   UNL     1     136.157  54.054  28.853  1.00  0.00     0.190 C 
BRANCH   5   6
ATOM      6  O   UNL     1     136.881  54.737  29.840  1.00  0.00    -0.394 OA
ATOM      7  H   UNL     1     137.650  54.159  30.080  1.00  0.00     0.210 HD
ENDBRANCH   5   6
ENDBRANCH   1   5
BRANCH   1   8
ATOM      8  O   UNL     1     134.207  54.918  27.702  1.00  0.00    -0.388 OA
ATOM      9  H   UNL     1     133.355  54.455  27.487  1.00  0.00     0.211 HD
ENDBRANCH   1   8
TORSDOF 5
ENDMDL
MODEL 9
REMARK VINA RESULT:    -2.404     23.717     24.140
REMARK INTER + INTRA:          -3.093
REMARK INTER:                  -2.871
REMARK INTRA:                  -0.222
REMARK UNBOUND:                -0.196
REMARK SMILES OCC(O)CO
REMARK SMILES IDX 3 1 5 2 6 3 2 5 1 6 4 8
REMARK H PARENT 6 4 1 7 4 9
REMARK Flexibility Score: inf
ROOT
ATOM      1  C   UNL     1     134.726  52.246  21.190  1.00  0.00     0.165 C 
ENDROOT
BRANCH   1   2
ATOM      2  C   UNL     1     134.853  52.165  19.660  1.00  0.00     0.190 C 
BRANCH   2   3
ATOM      3  O   UNL     1     136.149  51.775  19.295  1.00  0.00    -0.394 OA
ATOM      4  H   UNL     1     136.227  51.927  18.317  1.00  0.00     0.210 HD
ENDBRANCH   2   3
ENDBRANCH   1   2
BRANCH   1   5
ATOM      5  C   UNL     1     134.232  50.913  21.778  1.00  0.00     0.190 C 
BRANCH   5   6
ATOM      6  O   UNL     1     134.933  49.838  21.213  1.00  0.00    -0.394 OA
ATOM      7  H   UNL     1     134.255  49.166  20.945  1.00  0.00     0.210 HD
ENDBRANCH   5   6
ENDBRANCH   1   5
BRANCH   1   8
ATOM      8  O   UNL     1     133.875  53.301  21.564  1.00  0.00    -0.388 OA
ATOM      9  H   UNL     1     133.147  52.916  22.119  1.00  0.00     0.211 HD
ENDBRANCH   1   8
TORSDOF 5
ENDMDL
