MODEL 1
REMARK VINA RESULT:    -3.517      0.000      0.000
REMARK INTER + INTRA:          -6.008
REMARK INTER:                  -5.574
REMARK INTRA:                  -0.435
REMARK UNBOUND:                -0.435
REMARK SMILES CCCCCCCCCCCC(=O)[O-]
REMARK SMILES IDX 7 1 8 2 9 3 10 4 11 5 12 6 13 7 14 8 6 9 5 10 4 11 3 12 2 13
REMARK SMILES IDX 1 14
REMARK H PARENT
REMARK Flexibility Score: inf
ROOT
ATOM      1  C   UNL     1      11.678  -8.226   6.509  1.00  0.00     0.000 C 
ENDROOT
BRANCH   1   2
ATOM      2  C   UNL     1      13.025  -8.569   5.849  1.00  0.00     0.000 C 
BRANCH   2   3
ATOM      3  C   UNL     1      14.203  -8.490   6.834  1.00  0.00     0.000 C 
BRANCH   3   4
ATOM      4  C   UNL     1      15.502  -8.019   6.165  1.00  0.00     0.006 C 
BRANCH   4   5
ATOM      5  C   UNL     1      16.293  -7.093   7.094  1.00  0.00     0.053 C 
BRANCH   5   6
ATOM      6  C   UNL     1      17.748  -7.437   7.062  1.00  0.00     0.041 C 
ATOM      7  O   UNL     1      18.249  -7.980   6.042  1.00  0.00    -0.550 OA
ATOM      8  O   UNL     1      18.562  -7.113   8.140  1.00  0.00    -0.550 OA
ENDBRANCH   5   6
ENDBRANCH   4   5
ENDBRANCH   3   4
ENDBRANCH   2   3
ENDBRANCH   1   2
BRANCH   1   9
ATOM      9  C   UNL     1      10.539  -8.093   5.486  1.00  0.00     0.000 C 
BRANCH   9  10
ATOM     10  C   UNL     1       9.445  -9.158   5.680  1.00  0.00    -0.000 C 
BRANCH  10  11
ATOM     11  C   UNL     1       9.071  -9.360   7.158  1.00  0.00    -0.000 C 
BRANCH  11  12
ATOM     12  C   UNL     1       7.707  -8.741   7.511  1.00  0.00    -0.000 C 
BRANCH  12  13
ATOM     13  C   UNL     1       7.018  -8.103   6.294  1.00  0.00    -0.003 C 
ATOM     14  C   UNL     1       6.413  -6.734   6.605  1.00  0.00     0.004 C 
ENDBRANCH  12  13
ENDBRANCH  11  12
ENDBRANCH  10  11
ENDBRANCH   9  10
ENDBRANCH   1   9
TORSDOF 10
ENDMDL
MODEL 2
REMARK VINA RESULT:    -3.466      1.181      1.703
REMARK INTER + INTRA:          -5.927
REMARK INTER:                  -5.193
REMARK INTRA:                  -0.734
REMARK UNBOUND:                -0.435
REMARK SMILES CCCCCCCCCCCC(=O)[O-]
REMARK SMILES IDX 7 1 8 2 9 3 10 4 11 5 12 6 13 7 14 8 6 9 5 10 4 11 3 12 2 13
REMARK SMILES IDX 1 14
REMARK H PARENT
REMARK Flexibility Score: inf
ROOT
ATOM      1  C   UNL     1      11.340  -7.481   4.903  1.00  0.00     0.000 C 
ENDROOT
BRANCH   1   2
ATOM      2  C   UNL     1      12.797  -7.793   4.525  1.00  0.00     0.000 C 
BRANCH   2   3
ATOM      3  C   UNL     1      13.251  -9.179   5.013  1.00  0.00     0.000 C 
BRANCH   3   4
ATOM      4  C   UNL     1      14.687  -9.173   5.557  1.00  0.00     0.006 C 
BRANCH   4   5
ATOM      5  C   UNL     1      14.798  -8.285   6.801  1.00  0.00     0.053 C 
BRANCH   5   6
ATOM      6  C   UNL     1      15.890  -7.278   6.630  1.00  0.00     0.041 C 
ATOM      7  O   UNL     1      16.657  -7.005   7.591  1.00  0.00    -0.550 OA
ATOM      8  O   UNL     1      16.094  -6.676   5.395  1.00  0.00    -0.550 OA
ENDBRANCH   5   6
ENDBRANCH   4   5
ENDBRANCH   3   4
ENDBRANCH   2   3
ENDBRANCH   1   2
BRANCH   1   9
ATOM      9  C   UNL     1      10.878  -8.250   6.152  1.00  0.00     0.000 C 
BRANCH   9  10
ATOM     10  C   UNL     1       9.544  -8.985   5.931  1.00  0.00    -0.000 C 
BRANCH  10  11
ATOM     11  C   UNL     1       8.929  -9.503   7.241  1.00  0.00    -0.000 C 
BRANCH  11  12
ATOM     12  C   UNL     1       7.580  -8.839   7.564  1.00  0.00    -0.000 C 
BRANCH  12  13
ATOM     13  C   UNL     1       6.946  -8.169   6.334  1.00  0.00    -0.003 C 
ATOM     14  C   UNL     1       6.492  -6.735   6.607  1.00  0.00     0.004 C 
ENDBRANCH  12  13
ENDBRANCH  11  12
ENDBRANCH  10  11
ENDBRANCH   9  10
ENDBRANCH   1   9
TORSDOF 10
ENDMDL
MODEL 3
REMARK VINA RESULT:    -3.463      3.888      8.111
REMARK INTER + INTRA:          -5.923
REMARK INTER:                  -5.053
REMARK INTRA:                  -0.870
REMARK UNBOUND:                -0.435
REMARK SMILES CCCCCCCCCCCC(=O)[O-]
REMARK SMILES IDX 7 1 8 2 9 3 10 4 11 5 12 6 13 7 14 8 6 9 5 10 4 11 3 12 2 13
REMARK SMILES IDX 1 14
REMARK H PARENT
REMARK Flexibility Score: inf
ROOT
ATOM      1  C   UNL     1      15.766  -7.576   6.542  1.00  0.00     0.000 C 
ENDROOT
BRANCH   1   2
ATOM      2  C   UNL     1      14.438  -8.350   6.499  1.00  0.00     0.000 C 
BRANCH   2   3
ATOM      3  C   UNL     1      13.865  -8.465   5.077  1.00  0.00     0.000 C 
BRANCH   3   4
ATOM      4  C   UNL     1      12.425  -7.943   4.976  1.00  0.00     0.006 C 
BRANCH   4   5
ATOM      5  C   UNL     1      11.675  -8.144   6.296  1.00  0.00     0.053 C 
BRANCH   5   6
ATOM      6  C   UNL     1      10.217  -8.363   6.043  1.00  0.00     0.041 C 
ATOM      7  O   UNL     1       9.628  -7.719   5.135  1.00  0.00    -0.550 OA
ATOM      8  O   UNL     1       9.519  -9.314   6.776  1.00  0.00    -0.550 OA
ENDBRANCH   5   6
ENDBRANCH   4   5
ENDBRANCH   3   4
ENDBRANCH   2   3
ENDBRANCH   1   2
BRANCH   1   9
ATOM      9  C   UNL     1      16.061  -6.841   5.225  1.00  0.00     0.000 C 
BRANCH   9  10
ATOM     10  C   UNL     1      17.422  -7.234   4.624  1.00  0.00    -0.000 C 
BRANCH  10  11
ATOM     11  C   UNL     1      18.095  -8.388   5.385  1.00  0.00    -0.000 C 
BRANCH  11  12
ATOM     12  C   UNL     1      19.414  -7.965   6.054  1.00  0.00    -0.000 C 
BRANCH  12  13
ATOM     13  C   UNL     1      19.436  -8.277   7.559  1.00  0.00    -0.003 C 
ATOM     14  C   UNL     1      18.938  -7.111   8.414  1.00  0.00     0.004 C 
ENDBRANCH  12  13
ENDBRANCH  11  12
ENDBRANCH  10  11
ENDBRANCH   9  10
ENDBRANCH   1   9
TORSDOF 10
ENDMDL
MODEL 4
REMARK VINA RESULT:    -3.428      1.991      3.536
REMARK INTER + INTRA:          -5.867
REMARK INTER:                  -5.059
REMARK INTRA:                  -0.808
REMARK UNBOUND:                -0.435
REMARK SMILES CCCCCCCCCCCC(=O)[O-]
REMARK SMILES IDX 7 1 8 2 9 3 10 4 11 5 12 6 13 7 14 8 6 9 5 10 4 11 3 12 2 13
REMARK SMILES IDX 1 14
REMARK H PARENT
REMARK Flexibility Score: inf
ROOT
ATOM      1  C   UNL     1      15.463  -7.633   6.475  1.00  0.00     0.000 C 
ENDROOT
BRANCH   1   2
ATOM      2  C   UNL     1      16.104  -6.830   5.332  1.00  0.00     0.000 C 
BRANCH   2   3
ATOM      3  C   UNL     1      17.314  -7.547   4.711  1.00  0.00     0.000 C 
BRANCH   3   4
ATOM      4  C   UNL     1      18.076  -8.408   5.729  1.00  0.00     0.006 C 
BRANCH   4   5
ATOM      5  C   UNL     1      19.207  -7.609   6.385  1.00  0.00     0.053 C 
BRANCH   5   6
ATOM      6  C   UNL     1      19.127  -7.716   7.876  1.00  0.00     0.041 C 
ATOM      7  O   UNL     1      18.440  -6.891   8.534  1.00  0.00    -0.550 OA
ATOM      8  O   UNL     1      19.773  -8.755   8.534  1.00  0.00    -0.550 OA
ENDBRANCH   5   6
ENDBRANCH   4   5
ENDBRANCH   3   4
ENDBRANCH   2   3
ENDBRANCH   1   2
BRANCH   1   9
ATOM      9  C   UNL     1      14.216  -8.410   6.022  1.00  0.00     0.000 C 
BRANCH   9  10
ATOM     10  C   UNL     1      13.566  -7.799   4.768  1.00  0.00    -0.000 C 
BRANCH  10  11
ATOM     11  C   UNL     1      12.054  -7.577   4.934  1.00  0.00    -0.000 C 
BRANCH  11  12
ATOM     12  C   UNL     1      11.534  -8.048   6.303  1.00  0.00    -0.000 C 
BRANCH  12  13
ATOM     13  C   UNL     1      10.181  -8.770   6.201  1.00  0.00    -0.003 C 
ATOM     14  C   UNL     1      10.048  -9.605   4.927  1.00  0.00     0.004 C 
ENDBRANCH  12  13
ENDBRANCH  11  12
ENDBRANCH  10  11
ENDBRANCH   9  10
ENDBRANCH   1   9
TORSDOF 10
ENDMDL
MODEL 5
REMARK VINA RESULT:    -3.387      1.035      1.816
REMARK INTER + INTRA:          -5.802
REMARK INTER:                  -5.205
REMARK INTRA:                  -0.597
REMARK UNBOUND:                -0.435
REMARK SMILES CCCCCCCCCCCC(=O)[O-]
REMARK SMILES IDX 7 1 8 2 9 3 10 4 11 5 12 6 13 7 14 8 6 9 5 10 4 11 3 12 2 13
REMARK SMILES IDX 1 14
REMARK H PARENT
REMARK Flexibility Score: inf
ROOT
ATOM      1  C   UNL     1      12.780  -8.442   6.882  1.00  0.00     0.000 C 
ENDROOT
BRANCH   1   2
ATOM      2  C   UNL     1      14.261  -8.639   6.518  1.00  0.00     0.000 C 
BRANCH   2   3
ATOM      3  C   UNL     1      14.690  -7.794   5.307  1.00  0.00     0.000 C 
BRANCH   3   4
ATOM      4  C   UNL     1      15.997  -7.027   5.556  1.00  0.00     0.006 C 
BRANCH   4   5
ATOM      5  C   UNL     1      16.401  -7.095   7.032  1.00  0.00     0.053 C 
BRANCH   5   6
ATOM      6  C   UNL     1      17.836  -7.496   7.165  1.00  0.00     0.041 C 
ATOM      7  O   UNL     1      18.529  -7.064   8.123  1.00  0.00    -0.550 OA
ATOM      8  O   UNL     1      18.396  -8.386   6.256  1.00  0.00    -0.550 OA
ENDBRANCH   5   6
ENDBRANCH   4   5
ENDBRANCH   3   4
ENDBRANCH   2   3
ENDBRANCH   1   2
BRANCH   1   9
ATOM      9  C   UNL     1      11.954  -7.890   5.710  1.00  0.00     0.000 C 
BRANCH   9  10
ATOM     10  C   UNL     1      10.665  -8.695   5.468  1.00  0.00    -0.000 C 
BRANCH  10  11
ATOM     11  C   UNL     1       9.506  -7.820   4.962  1.00  0.00    -0.000 C 
BRANCH  11  12
ATOM     12  C   UNL     1       8.171  -8.153   5.650  1.00  0.00    -0.000 C 
BRANCH  12  13
ATOM     13  C   UNL     1       8.279  -9.365   6.588  1.00  0.00    -0.003 C 
ATOM     14  C   UNL     1       7.718  -9.088   7.983  1.00  0.00     0.004 C 
ENDBRANCH  12  13
ENDBRANCH  11  12
ENDBRANCH  10  11
ENDBRANCH   9  10
ENDBRANCH   1   9
TORSDOF 10
ENDMDL
MODEL 6
REMARK VINA RESULT:    -3.373      4.068      8.818
REMARK INTER + INTRA:          -5.780
REMARK INTER:                  -4.876
REMARK INTRA:                  -0.904
REMARK UNBOUND:                -0.435
REMARK SMILES CCCCCCCCCCCC(=O)[O-]
REMARK SMILES IDX 7 1 8 2 9 3 10 4 11 5 12 6 13 7 14 8 6 9 5 10 4 11 3 12 2 13
REMARK SMILES IDX 1 14
REMARK H PARENT
REMARK Flexibility Score: inf
ROOT
ATOM      1  C   UNL     1      18.773  -7.089   7.647  1.00  0.00     0.000 C 
ENDROOT
BRANCH   1   2
ATOM      2  C   UNL     1      17.260  -7.154   7.911  1.00  0.00     0.000 C 
BRANCH   2   3
ATOM      3  C   UNL     1      16.429  -7.041   6.623  1.00  0.00     0.000 C 
BRANCH   3   4
ATOM      4  C   UNL     1      15.901  -8.400   6.139  1.00  0.00     0.006 C 
BRANCH   4   5
ATOM      5  C   UNL     1      14.577  -8.238   5.387  1.00  0.00     0.053 C 
BRANCH   5   6
ATOM      6  C   UNL     1      13.422  -8.325   6.335  1.00  0.00     0.041 C 
ATOM      7  O   UNL     1      12.260  -8.037   5.946  1.00  0.00    -0.550 OA
ATOM      8  O   UNL     1      13.622  -8.773   7.634  1.00  0.00    -0.550 OA
ENDBRANCH   5   6
ENDBRANCH   4   5
ENDBRANCH   3   4
ENDBRANCH   2   3
ENDBRANCH   1   2
BRANCH   1   9
ATOM      9  C   UNL     1      19.408  -8.483   7.520  1.00  0.00     0.000 C 
BRANCH   9  10
ATOM     10  C   UNL     1      20.235  -8.638   6.231  1.00  0.00    -0.000 C 
BRANCH  10  11
ATOM     11  C   UNL     1      19.463  -8.202   4.976  1.00  0.00    -0.000 C 
BRANCH  11  12
ATOM     12  C   UNL     1      20.245  -7.186   4.125  1.00  0.00    -0.000 C 
BRANCH  12  13
ATOM     13  C   UNL     1      21.063  -6.207   4.983  1.00  0.00    -0.003 C 
ATOM     14  C   UNL     1      21.153  -4.810   4.368  1.00  0.00     0.004 C 
ENDBRANCH  12  13
ENDBRANCH  11  12
ENDBRANCH  10  11
ENDBRANCH   9  10
ENDBRANCH   1   9
TORSDOF 10
ENDMDL
MODEL 7
REMARK VINA RESULT:    -3.329      4.574      8.245
REMARK INTER + INTRA:          -5.710
REMARK INTER:                  -5.231
REMARK INTRA:                  -0.479
REMARK UNBOUND:                -0.435
REMARK SMILES CCCCCCCCCCCC(=O)[O-]
REMARK SMILES IDX 7 1 8 2 9 3 10 4 11 5 12 6 13 7 14 8 6 9 5 10 4 11 3 12 2 13
REMARK SMILES IDX 1 14
REMARK H PARENT
REMARK Flexibility Score: inf
ROOT
ATOM      1  C   UNL     1      11.833  -7.590   5.070  1.00  0.00     0.000 C 
ENDROOT
BRANCH   1   2
ATOM      2  C   UNL     1      11.102  -8.308   6.216  1.00  0.00     0.000 C 
BRANCH   2   3
ATOM      3  C   UNL     1       9.642  -8.642   5.869  1.00  0.00     0.000 C 
BRANCH   3   4
ATOM      4  C   UNL     1       8.968  -9.522   6.932  1.00  0.00     0.006 C 
BRANCH   4   5
ATOM      5  C   UNL     1       7.831  -8.767   7.627  1.00  0.00     0.053 C 
BRANCH   5   6
ATOM      6  C   UNL     1       6.876  -8.212   6.617  1.00  0.00     0.041 C 
ATOM      7  O   UNL     1       6.262  -8.984   5.834  1.00  0.00    -0.550 OA
ATOM      8  O   UNL     1       6.628  -6.846   6.572  1.00  0.00    -0.550 OA
ENDBRANCH   5   6
ENDBRANCH   4   5
ENDBRANCH   3   4
ENDBRANCH   2   3
ENDBRANCH   1   2
BRANCH   1   9
ATOM      9  C   UNL     1      13.321  -7.968   4.992  1.00  0.00     0.000 C 
BRANCH   9  10
ATOM     10  C   UNL     1      13.902  -8.357   6.363  1.00  0.00    -0.000 C 
BRANCH  10  11
ATOM     11  C   UNL     1      15.393  -8.006   6.495  1.00  0.00    -0.000 C 
BRANCH  11  12
ATOM     12  C   UNL     1      15.888  -7.095   5.359  1.00  0.00    -0.000 C 
BRANCH  12  13
ATOM     13  C   UNL     1      17.384  -7.289   5.059  1.00  0.00    -0.003 C 
ATOM     14  C   UNL     1      18.166  -7.819   6.260  1.00  0.00     0.004 C 
ENDBRANCH  12  13
ENDBRANCH  11  12
ENDBRANCH  10  11
ENDBRANCH   9  10
ENDBRANCH   1   9
TORSDOF 10
ENDMDL
MODEL 8
REMARK VINA RESULT:    -3.263      4.310      8.496
REMARK INTER + INTRA:          -5.605
REMARK INTER:                  -5.345
REMARK INTRA:                  -0.260
REMARK UNBOUND:                -0.435
REMARK SMILES CCCCCCCCCCCC(=O)[O-]
REMARK SMILES IDX 7 1 8 2 9 3 10 4 11 5 12 6 13 7 14 8 6 9 5 10 4 11 3 12 2 13
REMARK SMILES IDX 1 14
REMARK H PARENT
REMARK Flexibility Score: inf
ROOT
ATOM      1  C   UNL     1      13.875  -7.968   5.604  1.00  0.00     0.000 C 
ENDROOT
BRANCH   1   2
ATOM      2  C   UNL     1      12.415  -7.927   5.122  1.00  0.00     0.000 C 
BRANCH   2   3
ATOM      3  C   UNL     1      11.411  -8.189   6.256  1.00  0.00     0.000 C 
BRANCH   3   4
ATOM      4  C   UNL     1       9.980  -8.400   5.740  1.00  0.00     0.006 C 
BRANCH   4   5
ATOM      5  C   UNL     1       9.248  -9.459   6.571  1.00  0.00     0.053 C 
BRANCH   5   6
ATOM      6  C   UNL     1       8.009  -8.883   7.181  1.00  0.00     0.041 C 
ATOM      7  O   UNL     1       7.665  -9.212   8.347  1.00  0.00    -0.550 OA
ATOM      8  O   UNL     1       7.261  -7.945   6.481  1.00  0.00    -0.550 OA
ENDBRANCH   5   6
ENDBRANCH   4   5
ENDBRANCH   3   4
ENDBRANCH   2   3
ENDBRANCH   1   2
BRANCH   1   9
ATOM      9  C   UNL     1      14.868  -7.548   4.509  1.00  0.00     0.000 C 
BRANCH   9  10
ATOM     10  C   UNL     1      16.085  -6.794   5.075  1.00  0.00    -0.000 C 
BRANCH  10  11
ATOM     11  C   UNL     1      16.601  -7.404   6.388  1.00  0.00    -0.000 C 
BRANCH  11  12
ATOM     12  C   UNL     1      18.114  -7.680   6.357  1.00  0.00    -0.000 C 
BRANCH  12  13
ATOM     13  C   UNL     1      18.804  -7.322   7.683  1.00  0.00    -0.003 C 
ATOM     14  C   UNL     1      19.551  -8.503   8.302  1.00  0.00     0.004 C 
ENDBRANCH  12  13
ENDBRANCH  11  12
ENDBRANCH  10  11
ENDBRANCH   9  10
ENDBRANCH   1   9
TORSDOF 10
ENDMDL
MODEL 9
REMARK VINA RESULT:    -3.262      3.005      6.057
REMARK INTER + INTRA:          -5.603
REMARK INTER:                  -4.777
REMARK INTRA:                  -0.826
REMARK UNBOUND:                -0.435
REMARK SMILES CCCCCCCCCCCC(=O)[O-]
REMARK SMILES IDX 7 1 8 2 9 3 10 4 11 5 12 6 13 7 14 8 6 9 5 10 4 11 3 12 2 13
REMARK SMILES IDX 1 14
REMARK H PARENT
REMARK Flexibility Score: inf
ROOT
ATOM      1  C   UNL     1      18.797  -7.120   7.657  1.00  0.00     0.000 C 
ENDROOT
BRANCH   1   2
ATOM      2  C   UNL     1      19.464  -8.504   7.731  1.00  0.00     0.000 C 
BRANCH   2   3
ATOM      3  C   UNL     1      19.575  -9.181   6.355  1.00  0.00     0.000 C 
BRANCH   3   4
ATOM      4  C   UNL     1      19.725  -8.169   5.209  1.00  0.00     0.006 C 
BRANCH   4   5
ATOM      5  C   UNL     1      21.188  -8.052   4.770  1.00  0.00     0.053 C 
BRANCH   5   6
ATOM      6  C   UNL     1      21.632  -6.623   4.805  1.00  0.00     0.041 C 
ATOM      7  O   UNL     1      20.811  -5.711   5.085  1.00  0.00    -0.550 OA
ATOM      8  O   UNL     1      22.964  -6.304   4.575  1.00  0.00    -0.550 OA
ENDBRANCH   5   6
ENDBRANCH   4   5
ENDBRANCH   3   4
ENDBRANCH   2   3
ENDBRANCH   1   2
BRANCH   1   9
ATOM      9  C   UNL     1      17.295  -7.172   7.978  1.00  0.00     0.000 C 
BRANCH   9  10
ATOM     10  C   UNL     1      16.420  -7.132   6.712  1.00  0.00    -0.000 C 
BRANCH  10  11
ATOM     11  C   UNL     1      15.812  -8.502   6.369  1.00  0.00    -0.000 C 
BRANCH  11  12
ATOM     12  C   UNL     1      14.360  -8.642   6.855  1.00  0.00    -0.000 C 
BRANCH  12  13
ATOM     13  C   UNL     1      13.340  -8.196   5.794  1.00  0.00    -0.003 C 
ATOM     14  C   UNL     1      11.900  -8.219   6.308  1.00  0.00     0.004 C 
ENDBRANCH  12  13
ENDBRANCH  11  12
ENDBRANCH  10  11
ENDBRANCH   9  10
ENDBRANCH   1   9
TORSDOF 10
ENDMDL
