MODEL 1
REMARK VINA RESULT:    -4.461      0.000      0.000
REMARK INTER + INTRA:          -6.168
REMARK INTER:                  -6.287
REMARK INTRA:                   0.119
REMARK UNBOUND:                 0.119
REMARK SMILES CC1=CCC(=C(C)C)C(=O)CC(C)=CCC1
REMARK SMILES IDX 12 1 14 2 13 3 15 4 16 5 2 6 1 7 3 8 11 10 9 11 10 12 5 13
REMARK SMILES IDX 6 14 7 15 8 16 4 17
REMARK H PARENT
REMARK Flexibility Score: 60.00
ROOT
ATOM      1  C   UNL     1      15.143 -17.995 -18.879  1.00  0.00    -0.070 C 
ATOM      2  C   UNL     1      16.253 -17.623 -19.579  1.00  0.00    -0.027 C 
ATOM      3  C   UNL     1      15.376 -18.701 -17.563  1.00  0.00     0.039 C 
ENDROOT
BRANCH   2   4
ATOM      4  C   UNL     1      16.413 -16.956 -20.940  1.00  0.00     0.032 C 
BRANCH   4   5
ATOM      5  C   UNL     1      15.840 -17.693 -22.156  1.00  0.00     0.034 C 
BRANCH   5   6
ATOM      6  C   UNL     1      14.751 -16.996 -22.985  1.00  0.00    -0.077 C 
ATOM      7  C   UNL     1      15.141 -15.658 -23.574  1.00  0.00     0.039 C 
ATOM      8  C   UNL     1      13.455 -17.375 -23.194  1.00  0.00    -0.023 CG0
ATOM      9  G   UNL     1      12.688 -18.595 -22.721  1.00  0.00     0.000 G0
ENDBRANCH   5   6
ENDBRANCH   4   5
ENDBRANCH   2   4
BRANCH   1  10
ATOM     10  C   UNL     1      13.694 -17.765 -19.279  1.00  0.00     0.111 C 
BRANCH  10  11
ATOM     11  C   UNL     1      13.202 -18.821 -20.223  1.00  0.00     0.163 C 
ATOM     12  O   UNL     1      13.668 -19.989 -20.128  1.00  0.00    -0.294 OA
BRANCH  11  13
ATOM     13  C   UNL     1      12.215 -18.492 -21.283  1.00  0.00    -0.002 C 
ATOM     14  C   UNL     1      10.939 -18.116 -20.977  1.00  0.00    -0.069 C 
ATOM     15  C   UNL     1      10.512 -17.896 -19.543  1.00  0.00     0.039 C 
ATOM     16  C   UNL     1       9.901 -17.885 -22.051  1.00  0.00     0.039 C 
BRANCH  13  17
ATOM     17  C   UNL     1      12.704 -18.620 -22.709  1.00  0.00     0.066 CG0
ATOM     18  G   UNL     1      13.445 -17.380 -23.170  1.00  0.00     0.000 G0
ENDBRANCH  13  17
ENDBRANCH  11  13
ENDBRANCH  10  11
ENDBRANCH   1  10
TORSDOF 0
ENDMDL
MODEL 2
REMARK VINA RESULT:    -4.325      2.336      5.062
REMARK INTER + INTRA:          -5.976
REMARK INTER:                  -6.090
REMARK INTRA:                   0.114
REMARK UNBOUND:                 0.119
REMARK SMILES CC1=CCC(=C(C)C)C(=O)CC(C)=CCC1
REMARK SMILES IDX 12 1 14 2 13 3 15 4 16 5 2 6 1 7 3 8 11 10 9 11 10 12 5 13
REMARK SMILES IDX 6 14 7 15 8 16 4 17
REMARK H PARENT
REMARK Flexibility Score: 60.00
ROOT
ATOM      1  C   UNL     1       9.188 -18.253 -22.073  1.00  0.00    -0.070 C 
ATOM      2  C   UNL     1       9.612 -18.586 -20.820  1.00  0.00    -0.027 C 
ATOM      3  C   UNL     1       7.836 -18.782 -22.494  1.00  0.00     0.039 C 
ENDROOT
BRANCH   2   4
ATOM      4  C   UNL     1      10.913 -18.291 -20.083  1.00  0.00     0.032 C 
BRANCH   4   5
ATOM      5  C   UNL     1      12.148 -19.106 -20.483  1.00  0.00     0.034 C 
BRANCH   5   6
ATOM      6  C   UNL     1      13.247 -18.410 -21.298  1.00  0.00    -0.077 C 
ATOM      7  C   UNL     1      14.168 -17.506 -20.508  1.00  0.00     0.039 C 
ATOM      8  C   UNL     1      13.458 -18.429 -22.648  1.00  0.00    -0.023 CG0
ATOM      9  G   UNL     1      12.720 -19.151 -23.759  1.00  0.00     0.000 G0
ENDBRANCH   5   6
ENDBRANCH   4   5
ENDBRANCH   2   4
BRANCH   1  10
ATOM     10  C   UNL     1       9.930 -17.398 -23.089  1.00  0.00     0.111 C 
BRANCH  10  11
ATOM     11  C   UNL     1      10.418 -18.210 -24.251  1.00  0.00     0.163 C 
ATOM     12  O   UNL     1       9.587 -18.892 -24.911  1.00  0.00    -0.294 OA
BRANCH  11  13
ATOM     13  C   UNL     1      11.861 -18.248 -24.598  1.00  0.00    -0.002 C 
ATOM     14  C   UNL     1      12.368 -17.508 -25.627  1.00  0.00    -0.069 C 
ATOM     15  C   UNL     1      11.503 -16.521 -26.378  1.00  0.00     0.039 C 
ATOM     16  C   UNL     1      13.814 -17.625 -26.052  1.00  0.00     0.039 C 
BRANCH  13  17
ATOM     17  C   UNL     1      12.722 -19.167 -23.758  1.00  0.00     0.066 CG0
ATOM     18  G   UNL     1      13.452 -18.417 -22.660  1.00  0.00     0.000 G0
ENDBRANCH  13  17
ENDBRANCH  11  13
ENDBRANCH  10  11
ENDBRANCH   1  10
TORSDOF 0
ENDMDL
MODEL 3
REMARK VINA RESULT:    -4.306      2.552      3.619
REMARK INTER + INTRA:          -5.949
REMARK INTER:                  -5.980
REMARK INTRA:                   0.031
REMARK UNBOUND:                 0.119
REMARK SMILES CC1=CCC(=C(C)C)C(=O)CC(C)=CCC1
REMARK SMILES IDX 12 1 14 2 13 3 15 4 16 5 2 6 1 7 3 8 11 10 9 11 10 12 5 13
REMARK SMILES IDX 6 14 7 15 8 16 4 17
REMARK H PARENT
REMARK Flexibility Score: 60.00
ROOT
ATOM      1  C   UNL     1      14.455 -18.975 -19.357  1.00  0.00    -0.070 C 
ATOM      2  C   UNL     1      13.690 -17.916 -19.751  1.00  0.00    -0.027 C 
ATOM      3  C   UNL     1      15.328 -18.765 -18.141  1.00  0.00     0.039 C 
ENDROOT
BRANCH   2   4
ATOM      4  C   UNL     1      12.749 -17.737 -20.936  1.00  0.00     0.032 C 
BRANCH   4   5
ATOM      5  C   UNL     1      13.199 -16.788 -22.054  1.00  0.00     0.034 C 
BRANCH   5   6
ATOM      6  C   UNL     1      14.412 -17.189 -22.905  1.00  0.00    -0.077 C 
ATOM      7  C   UNL     1      15.321 -16.052 -23.316  1.00  0.00     0.039 C 
ATOM      8  C   UNL     1      14.740 -18.415 -23.412  1.00  0.00    -0.023 CG0
ATOM      9  G   UNL     1      14.053 -19.761 -23.278  1.00  0.00     0.000 G0
ENDBRANCH   5   6
ENDBRANCH   4   5
ENDBRANCH   2   4
BRANCH   1  10
ATOM     10  C   UNL     1      14.516 -20.348 -20.008  1.00  0.00     0.111 C 
BRANCH  10  11
ATOM     11  C   UNL     1      15.427 -20.361 -21.197  1.00  0.00     0.163 C 
ATOM     12  O   UNL     1      16.621 -19.977 -21.057  1.00  0.00    -0.294 OA
BRANCH  11  13
ATOM     13  C   UNL     1      14.928 -20.779 -22.532  1.00  0.00    -0.002 C 
ATOM     14  C   UNL     1      15.245 -21.995 -23.064  1.00  0.00    -0.069 C 
ATOM     15  C   UNL     1      16.015 -23.021 -22.263  1.00  0.00     0.039 C 
ATOM     16  C   UNL     1      14.829 -22.382 -24.465  1.00  0.00     0.039 C 
BRANCH  13  17
ATOM     17  C   UNL     1      14.071 -19.771 -23.266  1.00  0.00     0.066 CG0
ATOM     18  G   UNL     1      14.766 -18.431 -23.412  1.00  0.00     0.000 G0
ENDBRANCH  13  17
ENDBRANCH  11  13
ENDBRANCH  10  11
ENDBRANCH   1  10
TORSDOF 0
ENDMDL
MODEL 4
REMARK VINA RESULT:    -4.230      1.390      3.963
REMARK INTER + INTRA:          -5.842
REMARK INTER:                  -5.789
REMARK INTRA:                  -0.053
REMARK UNBOUND:                 0.119
REMARK SMILES CC1=CCC(=C(C)C)C(=O)CC(C)=CCC1
REMARK SMILES IDX 12 1 14 2 13 3 15 4 16 5 2 6 1 7 3 8 11 10 9 11 10 12 5 13
REMARK SMILES IDX 6 14 7 15 8 16 4 17
REMARK H PARENT
REMARK Flexibility Score: 60.00
ROOT
ATOM      1  C   UNL     1      11.559 -17.871 -21.123  1.00  0.00    -0.070 C 
ATOM      2  C   UNL     1      11.384 -17.548 -22.437  1.00  0.00    -0.027 C 
ATOM      3  C   UNL     1      10.459 -18.679 -20.472  1.00  0.00     0.039 C 
ENDROOT
BRANCH   2   4
ATOM      4  C   UNL     1      12.231 -16.717 -23.393  1.00  0.00     0.032 C 
BRANCH   4   5
ATOM      5  C   UNL     1      13.657 -17.205 -23.675  1.00  0.00     0.034 C 
BRANCH   5   6
ATOM      6  C   UNL     1      14.830 -16.405 -23.089  1.00  0.00    -0.077 C 
ATOM      7  C   UNL     1      15.000 -15.006 -23.639  1.00  0.00     0.039 C 
ATOM      8  C   UNL     1      15.788 -16.810 -22.204  1.00  0.00    -0.023 CG0
ATOM      9  G   UNL     1      15.991 -18.135 -21.496  1.00  0.00     0.000 G0
ENDBRANCH   5   6
ENDBRANCH   4   5
ENDBRANCH   2   4
BRANCH   1  10
ATOM     10  C   UNL     1      12.747 -17.510 -20.245  1.00  0.00     0.111 C 
BRANCH  10  11
ATOM     11  C   UNL     1      13.799 -18.577 -20.265  1.00  0.00     0.163 C 
ATOM     12  O   UNL     1      13.443 -19.785 -20.318  1.00  0.00    -0.294 OA
BRANCH  11  13
ATOM     13  C   UNL     1      15.240 -18.224 -20.180  1.00  0.00    -0.002 C 
ATOM     14  C   UNL     1      15.846 -17.981 -18.982  1.00  0.00    -0.069 C 
ATOM     15  C   UNL     1      15.106 -18.181 -17.678  1.00  0.00     0.039 C 
ATOM     16  C   UNL     1      17.282 -17.518 -18.898  1.00  0.00     0.039 C 
BRANCH  13  17
ATOM     17  C   UNL     1      15.981 -18.135 -21.497  1.00  0.00     0.066 CG0
ATOM     18  G   UNL     1      15.748 -16.808 -22.192  1.00  0.00     0.000 G0
ENDBRANCH  13  17
ENDBRANCH  11  13
ENDBRANCH  10  11
ENDBRANCH   1  10
TORSDOF 0
ENDMDL
MODEL 5
REMARK VINA RESULT:    -4.177      1.757      3.513
REMARK INTER + INTRA:          -5.767
REMARK INTER:                  -5.995
REMARK INTRA:                   0.229
REMARK UNBOUND:                 0.119
REMARK SMILES CC1=CCC(=C(C)C)C(=O)CC(C)=CCC1
REMARK SMILES IDX 12 1 14 2 13 3 15 4 16 5 2 6 1 7 3 8 11 10 9 11 10 12 5 13
REMARK SMILES IDX 6 14 7 15 8 16 4 17
REMARK H PARENT
REMARK Flexibility Score: 60.00
ROOT
ATOM      1  C   UNL     1      14.926 -17.051 -21.981  1.00  0.00    -0.070 C 
ATOM      2  C   UNL     1      15.454 -17.446 -20.787  1.00  0.00    -0.027 C 
ATOM      3  C   UNL     1      15.860 -17.055 -23.170  1.00  0.00     0.039 C 
ENDROOT
BRANCH   2   4
ATOM      4  C   UNL     1      14.849 -17.518 -19.390  1.00  0.00     0.032 C 
BRANCH   4   5
ATOM      5  C   UNL     1      14.353 -18.887 -18.908  1.00  0.00     0.034 C 
BRANCH   5   6
ATOM      6  C   UNL     1      13.837 -19.885 -19.955  1.00  0.00    -0.077 C 
ATOM      7  C   UNL     1      14.769 -21.034 -20.272  1.00  0.00     0.039 C 
ATOM      8  C   UNL     1      12.692 -19.834 -20.700  1.00  0.00    -0.023 CG0
ATOM      9  G   UNL     1      11.562 -18.823 -20.717  1.00  0.00     0.000 G0
ENDBRANCH   5   6
ENDBRANCH   4   5
ENDBRANCH   2   4
BRANCH   1  10
ATOM     10  C   UNL     1      13.494 -16.612 -22.244  1.00  0.00     0.111 C 
BRANCH  10  11
ATOM     11  C   UNL     1      12.652 -17.738 -22.764  1.00  0.00     0.163 C 
ATOM     12  O   UNL     1      13.003 -18.325 -23.824  1.00  0.00    -0.294 OA
BRANCH  11  13
ATOM     13  C   UNL     1      11.401 -18.135 -22.069  1.00  0.00    -0.002 C 
ATOM     14  C   UNL     1      10.174 -17.900 -22.619  1.00  0.00    -0.069 C 
ATOM     15  C   UNL     1      10.040 -17.338 -24.017  1.00  0.00     0.039 C 
ATOM     16  C   UNL     1       8.897 -18.204 -21.869  1.00  0.00     0.039 C 
BRANCH  13  17
ATOM     17  C   UNL     1      11.571 -18.793 -20.716  1.00  0.00     0.066 CG0
ATOM     18  G   UNL     1      12.683 -19.824 -20.721  1.00  0.00     0.000 G0
ENDBRANCH  13  17
ENDBRANCH  11  13
ENDBRANCH  10  11
ENDBRANCH   1  10
TORSDOF 0
ENDMDL
MODEL 6
REMARK VINA RESULT:    -4.113      1.830      5.356
REMARK INTER + INTRA:          -5.677
REMARK INTER:                  -5.748
REMARK INTRA:                   0.071
REMARK UNBOUND:                 0.119
REMARK SMILES CC1=CCC(=C(C)C)C(=O)CC(C)=CCC1
REMARK SMILES IDX 12 1 14 2 13 3 15 4 16 5 2 6 1 7 3 8 11 10 9 11 10 12 5 13
REMARK SMILES IDX 6 14 7 15 8 16 4 17
REMARK H PARENT
REMARK Flexibility Score: 60.00
ROOT
ATOM      1  C   UNL     1      11.133 -16.544 -23.813  1.00  0.00    -0.070 C 
ATOM      2  C   UNL     1       9.953 -17.022 -23.324  1.00  0.00    -0.027 C 
ATOM      3  C   UNL     1      11.160 -16.180 -25.280  1.00  0.00     0.039 C 
ENDROOT
BRANCH   2   4
ATOM      4  C   UNL     1       9.567 -17.534 -21.941  1.00  0.00     0.032 C 
BRANCH   4   5
ATOM      5  C   UNL     1      10.442 -18.634 -21.328  1.00  0.00     0.034 C 
BRANCH   5   6
ATOM      6  C   UNL     1      11.332 -18.273 -20.130  1.00  0.00    -0.077 C 
ATOM      7  C   UNL     1      10.617 -17.633 -18.960  1.00  0.00     0.039 C 
ATOM      8  C   UNL     1      12.689 -18.374 -20.006  1.00  0.00    -0.023 CG0
ATOM      9  G   UNL     1      13.739 -18.893 -20.969  1.00  0.00     0.000 G0
ENDBRANCH   5   6
ENDBRANCH   4   5
ENDBRANCH   2   4
BRANCH   1  10
ATOM     10  C   UNL     1      12.423 -16.331 -23.036  1.00  0.00     0.111 C 
BRANCH  10  11
ATOM     11  C   UNL     1      13.300 -17.546 -23.067  1.00  0.00     0.163 C 
ATOM     12  O   UNL     1      13.215 -18.336 -24.046  1.00  0.00    -0.294 OA
BRANCH  11  13
ATOM     13  C   UNL     1      14.226 -17.843 -21.945  1.00  0.00    -0.002 C 
ATOM     14  C   UNL     1      15.427 -17.206 -21.823  1.00  0.00    -0.069 C 
ATOM     15  C   UNL     1      15.812 -16.080 -22.756  1.00  0.00     0.039 C 
ATOM     16  C   UNL     1      16.419 -17.581 -20.745  1.00  0.00     0.039 C 
BRANCH  13  17
ATOM     17  C   UNL     1      13.766 -18.901 -20.965  1.00  0.00     0.066 CG0
ATOM     18  G   UNL     1      12.693 -18.381 -20.028  1.00  0.00     0.000 G0
ENDBRANCH  13  17
ENDBRANCH  11  13
ENDBRANCH  10  11
ENDBRANCH   1  10
TORSDOF 0
ENDMDL
MODEL 7
REMARK VINA RESULT:    -4.086      2.526      3.221
REMARK INTER + INTRA:          -5.640
REMARK INTER:                  -5.621
REMARK INTRA:                  -0.019
REMARK UNBOUND:                 0.119
REMARK SMILES CC1=CCC(=C(C)C)C(=O)CC(C)=CCC1
REMARK SMILES IDX 12 1 14 2 13 3 15 4 16 5 2 6 1 7 3 8 11 10 9 11 10 12 5 13
REMARK SMILES IDX 6 14 7 15 8 16 4 17
REMARK H PARENT
REMARK Flexibility Score: 60.00
ROOT
ATOM      1  C   UNL     1      14.335 -20.311 -20.382  1.00  0.00    -0.070 C 
ATOM      2  C   UNL     1      15.254 -21.113 -20.993  1.00  0.00    -0.027 C 
ATOM      3  C   UNL     1      14.657 -19.860 -18.976  1.00  0.00     0.039 C 
ENDROOT
BRANCH   2   4
ATOM      4  C   UNL     1      15.252 -21.795 -22.356  1.00  0.00     0.032 C 
BRANCH   4   5
ATOM      5  C   UNL     1      15.499 -20.911 -23.585  1.00  0.00     0.034 C 
BRANCH   5   6
ATOM      6  C   UNL     1      14.371 -20.766 -24.616  1.00  0.00    -0.077 C 
ATOM      7  C   UNL     1      14.188 -21.943 -25.548  1.00  0.00     0.039 C 
ATOM      8  C   UNL     1      13.565 -19.690 -24.863  1.00  0.00    -0.023 CG0
ATOM      9  G   UNL     1      13.493 -18.330 -24.197  1.00  0.00     0.000 G0
ENDBRANCH   5   6
ENDBRANCH   4   5
ENDBRANCH   2   4
BRANCH   1  10
ATOM     10  C   UNL     1      13.023 -19.816 -20.971  1.00  0.00     0.111 C 
BRANCH  10  11
ATOM     11  C   UNL     1      13.194 -18.517 -21.700  1.00  0.00     0.163 C 
ATOM     12  O   UNL     1      13.860 -17.595 -21.156  1.00  0.00    -0.294 OA
BRANCH  11  13
ATOM     13  C   UNL     1      12.555 -18.299 -23.023  1.00  0.00    -0.002 C 
ATOM     14  C   UNL     1      11.209 -18.107 -23.142  1.00  0.00    -0.069 C 
ATOM     15  C   UNL     1      10.326 -17.983 -21.920  1.00  0.00     0.039 C 
ATOM     16  C   UNL     1      10.541 -17.992 -24.493  1.00  0.00     0.039 C 
BRANCH  13  17
ATOM     17  C   UNL     1      13.481 -18.323 -24.220  1.00  0.00     0.066 CG0
ATOM     18  G   UNL     1      13.560 -19.700 -24.850  1.00  0.00     0.000 G0
ENDBRANCH  13  17
ENDBRANCH  11  13
ENDBRANCH  10  11
ENDBRANCH   1  10
TORSDOF 0
ENDMDL
MODEL 8
REMARK VINA RESULT:    -4.054      1.395      4.091
REMARK INTER + INTRA:          -5.594
REMARK INTER:                  -5.769
REMARK INTRA:                   0.175
REMARK UNBOUND:                 0.119
REMARK SMILES CC1=CCC(=C(C)C)C(=O)CC(C)=CCC1
REMARK SMILES IDX 12 1 14 2 13 3 15 4 16 5 2 6 1 7 3 8 11 10 9 11 10 12 5 13
REMARK SMILES IDX 6 14 7 15 8 16 4 17
REMARK H PARENT
REMARK Flexibility Score: 60.00
ROOT
ATOM      1  C   UNL     1      10.430 -18.268 -21.050  1.00  0.00    -0.070 C 
ATOM      2  C   UNL     1      10.441 -17.835 -22.343  1.00  0.00    -0.027 C 
ATOM      3  C   UNL     1       9.198 -19.017 -20.595  1.00  0.00     0.039 C 
ENDROOT
BRANCH   2   4
ATOM      4  C   UNL     1      11.461 -17.018 -23.127  1.00  0.00     0.032 C 
BRANCH   4   5
ATOM      5  C   UNL     1      12.157 -17.707 -24.307  1.00  0.00     0.034 C 
BRANCH   5   6
ATOM      6  C   UNL     1      13.401 -18.560 -24.021  1.00  0.00    -0.077 C 
ATOM      7  C   UNL     1      13.643 -19.698 -24.988  1.00  0.00     0.039 C 
ATOM      8  C   UNL     1      14.271 -18.485 -22.971  1.00  0.00    -0.023 CG0
ATOM      9  G   UNL     1      14.321 -17.540 -21.786  1.00  0.00     0.000 G0
ENDBRANCH   5   6
ENDBRANCH   4   5
ENDBRANCH   2   4
BRANCH   1  10
ATOM     10  C   UNL     1      11.533 -18.083 -20.018  1.00  0.00     0.111 C 
BRANCH  10  11
ATOM     11  C   UNL     1      12.740 -18.911 -20.338  1.00  0.00     0.163 C 
ATOM     12  O   UNL     1      12.612 -20.160 -20.456  1.00  0.00    -0.294 OA
BRANCH  11  13
ATOM     13  C   UNL     1      14.079 -18.281 -20.475  1.00  0.00    -0.002 C 
ATOM     14  C   UNL     1      15.005 -18.350 -19.474  1.00  0.00    -0.069 C 
ATOM     15  C   UNL     1      14.754 -19.178 -18.234  1.00  0.00     0.039 C 
ATOM     16  C   UNL     1      16.326 -17.621 -19.565  1.00  0.00     0.039 C 
BRANCH  13  17
ATOM     17  C   UNL     1      14.339 -17.548 -21.773  1.00  0.00     0.066 CG0
ATOM     18  G   UNL     1      14.286 -18.476 -22.971  1.00  0.00     0.000 G0
ENDBRANCH  13  17
ENDBRANCH  11  13
ENDBRANCH  10  11
ENDBRANCH   1  10
TORSDOF 0
ENDMDL
MODEL 9
REMARK VINA RESULT:    -3.915      1.739      4.453
REMARK INTER + INTRA:          -5.398
REMARK INTER:                  -5.558
REMARK INTRA:                   0.161
REMARK UNBOUND:                 0.119
REMARK SMILES CC1=CCC(=C(C)C)C(=O)CC(C)=CCC1
REMARK SMILES IDX 12 1 14 2 13 3 15 4 16 5 2 6 1 7 3 8 11 10 9 11 10 12 5 13
REMARK SMILES IDX 6 14 7 15 8 16 4 17
REMARK H PARENT
REMARK Flexibility Score: 60.00
ROOT
ATOM      1  C   UNL     1      10.707 -18.227 -20.717  1.00  0.00    -0.070 C 
ATOM      2  C   UNL     1       9.635 -17.874 -21.482  1.00  0.00    -0.027 C 
ATOM      3  C   UNL     1      10.504 -18.215 -19.219  1.00  0.00     0.039 C 
ENDROOT
BRANCH   2   4
ATOM      4  C   UNL     1       9.478 -17.719 -22.991  1.00  0.00     0.032 C 
BRANCH   4   5
ATOM      5  C   UNL     1      10.291 -16.611 -23.672  1.00  0.00     0.034 C 
BRANCH   5   6
ATOM      6  C   UNL     1      11.539 -17.010 -24.472  1.00  0.00    -0.077 C 
ATOM      7  C   UNL     1      11.275 -17.799 -25.736  1.00  0.00     0.039 C 
ATOM      8  C   UNL     1      12.856 -16.825 -24.158  1.00  0.00    -0.023 CG0
ATOM      9  G   UNL     1      13.509 -16.152 -22.967  1.00  0.00     0.000 G0
ENDBRANCH   5   6
ENDBRANCH   4   5
ENDBRANCH   2   4
BRANCH   1  10
ATOM     10  C   UNL     1      12.085 -18.639 -21.212  1.00  0.00     0.111 C 
BRANCH  10  11
ATOM     11  C   UNL     1      13.121 -17.599 -20.909  1.00  0.00     0.163 C 
ATOM     12  O   UNL     1      13.155 -17.088 -19.757  1.00  0.00    -0.294 OA
BRANCH  11  13
ATOM     13  C   UNL     1      14.067 -17.141 -21.958  1.00  0.00    -0.002 C 
ATOM     14  C   UNL     1      15.359 -17.582 -21.995  1.00  0.00    -0.069 C 
ATOM     15  C   UNL     1      15.847 -18.651 -21.043  1.00  0.00     0.039 C 
ATOM     16  C   UNL     1      16.355 -17.038 -22.994  1.00  0.00     0.039 C 
BRANCH  13  17
ATOM     17  C   UNL     1      13.519 -16.151 -22.962  1.00  0.00     0.066 CG0
ATOM     18  G   UNL     1      12.863 -16.841 -24.142  1.00  0.00     0.000 G0
ENDBRANCH  13  17
ENDBRANCH  11  13
ENDBRANCH  10  11
ENDBRANCH   1  10
TORSDOF 0
ENDMDL
