MODEL 1
REMARK VINA RESULT:    -9.200      0.000      0.000
REMARK INTER + INTRA:         -13.030
REMARK INTER:                 -12.427
REMARK INTRA:                  -0.602
REMARK UNBOUND:                -0.602
REMARK SMILES O=c1c(-c2ccc(O)cc2)coc2c([C@H]3O[C@@H](CO)[C@H](O)[C@@H](O)[C@H]3O)c(O)ccc12
REMARK SMILES IDX 3 1 11 2 12 3 13 4 30 5 2 6 1 7 29 8 28 9 26 10 14 11 4 12
REMARK SMILES IDX 5 13 6 14 7 15 10 16 9 17 8 18 15 20 24 21 16 22 22 23 17 24
REMARK SMILES IDX 20 25 25 26 23 28 18 30 19 31 21 33 27 35
REMARK H PARENT 8 19 25 27 23 29 19 32 21 34 27 36
REMARK Flexibility Score: inf
ROOT
ATOM      1  C   UNL     1      -1.452  29.060 -15.490  1.00  0.00     0.065 A 
ATOM      2  C   UNL     1      -1.405  27.661 -15.414  1.00  0.00     0.208 A 
ATOM      3  O   UNL     1      -0.375  26.985 -15.909  1.00  0.00    -0.463 OA
ATOM      4  C   UNL     1       0.663  27.570 -16.501  1.00  0.00     0.147 A 
ATOM      5  C   UNL     1       0.698  28.980 -16.620  1.00  0.00     0.066 A 
ATOM      6  C   UNL     1      -0.381  29.726 -16.114  1.00  0.00     0.200 A 
ATOM      7  O   UNL     1      -0.398  30.983 -16.233  1.00  0.00    -0.288 OA
ATOM      8  C   UNL     1       1.799  29.596 -17.233  1.00  0.00     0.020 A 
ATOM      9  C   UNL     1       2.859  28.827 -17.708  1.00  0.00     0.047 A 
ATOM     10  C   UNL     1       2.839  27.431 -17.591  1.00  0.00     0.125 A 
ATOM     11  C   UNL     1       1.725  26.782 -17.005  1.00  0.00     0.069 A 
ENDROOT
BRANCH   1  12
ATOM     12  C   UNL     1      -2.612  29.793 -14.923  1.00  0.00    -0.011 A 
ATOM     13  C   UNL     1      -3.779  29.973 -15.686  1.00  0.00     0.013 A 
ATOM     14  C   UNL     1      -4.875  30.657 -15.152  1.00  0.00     0.047 A 
ATOM     15  C   UNL     1      -4.822  31.163 -13.847  1.00  0.00     0.115 A 
ATOM     16  C   UNL     1      -2.568  30.300 -13.611  1.00  0.00     0.013 A 
ATOM     17  C   UNL     1      -3.666  30.981 -13.080  1.00  0.00     0.047 A 
BRANCH  15  18
ATOM     18  O   UNL     1      -5.908  31.846 -13.304  1.00  0.00    -0.508 OA
ATOM     19  H   UNL     1      -5.804  32.768 -12.897  1.00  0.00     0.293 HD
ENDBRANCH  15  18
ENDBRANCH   1  12
BRANCH  11  20
ATOM     20  C   UNL     1       1.679  25.268 -16.838  1.00  0.00     0.188 C 
ATOM     21  C   UNL     1       1.725  24.883 -15.342  1.00  0.00     0.179 C 
ATOM     22  O   UNL     1       2.740  24.650 -17.548  1.00  0.00    -0.362 OA
ATOM     23  C   UNL     1       1.690  23.347 -15.192  1.00  0.00     0.177 C 
ATOM     24  C   UNL     1       2.591  23.239 -17.560  1.00  0.00     0.176 C 
ATOM     25  C   UNL     1       2.711  22.665 -16.125  1.00  0.00     0.177 C 
BRANCH  21  26
ATOM     26  O   UNL     1       2.843  25.439 -14.688  1.00  0.00    -0.387 OA
ATOM     27  H   UNL     1       3.547  24.744 -14.636  1.00  0.00     0.211 HD
ENDBRANCH  21  26
BRANCH  23  28
ATOM     28  O   UNL     1       1.949  22.980 -13.861  1.00  0.00    -0.387 OA
ATOM     29  H   UNL     1       2.256  23.801 -13.393  1.00  0.00     0.211 HD
ENDBRANCH  23  28
BRANCH  24  30
ATOM     30  C   UNL     1       3.675  22.665 -18.486  1.00  0.00     0.191 C 
BRANCH  30  31
ATOM     31  O   UNL     1       4.488  23.688 -18.999  1.00  0.00    -0.394 OA
ATOM     32  H   UNL     1       3.992  24.540 -18.886  1.00  0.00     0.210 HD
ENDBRANCH  30  31
ENDBRANCH  24  30
BRANCH  25  33
ATOM     33  O   UNL     1       2.465  21.282 -16.146  1.00  0.00    -0.388 OA
ATOM     34  H   UNL     1       1.580  21.139 -15.719  1.00  0.00     0.211 HD
ENDBRANCH  25  33
ENDBRANCH  11  20
BRANCH  10  35
ATOM     35  O   UNL     1       3.930  26.697 -18.056  1.00  0.00    -0.507 OA
ATOM     36  H   UNL     1       4.046  25.714 -17.837  1.00  0.00     0.293 HD
ENDBRANCH  10  35
TORSDOF 9
ENDMDL
MODEL 2
REMARK VINA RESULT:    -8.634      1.777      8.563
REMARK INTER + INTRA:         -12.265
REMARK INTER:                 -11.433
REMARK INTRA:                  -0.832
REMARK UNBOUND:                -0.602
REMARK SMILES O=c1c(-c2ccc(O)cc2)coc2c([C@H]3O[C@@H](CO)[C@H](O)[C@@H](O)[C@H]3O)c(O)ccc12
REMARK SMILES IDX 3 1 11 2 12 3 13 4 30 5 2 6 1 7 29 8 28 9 26 10 14 11 4 12
REMARK SMILES IDX 5 13 6 14 7 15 10 16 9 17 8 18 15 20 24 21 16 22 22 23 17 24
REMARK SMILES IDX 20 25 25 26 23 28 18 30 19 31 21 33 27 35
REMARK H PARENT 8 19 25 27 23 29 19 32 21 34 27 36
REMARK Flexibility Score: inf
ROOT
ATOM      1  C   UNL     1       1.340  26.008 -15.956  1.00  0.00     0.065 A 
ATOM      2  C   UNL     1      -0.054  26.130 -15.870  1.00  0.00     0.208 A 
ATOM      3  O   UNL     1      -0.619  27.286 -15.545  1.00  0.00    -0.463 OA
ATOM      4  C   UNL     1       0.078  28.388 -15.282  1.00  0.00     0.147 A 
ATOM      5  C   UNL     1       1.491  28.356 -15.347  1.00  0.00     0.066 A 
ATOM      6  C   UNL     1       2.122  27.144 -15.680  1.00  0.00     0.200 A 
ATOM      7  O   UNL     1       3.382  27.071 -15.714  1.00  0.00    -0.288 OA
ATOM      8  C   UNL     1       2.224  29.522 -15.082  1.00  0.00     0.020 A 
ATOM      9  C   UNL     1       1.564  30.709 -14.771  1.00  0.00     0.047 A 
ATOM     10  C   UNL     1       0.166  30.757 -14.710  1.00  0.00     0.125 A 
ATOM     11  C   UNL     1      -0.596  29.585 -14.942  1.00  0.00     0.069 A 
ENDROOT
BRANCH   1  12
ATOM     12  C   UNL     1       1.948  24.705 -16.328  1.00  0.00    -0.011 A 
ATOM     13  C   UNL     1       1.938  23.633 -15.418  1.00  0.00     0.013 A 
ATOM     14  C   UNL     1       2.503  22.403 -15.769  1.00  0.00     0.047 A 
ATOM     15  C   UNL     1       3.077  22.227 -17.035  1.00  0.00     0.115 A 
ATOM     16  C   UNL     1       2.521  24.518 -17.599  1.00  0.00     0.013 A 
ATOM     17  C   UNL     1       3.083  23.287 -17.947  1.00  0.00     0.047 A 
BRANCH  15  18
ATOM     18  O   UNL     1       3.643  21.005 -17.395  1.00  0.00    -0.508 OA
ATOM     19  H   UNL     1       3.697  20.712 -18.363  1.00  0.00     0.293 HD
ENDBRANCH  15  18
ENDBRANCH   1  12
BRANCH  11  20
ATOM     20  C   UNL     1      -2.120  29.604 -14.908  1.00  0.00     0.188 C 
ATOM     21  C   UNL     1      -2.696  29.693 -16.339  1.00  0.00     0.179 C 
ATOM     22  O   UNL     1      -2.593  30.676 -14.109  1.00  0.00    -0.362 OA
ATOM     23  C   UNL     1      -4.238  29.723 -16.285  1.00  0.00     0.177 C 
ATOM     24  C   UNL     1      -3.995  30.584 -13.912  1.00  0.00     0.176 C 
ATOM     25  C   UNL     1      -4.747  30.753 -15.257  1.00  0.00     0.177 C 
BRANCH  21  26
ATOM     26  O   UNL     1      -2.183  30.799 -17.046  1.00  0.00    -0.387 OA
ATOM     27  H   UNL     1      -2.687  30.882 -17.895  1.00  0.00     0.211 HD
ENDBRANCH  21  26
BRANCH  23  28
ATOM     28  O   UNL     1      -4.765  30.021 -17.553  1.00  0.00    -0.387 OA
ATOM     29  H   UNL     1      -3.998  30.283 -18.127  1.00  0.00     0.211 HD
ENDBRANCH  23  28
BRANCH  24  30
ATOM     30  C   UNL     1      -4.396  31.673 -12.905  1.00  0.00     0.191 C 
BRANCH  30  31
ATOM     31  O   UNL     1      -5.707  31.473 -12.445  1.00  0.00    -0.394 OA
ATOM     32  H   UNL     1      -6.193  30.977 -13.155  1.00  0.00     0.210 HD
ENDBRANCH  30  31
ENDBRANCH  24  30
BRANCH  25  33
ATOM     33  O   UNL     1      -6.125  30.564 -15.057  1.00  0.00    -0.388 OA
ATOM     34  H   UNL     1      -6.465  30.063 -15.844  1.00  0.00     0.211 HD
ENDBRANCH  25  33
ENDBRANCH  11  20
BRANCH  10  35
ATOM     35  O   UNL     1      -0.458  31.969 -14.421  1.00  0.00    -0.507 OA
ATOM     36  H   UNL     1      -1.089  32.072 -13.634  1.00  0.00     0.293 HD
ENDBRANCH  10  35
TORSDOF 9
ENDMDL
MODEL 3
REMARK VINA RESULT:    -8.507      2.238      8.779
REMARK INTER + INTRA:         -12.094
REMARK INTER:                 -11.353
REMARK INTRA:                  -0.741
REMARK UNBOUND:                -0.602
REMARK SMILES O=c1c(-c2ccc(O)cc2)coc2c([C@H]3O[C@@H](CO)[C@H](O)[C@@H](O)[C@H]3O)c(O)ccc12
REMARK SMILES IDX 3 1 11 2 12 3 13 4 30 5 2 6 1 7 29 8 28 9 26 10 14 11 4 12
REMARK SMILES IDX 5 13 6 14 7 15 10 16 9 17 8 18 15 20 24 21 16 22 22 23 17 24
REMARK SMILES IDX 20 25 25 26 23 28 18 30 19 31 21 33 27 35
REMARK H PARENT 8 19 25 27 23 29 19 32 21 34 27 36
REMARK Flexibility Score: inf
ROOT
ATOM      1  C   UNL     1       1.109  25.606 -16.095  1.00  0.00     0.065 A 
ATOM      2  C   UNL     1       1.037  26.840 -16.756  1.00  0.00     0.208 A 
ATOM      3  O   UNL     1       0.390  27.866 -16.218  1.00  0.00    -0.463 OA
ATOM      4  C   UNL     1      -0.225  27.801 -15.039  1.00  0.00     0.147 A 
ATOM      5  C   UNL     1      -0.202  26.594 -14.303  1.00  0.00     0.066 A 
ATOM      6  C   UNL     1       0.468  25.484 -14.849  1.00  0.00     0.200 A 
ATOM      7  O   UNL     1       0.480  24.381 -14.234  1.00  0.00    -0.288 OA
ATOM      8  C   UNL     1      -0.840  26.530 -13.055  1.00  0.00     0.020 A 
ATOM      9  C   UNL     1      -1.479  27.654 -12.537  1.00  0.00     0.047 A 
ATOM     10  C   UNL     1      -1.504  28.857 -13.253  1.00  0.00     0.125 A 
ATOM     11  C   UNL     1      -0.895  28.938 -14.529  1.00  0.00     0.069 A 
ENDROOT
BRANCH   1  12
ATOM     12  C   UNL     1       1.845  24.476 -16.717  1.00  0.00    -0.011 A 
ATOM     13  C   UNL     1       3.108  24.686 -17.297  1.00  0.00     0.013 A 
ATOM     14  C   UNL     1       3.806  23.621 -17.876  1.00  0.00     0.047 A 
ATOM     15  C   UNL     1       3.254  22.334 -17.876  1.00  0.00     0.115 A 
ATOM     16  C   UNL     1       1.300  23.178 -16.716  1.00  0.00     0.013 A 
ATOM     17  C   UNL     1       2.001  22.117 -17.294  1.00  0.00     0.047 A 
BRANCH  15  18
ATOM     18  O   UNL     1       3.941  21.266 -18.450  1.00  0.00    -0.508 OA
ATOM     19  H   UNL     1       3.576  20.321 -18.413  1.00  0.00     0.293 HD
ENDBRANCH  15  18
ENDBRANCH   1  12
BRANCH  11  20
ATOM     20  C   UNL     1      -0.881  30.238 -15.326  1.00  0.00     0.188 C 
ATOM     21  C   UNL     1       0.280  31.147 -14.864  1.00  0.00     0.179 C 
ATOM     22  O   UNL     1      -2.123  30.912 -15.212  1.00  0.00    -0.362 OA
ATOM     23  C   UNL     1       0.272  32.461 -15.674  1.00  0.00     0.177 C 
ATOM     24  C   UNL     1      -2.186  32.015 -16.103  1.00  0.00     0.176 C 
ATOM     25  C   UNL     1      -1.136  33.088 -15.719  1.00  0.00     0.177 C 
BRANCH  21  26
ATOM     26  O   UNL     1       0.237  31.395 -13.478  1.00  0.00    -0.387 OA
ATOM     27  H   UNL     1       0.680  32.264 -13.306  1.00  0.00     0.211 HD
ENDBRANCH  21  26
BRANCH  23  28
ATOM     28  O   UNL     1       1.179  33.381 -15.120  1.00  0.00    -0.387 OA
ATOM     29  H   UNL     1       0.645  34.015 -14.574  1.00  0.00     0.211 HD
ENDBRANCH  23  28
BRANCH  24  30
ATOM     30  C   UNL     1      -3.614  32.580 -16.042  1.00  0.00     0.191 C 
BRANCH  30  31
ATOM     31  O   UNL     1      -3.680  33.684 -15.177  1.00  0.00    -0.394 OA
ATOM     32  H   UNL     1      -3.898  34.478 -15.734  1.00  0.00     0.210 HD
ENDBRANCH  30  31
ENDBRANCH  24  30
BRANCH  25  33
ATOM     33  O   UNL     1      -1.150  34.125 -16.668  1.00  0.00    -0.388 OA
ATOM     34  H   UNL     1      -1.262  33.700 -17.559  1.00  0.00     0.211 HD
ENDBRANCH  25  33
ENDBRANCH  11  20
BRANCH  10  35
ATOM     35  O   UNL     1      -2.133  29.967 -12.689  1.00  0.00    -0.507 OA
ATOM     36  H   UNL     1      -2.666  30.622 -13.250  1.00  0.00     0.293 HD
ENDBRANCH  10  35
TORSDOF 9
ENDMDL
MODEL 4
REMARK VINA RESULT:    -8.452      2.616      4.932
REMARK INTER + INTRA:         -12.019
REMARK INTER:                 -11.844
REMARK INTRA:                  -0.175
REMARK UNBOUND:                -0.602
REMARK SMILES O=c1c(-c2ccc(O)cc2)coc2c([C@H]3O[C@@H](CO)[C@H](O)[C@@H](O)[C@H]3O)c(O)ccc12
REMARK SMILES IDX 3 1 11 2 12 3 13 4 30 5 2 6 1 7 29 8 28 9 26 10 14 11 4 12
REMARK SMILES IDX 5 13 6 14 7 15 10 16 9 17 8 18 15 20 24 21 16 22 22 23 17 24
REMARK SMILES IDX 20 25 25 26 23 28 18 30 19 31 21 33 27 35
REMARK H PARENT 8 19 25 27 23 29 19 32 21 34 27 36
REMARK Flexibility Score: inf
ROOT
ATOM      1  C   UNL     1       2.484  29.426 -15.338  1.00  0.00     0.065 A 
ATOM      2  C   UNL     1       3.113  28.259 -15.794  1.00  0.00     0.208 A 
ATOM      3  O   UNL     1       2.417  27.150 -16.014  1.00  0.00    -0.463 OA
ATOM      4  C   UNL     1       1.103  27.065 -15.821  1.00  0.00     0.147 A 
ATOM      5  C   UNL     1       0.388  28.197 -15.363  1.00  0.00     0.066 A 
ATOM      6  C   UNL     1       1.097  29.386 -15.112  1.00  0.00     0.200 A 
ATOM      7  O   UNL     1       0.495  30.405 -14.670  1.00  0.00    -0.288 OA
ATOM      8  C   UNL     1      -0.999  28.110 -15.172  1.00  0.00     0.020 A 
ATOM      9  C   UNL     1      -1.671  26.921 -15.447  1.00  0.00     0.047 A 
ATOM     10  C   UNL     1      -0.977  25.796 -15.907  1.00  0.00     0.125 A 
ATOM     11  C   UNL     1       0.429  25.848 -16.077  1.00  0.00     0.069 A 
ENDROOT
BRANCH   1  12
ATOM     12  C   UNL     1       3.285  30.655 -15.106  1.00  0.00    -0.011 A 
ATOM     13  C   UNL     1       3.917  30.866 -13.868  1.00  0.00     0.013 A 
ATOM     14  C   UNL     1       4.677  32.020 -13.650  1.00  0.00     0.047 A 
ATOM     15  C   UNL     1       4.820  32.972 -14.668  1.00  0.00     0.115 A 
ATOM     16  C   UNL     1       3.438  31.613 -16.125  1.00  0.00     0.013 A 
ATOM     17  C   UNL     1       4.200  32.764 -15.904  1.00  0.00     0.047 A 
BRANCH  15  18
ATOM     18  O   UNL     1       5.576  34.124 -14.462  1.00  0.00    -0.508 OA
ATOM     19  H   UNL     1       6.058  34.585 -15.225  1.00  0.00     0.293 HD
ENDBRANCH  15  18
ENDBRANCH   1  12
BRANCH  11  20
ATOM     20  C   UNL     1       1.215  24.651 -16.600  1.00  0.00     0.188 C 
ATOM     21  C   UNL     1       1.342  23.563 -15.508  1.00  0.00     0.179 C 
ATOM     22  O   UNL     1       2.495  25.051 -17.061  1.00  0.00    -0.362 OA
ATOM     23  C   UNL     1       2.149  22.365 -16.051  1.00  0.00     0.177 C 
ATOM     24  C   UNL     1       3.153  23.984 -17.725  1.00  0.00     0.176 C 
ATOM     25  C   UNL     1       3.450  22.826 -16.738  1.00  0.00     0.177 C 
BRANCH  21  26
ATOM     26  O   UNL     1       1.906  24.071 -14.321  1.00  0.00    -0.387 OA
ATOM     27  H   UNL     1       1.212  24.601 -13.852  1.00  0.00     0.211 HD
ENDBRANCH  21  26
BRANCH  23  28
ATOM     28  O   UNL     1       2.456  21.473 -15.010  1.00  0.00    -0.387 OA
ATOM     29  H   UNL     1       2.318  20.557 -15.369  1.00  0.00     0.211 HD
ENDBRANCH  23  28
BRANCH  24  30
ATOM     30  C   UNL     1       4.446  24.544 -18.338  1.00  0.00     0.191 C 
BRANCH  30  31
ATOM     31  O   UNL     1       4.881  23.746 -19.408  1.00  0.00    -0.394 OA
ATOM     32  H   UNL     1       5.630  24.230 -19.846  1.00  0.00     0.210 HD
ENDBRANCH  30  31
ENDBRANCH  24  30
BRANCH  25  33
ATOM     33  O   UNL     1       4.013  21.743 -17.434  1.00  0.00    -0.388 OA
ATOM     34  H   UNL     1       4.634  22.125 -18.109  1.00  0.00     0.211 HD
ENDBRANCH  25  33
ENDBRANCH  11  20
BRANCH  10  35
ATOM     35  O   UNL     1      -1.688  24.631 -16.195  1.00  0.00    -0.507 OA
ATOM     36  H   UNL     1      -1.943  23.967 -15.474  1.00  0.00     0.293 HD
ENDBRANCH  10  35
TORSDOF 9
ENDMDL
MODEL 5
REMARK VINA RESULT:    -8.384      2.315      4.973
REMARK INTER + INTRA:         -11.927
REMARK INTER:                 -11.406
REMARK INTRA:                  -0.521
REMARK UNBOUND:                -0.602
REMARK SMILES O=c1c(-c2ccc(O)cc2)coc2c([C@H]3O[C@@H](CO)[C@H](O)[C@@H](O)[C@H]3O)c(O)ccc12
REMARK SMILES IDX 3 1 11 2 12 3 13 4 30 5 2 6 1 7 29 8 28 9 26 10 14 11 4 12
REMARK SMILES IDX 5 13 6 14 7 15 10 16 9 17 8 18 15 20 24 21 16 22 22 23 17 24
REMARK SMILES IDX 20 25 25 26 23 28 18 30 19 31 21 33 27 35
REMARK H PARENT 8 19 25 27 23 29 19 32 21 34 27 36
REMARK Flexibility Score: inf
ROOT
ATOM      1  C   UNL     1      -1.301  29.091 -15.593  1.00  0.00     0.065 A 
ATOM      2  C   UNL     1      -0.465  29.801 -16.465  1.00  0.00     0.208 A 
ATOM      3  O   UNL     1       0.577  29.215 -17.041  1.00  0.00    -0.463 OA
ATOM      4  C   UNL     1       0.900  27.940 -16.837  1.00  0.00     0.147 A 
ATOM      5  C   UNL     1       0.109  27.147 -15.972  1.00  0.00     0.066 A 
ATOM      6  C   UNL     1      -0.999  27.741 -15.339  1.00  0.00     0.200 A 
ATOM      7  O   UNL     1      -1.706  27.072 -14.535  1.00  0.00    -0.288 OA
ATOM      8  C   UNL     1       0.442  25.800 -15.768  1.00  0.00     0.020 A 
ATOM      9  C   UNL     1       1.535  25.241 -16.425  1.00  0.00     0.047 A 
ATOM     10  C   UNL     1       2.323  26.013 -17.289  1.00  0.00     0.125 A 
ATOM     11  C   UNL     1       2.027  27.384 -17.487  1.00  0.00     0.069 A 
ENDROOT
BRANCH   1  12
ATOM     12  C   UNL     1      -2.465  29.768 -14.967  1.00  0.00    -0.011 A 
ATOM     13  C   UNL     1      -2.371  30.271 -13.658  1.00  0.00     0.013 A 
ATOM     14  C   UNL     1      -3.463  30.916 -13.068  1.00  0.00     0.047 A 
ATOM     15  C   UNL     1      -4.658  31.073 -13.783  1.00  0.00     0.115 A 
ATOM     16  C   UNL     1      -3.666  29.935 -15.680  1.00  0.00     0.013 A 
ATOM     17  C   UNL     1      -4.755  30.581 -15.088  1.00  0.00     0.047 A 
BRANCH  15  18
ATOM     18  O   UNL     1      -5.752  31.714 -13.206  1.00  0.00    -0.508 OA
ATOM     19  H   UNL     1      -6.034  31.524 -12.251  1.00  0.00     0.293 HD
ENDBRANCH  15  18
ENDBRANCH   1  12
BRANCH  11  20
ATOM     20  C   UNL     1       2.846  28.248 -18.439  1.00  0.00     0.188 C 
ATOM     21  C   UNL     1       3.996  28.952 -17.682  1.00  0.00     0.179 C 
ATOM     22  O   UNL     1       2.021  29.197 -19.094  1.00  0.00    -0.362 OA
ATOM     23  C   UNL     1       4.807  29.831 -18.658  1.00  0.00     0.177 C 
ATOM     24  C   UNL     1       2.736  29.870 -20.120  1.00  0.00     0.176 C 
ATOM     25  C   UNL     1       3.885  30.718 -19.519  1.00  0.00     0.177 C 
BRANCH  21  26
ATOM     26  O   UNL     1       3.525  29.700 -16.585  1.00  0.00    -0.387 OA
ATOM     27  H   UNL     1       2.560  29.504 -16.470  1.00  0.00     0.211 HD
ENDBRANCH  21  26
BRANCH  23  28
ATOM     28  O   UNL     1       5.712  30.639 -17.950  1.00  0.00    -0.387 OA
ATOM     29  H   UNL     1       5.751  31.509 -18.427  1.00  0.00     0.211 HD
ENDBRANCH  23  28
BRANCH  24  30
ATOM     30  C   UNL     1       1.733  30.746 -20.886  1.00  0.00     0.191 C 
BRANCH  30  31
ATOM     31  O   UNL     1       2.183  31.001 -22.191  1.00  0.00    -0.394 OA
ATOM     32  H   UNL     1       2.987  30.435 -22.337  1.00  0.00     0.210 HD
ENDBRANCH  30  31
ENDBRANCH  24  30
BRANCH  25  33
ATOM     33  O   UNL     1       4.637  31.297 -20.554  1.00  0.00    -0.388 OA
ATOM     34  H   UNL     1       4.700  30.621 -21.279  1.00  0.00     0.211 HD
ENDBRANCH  25  33
ENDBRANCH  11  20
BRANCH  10  35
ATOM     35  O   UNL     1       3.394  25.411 -17.948  1.00  0.00    -0.507 OA
ATOM     36  H   UNL     1       4.258  25.908 -18.129  1.00  0.00     0.293 HD
ENDBRANCH  10  35
TORSDOF 9
ENDMDL
MODEL 6
REMARK VINA RESULT:    -8.331      2.368      5.217
REMARK INTER + INTRA:         -11.856
REMARK INTER:                 -11.706
REMARK INTRA:                  -0.150
REMARK UNBOUND:                -0.602
REMARK SMILES O=c1c(-c2ccc(O)cc2)coc2c([C@H]3O[C@@H](CO)[C@H](O)[C@@H](O)[C@H]3O)c(O)ccc12
REMARK SMILES IDX 3 1 11 2 12 3 13 4 30 5 2 6 1 7 29 8 28 9 26 10 14 11 4 12
REMARK SMILES IDX 5 13 6 14 7 15 10 16 9 17 8 18 15 20 24 21 16 22 22 23 17 24
REMARK SMILES IDX 20 25 25 26 23 28 18 30 19 31 21 33 27 35
REMARK H PARENT 8 19 25 27 23 29 19 32 21 34 27 36
REMARK Flexibility Score: inf
ROOT
ATOM      1  C   UNL     1       1.564  29.419 -18.217  1.00  0.00     0.065 A 
ATOM      2  C   UNL     1       2.097  28.129 -18.091  1.00  0.00     0.208 A 
ATOM      3  O   UNL     1       1.439  27.179 -17.437  1.00  0.00    -0.463 OA
ATOM      4  C   UNL     1       0.253  27.376 -16.866  1.00  0.00     0.147 A 
ATOM      5  C   UNL     1      -0.360  28.648 -16.946  1.00  0.00     0.066 A 
ATOM      6  C   UNL     1       0.315  29.680 -17.624  1.00  0.00     0.200 A 
ATOM      7  O   UNL     1      -0.187  30.837 -17.686  1.00  0.00    -0.288 OA
ATOM      8  C   UNL     1      -1.615  28.851 -16.355  1.00  0.00     0.020 A 
ATOM      9  C   UNL     1      -2.262  27.802 -15.706  1.00  0.00     0.047 A 
ATOM     10  C   UNL     1      -1.670  26.536 -15.625  1.00  0.00     0.125 A 
ATOM     11  C   UNL     1      -0.388  26.314 -16.186  1.00  0.00     0.069 A 
ENDROOT
BRANCH   1  12
ATOM     12  C   UNL     1       2.317  30.462 -18.958  1.00  0.00    -0.011 A 
ATOM     13  C   UNL     1       2.093  30.656 -20.333  1.00  0.00     0.013 A 
ATOM     14  C   UNL     1       2.795  31.642 -21.031  1.00  0.00     0.047 A 
ATOM     15  C   UNL     1       3.725  32.451 -20.365  1.00  0.00     0.115 A 
ATOM     16  C   UNL     1       3.248  31.282 -18.295  1.00  0.00     0.013 A 
ATOM     17  C   UNL     1       3.948  32.268 -18.996  1.00  0.00     0.047 A 
BRANCH  15  18
ATOM     18  O   UNL     1       4.431  33.437 -21.051  1.00  0.00    -0.508 OA
ATOM     19  H   UNL     1       4.426  33.483 -22.063  1.00  0.00     0.293 HD
ENDBRANCH  15  18
ENDBRANCH   1  12
BRANCH  11  20
ATOM     20  C   UNL     1       0.277  24.943 -16.139  1.00  0.00     0.188 C 
ATOM     21  C   UNL     1       0.759  24.619 -14.707  1.00  0.00     0.179 C 
ATOM     22  O   UNL     1       1.355  24.874 -17.059  1.00  0.00    -0.362 OA
ATOM     23  C   UNL     1       1.439  23.234 -14.680  1.00  0.00     0.177 C 
ATOM     24  C   UNL     1       1.851  23.548 -17.163  1.00  0.00     0.176 C 
ATOM     25  C   UNL     1       2.470  23.090 -15.817  1.00  0.00     0.177 C 
BRANCH  21  26
ATOM     26  O   UNL     1       1.608  25.621 -14.197  1.00  0.00    -0.387 OA
ATOM     27  H   UNL     1       1.104  26.138 -13.519  1.00  0.00     0.211 HD
ENDBRANCH  21  26
BRANCH  23  28
ATOM     28  O   UNL     1       2.070  23.023 -13.443  1.00  0.00    -0.387 OA
ATOM     29  H   UNL     1       1.348  22.923 -12.768  1.00  0.00     0.211 HD
ENDBRANCH  23  28
BRANCH  24  30
ATOM     30  C   UNL     1       2.890  23.529 -18.294  1.00  0.00     0.191 C 
BRANCH  30  31
ATOM     31  O   UNL     1       4.195  23.530 -17.777  1.00  0.00    -0.394 OA
ATOM     32  H   UNL     1       4.209  24.174 -17.021  1.00  0.00     0.210 HD
ENDBRANCH  30  31
ENDBRANCH  24  30
BRANCH  25  33
ATOM     33  O   UNL     1       2.867  21.746 -15.913  1.00  0.00    -0.388 OA
ATOM     34  H   UNL     1       3.639  21.716 -16.538  1.00  0.00     0.211 HD
ENDBRANCH  25  33
ENDBRANCH  11  20
BRANCH  10  35
ATOM     35  O   UNL     1      -2.360  25.504 -14.990  1.00  0.00    -0.507 OA
ATOM     36  H   UNL     1      -2.818  25.639 -14.096  1.00  0.00     0.293 HD
ENDBRANCH  10  35
TORSDOF 9
ENDMDL
MODEL 7
REMARK VINA RESULT:    -8.195      1.985      2.420
REMARK INTER + INTRA:         -11.673
REMARK INTER:                 -10.582
REMARK INTRA:                  -1.091
REMARK UNBOUND:                -0.602
REMARK SMILES O=c1c(-c2ccc(O)cc2)coc2c([C@H]3O[C@@H](CO)[C@H](O)[C@@H](O)[C@H]3O)c(O)ccc12
REMARK SMILES IDX 3 1 11 2 12 3 13 4 30 5 2 6 1 7 29 8 28 9 26 10 14 11 4 12
REMARK SMILES IDX 5 13 6 14 7 15 10 16 9 17 8 18 15 20 24 21 16 22 22 23 17 24
REMARK SMILES IDX 20 25 25 26 23 28 18 30 19 31 21 33 27 35
REMARK H PARENT 8 19 25 27 23 29 19 32 21 34 27 36
REMARK Flexibility Score: inf
ROOT
ATOM      1  C   UNL     1      -1.566  29.498 -17.337  1.00  0.00     0.065 A 
ATOM      2  C   UNL     1      -1.529  28.123 -17.609  1.00  0.00     0.208 A 
ATOM      3  O   UNL     1      -0.476  27.389 -17.273  1.00  0.00    -0.463 OA
ATOM      4  C   UNL     1       0.599  27.890 -16.669  1.00  0.00     0.147 A 
ATOM      5  C   UNL     1       0.646  29.269 -16.356  1.00  0.00     0.066 A 
ATOM      6  C   UNL     1      -0.451  30.078 -16.706  1.00  0.00     0.200 A 
ATOM      7  O   UNL     1      -0.427  31.318 -16.472  1.00  0.00    -0.288 OA
ATOM      8  C   UNL     1       1.774  29.794 -15.708  1.00  0.00     0.020 A 
ATOM      9  C   UNL     1       2.834  28.960 -15.360  1.00  0.00     0.047 A 
ATOM     10  C   UNL     1       2.797  27.592 -15.659  1.00  0.00     0.125 A 
ATOM     11  C   UNL     1       1.684  27.043 -16.341  1.00  0.00     0.069 A 
ENDROOT
BRANCH   1  12
ATOM     12  C   UNL     1      -2.758  30.296 -17.717  1.00  0.00    -0.011 A 
ATOM     13  C   UNL     1      -3.856  30.391 -16.844  1.00  0.00     0.013 A 
ATOM     14  C   UNL     1      -4.977  31.148 -17.197  1.00  0.00     0.047 A 
ATOM     15  C   UNL     1      -5.013  31.825 -18.423  1.00  0.00     0.115 A 
ATOM     16  C   UNL     1      -2.800  30.984 -18.944  1.00  0.00     0.013 A 
ATOM     17  C   UNL     1      -3.921  31.741 -19.293  1.00  0.00     0.047 A 
BRANCH  15  18
ATOM     18  O   UNL     1      -6.125  32.583 -18.784  1.00  0.00    -0.508 OA
ATOM     19  H   UNL     1      -6.857  32.799 -18.118  1.00  0.00     0.293 HD
ENDBRANCH  15  18
ENDBRANCH   1  12
BRANCH  11  20
ATOM     20  C   UNL     1       1.597  25.555 -16.661  1.00  0.00     0.188 C 
ATOM     21  C   UNL     1       1.109  24.761 -15.428  1.00  0.00     0.179 C 
ATOM     22  O   UNL     1       2.848  25.063 -17.112  1.00  0.00    -0.362 OA
ATOM     23  C   UNL     1       1.038  23.257 -15.766  1.00  0.00     0.177 C 
ATOM     24  C   UNL     1       2.727  23.734 -17.595  1.00  0.00     0.176 C 
ATOM     25  C   UNL     1       2.332  22.770 -16.448  1.00  0.00     0.177 C 
BRANCH  21  26
ATOM     26  O   UNL     1       1.913  24.998 -14.295  1.00  0.00    -0.387 OA
ATOM     27  H   UNL     1       2.768  24.512 -14.417  1.00  0.00     0.211 HD
ENDBRANCH  21  26
BRANCH  23  28
ATOM     28  O   UNL     1       0.808  22.505 -14.601  1.00  0.00    -0.387 OA
ATOM     29  H   UNL     1       0.437  23.131 -13.926  1.00  0.00     0.211 HD
ENDBRANCH  23  28
BRANCH  24  30
ATOM     30  C   UNL     1       4.076  23.342 -18.218  1.00  0.00     0.191 C 
BRANCH  30  31
ATOM     31  O   UNL     1       4.011  22.063 -18.791  1.00  0.00    -0.394 OA
ATOM     32  H   UNL     1       4.701  21.506 -18.343  1.00  0.00     0.210 HD
ENDBRANCH  30  31
ENDBRANCH  24  30
BRANCH  25  33
ATOM     33  O   UNL     1       2.124  21.480 -16.965  1.00  0.00    -0.388 OA
ATOM     34  H   UNL     1       2.870  21.297 -17.595  1.00  0.00     0.211 HD
ENDBRANCH  25  33
ENDBRANCH  11  20
BRANCH  10  35
ATOM     35  O   UNL     1       3.867  26.785 -15.272  1.00  0.00    -0.507 OA
ATOM     36  H   UNL     1       3.964  26.445 -14.323  1.00  0.00     0.293 HD
ENDBRANCH  10  35
TORSDOF 9
ENDMDL
MODEL 8
REMARK VINA RESULT:    -8.093      3.367      8.956
REMARK INTER + INTRA:         -11.535
REMARK INTER:                 -10.589
REMARK INTRA:                  -0.945
REMARK UNBOUND:                -0.602
REMARK SMILES O=c1c(-c2ccc(O)cc2)coc2c([C@H]3O[C@@H](CO)[C@H](O)[C@@H](O)[C@H]3O)c(O)ccc12
REMARK SMILES IDX 3 1 11 2 12 3 13 4 30 5 2 6 1 7 29 8 28 9 26 10 14 11 4 12
REMARK SMILES IDX 5 13 6 14 7 15 10 16 9 17 8 18 15 20 24 21 16 22 22 23 17 24
REMARK SMILES IDX 20 25 25 26 23 28 18 30 19 31 21 33 27 35
REMARK H PARENT 8 19 25 27 23 29 19 32 21 34 27 36
REMARK Flexibility Score: inf
ROOT
ATOM      1  C   UNL     1       1.572  30.201 -18.039  1.00  0.00     0.065 A 
ATOM      2  C   UNL     1       0.716  31.255 -17.691  1.00  0.00     0.208 A 
ATOM      3  O   UNL     1      -0.108  31.153 -16.656  1.00  0.00    -0.463 OA
ATOM      4  C   UNL     1      -0.182  30.067 -15.890  1.00  0.00     0.147 A 
ATOM      5  C   UNL     1       0.648  28.956 -16.168  1.00  0.00     0.066 A 
ATOM      6  C   UNL     1       1.527  29.028 -17.264  1.00  0.00     0.200 A 
ATOM      7  O   UNL     1       2.257  28.042 -17.560  1.00  0.00    -0.288 OA
ATOM      8  C   UNL     1       0.577  27.817 -15.351  1.00  0.00     0.020 A 
ATOM      9  C   UNL     1      -0.293  27.787 -14.264  1.00  0.00     0.047 A 
ATOM     10  C   UNL     1      -1.115  28.882 -13.974  1.00  0.00     0.125 A 
ATOM     11  C   UNL     1      -1.086  30.032 -14.802  1.00  0.00     0.069 A 
ENDROOT
BRANCH   1  12
ATOM     12  C   UNL     1       2.489  30.343 -19.198  1.00  0.00    -0.011 A 
ATOM     13  C   UNL     1       1.973  30.559 -20.488  1.00  0.00     0.013 A 
ATOM     14  C   UNL     1       2.835  30.701 -21.580  1.00  0.00     0.047 A 
ATOM     15  C   UNL     1       4.222  30.636 -21.395  1.00  0.00     0.115 A 
ATOM     16  C   UNL     1       3.884  30.285 -19.020  1.00  0.00     0.013 A 
ATOM     17  C   UNL     1       4.742  30.429 -20.113  1.00  0.00     0.047 A 
BRANCH  15  18
ATOM     18  O   UNL     1       5.091  30.776 -22.476  1.00  0.00    -0.508 OA
ATOM     19  H   UNL     1       5.374  31.689 -22.812  1.00  0.00     0.293 HD
ENDBRANCH  15  18
ENDBRANCH   1  12
BRANCH  11  20
ATOM     20  C   UNL     1      -1.949  31.253 -14.503  1.00  0.00     0.188 C 
ATOM     21  C   UNL     1      -1.302  32.120 -13.399  1.00  0.00     0.179 C 
ATOM     22  O   UNL     1      -3.261  30.865 -14.132  1.00  0.00    -0.362 OA
ATOM     23  C   UNL     1      -2.193  33.344 -13.102  1.00  0.00     0.177 C 
ATOM     24  C   UNL     1      -4.119  31.991 -14.044  1.00  0.00     0.176 C 
ATOM     25  C   UNL     1      -3.666  32.935 -12.901  1.00  0.00     0.177 C 
BRANCH  21  26
ATOM     26  O   UNL     1      -1.040  31.376 -12.231  1.00  0.00    -0.387 OA
ATOM     27  H   UNL     1      -1.495  30.500 -12.314  1.00  0.00     0.211 HD
ENDBRANCH  21  26
BRANCH  23  28
ATOM     28  O   UNL     1      -1.731  34.018 -11.958  1.00  0.00    -0.387 OA
ATOM     29  H   UNL     1      -0.773  33.779 -11.854  1.00  0.00     0.211 HD
ENDBRANCH  23  28
BRANCH  24  30
ATOM     30  C   UNL     1      -5.546  31.471 -13.810  1.00  0.00     0.191 C 
BRANCH  30  31
ATOM     31  O   UNL     1      -5.853  31.448 -12.441  1.00  0.00    -0.394 OA
ATOM     32  H   UNL     1      -4.993  31.510 -11.948  1.00  0.00     0.210 HD
ENDBRANCH  30  31
ENDBRANCH  24  30
BRANCH  25  33
ATOM     33  O   UNL     1      -4.468  34.088 -12.893  1.00  0.00    -0.388 OA
ATOM     34  H   UNL     1      -4.461  34.452 -13.818  1.00  0.00     0.211 HD
ENDBRANCH  25  33
ENDBRANCH  11  20
BRANCH  10  35
ATOM     35  O   UNL     1      -1.955  28.824 -12.862  1.00  0.00    -0.507 OA
ATOM     36  H   UNL     1      -2.674  29.518 -12.698  1.00  0.00     0.293 HD
ENDBRANCH  10  35
TORSDOF 9
ENDMDL
MODEL 9
REMARK VINA RESULT:    -8.090      1.700      8.341
REMARK INTER + INTRA:         -11.531
REMARK INTER:                 -10.692
REMARK INTRA:                  -0.839
REMARK UNBOUND:                -0.602
REMARK SMILES O=c1c(-c2ccc(O)cc2)coc2c([C@H]3O[C@@H](CO)[C@H](O)[C@@H](O)[C@H]3O)c(O)ccc12
REMARK SMILES IDX 3 1 11 2 12 3 13 4 30 5 2 6 1 7 29 8 28 9 26 10 14 11 4 12
REMARK SMILES IDX 5 13 6 14 7 15 10 16 9 17 8 18 15 20 24 21 16 22 22 23 17 24
REMARK SMILES IDX 20 25 25 26 23 28 18 30 19 31 21 33 27 35
REMARK H PARENT 8 19 25 27 23 29 19 32 21 34 27 36
REMARK Flexibility Score: inf
ROOT
ATOM      1  C   UNL     1       1.993  25.490 -16.960  1.00  0.00     0.065 A 
ATOM      2  C   UNL     1       0.698  25.675 -16.456  1.00  0.00     0.208 A 
ATOM      3  O   UNL     1       0.234  26.891 -16.198  1.00  0.00    -0.463 OA
ATOM      4  C   UNL     1       0.946  27.999 -16.393  1.00  0.00     0.147 A 
ATOM      5  C   UNL     1       2.262  27.904 -16.902  1.00  0.00     0.066 A 
ATOM      6  C   UNL     1       2.788  26.629 -17.177  1.00  0.00     0.200 A 
ATOM      7  O   UNL     1       3.972  26.506 -17.600  1.00  0.00    -0.288 OA
ATOM      8  C   UNL     1       3.007  29.073 -17.119  1.00  0.00     0.020 A 
ATOM      9  C   UNL     1       2.448  30.320 -16.851  1.00  0.00     0.047 A 
ATOM     10  C   UNL     1       1.143  30.428 -16.353  1.00  0.00     0.125 A 
ATOM     11  C   UNL     1       0.382  29.262 -16.095  1.00  0.00     0.069 A 
ENDROOT
BRANCH   1  12
ATOM     12  C   UNL     1       2.486  24.119 -17.246  1.00  0.00    -0.011 A 
ATOM     13  C   UNL     1       2.754  23.723 -18.569  1.00  0.00     0.013 A 
ATOM     14  C   UNL     1       3.226  22.435 -18.840  1.00  0.00     0.047 A 
ATOM     15  C   UNL     1       3.442  21.530 -17.793  1.00  0.00     0.115 A 
ATOM     16  C   UNL     1       2.712  23.205 -16.200  1.00  0.00     0.013 A 
ATOM     17  C   UNL     1       3.185  21.919 -16.475  1.00  0.00     0.047 A 
BRANCH  15  18
ATOM     18  O   UNL     1       3.912  20.244 -18.052  1.00  0.00    -0.508 OA
ATOM     19  H   UNL     1       4.552  19.777 -17.420  1.00  0.00     0.293 HD
ENDBRANCH  15  18
ENDBRANCH   1  12
BRANCH  11  20
ATOM     20  C   UNL     1      -1.050  29.341 -15.577  1.00  0.00     0.188 C 
ATOM     21  C   UNL     1      -2.049  29.452 -16.751  1.00  0.00     0.179 C 
ATOM     22  O   UNL     1      -1.203  30.431 -14.683  1.00  0.00    -0.362 OA
ATOM     23  C   UNL     1      -3.491  29.542 -16.208  1.00  0.00     0.177 C 
ATOM     24  C   UNL     1      -2.471  30.395 -14.048  1.00  0.00     0.176 C 
ATOM     25  C   UNL     1      -3.606  30.593 -15.085  1.00  0.00     0.177 C 
BRANCH  21  26
ATOM     26  O   UNL     1      -1.748  30.536 -17.599  1.00  0.00    -0.387 OA
ATOM     27  H   UNL     1      -2.582  31.050 -17.749  1.00  0.00     0.211 HD
ENDBRANCH  21  26
BRANCH  23  28
ATOM     28  O   UNL     1      -4.384  29.860 -17.245  1.00  0.00    -0.387 OA
ATOM     29  H   UNL     1      -4.776  29.003 -17.557  1.00  0.00     0.211 HD
ENDBRANCH  23  28
BRANCH  24  30
ATOM     30  C   UNL     1      -2.488  31.499 -12.980  1.00  0.00     0.191 C 
BRANCH  30  31
ATOM     31  O   UNL     1      -1.391  31.376 -12.114  1.00  0.00    -0.394 OA
ATOM     32  H   UNL     1      -1.339  32.217 -11.587  1.00  0.00     0.210 HD
ENDBRANCH  30  31
ENDBRANCH  24  30
BRANCH  25  33
ATOM     33  O   UNL     1      -4.854  30.458 -14.453  1.00  0.00    -0.388 OA
ATOM     34  H   UNL     1      -5.146  31.371 -14.192  1.00  0.00     0.211 HD
ENDBRANCH  25  33
ENDBRANCH  11  20
BRANCH  10  35
ATOM     35  O   UNL     1       0.609  31.696 -16.121  1.00  0.00    -0.507 OA
ATOM     36  H   UNL     1       0.966  32.301 -15.391  1.00  0.00     0.293 HD
ENDBRANCH  10  35
TORSDOF 9
ENDMDL
