MODEL 1
REMARK VINA RESULT:    -5.425      0.000      0.000
REMARK INTER + INTRA:         -10.415
REMARK INTER:                  -9.231
REMARK INTRA:                  -1.184
REMARK UNBOUND:                -1.184
REMARK SMILES CCCCCCCCCCCCCC(=O)[O-]
REMARK SMILES IDX 8 1 9 2 10 3 11 4 12 5 13 6 14 7 15 8 16 9 7 10 6 11 5 12
REMARK SMILES IDX 4 13 3 14 2 15 1 16
REMARK H PARENT
REMARK Flexibility Score: inf
ROOT
ATOM      1  C   UNL     1     131.599 134.185 133.723  1.00  0.00     0.000 C 
ENDROOT
BRANCH   1   2
ATOM      2  C   UNL     1     131.711 135.123 132.508  1.00  0.00     0.000 C 
BRANCH   2   3
ATOM      3  C   UNL     1     132.643 136.336 132.706  1.00  0.00     0.000 C 
BRANCH   3   4
ATOM      4  C   UNL     1     133.961 136.037 133.444  1.00  0.00     0.000 C 
BRANCH   4   5
ATOM      5  C   UNL     1     135.026 135.293 132.615  1.00  0.00     0.006 C 
BRANCH   5   6
ATOM      6  C   UNL     1     136.387 135.159 133.323  1.00  0.00     0.053 C 
BRANCH   6   7
ATOM      7  C   UNL     1     137.474 135.919 132.625  1.00  0.00     0.041 C 
ATOM      8  O   UNL     1     138.210 136.710 133.270  1.00  0.00    -0.550 OA
ATOM      9  O   UNL     1     137.652 135.778 131.254  1.00  0.00    -0.550 OA
ENDBRANCH   6   7
ENDBRANCH   5   6
ENDBRANCH   4   5
ENDBRANCH   3   4
ENDBRANCH   2   3
ENDBRANCH   1   2
BRANCH   1  10
ATOM     10  C   UNL     1     130.839 132.885 133.406  1.00  0.00     0.000 C 
BRANCH  10  11
ATOM     11  C   UNL     1     131.781 131.761 132.924  1.00  0.00    -0.000 C 
BRANCH  11  12
ATOM     12  C   UNL     1     133.162 131.784 133.604  1.00  0.00    -0.000 C 
BRANCH  12  13
ATOM     13  C   UNL     1     134.318 131.892 132.599  1.00  0.00    -0.000 C 
BRANCH  13  14
ATOM     14  C   UNL     1     135.632 131.296 133.133  1.00  0.00    -0.000 C 
BRANCH  14  15
ATOM     15  C   UNL     1     135.929 129.879 132.600  1.00  0.00    -0.003 C 
ATOM     16  C   UNL     1     135.770 129.781 131.083  1.00  0.00     0.004 C 
ENDBRANCH  14  15
ENDBRANCH  13  14
ENDBRANCH  12  13
ENDBRANCH  11  12
ENDBRANCH  10  11
ENDBRANCH   1  10
TORSDOF 12
ENDMDL
MODEL 2
REMARK VINA RESULT:    -5.348      3.251      4.478
REMARK INTER + INTRA:         -10.283
REMARK INTER:                  -9.330
REMARK INTRA:                  -0.952
REMARK UNBOUND:                -1.184
REMARK SMILES CCCCCCCCCCCCCC(=O)[O-]
REMARK SMILES IDX 8 1 9 2 10 3 11 4 12 5 13 6 14 7 15 8 16 9 7 10 6 11 5 12
REMARK SMILES IDX 4 13 3 14 2 15 1 16
REMARK H PARENT
REMARK Flexibility Score: inf
ROOT
ATOM      1  C   UNL     1     133.140 135.299 133.769  1.00  0.00     0.000 C 
ENDROOT
BRANCH   1   2
ATOM      2  C   UNL     1     131.813 135.742 133.125  1.00  0.00     0.000 C 
BRANCH   2   3
ATOM      3  C   UNL     1     131.586 137.267 133.086  1.00  0.00     0.000 C 
BRANCH   3   4
ATOM      4  C   UNL     1     131.409 137.868 131.680  1.00  0.00     0.000 C 
BRANCH   4   5
ATOM      5  C   UNL     1     131.823 136.950 130.513  1.00  0.00     0.006 C 
BRANCH   5   6
ATOM      6  C   UNL     1     132.630 137.664 129.414  1.00  0.00     0.053 C 
BRANCH   6   7
ATOM      7  C   UNL     1     132.015 138.968 129.006  1.00  0.00     0.041 C 
ATOM      8  O   UNL     1     132.620 140.051 129.224  1.00  0.00    -0.550 OA
ATOM      9  O   UNL     1     130.758 138.991 128.415  1.00  0.00    -0.550 OA
ENDBRANCH   6   7
ENDBRANCH   5   6
ENDBRANCH   4   5
ENDBRANCH   3   4
ENDBRANCH   2   3
ENDBRANCH   1   2
BRANCH   1  10
ATOM     10  C   UNL     1     134.340 136.142 133.302  1.00  0.00     0.000 C 
BRANCH  10  11
ATOM     11  C   UNL     1     135.489 135.267 132.758  1.00  0.00    -0.000 C 
BRANCH  11  12
ATOM     12  C   UNL     1     135.811 134.053 133.647  1.00  0.00    -0.000 C 
BRANCH  12  13
ATOM     13  C   UNL     1     135.617 132.714 132.919  1.00  0.00    -0.000 C 
BRANCH  13  14
ATOM     14  C   UNL     1     134.472 131.873 133.510  1.00  0.00    -0.000 C 
BRANCH  14  15
ATOM     15  C   UNL     1     134.806 130.372 133.629  1.00  0.00    -0.003 C 
ATOM     16  C   UNL     1     136.093 130.000 132.892  1.00  0.00     0.004 C 
ENDBRANCH  14  15
ENDBRANCH  13  14
ENDBRANCH  12  13
ENDBRANCH  11  12
ENDBRANCH  10  11
ENDBRANCH   1  10
TORSDOF 12
ENDMDL
MODEL 3
REMARK VINA RESULT:    -5.347      3.034      4.508
REMARK INTER + INTRA:         -10.282
REMARK INTER:                  -9.167
REMARK INTRA:                  -1.115
REMARK UNBOUND:                -1.184
REMARK SMILES CCCCCCCCCCCCCC(=O)[O-]
REMARK SMILES IDX 8 1 9 2 10 3 11 4 12 5 13 6 14 7 15 8 16 9 7 10 6 11 5 12
REMARK SMILES IDX 4 13 3 14 2 15 1 16
REMARK H PARENT
REMARK Flexibility Score: inf
ROOT
ATOM      1  C   UNL     1     131.486 133.431 132.438  1.00  0.00     0.000 C 
ENDROOT
BRANCH   1   2
ATOM      2  C   UNL     1     131.302 134.649 133.361  1.00  0.00     0.000 C 
BRANCH   2   3
ATOM      3  C   UNL     1     132.445 135.683 133.309  1.00  0.00     0.000 C 
BRANCH   3   4
ATOM      4  C   UNL     1     132.000 137.157 133.379  1.00  0.00     0.000 C 
BRANCH   4   5
ATOM      5  C   UNL     1     131.357 137.713 132.093  1.00  0.00     0.006 C 
BRANCH   5   6
ATOM      6  C   UNL     1     132.068 137.275 130.800  1.00  0.00     0.053 C 
BRANCH   6   7
ATOM      7  C   UNL     1     131.114 136.750 129.770  1.00  0.00     0.041 C 
ATOM      8  O   UNL     1     131.016 135.512 129.568  1.00  0.00    -0.550 OA
ATOM      9  O   UNL     1     130.356 137.633 129.009  1.00  0.00    -0.550 OA
ENDBRANCH   6   7
ENDBRANCH   5   6
ENDBRANCH   4   5
ENDBRANCH   3   4
ENDBRANCH   2   3
ENDBRANCH   1   2
BRANCH   1  10
ATOM     10  C   UNL     1     131.665 132.115 133.217  1.00  0.00     0.000 C 
BRANCH  10  11
ATOM     11  C   UNL     1     133.110 131.581 133.136  1.00  0.00    -0.000 C 
BRANCH  11  12
ATOM     12  C   UNL     1     134.137 132.480 133.848  1.00  0.00    -0.000 C 
BRANCH  12  13
ATOM     13  C   UNL     1     135.399 132.724 133.007  1.00  0.00    -0.000 C 
BRANCH  13  14
ATOM     14  C   UNL     1     136.304 133.822 133.593  1.00  0.00    -0.000 C 
BRANCH  14  15
ATOM     15  C   UNL     1     136.092 135.207 132.946  1.00  0.00    -0.003 C 
ATOM     16  C   UNL     1     137.310 136.117 133.106  1.00  0.00     0.004 C 
ENDBRANCH  14  15
ENDBRANCH  13  14
ENDBRANCH  12  13
ENDBRANCH  11  12
ENDBRANCH  10  11
ENDBRANCH   1  10
TORSDOF 12
ENDMDL
MODEL 4
REMARK VINA RESULT:    -5.337      1.966      4.191
REMARK INTER + INTRA:         -10.265
REMARK INTER:                  -8.759
REMARK INTRA:                  -1.506
REMARK UNBOUND:                -1.184
REMARK SMILES CCCCCCCCCCCCCC(=O)[O-]
REMARK SMILES IDX 8 1 9 2 10 3 11 4 12 5 13 6 14 7 15 8 16 9 7 10 6 11 5 12
REMARK SMILES IDX 4 13 3 14 2 15 1 16
REMARK H PARENT
REMARK Flexibility Score: inf
ROOT
ATOM      1  C   UNL     1     135.265 132.212 133.136  1.00  0.00     0.000 C 
ENDROOT
BRANCH   1   2
ATOM      2  C   UNL     1     135.198 133.629 133.732  1.00  0.00     0.000 C 
BRANCH   2   3
ATOM      3  C   UNL     1     136.516 134.427 133.664  1.00  0.00     0.000 C 
BRANCH   3   4
ATOM      4  C   UNL     1     136.468 135.700 132.798  1.00  0.00     0.000 C 
BRANCH   4   5
ATOM      5  C   UNL     1     136.328 135.462 131.282  1.00  0.00     0.006 C 
BRANCH   5   6
ATOM      6  C   UNL     1     137.529 135.959 130.458  1.00  0.00     0.053 C 
BRANCH   6   7
ATOM      7  C   UNL     1     137.114 136.620 129.179  1.00  0.00     0.041 C 
ATOM      8  O   UNL     1     137.949 136.794 128.254  1.00  0.00    -0.550 OA
ATOM      9  O   UNL     1     135.810 137.076 129.022  1.00  0.00    -0.550 OA
ENDBRANCH   6   7
ENDBRANCH   5   6
ENDBRANCH   4   5
ENDBRANCH   3   4
ENDBRANCH   2   3
ENDBRANCH   1   2
BRANCH   1  10
ATOM     10  C   UNL     1     133.997 131.386 133.418  1.00  0.00     0.000 C 
BRANCH  10  11
ATOM     11  C   UNL     1     132.794 131.857 132.575  1.00  0.00    -0.000 C 
BRANCH  11  12
ATOM     12  C   UNL     1     131.641 132.431 133.417  1.00  0.00    -0.000 C 
BRANCH  12  13
ATOM     13  C   UNL     1     131.577 133.964 133.375  1.00  0.00    -0.000 C 
BRANCH  13  14
ATOM     14  C   UNL     1     131.973 134.541 132.004  1.00  0.00    -0.000 C 
BRANCH  14  15
ATOM     15  C   UNL     1     132.680 135.909 132.090  1.00  0.00    -0.003 C 
ATOM     16  C   UNL     1     132.803 136.413 133.528  1.00  0.00     0.004 C 
ENDBRANCH  14  15
ENDBRANCH  13  14
ENDBRANCH  12  13
ENDBRANCH  11  12
ENDBRANCH  10  11
ENDBRANCH   1  10
TORSDOF 12
ENDMDL
MODEL 5
REMARK VINA RESULT:    -5.319      2.698      5.301
REMARK INTER + INTRA:         -10.234
REMARK INTER:                  -9.178
REMARK INTRA:                  -1.055
REMARK UNBOUND:                -1.184
REMARK SMILES CCCCCCCCCCCCCC(=O)[O-]
REMARK SMILES IDX 8 1 9 2 10 3 11 4 12 5 13 6 14 7 15 8 16 9 7 10 6 11 5 12
REMARK SMILES IDX 4 13 3 14 2 15 1 16
REMARK H PARENT
REMARK Flexibility Score: inf
ROOT
ATOM      1  C   UNL     1     131.903 131.702 133.171  1.00  0.00     0.000 C 
ENDROOT
BRANCH   1   2
ATOM      2  C   UNL     1     133.412 131.990 133.261  1.00  0.00     0.000 C 
BRANCH   2   3
ATOM      3  C   UNL     1     134.282 130.783 133.669  1.00  0.00     0.000 C 
BRANCH   3   4
ATOM      4  C   UNL     1     135.603 130.634 132.891  1.00  0.00     0.000 C 
BRANCH   4   5
ATOM      5  C   UNL     1     135.521 130.949 131.385  1.00  0.00     0.006 C 
BRANCH   5   6
ATOM      6  C   UNL     1     135.609 129.706 130.482  1.00  0.00     0.053 C 
BRANCH   6   7
ATOM      7  C   UNL     1     135.296 130.015 129.049  1.00  0.00     0.041 C 
ATOM      8  O   UNL     1     136.176 130.515 128.301  1.00  0.00    -0.550 OA
ATOM      9  O   UNL     1     134.021 129.780 128.548  1.00  0.00    -0.550 OA
ENDBRANCH   6   7
ENDBRANCH   5   6
ENDBRANCH   4   5
ENDBRANCH   3   4
ENDBRANCH   2   3
ENDBRANCH   1   2
BRANCH   1  10
ATOM     10  C   UNL     1     131.049 132.982 133.194  1.00  0.00     0.000 C 
BRANCH  10  11
ATOM     11  C   UNL     1     131.736 134.154 132.462  1.00  0.00    -0.000 C 
BRANCH  11  12
ATOM     12  C   UNL     1     131.571 135.506 133.177  1.00  0.00    -0.000 C 
BRANCH  12  13
ATOM     13  C   UNL     1     132.897 136.267 133.325  1.00  0.00    -0.000 C 
BRANCH  13  14
ATOM     14  C   UNL     1     134.055 135.365 133.788  1.00  0.00    -0.000 C 
BRANCH  14  15
ATOM     15  C   UNL     1     135.406 135.704 133.124  1.00  0.00    -0.003 C 
ATOM     16  C   UNL     1     136.479 134.656 133.417  1.00  0.00     0.004 C 
ENDBRANCH  14  15
ENDBRANCH  13  14
ENDBRANCH  12  13
ENDBRANCH  11  12
ENDBRANCH  10  11
ENDBRANCH   1  10
TORSDOF 12
ENDMDL
MODEL 6
REMARK VINA RESULT:    -5.307      2.476      4.901
REMARK INTER + INTRA:         -10.214
REMARK INTER:                  -8.690
REMARK INTRA:                  -1.524
REMARK UNBOUND:                -1.184
REMARK SMILES CCCCCCCCCCCCCC(=O)[O-]
REMARK SMILES IDX 8 1 9 2 10 3 11 4 12 5 13 6 14 7 15 8 16 9 7 10 6 11 5 12
REMARK SMILES IDX 4 13 3 14 2 15 1 16
REMARK H PARENT
REMARK Flexibility Score: inf
ROOT
ATOM      1  C   UNL     1     133.626 131.735 133.666  1.00  0.00     0.000 C 
ENDROOT
BRANCH   1   2
ATOM      2  C   UNL     1     132.317 131.763 132.856  1.00  0.00     0.000 C 
BRANCH   2   3
ATOM      3  C   UNL     1     131.192 132.621 133.469  1.00  0.00     0.000 C 
BRANCH   3   4
ATOM      4  C   UNL     1     131.344 134.141 133.274  1.00  0.00     0.000 C 
BRANCH   4   5
ATOM      5  C   UNL     1     132.035 134.572 131.966  1.00  0.00     0.006 C 
BRANCH   5   6
ATOM      6  C   UNL     1     132.105 136.097 131.770  1.00  0.00     0.053 C 
BRANCH   6   7
ATOM      7  C   UNL     1     131.808 136.509 130.360  1.00  0.00     0.041 C 
ATOM      8  O   UNL     1     130.921 135.909 129.697  1.00  0.00    -0.550 OA
ATOM      9  O   UNL     1     132.534 137.534 129.765  1.00  0.00    -0.550 OA
ENDBRANCH   6   7
ENDBRANCH   5   6
ENDBRANCH   4   5
ENDBRANCH   3   4
ENDBRANCH   2   3
ENDBRANCH   1   2
BRANCH   1  10
ATOM     10  C   UNL     1     134.880 131.781 132.774  1.00  0.00     0.000 C 
BRANCH  10  11
ATOM     11  C   UNL     1     135.799 132.971 133.121  1.00  0.00    -0.000 C 
BRANCH  11  12
ATOM     12  C   UNL     1     135.072 134.117 133.847  1.00  0.00    -0.000 C 
BRANCH  12  13
ATOM     13  C   UNL     1     135.418 135.499 133.273  1.00  0.00    -0.000 C 
BRANCH  13  14
ATOM     14  C   UNL     1     135.977 135.429 131.841  1.00  0.00    -0.000 C 
BRANCH  14  15
ATOM     15  C   UNL     1     137.452 135.868 131.731  1.00  0.00    -0.003 C 
ATOM     16  C   UNL     1     138.046 136.260 133.084  1.00  0.00     0.004 C 
ENDBRANCH  14  15
ENDBRANCH  13  14
ENDBRANCH  12  13
ENDBRANCH  11  12
ENDBRANCH  10  11
ENDBRANCH   1  10
TORSDOF 12
ENDMDL
MODEL 7
REMARK VINA RESULT:    -5.305      3.076      4.812
REMARK INTER + INTRA:         -10.210
REMARK INTER:                  -9.051
REMARK INTRA:                  -1.159
REMARK UNBOUND:                -1.184
REMARK SMILES CCCCCCCCCCCCCC(=O)[O-]
REMARK SMILES IDX 8 1 9 2 10 3 11 4 12 5 13 6 14 7 15 8 16 9 7 10 6 11 5 12
REMARK SMILES IDX 4 13 3 14 2 15 1 16
REMARK H PARENT
REMARK Flexibility Score: inf
ROOT
ATOM      1  C   UNL     1     134.296 135.589 132.701  1.00  0.00     0.000 C 
ENDROOT
BRANCH   1   2
ATOM      2  C   UNL     1     133.144 135.683 133.718  1.00  0.00     0.000 C 
BRANCH   2   3
ATOM      3  C   UNL     1     131.766 136.016 133.111  1.00  0.00     0.000 C 
BRANCH   3   4
ATOM      4  C   UNL     1     131.568 137.486 132.698  1.00  0.00     0.000 C 
BRANCH   4   5
ATOM      5  C   UNL     1     131.366 137.726 131.189  1.00  0.00     0.006 C 
BRANCH   5   6
ATOM      6  C   UNL     1     131.773 136.532 130.308  1.00  0.00     0.053 C 
BRANCH   6   7
ATOM      7  C   UNL     1     131.136 136.577 128.951  1.00  0.00     0.041 C 
ATOM      8  O   UNL     1     129.883 136.605 128.839  1.00  0.00    -0.550 OA
ATOM      9  O   UNL     1     131.928 136.553 127.809  1.00  0.00    -0.550 OA
ENDBRANCH   6   7
ENDBRANCH   5   6
ENDBRANCH   4   5
ENDBRANCH   3   4
ENDBRANCH   2   3
ENDBRANCH   1   2
BRANCH   1  10
ATOM     10  C   UNL     1     135.683 135.607 133.368  1.00  0.00     0.000 C 
BRANCH  10  11
ATOM     11  C   UNL     1     136.301 134.197 133.466  1.00  0.00    -0.000 C 
BRANCH  11  12
ATOM     12  C   UNL     1     135.578 133.148 132.602  1.00  0.00    -0.000 C 
BRANCH  12  13
ATOM     13  C   UNL     1     135.714 131.723 133.158  1.00  0.00    -0.000 C 
BRANCH  13  14
ATOM     14  C   UNL     1     134.361 131.105 133.553  1.00  0.00    -0.000 C 
BRANCH  14  15
ATOM     15  C   UNL     1     133.215 132.133 133.646  1.00  0.00    -0.003 C 
ATOM     16  C   UNL     1     131.987 131.713 132.839  1.00  0.00     0.004 C 
ENDBRANCH  14  15
ENDBRANCH  13  14
ENDBRANCH  12  13
ENDBRANCH  11  12
ENDBRANCH  10  11
ENDBRANCH   1  10
TORSDOF 12
ENDMDL
MODEL 8
REMARK VINA RESULT:    -5.249      4.312      6.082
REMARK INTER + INTRA:         -10.114
REMARK INTER:                  -8.824
REMARK INTRA:                  -1.291
REMARK UNBOUND:                -1.184
REMARK SMILES CCCCCCCCCCCCCC(=O)[O-]
REMARK SMILES IDX 8 1 9 2 10 3 11 4 12 5 13 6 14 7 15 8 16 9 7 10 6 11 5 12
REMARK SMILES IDX 4 13 3 14 2 15 1 16
REMARK H PARENT
REMARK Flexibility Score: inf
ROOT
ATOM      1  C   UNL     1     131.569 134.504 133.045  1.00  0.00     0.000 C 
ENDROOT
BRANCH   1   2
ATOM      2  C   UNL     1     131.495 133.138 133.752  1.00  0.00     0.000 C 
BRANCH   2   3
ATOM      3  C   UNL     1     131.254 131.934 132.819  1.00  0.00     0.000 C 
BRANCH   3   4
ATOM      4  C   UNL     1     131.558 132.187 131.330  1.00  0.00     0.000 C 
BRANCH   4   5
ATOM      5  C   UNL     1     130.324 132.256 130.409  1.00  0.00     0.006 C 
BRANCH   5   6
ATOM      6  C   UNL     1     129.959 130.913 129.752  1.00  0.00     0.053 C 
BRANCH   6   7
ATOM      7  C   UNL     1     128.918 131.061 128.684  1.00  0.00     0.041 C 
ATOM      8  O   UNL     1     128.531 130.056 128.032  1.00  0.00    -0.550 OA
ATOM      9  O   UNL     1     128.398 132.315 128.387  1.00  0.00    -0.550 OA
ENDBRANCH   6   7
ENDBRANCH   5   6
ENDBRANCH   4   5
ENDBRANCH   3   4
ENDBRANCH   2   3
ENDBRANCH   1   2
BRANCH   1  10
ATOM     10  C   UNL     1     132.824 135.307 133.430  1.00  0.00     0.000 C 
BRANCH  10  11
ATOM     11  C   UNL     1     133.866 134.442 134.169  1.00  0.00    -0.000 C 
BRANCH  11  12
ATOM     12  C   UNL     1     135.264 134.481 133.525  1.00  0.00    -0.000 C 
BRANCH  12  13
ATOM     13  C   UNL     1     135.915 133.093 133.431  1.00  0.00    -0.000 C 
BRANCH  13  14
ATOM     14  C   UNL     1     135.059 132.083 132.647  1.00  0.00    -0.000 C 
BRANCH  14  15
ATOM     15  C   UNL     1     134.797 130.769 133.412  1.00  0.00    -0.003 C 
ATOM     16  C   UNL     1     135.874 129.717 133.150  1.00  0.00     0.004 C 
ENDBRANCH  14  15
ENDBRANCH  13  14
ENDBRANCH  12  13
ENDBRANCH  11  12
ENDBRANCH  10  11
ENDBRANCH   1  10
TORSDOF 12
ENDMDL
MODEL 9
REMARK VINA RESULT:    -5.244      2.461      4.425
REMARK INTER + INTRA:         -10.106
REMARK INTER:                  -8.621
REMARK INTRA:                  -1.485
REMARK UNBOUND:                -1.184
REMARK SMILES CCCCCCCCCCCCCC(=O)[O-]
REMARK SMILES IDX 8 1 9 2 10 3 11 4 12 5 13 6 14 7 15 8 16 9 7 10 6 11 5 12
REMARK SMILES IDX 4 13 3 14 2 15 1 16
REMARK H PARENT
REMARK Flexibility Score: inf
ROOT
ATOM      1  C   UNL     1     135.122 134.296 133.808  1.00  0.00     0.000 C 
ENDROOT
BRANCH   1   2
ATOM      2  C   UNL     1     134.358 135.446 133.127  1.00  0.00     0.000 C 
BRANCH   2   3
ATOM      3  C   UNL     1     132.986 135.775 133.749  1.00  0.00     0.000 C 
BRANCH   3   4
ATOM      4  C   UNL     1     132.167 136.845 133.004  1.00  0.00     0.000 C 
BRANCH   4   5
ATOM      5  C   UNL     1     131.651 136.430 131.612  1.00  0.00     0.006 C 
BRANCH   5   6
ATOM      6  C   UNL     1     131.684 137.562 130.571  1.00  0.00     0.053 C 
BRANCH   6   7
ATOM      7  C   UNL     1     132.627 137.277 129.442  1.00  0.00     0.041 C 
ATOM      8  O   UNL     1     133.715 136.682 129.658  1.00  0.00    -0.550 OA
ATOM      9  O   UNL     1     132.319 137.700 128.154  1.00  0.00    -0.550 OA
ENDBRANCH   6   7
ENDBRANCH   5   6
ENDBRANCH   4   5
ENDBRANCH   3   4
ENDBRANCH   2   3
ENDBRANCH   1   2
BRANCH   1  10
ATOM     10  C   UNL     1     135.563 133.204 132.818  1.00  0.00     0.000 C 
BRANCH  10  11
ATOM     11  C   UNL     1     135.201 131.788 133.313  1.00  0.00    -0.000 C 
BRANCH  11  12
ATOM     12  C   UNL     1     133.691 131.493 133.277  1.00  0.00    -0.000 C 
BRANCH  12  13
ATOM     13  C   UNL     1     133.058 131.789 131.910  1.00  0.00    -0.000 C 
BRANCH  13  14
ATOM     14  C   UNL     1     131.871 132.765 132.000  1.00  0.00    -0.000 C 
BRANCH  14  15
ATOM     15  C   UNL     1     131.053 132.624 133.300  1.00  0.00    -0.003 C 
ATOM     16  C   UNL     1     129.943 131.579 133.181  1.00  0.00     0.004 C 
ENDBRANCH  14  15
ENDBRANCH  13  14
ENDBRANCH  12  13
ENDBRANCH  11  12
ENDBRANCH  10  11
ENDBRANCH   1  10
TORSDOF 12
ENDMDL
