MODEL 1
REMARK VINA RESULT:    -3.850      0.000      0.000
REMARK INTER + INTRA:          -7.605
REMARK INTER:                  -6.663
REMARK INTRA:                  -0.943
REMARK UNBOUND:                -0.943
REMARK SMILES CCCCCCCCCCCCCCO
REMARK SMILES IDX 8 1 7 2 6 3 5 4 4 5 3 6 2 7 1 8 9 9 10 10 11 11 12 12 13 13
REMARK SMILES IDX 14 14 15 15
REMARK H PARENT 15 16
REMARK Flexibility Score: inf
ROOT
ATOM      1  C   UNL     1     166.290 165.898 167.248  1.00  0.00     0.000 C 
ENDROOT
BRANCH   1   2
ATOM      2  C   UNL     1     165.274 164.796 166.909  1.00  0.00    -0.000 C 
BRANCH   2   3
ATOM      3  C   UNL     1     164.253 165.288 165.877  1.00  0.00    -0.000 C 
BRANCH   3   4
ATOM      4  C   UNL     1     162.832 164.849 166.256  1.00  0.00    -0.000 C 
BRANCH   4   5
ATOM      5  C   UNL     1     162.632 164.742 167.777  1.00  0.00    -0.000 C 
BRANCH   5   6
ATOM      6  C   UNL     1     161.164 164.494 168.164  1.00  0.00    -0.000 C 
BRANCH   6   7
ATOM      7  C   UNL     1     160.216 164.576 166.957  1.00  0.00    -0.003 C 
ATOM      8  C   UNL     1     158.816 165.055 167.338  1.00  0.00     0.004 C 
ENDBRANCH   6   7
ENDBRANCH   5   6
ENDBRANCH   4   5
ENDBRANCH   3   4
ENDBRANCH   2   3
ENDBRANCH   1   2
BRANCH   1   9
ATOM      9  C   UNL     1     165.640 167.283 167.383  1.00  0.00     0.000 C 
BRANCH   9  10
ATOM     10  C   UNL     1     165.046 167.526 168.782  1.00  0.00     0.000 C 
BRANCH  10  11
ATOM     11  C   UNL     1     164.482 168.955 168.934  1.00  0.00     0.000 C 
BRANCH  11  12
ATOM     12  C   UNL     1     164.534 169.777 167.635  1.00  0.00     0.002 C 
BRANCH  12  13
ATOM     13  C   UNL     1     164.093 171.234 167.831  1.00  0.00     0.028 C 
BRANCH  13  14
ATOM     14  C   UNL     1     165.062 172.201 167.145  1.00  0.00     0.156 C 
BRANCH  14  15
ATOM     15  O   UNL     1     165.616 173.082 168.084  1.00  0.00    -0.396 OA
ATOM     16  H   UNL     1     166.118 173.766 167.569  1.00  0.00     0.210 HD
ENDBRANCH  14  15
ENDBRANCH  13  14
ENDBRANCH  12  13
ENDBRANCH  11  12
ENDBRANCH  10  11
ENDBRANCH   9  10
ENDBRANCH   1   9
TORSDOF 13
ENDMDL
MODEL 2
REMARK VINA RESULT:    -3.786      4.051      6.660
REMARK INTER + INTRA:          -7.495
REMARK INTER:                  -6.795
REMARK INTRA:                  -0.700
REMARK UNBOUND:                -0.943
REMARK SMILES CCCCCCCCCCCCCCO
REMARK SMILES IDX 8 1 7 2 6 3 5 4 4 5 3 6 2 7 1 8 9 9 10 10 11 11 12 12 13 13
REMARK SMILES IDX 14 14 15 15
REMARK H PARENT 15 16
REMARK Flexibility Score: inf
ROOT
ATOM      1  C   UNL     1     164.066 165.644 167.995  1.00  0.00     0.000 C 
ENDROOT
BRANCH   1   2
ATOM      2  C   UNL     1     165.259 164.714 168.256  1.00  0.00    -0.000 C 
BRANCH   2   3
ATOM      3  C   UNL     1     165.895 164.252 166.939  1.00  0.00    -0.000 C 
BRANCH   3   4
ATOM      4  C   UNL     1     166.361 162.792 167.035  1.00  0.00    -0.000 C 
BRANCH   4   5
ATOM      5  C   UNL     1     166.585 162.337 168.486  1.00  0.00    -0.000 C 
BRANCH   5   6
ATOM      6  C   UNL     1     166.702 160.808 168.614  1.00  0.00    -0.000 C 
BRANCH   6   7
ATOM      7  C   UNL     1     166.824 160.112 167.250  1.00  0.00    -0.003 C 
ATOM      8  C   UNL     1     166.259 158.692 167.259  1.00  0.00     0.004 C 
ENDBRANCH   6   7
ENDBRANCH   5   6
ENDBRANCH   4   5
ENDBRANCH   3   4
ENDBRANCH   2   3
ENDBRANCH   1   2
BRANCH   1   9
ATOM      9  C   UNL     1     162.729 164.891 167.931  1.00  0.00     0.000 C 
BRANCH   9  10
ATOM     10  C   UNL     1     162.253 164.647 166.488  1.00  0.00     0.000 C 
BRANCH  10  11
ATOM     11  C   UNL     1     160.714 164.690 166.368  1.00  0.00     0.000 C 
BRANCH  11  12
ATOM     12  C   UNL     1     159.985 164.240 167.645  1.00  0.00     0.002 C 
BRANCH  12  13
ATOM     13  C   UNL     1     158.727 165.067 167.939  1.00  0.00     0.028 C 
BRANCH  13  14
ATOM     14  C   UNL     1     157.930 165.333 166.659  1.00  0.00     0.156 C 
BRANCH  14  15
ATOM     15  O   UNL     1     157.080 166.434 166.837  1.00  0.00    -0.396 OA
ATOM     16  H   UNL     1     156.405 166.391 166.109  1.00  0.00     0.210 HD
ENDBRANCH  14  15
ENDBRANCH  13  14
ENDBRANCH  12  13
ENDBRANCH  11  12
ENDBRANCH  10  11
ENDBRANCH   9  10
ENDBRANCH   1   9
TORSDOF 13
ENDMDL
MODEL 3
REMARK VINA RESULT:    -3.753      5.764      9.547
REMARK INTER + INTRA:          -7.438
REMARK INTER:                  -6.862
REMARK INTRA:                  -0.575
REMARK UNBOUND:                -0.943
REMARK SMILES CCCCCCCCCCCCCCO
REMARK SMILES IDX 8 1 7 2 6 3 5 4 4 5 3 6 2 7 1 8 9 9 10 10 11 11 12 12 13 13
REMARK SMILES IDX 14 14 15 15
REMARK H PARENT 15 16
REMARK Flexibility Score: inf
ROOT
ATOM      1  C   UNL     1     166.460 164.982 167.310  1.00  0.00     0.000 C 
ENDROOT
BRANCH   1   2
ATOM      2  C   UNL     1     166.840 165.239 168.776  1.00  0.00    -0.000 C 
BRANCH   2   3
ATOM      3  C   UNL     1     167.840 166.396 168.890  1.00  0.00    -0.000 C 
BRANCH   3   4
ATOM      4  C   UNL     1     168.735 166.474 167.645  1.00  0.00    -0.000 C 
BRANCH   4   5
ATOM      5  C   UNL     1     170.182 166.866 167.981  1.00  0.00    -0.000 C 
BRANCH   5   6
ATOM      6  C   UNL     1     171.165 166.525 166.848  1.00  0.00    -0.000 C 
BRANCH   6   7
ATOM      7  C   UNL     1     172.540 166.084 167.374  1.00  0.00    -0.003 C 
ATOM      8  C   UNL     1     173.417 165.466 166.286  1.00  0.00     0.004 C 
ENDBRANCH   6   7
ENDBRANCH   5   6
ENDBRANCH   4   5
ENDBRANCH   3   4
ENDBRANCH   2   3
ENDBRANCH   1   2
BRANCH   1   9
ATOM      9  C   UNL     1     165.737 163.642 167.111  1.00  0.00     0.000 C 
BRANCH   9  10
ATOM     10  C   UNL     1     166.390 162.492 167.899  1.00  0.00     0.000 C 
BRANCH  10  11
ATOM     11  C   UNL     1     166.726 161.285 166.996  1.00  0.00     0.000 C 
BRANCH  11  12
ATOM     12  C   UNL     1     167.372 160.113 167.753  1.00  0.00     0.002 C 
BRANCH  12  13
ATOM     13  C   UNL     1     166.884 159.996 169.203  1.00  0.00     0.028 C 
BRANCH  13  14
ATOM     14  C   UNL     1     166.308 158.604 169.480  1.00  0.00     0.156 C 
BRANCH  14  15
ATOM     15  O   UNL     1     165.586 158.148 168.368  1.00  0.00    -0.396 OA
ATOM     16  H   UNL     1     164.644 158.432 168.505  1.00  0.00     0.210 HD
ENDBRANCH  14  15
ENDBRANCH  13  14
ENDBRANCH  12  13
ENDBRANCH  11  12
ENDBRANCH  10  11
ENDBRANCH   9  10
ENDBRANCH   1   9
TORSDOF 13
ENDMDL
MODEL 4
REMARK VINA RESULT:    -3.721      2.829      6.608
REMARK INTER + INTRA:          -7.382
REMARK INTER:                  -6.681
REMARK INTRA:                  -0.701
REMARK UNBOUND:                -0.943
REMARK SMILES CCCCCCCCCCCCCCO
REMARK SMILES IDX 8 1 7 2 6 3 5 4 4 5 3 6 2 7 1 8 9 9 10 10 11 11 12 12 13 13
REMARK SMILES IDX 14 14 15 15
REMARK H PARENT 15 16
REMARK Flexibility Score: inf
ROOT
ATOM      1  C   UNL     1     164.362 165.484 168.588  1.00  0.00     0.000 C 
ENDROOT
BRANCH   1   2
ATOM      2  C   UNL     1     164.822 165.612 167.128  1.00  0.00    -0.000 C 
BRANCH   2   3
ATOM      3  C   UNL     1     165.274 167.044 166.818  1.00  0.00    -0.000 C 
BRANCH   3   4
ATOM      4  C   UNL     1     164.921 167.995 167.971  1.00  0.00    -0.000 C 
BRANCH   4   5
ATOM      5  C   UNL     1     164.614 169.421 167.488  1.00  0.00    -0.000 C 
BRANCH   5   6
ATOM      6  C   UNL     1     164.267 170.374 168.645  1.00  0.00    -0.000 C 
BRANCH   6   7
ATOM      7  C   UNL     1     164.044 171.818 168.171  1.00  0.00    -0.003 C 
ATOM      8  C   UNL     1     165.074 172.264 167.133  1.00  0.00     0.004 C 
ENDBRANCH   6   7
ENDBRANCH   5   6
ENDBRANCH   4   5
ENDBRANCH   3   4
ENDBRANCH   2   3
ENDBRANCH   1   2
BRANCH   1   9
ATOM      9  C   UNL     1     162.982 164.824 168.720  1.00  0.00     0.000 C 
BRANCH   9  10
ATOM     10  C   UNL     1     162.194 164.826 167.397  1.00  0.00     0.000 C 
BRANCH  10  11
ATOM     11  C   UNL     1     160.835 164.105 167.529  1.00  0.00     0.000 C 
BRANCH  11  12
ATOM     12  C   UNL     1     159.715 164.750 166.696  1.00  0.00     0.002 C 
BRANCH  12  13
ATOM     13  C   UNL     1     158.534 165.228 167.551  1.00  0.00     0.028 C 
BRANCH  13  14
ATOM     14  C   UNL     1     158.592 164.625 168.958  1.00  0.00     0.156 C 
BRANCH  14  15
ATOM     15  O   UNL     1     158.731 165.640 169.915  1.00  0.00    -0.396 OA
ATOM     16  H   UNL     1     158.016 165.494 170.589  1.00  0.00     0.210 HD
ENDBRANCH  14  15
ENDBRANCH  13  14
ENDBRANCH  12  13
ENDBRANCH  11  12
ENDBRANCH  10  11
ENDBRANCH   9  10
ENDBRANCH   1   9
TORSDOF 13
ENDMDL
MODEL 5
REMARK VINA RESULT:    -3.692      2.853      4.945
REMARK INTER + INTRA:          -7.333
REMARK INTER:                  -6.350
REMARK INTRA:                  -0.983
REMARK UNBOUND:                -0.943
REMARK SMILES CCCCCCCCCCCCCCO
REMARK SMILES IDX 8 1 7 2 6 3 5 4 4 5 3 6 2 7 1 8 9 9 10 10 11 11 12 12 13 13
REMARK SMILES IDX 14 14 15 15
REMARK H PARENT 15 16
REMARK Flexibility Score: inf
ROOT
ATOM      1  C   UNL     1     164.933 167.008 168.016  1.00  0.00     0.000 C 
ENDROOT
BRANCH   1   2
ATOM      2  C   UNL     1     165.133 166.360 166.637  1.00  0.00    -0.000 C 
BRANCH   2   3
ATOM      3  C   UNL     1     166.461 165.595 166.578  1.00  0.00    -0.000 C 
BRANCH   3   4
ATOM      4  C   UNL     1     167.211 165.689 167.914  1.00  0.00    -0.000 C 
BRANCH   4   5
ATOM      5  C   UNL     1     168.578 166.379 167.779  1.00  0.00    -0.000 C 
BRANCH   5   6
ATOM      6  C   UNL     1     169.207 166.716 169.142  1.00  0.00    -0.000 C 
BRANCH   6   7
ATOM      7  C   UNL     1     168.213 166.557 170.303  1.00  0.00    -0.003 C 
ATOM      8  C   UNL     1     168.767 165.697 171.439  1.00  0.00     0.004 C 
ENDBRANCH   6   7
ENDBRANCH   5   6
ENDBRANCH   4   5
ENDBRANCH   3   4
ENDBRANCH   2   3
ENDBRANCH   1   2
BRANCH   1   9
ATOM      9  C   UNL     1     164.875 168.542 167.947  1.00  0.00     0.000 C 
BRANCH   9  10
ATOM     10  C   UNL     1     164.707 169.065 166.509  1.00  0.00     0.000 C 
BRANCH  10  11
ATOM     11  C   UNL     1     164.460 170.589 166.471  1.00  0.00     0.000 C 
BRANCH  11  12
ATOM     12  C   UNL     1     164.310 171.222 167.865  1.00  0.00     0.002 C 
BRANCH  12  13
ATOM     13  C   UNL     1     165.136 172.504 168.031  1.00  0.00     0.028 C 
BRANCH  13  14
ATOM     14  C   UNL     1     165.278 173.246 166.699  1.00  0.00     0.156 C 
BRANCH  14  15
ATOM     15  O   UNL     1     166.379 174.113 166.741  1.00  0.00    -0.396 OA
ATOM     16  H   UNL     1     167.180 173.546 166.896  1.00  0.00     0.210 HD
ENDBRANCH  14  15
ENDBRANCH  13  14
ENDBRANCH  12  13
ENDBRANCH  11  12
ENDBRANCH  10  11
ENDBRANCH   9  10
ENDBRANCH   1   9
TORSDOF 13
ENDMDL
MODEL 6
REMARK VINA RESULT:    -3.652      3.889      7.337
REMARK INTER + INTRA:          -7.264
REMARK INTER:                  -6.404
REMARK INTRA:                  -0.860
REMARK UNBOUND:                -0.943
REMARK SMILES CCCCCCCCCCCCCCO
REMARK SMILES IDX 8 1 7 2 6 3 5 4 4 5 3 6 2 7 1 8 9 9 10 10 11 11 12 12 13 13
REMARK SMILES IDX 14 14 15 15
REMARK H PARENT 15 16
REMARK Flexibility Score: inf
ROOT
ATOM      1  C   UNL     1     162.404 164.769 168.394  1.00  0.00     0.000 C 
ENDROOT
BRANCH   1   2
ATOM      2  C   UNL     1     163.848 165.273 168.539  1.00  0.00    -0.000 C 
BRANCH   2   3
ATOM      3  C   UNL     1     164.393 165.774 167.197  1.00  0.00    -0.000 C 
BRANCH   3   4
ATOM      4  C   UNL     1     165.118 167.117 167.365  1.00  0.00    -0.000 C 
BRANCH   4   5
ATOM      5  C   UNL     1     164.972 167.695 168.782  1.00  0.00    -0.000 C 
BRANCH   5   6
ATOM      6  C   UNL     1     164.598 169.187 168.777  1.00  0.00    -0.000 C 
BRANCH   6   7
ATOM      7  C   UNL     1     164.509 169.765 167.356  1.00  0.00    -0.003 C 
ATOM      8  C   UNL     1     164.698 171.282 167.323  1.00  0.00     0.004 C 
ENDBRANCH   6   7
ENDBRANCH   5   6
ENDBRANCH   4   5
ENDBRANCH   3   4
ENDBRANCH   2   3
ENDBRANCH   1   2
BRANCH   1   9
ATOM      9  C   UNL     1     161.943 164.706 166.930  1.00  0.00     0.000 C 
BRANCH   9  10
ATOM     10  C   UNL     1     160.542 164.087 166.775  1.00  0.00     0.000 C 
BRANCH  10  11
ATOM     11  C   UNL     1     159.420 165.114 167.042  1.00  0.00     0.000 C 
BRANCH  11  12
ATOM     12  C   UNL     1     158.572 164.788 168.283  1.00  0.00     0.002 C 
BRANCH  12  13
ATOM     13  C   UNL     1     158.887 163.409 168.877  1.00  0.00     0.028 C 
BRANCH  13  14
ATOM     14  C   UNL     1     157.619 162.737 169.413  1.00  0.00     0.156 C 
BRANCH  14  15
ATOM     15  O   UNL     1     157.461 161.469 168.835  1.00  0.00    -0.396 OA
ATOM     16  H   UNL     1     158.091 160.862 169.305  1.00  0.00     0.210 HD
ENDBRANCH  14  15
ENDBRANCH  13  14
ENDBRANCH  12  13
ENDBRANCH  11  12
ENDBRANCH  10  11
ENDBRANCH   9  10
ENDBRANCH   1   9
TORSDOF 13
ENDMDL
MODEL 7
REMARK VINA RESULT:    -3.619      3.876      7.039
REMARK INTER + INTRA:          -7.206
REMARK INTER:                  -6.085
REMARK INTRA:                  -1.121
REMARK UNBOUND:                -0.943
REMARK SMILES CCCCCCCCCCCCCCO
REMARK SMILES IDX 8 1 7 2 6 3 5 4 4 5 3 6 2 7 1 8 9 9 10 10 11 11 12 12 13 13
REMARK SMILES IDX 14 14 15 15
REMARK H PARENT 15 16
REMARK Flexibility Score: inf
ROOT
ATOM      1  C   UNL     1     163.357 164.870 168.081  1.00  0.00     0.000 C 
ENDROOT
BRANCH   1   2
ATOM      2  C   UNL     1     163.749 165.148 166.622  1.00  0.00    -0.000 C 
BRANCH   2   3
ATOM      3  C   UNL     1     165.184 164.687 166.341  1.00  0.00    -0.000 C 
BRANCH   3   4
ATOM      4  C   UNL     1     166.034 164.726 167.619  1.00  0.00    -0.000 C 
BRANCH   4   5
ATOM      5  C   UNL     1     166.910 165.986 167.709  1.00  0.00    -0.000 C 
BRANCH   5   6
ATOM      6  C   UNL     1     166.980 166.556 169.136  1.00  0.00    -0.000 C 
BRANCH   6   7
ATOM      7  C   UNL     1     165.653 167.192 169.581  1.00  0.00    -0.003 C 
ATOM      8  C   UNL     1     165.042 168.092 168.507  1.00  0.00     0.004 C 
ENDBRANCH   6   7
ENDBRANCH   5   6
ENDBRANCH   4   5
ENDBRANCH   3   4
ENDBRANCH   2   3
ENDBRANCH   1   2
BRANCH   1   9
ATOM      9  C   UNL     1     161.861 164.559 168.244  1.00  0.00     0.000 C 
BRANCH   9  10
ATOM     10  C   UNL     1     161.104 164.567 166.905  1.00  0.00     0.000 C 
BRANCH  10  11
ATOM     11  C   UNL     1     159.578 164.702 167.100  1.00  0.00     0.000 C 
BRANCH  11  12
ATOM     12  C   UNL     1     159.146 164.700 168.576  1.00  0.00     0.002 C 
BRANCH  12  13
ATOM     13  C   UNL     1     158.334 163.456 168.960  1.00  0.00     0.028 C 
BRANCH  13  14
ATOM     14  C   UNL     1     159.247 162.339 169.474  1.00  0.00     0.156 C 
BRANCH  14  15
ATOM     15  O   UNL     1     159.174 161.224 168.628  1.00  0.00    -0.396 OA
ATOM     16  H   UNL     1     159.867 161.352 167.928  1.00  0.00     0.210 HD
ENDBRANCH  14  15
ENDBRANCH  13  14
ENDBRANCH  12  13
ENDBRANCH  11  12
ENDBRANCH  10  11
ENDBRANCH   9  10
ENDBRANCH   1   9
TORSDOF 13
ENDMDL
MODEL 8
REMARK VINA RESULT:    -3.604      4.850      8.250
REMARK INTER + INTRA:          -7.181
REMARK INTER:                  -6.754
REMARK INTRA:                  -0.427
REMARK UNBOUND:                -0.943
REMARK SMILES CCCCCCCCCCCCCCO
REMARK SMILES IDX 8 1 7 2 6 3 5 4 4 5 3 6 2 7 1 8 9 9 10 10 11 11 12 12 13 13
REMARK SMILES IDX 14 14 15 15
REMARK H PARENT 15 16
REMARK Flexibility Score: inf
ROOT
ATOM      1  C   UNL     1     164.831 164.533 167.926  1.00  0.00     0.000 C 
ENDROOT
BRANCH   1   2
ATOM      2  C   UNL     1     164.519 165.886 167.269  1.00  0.00    -0.000 C 
BRANCH   2   3
ATOM      3  C   UNL     1     165.554 166.943 167.669  1.00  0.00    -0.000 C 
BRANCH   3   4
ATOM      4  C   UNL     1     164.925 168.014 168.572  1.00  0.00    -0.000 C 
BRANCH   4   5
ATOM      5  C   UNL     1     164.597 169.310 167.813  1.00  0.00    -0.000 C 
BRANCH   5   6
ATOM      6  C   UNL     1     164.186 170.457 168.753  1.00  0.00    -0.000 C 
BRANCH   6   7
ATOM      7  C   UNL     1     164.578 171.837 168.203  1.00  0.00    -0.003 C 
ATOM      8  C   UNL     1     165.080 171.776 166.760  1.00  0.00     0.004 C 
ENDBRANCH   6   7
ENDBRANCH   5   6
ENDBRANCH   4   5
ENDBRANCH   3   4
ENDBRANCH   2   3
ENDBRANCH   1   2
BRANCH   1   9
ATOM      9  C   UNL     1     166.181 163.954 167.479  1.00  0.00     0.000 C 
BRANCH   9  10
ATOM     10  C   UNL     1     166.364 162.483 167.895  1.00  0.00     0.000 C 
BRANCH  10  11
ATOM     11  C   UNL     1     166.618 161.563 166.682  1.00  0.00     0.000 C 
BRANCH  11  12
ATOM     12  C   UNL     1     166.742 160.075 167.055  1.00  0.00     0.002 C 
BRANCH  12  13
ATOM     13  C   UNL     1     167.312 159.857 168.463  1.00  0.00     0.028 C 
BRANCH  13  14
ATOM     14  C   UNL     1     166.794 158.551 169.071  1.00  0.00     0.156 C 
BRANCH  14  15
ATOM     15  O   UNL     1     165.622 158.143 168.419  1.00  0.00    -0.396 OA
ATOM     16  H   UNL     1     164.896 158.737 168.744  1.00  0.00     0.210 HD
ENDBRANCH  14  15
ENDBRANCH  13  14
ENDBRANCH  12  13
ENDBRANCH  11  12
ENDBRANCH  10  11
ENDBRANCH   9  10
ENDBRANCH   1   9
TORSDOF 13
ENDMDL
MODEL 9
REMARK VINA RESULT:    -3.602      3.411      6.377
REMARK INTER + INTRA:          -7.177
REMARK INTER:                  -6.073
REMARK INTRA:                  -1.104
REMARK UNBOUND:                -0.943
REMARK SMILES CCCCCCCCCCCCCCO
REMARK SMILES IDX 8 1 7 2 6 3 5 4 4 5 3 6 2 7 1 8 9 9 10 10 11 11 12 12 13 13
REMARK SMILES IDX 14 14 15 15
REMARK H PARENT 15 16
REMARK Flexibility Score: inf
ROOT
ATOM      1  C   UNL     1     164.246 164.937 169.957  1.00  0.00     0.000 C 
ENDROOT
BRANCH   1   2
ATOM      2  C   UNL     1     165.434 163.971 170.076  1.00  0.00    -0.000 C 
BRANCH   2   3
ATOM      3  C   UNL     1     166.425 164.173 168.923  1.00  0.00    -0.000 C 
BRANCH   3   4
ATOM      4  C   UNL     1     167.318 165.396 169.174  1.00  0.00    -0.000 C 
BRANCH   4   5
ATOM      5  C   UNL     1     167.369 166.348 167.969  1.00  0.00    -0.000 C 
BRANCH   5   6
ATOM      6  C   UNL     1     166.398 165.937 166.849  1.00  0.00    -0.000 C 
BRANCH   6   7
ATOM      7  C   UNL     1     165.474 167.088 166.419  1.00  0.00    -0.003 C 
ATOM      8  C   UNL     1     165.002 167.937 167.599  1.00  0.00     0.004 C 
ENDBRANCH   6   7
ENDBRANCH   5   6
ENDBRANCH   4   5
ENDBRANCH   3   4
ENDBRANCH   2   3
ENDBRANCH   1   2
BRANCH   1   9
ATOM      9  C   UNL     1     163.471 164.765 168.642  1.00  0.00     0.000 C 
BRANCH   9  10
ATOM     10  C   UNL     1     161.970 164.509 168.867  1.00  0.00     0.000 C 
BRANCH  10  11
ATOM     11  C   UNL     1     161.156 164.635 167.561  1.00  0.00     0.000 C 
BRANCH  11  12
ATOM     12  C   UNL     1     159.729 164.070 167.669  1.00  0.00     0.002 C 
BRANCH  12  13
ATOM     13  C   UNL     1     158.665 165.163 167.831  1.00  0.00     0.028 C 
BRANCH  13  14
ATOM     14  C   UNL     1     157.802 165.284 166.571  1.00  0.00     0.156 C 
BRANCH  14  15
ATOM     15  O   UNL     1     157.031 166.453 166.622  1.00  0.00    -0.396 OA
ATOM     16  H   UNL     1     156.642 166.576 165.716  1.00  0.00     0.210 HD
ENDBRANCH  14  15
ENDBRANCH  13  14
ENDBRANCH  12  13
ENDBRANCH  11  12
ENDBRANCH  10  11
ENDBRANCH   9  10
ENDBRANCH   1   9
TORSDOF 13
ENDMDL
