MODEL 1
REMARK VINA RESULT:    -8.601      0.000      0.000
REMARK INTER + INTRA:         -14.383
REMARK INTER:                 -12.875
REMARK INTRA:                  -1.509
REMARK UNBOUND:                -1.509
REMARK SMILES C=C(CC[C@@H](C(=O)[O-])[C@@H]1[C@@H](O)C[C@@]2(C)C3=C(CC[C@@]12C)[C@]1(C)CC[C@H](OC(C)=O)C(C)(C)[C@@H]1CC3)C(C)C
REMARK SMILES IDX 4 1 5 2 6 3 7 4 8 5 9 6 10 7 19 8 12 9 13 10 18 11 20 12
REMARK SMILES IDX 14 13 15 14 17 15 16 16 35 17 21 18 34 19 33 20 23 21 22 22
REMARK SMILES IDX 30 23 24 24 25 25 31 26 32 27 11 28 26 30 27 31 29 32 28 33
REMARK SMILES IDX 3 34 2 35 1 36 36 37 37 38 38 39
REMARK H PARENT 11 29
REMARK Flexibility Score: inf
ROOT
ATOM      1  C   UNL     1       5.017  -0.596 -23.781  1.00  0.00     0.014 C 
ENDROOT
BRANCH   1   2
ATOM      2  C   UNL     1       4.691   0.619 -22.855  1.00  0.00     0.042 C 
BRANCH   2   3
ATOM      3  C   UNL     1       5.094   0.249 -21.443  1.00  0.00     0.045 C 
ATOM      4  O   UNL     1       6.228  -0.238 -21.199  1.00  0.00    -0.550 OA
ATOM      5  O   UNL     1       4.181   0.398 -20.406  1.00  0.00    -0.550 OA
ENDBRANCH   2   3
BRANCH   2   6
ATOM      6  C   UNL     1       5.253   2.033 -23.287  1.00  0.00     0.033 C 
ATOM      7  C   UNL     1       6.125   2.653 -22.160  1.00  0.00     0.119 C 
ATOM      8  C   UNL     1       4.233   3.183 -23.690  1.00  0.00    -0.017 C 
ATOM      9  C   UNL     1       5.778   4.130 -22.070  1.00  0.00     0.043 C 
ATOM     10  C   UNL     1       4.324   4.253 -22.541  1.00  0.00    -0.003 C 
ATOM     11  C   UNL     1       4.755   3.826 -25.004  1.00  0.00     0.012 C 
ATOM     12  C   UNL     1       2.769   2.707 -23.928  1.00  0.00     0.013 C 
ATOM     13  C   UNL     1       3.382   3.885 -21.350  1.00  0.00     0.017 C 
ATOM     14  C   UNL     1       4.063   5.724 -22.969  1.00  0.00    -0.064 C 
ATOM     15  C   UNL     1       3.975   5.076 -25.381  1.00  0.00     0.032 C 
ATOM     16  C   UNL     1       3.947   6.126 -24.274  1.00  0.00    -0.064 C 
ATOM     17  C   UNL     1       3.982   6.741 -21.853  1.00  0.00     0.032 C 
ATOM     18  C   UNL     1       3.743   7.623 -24.695  1.00  0.00    -0.008 C 
ATOM     19  C   UNL     1       4.413   8.124 -22.286  1.00  0.00     0.009 C 
ATOM     20  C   UNL     1       3.533   8.605 -23.460  1.00  0.00     0.009 C 
ATOM     21  C   UNL     1       5.005   8.057 -25.500  1.00  0.00     0.015 C 
ATOM     22  C   UNL     1       2.485   7.644 -25.607  1.00  0.00     0.016 C 
ATOM     23  C   UNL     1       3.714  10.169 -23.763  1.00  0.00     0.005 C 
ATOM     24  C   UNL     1       5.039   9.541 -25.867  1.00  0.00     0.047 C 
ATOM     25  C   UNL     1       4.984  10.439 -24.631  1.00  0.00     0.182 C 
ATOM     26  C   UNL     1       3.829  10.999 -22.447  1.00  0.00     0.015 C 
ATOM     27  C   UNL     1       2.456  10.758 -24.481  1.00  0.00     0.015 C 
BRANCH   7  28
ATOM     28  O   UNL     1       7.493   2.491 -22.436  1.00  0.00    -0.393 OA
ATOM     29  H   UNL     1       7.617   2.715 -23.395  1.00  0.00     0.210 HD
ENDBRANCH   7  28
BRANCH  25  30
ATOM     30  O   UNL     1       6.183  10.228 -23.877  1.00  0.00    -0.462 OA
BRANCH  30  31
ATOM     31  C   UNL     1       7.226  11.155 -23.777  1.00  0.00     0.302 C 
ATOM     32  O   UNL     1       8.064  11.094 -22.838  1.00  0.00    -0.253 OA
ATOM     33  C   UNL     1       7.323  12.245 -24.788  1.00  0.00     0.139 C 
ENDBRANCH  30  31
ENDBRANCH  25  30
ENDBRANCH   2   6
ENDBRANCH   1   2
BRANCH   1  34
ATOM     34  C   UNL     1       3.837  -1.320 -24.460  1.00  0.00     0.031 C 
BRANCH  34  35
ATOM     35  C   UNL     1       3.115  -2.335 -23.587  1.00  0.00    -0.075 C 
ATOM     36  C   UNL     1       1.802  -2.546 -23.805  1.00  0.00     0.008 C 
BRANCH  35  37
ATOM     37  C   UNL     1       3.845  -2.948 -22.388  1.00  0.00     0.008 C 
ATOM     38  C   UNL     1       2.970  -2.877 -21.132  1.00  0.00     0.012 C 
ATOM     39  C   UNL     1       4.333  -4.389 -22.611  1.00  0.00     0.012 C 
ENDBRANCH  35  37
ENDBRANCH  34  35
ENDBRANCH   1  34
TORSDOF 9
ENDMDL
MODEL 2
REMARK VINA RESULT:    -8.521      2.008     10.147
REMARK INTER + INTRA:         -14.264
REMARK INTER:                 -12.771
REMARK INTRA:                  -1.493
REMARK UNBOUND:                -1.509
REMARK SMILES C=C(CC[C@@H](C(=O)[O-])[C@@H]1[C@@H](O)C[C@@]2(C)C3=C(CC[C@@]12C)[C@]1(C)CC[C@H](OC(C)=O)C(C)(C)[C@@H]1CC3)C(C)C
REMARK SMILES IDX 4 1 5 2 6 3 7 4 8 5 9 6 10 7 19 8 12 9 13 10 18 11 20 12
REMARK SMILES IDX 14 13 15 14 17 15 16 16 35 17 21 18 34 19 33 20 23 21 22 22
REMARK SMILES IDX 30 23 24 24 25 25 31 26 32 27 11 28 26 30 27 31 29 32 28 33
REMARK SMILES IDX 3 34 2 35 1 36 36 37 37 38 38 39
REMARK H PARENT 11 29
REMARK Flexibility Score: inf
ROOT
ATOM      1  C   UNL     1       3.339   7.647 -23.346  1.00  0.00     0.014 C 
ENDROOT
BRANCH   1   2
ATOM      2  C   UNL     1       4.320   6.472 -23.036  1.00  0.00     0.042 C 
BRANCH   2   3
ATOM      3  C   UNL     1       5.173   6.877 -21.853  1.00  0.00     0.045 C 
ATOM      4  O   UNL     1       4.685   7.534 -20.897  1.00  0.00    -0.550 OA
ATOM      5  O   UNL     1       6.528   6.568 -21.842  1.00  0.00    -0.550 OA
ENDBRANCH   2   3
BRANCH   2   6
ATOM      6  C   UNL     1       3.693   5.030 -22.856  1.00  0.00     0.033 C 
ATOM      7  C   UNL     1       3.968   4.478 -21.429  1.00  0.00     0.119 C 
ATOM      8  C   UNL     1       4.139   3.862 -23.837  1.00  0.00    -0.017 C 
ATOM      9  C   UNL     1       4.341   3.011 -21.569  1.00  0.00     0.043 C 
ATOM     10  C   UNL     1       4.979   2.866 -22.955  1.00  0.00    -0.003 C 
ATOM     11  C   UNL     1       2.850   3.135 -24.309  1.00  0.00     0.012 C 
ATOM     12  C   UNL     1       4.927   4.329 -25.097  1.00  0.00     0.013 C 
ATOM     13  C   UNL     1       6.473   3.312 -22.865  1.00  0.00     0.017 C 
ATOM     14  C   UNL     1       4.911   1.372 -23.379  1.00  0.00    -0.064 C 
ATOM     15  C   UNL     1       3.159   1.868 -25.090  1.00  0.00     0.032 C 
ATOM     16  C   UNL     1       4.046   0.890 -24.327  1.00  0.00    -0.064 C 
ATOM     17  C   UNL     1       5.839   0.427 -22.649  1.00  0.00     0.032 C 
ATOM     18  C   UNL     1       3.947  -0.630 -24.703  1.00  0.00    -0.008 C 
ATOM     19  C   UNL     1       5.297  -0.982 -22.568  1.00  0.00     0.009 C 
ATOM     20  C   UNL     1       5.048  -1.532 -23.990  1.00  0.00     0.009 C 
ATOM     21  C   UNL     1       2.525  -1.119 -24.294  1.00  0.00     0.015 C 
ATOM     22  C   UNL     1       4.123  -0.702 -26.244  1.00  0.00     0.016 C 
ATOM     23  C   UNL     1       4.779  -3.112 -23.998  1.00  0.00     0.005 C 
ATOM     24  C   UNL     1       2.304  -2.623 -24.458  1.00  0.00     0.047 C 
ATOM     25  C   UNL     1       3.297  -3.442 -23.632  1.00  0.00     0.182 C 
ATOM     26  C   UNL     1       5.714  -3.859 -22.997  1.00  0.00     0.015 C 
ATOM     27  C   UNL     1       5.126  -3.739 -25.388  1.00  0.00     0.015 C 
BRANCH   7  28
ATOM     28  O   UNL     1       2.835   4.616 -20.610  1.00  0.00    -0.393 OA
ATOM     29  H   UNL     1       2.578   5.575 -20.641  1.00  0.00     0.210 HD
ENDBRANCH   7  28
BRANCH  25  30
ATOM     30  O   UNL     1       3.035  -3.189 -22.248  1.00  0.00    -0.462 OA
BRANCH  30  31
ATOM     31  C   UNL     1       2.506  -4.132 -21.360  1.00  0.00     0.302 C 
ATOM     32  O   UNL     1       2.405  -3.883 -20.129  1.00  0.00    -0.253 OA
ATOM     33  C   UNL     1       2.082  -5.460 -21.886  1.00  0.00     0.139 C 
ENDBRANCH  30  31
ENDBRANCH  25  30
ENDBRANCH   2   6
ENDBRANCH   1   2
BRANCH   1  34
ATOM     34  C   UNL     1       3.843   8.782 -24.261  1.00  0.00     0.031 C 
BRANCH  34  35
ATOM     35  C   UNL     1       4.615   9.886 -23.554  1.00  0.00    -0.075 C 
ATOM     36  C   UNL     1       3.976  10.610 -22.614  1.00  0.00     0.008 C 
BRANCH  35  37
ATOM     37  C   UNL     1       6.017  10.255 -24.046  1.00  0.00     0.008 C 
ATOM     38  C   UNL     1       7.067   9.922 -22.980  1.00  0.00     0.012 C 
ATOM     39  C   UNL     1       6.407   9.613 -25.389  1.00  0.00     0.012 C 
ENDBRANCH  35  37
ENDBRANCH  34  35
ENDBRANCH   1  34
TORSDOF 9
ENDMDL
MODEL 3
REMARK VINA RESULT:    -8.063      1.098      1.996
REMARK INTER + INTRA:         -13.579
REMARK INTER:                 -11.682
REMARK INTRA:                  -1.897
REMARK UNBOUND:                -1.509
REMARK SMILES C=C(CC[C@@H](C(=O)[O-])[C@@H]1[C@@H](O)C[C@@]2(C)C3=C(CC[C@@]12C)[C@]1(C)CC[C@H](OC(C)=O)C(C)(C)[C@@H]1CC3)C(C)C
REMARK SMILES IDX 4 1 5 2 6 3 7 4 8 5 9 6 10 7 19 8 12 9 13 10 18 11 20 12
REMARK SMILES IDX 14 13 15 14 17 15 16 16 35 17 21 18 34 19 33 20 23 21 22 22
REMARK SMILES IDX 30 23 24 24 25 25 31 26 32 27 11 28 26 30 27 31 29 32 28 33
REMARK SMILES IDX 3 34 2 35 1 36 36 37 37 38 38 39
REMARK H PARENT 11 29
REMARK Flexibility Score: inf
ROOT
ATOM      1  C   UNL     1       5.230  -0.593 -23.815  1.00  0.00     0.014 C 
ENDROOT
BRANCH   1   2
ATOM      2  C   UNL     1       4.771   0.625 -22.952  1.00  0.00     0.042 C 
BRANCH   2   3
ATOM      3  C   UNL     1       5.050   0.299 -21.500  1.00  0.00     0.045 C 
ATOM      4  O   UNL     1       4.272   0.681 -20.589  1.00  0.00    -0.550 OA
ATOM      5  O   UNL     1       6.209  -0.390 -21.160  1.00  0.00    -0.550 OA
ENDBRANCH   2   3
BRANCH   2   6
ATOM      6  C   UNL     1       5.317   2.053 -23.361  1.00  0.00     0.033 C 
ATOM      7  C   UNL     1       6.174   2.668 -22.219  1.00  0.00     0.119 C 
ATOM      8  C   UNL     1       4.285   3.195 -23.755  1.00  0.00    -0.017 C 
ATOM      9  C   UNL     1       5.807   4.139 -22.112  1.00  0.00     0.043 C 
ATOM     10  C   UNL     1       4.355   4.249 -22.590  1.00  0.00    -0.003 C 
ATOM     11  C   UNL     1       4.807   3.863 -25.057  1.00  0.00     0.012 C 
ATOM     12  C   UNL     1       2.828   2.703 -24.008  1.00  0.00     0.013 C 
ATOM     13  C   UNL     1       3.410   3.854 -21.411  1.00  0.00     0.017 C 
ATOM     14  C   UNL     1       4.078   5.724 -23.000  1.00  0.00    -0.064 C 
ATOM     15  C   UNL     1       4.013   5.107 -25.421  1.00  0.00     0.032 C 
ATOM     16  C   UNL     1       3.965   6.142 -24.301  1.00  0.00    -0.064 C 
ATOM     17  C   UNL     1       3.977   6.724 -21.871  1.00  0.00     0.032 C 
ATOM     18  C   UNL     1       3.744   7.642 -24.703  1.00  0.00    -0.008 C 
ATOM     19  C   UNL     1       4.392   8.118 -22.283  1.00  0.00     0.009 C 
ATOM     20  C   UNL     1       3.513   8.604 -23.456  1.00  0.00     0.009 C 
ATOM     21  C   UNL     1       5.005   8.102 -25.493  1.00  0.00     0.015 C 
ATOM     22  C   UNL     1       2.492   7.659 -25.622  1.00  0.00     0.016 C 
ATOM     23  C   UNL     1       3.677  10.174 -23.736  1.00  0.00     0.005 C 
ATOM     24  C   UNL     1       5.023   9.592 -25.840  1.00  0.00     0.047 C 
ATOM     25  C   UNL     1       4.949  10.472 -24.592  1.00  0.00     0.182 C 
ATOM     26  C   UNL     1       3.772  10.987 -22.409  1.00  0.00     0.015 C 
ATOM     27  C   UNL     1       2.416  10.756 -24.454  1.00  0.00     0.015 C 
BRANCH   7  28
ATOM     28  O   UNL     1       7.546   2.527 -22.489  1.00  0.00    -0.393 OA
ATOM     29  H   UNL     1       7.991   3.333 -22.118  1.00  0.00     0.210 HD
ENDBRANCH   7  28
BRANCH  25  30
ATOM     30  O   UNL     1       6.145  10.266 -23.834  1.00  0.00    -0.462 OA
BRANCH  30  31
ATOM     31  C   UNL     1       7.146  11.228 -23.662  1.00  0.00     0.302 C 
ATOM     32  O   UNL     1       8.115  11.028 -22.881  1.00  0.00    -0.253 OA
ATOM     33  C   UNL     1       7.042  12.519 -24.400  1.00  0.00     0.139 C 
ENDBRANCH  30  31
ENDBRANCH  25  30
ENDBRANCH   2   6
ENDBRANCH   1   2
BRANCH   1  34
ATOM     34  C   UNL     1       4.146  -1.387 -24.571  1.00  0.00     0.031 C 
BRANCH  34  35
ATOM     35  C   UNL     1       4.341  -1.472 -26.078  1.00  0.00    -0.075 C 
ATOM     36  C   UNL     1       5.147  -2.436 -26.564  1.00  0.00     0.008 C 
BRANCH  35  37
ATOM     37  C   UNL     1       3.767  -0.368 -26.971  1.00  0.00     0.008 C 
ATOM     38  C   UNL     1       2.379   0.056 -26.478  1.00  0.00     0.012 C 
ATOM     39  C   UNL     1       4.675   0.865 -27.117  1.00  0.00     0.012 C 
ENDBRANCH  35  37
ENDBRANCH  34  35
ENDBRANCH   1  34
TORSDOF 9
ENDMDL
MODEL 4
REMARK VINA RESULT:    -8.012      2.513      9.723
REMARK INTER + INTRA:         -13.502
REMARK INTER:                 -11.465
REMARK INTRA:                  -2.037
REMARK UNBOUND:                -1.509
REMARK SMILES C=C(CC[C@@H](C(=O)[O-])[C@@H]1[C@@H](O)C[C@@]2(C)C3=C(CC[C@@]12C)[C@]1(C)CC[C@H](OC(C)=O)C(C)(C)[C@@H]1CC3)C(C)C
REMARK SMILES IDX 4 1 5 2 6 3 7 4 8 5 9 6 10 7 19 8 12 9 13 10 18 11 20 12
REMARK SMILES IDX 14 13 15 14 17 15 16 16 35 17 21 18 34 19 33 20 23 21 22 22
REMARK SMILES IDX 30 23 24 24 25 25 31 26 32 27 11 28 26 30 27 31 29 32 28 33
REMARK SMILES IDX 3 34 2 35 1 36 36 37 37 38 38 39
REMARK H PARENT 11 29
REMARK Flexibility Score: inf
ROOT
ATOM      1  C   UNL     1       3.298   7.660 -23.522  1.00  0.00     0.014 C 
ENDROOT
BRANCH   1   2
ATOM      2  C   UNL     1       4.281   6.516 -23.120  1.00  0.00     0.042 C 
BRANCH   2   3
ATOM      3  C   UNL     1       5.082   6.988 -21.926  1.00  0.00     0.045 C 
ATOM      4  O   UNL     1       6.333   6.860 -21.893  1.00  0.00    -0.550 OA
ATOM      5  O   UNL     1       4.426   7.525 -20.825  1.00  0.00    -0.550 OA
ENDBRANCH   2   3
BRANCH   2   6
ATOM      6  C   UNL     1       3.667   5.075 -22.898  1.00  0.00     0.033 C 
ATOM      7  C   UNL     1       3.971   4.556 -21.465  1.00  0.00     0.119 C 
ATOM      8  C   UNL     1       4.103   3.888 -23.861  1.00  0.00    -0.017 C 
ATOM      9  C   UNL     1       4.351   3.088 -21.579  1.00  0.00     0.043 C 
ATOM     10  C   UNL     1       4.964   2.917 -22.973  1.00  0.00    -0.003 C 
ATOM     11  C   UNL     1       2.810   3.144 -24.294  1.00  0.00     0.012 C 
ATOM     12  C   UNL     1       4.864   4.333 -25.145  1.00  0.00     0.013 C 
ATOM     13  C   UNL     1       6.458   3.374 -22.920  1.00  0.00     0.017 C 
ATOM     14  C   UNL     1       4.899   1.413 -23.363  1.00  0.00    -0.064 C 
ATOM     15  C   UNL     1       3.113   1.862 -25.053  1.00  0.00     0.032 C 
ATOM     16  C   UNL     1       4.020   0.905 -24.284  1.00  0.00    -0.064 C 
ATOM     17  C   UNL     1       5.846   0.491 -22.630  1.00  0.00     0.032 C 
ATOM     18  C   UNL     1       3.924  -0.623 -24.626  1.00  0.00    -0.008 C 
ATOM     19  C   UNL     1       5.315  -0.920 -22.509  1.00  0.00     0.009 C 
ATOM     20  C   UNL     1       5.043  -1.502 -23.913  1.00  0.00     0.009 C 
ATOM     21  C   UNL     1       2.513  -1.111 -24.181  1.00  0.00     0.015 C 
ATOM     22  C   UNL     1       4.072  -0.727 -26.168  1.00  0.00     0.016 C 
ATOM     23  C   UNL     1       4.785  -3.084 -23.883  1.00  0.00     0.005 C 
ATOM     24  C   UNL     1       2.299  -2.620 -24.308  1.00  0.00     0.047 C 
ATOM     25  C   UNL     1       3.312  -3.415 -23.483  1.00  0.00     0.182 C 
ATOM     26  C   UNL     1       5.742  -3.803 -22.883  1.00  0.00     0.015 C 
ATOM     27  C   UNL     1       5.110  -3.739 -25.265  1.00  0.00     0.015 C 
BRANCH   7  28
ATOM     28  O   UNL     1       2.852   4.705 -20.628  1.00  0.00    -0.393 OA
ATOM     29  H   UNL     1       2.754   5.678 -20.457  1.00  0.00     0.210 HD
ENDBRANCH   7  28
BRANCH  25  30
ATOM     30  O   UNL     1       3.073  -3.134 -22.100  1.00  0.00    -0.462 OA
BRANCH  30  31
ATOM     31  C   UNL     1       2.430  -4.007 -21.217  1.00  0.00     0.302 C 
ATOM     32  O   UNL     1       2.471  -3.822 -19.970  1.00  0.00    -0.253 OA
ATOM     33  C   UNL     1       1.709  -5.190 -21.767  1.00  0.00     0.139 C 
ENDBRANCH  30  31
ENDBRANCH  25  30
ENDBRANCH   2   6
ENDBRANCH   1   2
BRANCH   1  34
ATOM     34  C   UNL     1       1.942   7.260 -24.138  1.00  0.00     0.031 C 
BRANCH  34  35
ATOM     35  C   UNL     1       1.651   7.862 -25.504  1.00  0.00    -0.075 C 
ATOM     36  C   UNL     1       1.034   9.059 -25.556  1.00  0.00     0.008 C 
BRANCH  35  37
ATOM     37  C   UNL     1       1.902   7.025 -26.762  1.00  0.00     0.008 C 
ATOM     38  C   UNL     1       3.391   7.033 -27.125  1.00  0.00     0.012 C 
ATOM     39  C   UNL     1       1.388   5.578 -26.674  1.00  0.00     0.012 C 
ENDBRANCH  35  37
ENDBRANCH  34  35
ENDBRANCH   1  34
TORSDOF 9
ENDMDL
MODEL 5
REMARK VINA RESULT:    -7.623      2.323      3.230
REMARK INTER + INTRA:         -12.920
REMARK INTER:                 -11.402
REMARK INTRA:                  -1.518
REMARK UNBOUND:                -1.509
REMARK SMILES C=C(CC[C@@H](C(=O)[O-])[C@@H]1[C@@H](O)C[C@@]2(C)C3=C(CC[C@@]12C)[C@]1(C)CC[C@H](OC(C)=O)C(C)(C)[C@@H]1CC3)C(C)C
REMARK SMILES IDX 4 1 5 2 6 3 7 4 8 5 9 6 10 7 19 8 12 9 13 10 18 11 20 12
REMARK SMILES IDX 14 13 15 14 17 15 16 16 35 17 21 18 34 19 33 20 23 21 22 22
REMARK SMILES IDX 30 23 24 24 25 25 31 26 32 27 11 28 26 30 27 31 29 32 28 33
REMARK SMILES IDX 3 34 2 35 1 36 36 37 37 38 38 39
REMARK H PARENT 11 29
REMARK Flexibility Score: inf
ROOT
ATOM      1  C   UNL     1       2.776  -0.377 -27.123  1.00  0.00     0.014 C 
ENDROOT
BRANCH   1   2
ATOM      2  C   UNL     1       3.079   0.564 -25.913  1.00  0.00     0.042 C 
BRANCH   2   3
ATOM      3  C   UNL     1       4.048  -0.153 -24.998  1.00  0.00     0.045 C 
ATOM      4  O   UNL     1       3.913  -0.107 -23.748  1.00  0.00    -0.550 OA
ATOM      5  O   UNL     1       5.133  -0.832 -25.539  1.00  0.00    -0.550 OA
ENDBRANCH   2   3
BRANCH   2   6
ATOM      6  C   UNL     1       3.544   2.040 -26.240  1.00  0.00     0.033 C 
ATOM      7  C   UNL     1       5.017   2.269 -25.802  1.00  0.00     0.119 C 
ATOM      8  C   UNL     1       2.741   3.262 -25.617  1.00  0.00    -0.017 C 
ATOM      9  C   UNL     1       5.096   3.643 -25.157  1.00  0.00     0.043 C 
ATOM     10  C   UNL     1       3.709   3.913 -24.563  1.00  0.00    -0.003 C 
ATOM     11  C   UNL     1       2.495   4.286 -26.759  1.00  0.00     0.012 C 
ATOM     12  C   UNL     1       1.364   2.890 -24.990  1.00  0.00     0.013 C 
ATOM     13  C   UNL     1       3.610   3.191 -23.181  1.00  0.00     0.017 C 
ATOM     14  C   UNL     1       3.547   5.445 -24.356  1.00  0.00    -0.064 C 
ATOM     15  C   UNL     1       1.915   5.593 -26.242  1.00  0.00     0.032 C 
ATOM     16  C   UNL     1       2.762   6.240 -25.151  1.00  0.00    -0.064 C 
ATOM     17  C   UNL     1       4.352   6.057 -23.232  1.00  0.00     0.032 C 
ATOM     18  C   UNL     1       2.653   7.794 -24.968  1.00  0.00    -0.008 C 
ATOM     19  C   UNL     1       4.707   7.505 -23.485  1.00  0.00     0.009 C 
ATOM     20  C   UNL     1       3.421   8.335 -23.683  1.00  0.00     0.009 C 
ATOM     21  C   UNL     1       3.244   8.456 -26.249  1.00  0.00     0.015 C 
ATOM     22  C   UNL     1       1.136   8.106 -24.847  1.00  0.00     0.016 C 
ATOM     23  C   UNL     1       3.696   9.914 -23.639  1.00  0.00     0.005 C 
ATOM     24  C   UNL     1       3.350   9.980 -26.179  1.00  0.00     0.047 C 
ATOM     25  C   UNL     1       4.223  10.441 -25.011  1.00  0.00     0.182 C 
ATOM     26  C   UNL     1       4.734  10.285 -22.535  1.00  0.00     0.015 C 
ATOM     27  C   UNL     1       2.408  10.704 -23.236  1.00  0.00     0.015 C 
BRANCH   7  28
ATOM     28  O   UNL     1       5.886   2.198 -26.904  1.00  0.00    -0.393 OA
ATOM     29  H   UNL     1       6.710   1.746 -26.586  1.00  0.00     0.210 HD
ENDBRANCH   7  28
BRANCH  25  30
ATOM     30  O   UNL     1       5.562   9.998 -25.258  1.00  0.00    -0.462 OA
BRANCH  30  31
ATOM     31  C   UNL     1       6.605  10.833 -25.672  1.00  0.00     0.302 C 
ATOM     32  O   UNL     1       6.899  10.954 -26.892  1.00  0.00    -0.253 OA
ATOM     33  C   UNL     1       7.395  11.567 -24.643  1.00  0.00     0.139 C 
ENDBRANCH  30  31
ENDBRANCH  25  30
ENDBRANCH   2   6
ENDBRANCH   1   2
BRANCH   1  34
ATOM     34  C   UNL     1       2.107  -1.734 -26.829  1.00  0.00     0.031 C 
BRANCH  34  35
ATOM     35  C   UNL     1       0.818  -1.657 -26.024  1.00  0.00    -0.075 C 
ATOM     36  C   UNL     1       0.816  -2.155 -24.772  1.00  0.00     0.008 C 
BRANCH  35  37
ATOM     37  C   UNL     1      -0.468  -1.187 -26.711  1.00  0.00     0.008 C 
ATOM     38  C   UNL     1      -1.626  -2.139 -26.394  1.00  0.00     0.012 C 
ATOM     39  C   UNL     1      -0.870   0.261 -26.380  1.00  0.00     0.012 C 
ENDBRANCH  35  37
ENDBRANCH  34  35
ENDBRANCH   1  34
TORSDOF 9
ENDMDL
MODEL 6
REMARK VINA RESULT:    -7.117      2.296      2.912
REMARK INTER + INTRA:         -12.163
REMARK INTER:                 -11.605
REMARK INTRA:                  -0.557
REMARK UNBOUND:                -1.509
REMARK SMILES C=C(CC[C@@H](C(=O)[O-])[C@@H]1[C@@H](O)C[C@@]2(C)C3=C(CC[C@@]12C)[C@]1(C)CC[C@H](OC(C)=O)C(C)(C)[C@@H]1CC3)C(C)C
REMARK SMILES IDX 4 1 5 2 6 3 7 4 8 5 9 6 10 7 19 8 12 9 13 10 18 11 20 12
REMARK SMILES IDX 14 13 15 14 17 15 16 16 35 17 21 18 34 19 33 20 23 21 22 22
REMARK SMILES IDX 30 23 24 24 25 25 31 26 32 27 11 28 26 30 27 31 29 32 28 33
REMARK SMILES IDX 3 34 2 35 1 36 36 37 37 38 38 39
REMARK H PARENT 11 29
REMARK Flexibility Score: inf
ROOT
ATOM      1  C   UNL     1       3.382  -0.099 -24.228  1.00  0.00     0.014 C 
ENDROOT
BRANCH   1   2
ATOM      2  C   UNL     1       3.229   0.265 -25.740  1.00  0.00     0.042 C 
BRANCH   2   3
ATOM      3  C   UNL     1       1.832  -0.124 -26.173  1.00  0.00     0.045 C 
ATOM      4  O   UNL     1       1.261   0.467 -27.125  1.00  0.00    -0.550 OA
ATOM      5  O   UNL     1       1.147  -1.114 -25.480  1.00  0.00    -0.550 OA
ENDBRANCH   2   3
BRANCH   2   6
ATOM      6  C   UNL     1       3.602   1.740 -26.173  1.00  0.00     0.033 C 
ATOM      7  C   UNL     1       5.093   2.050 -25.861  1.00  0.00     0.119 C 
ATOM      8  C   UNL     1       2.795   2.959 -25.551  1.00  0.00    -0.017 C 
ATOM      9  C   UNL     1       5.160   3.458 -25.292  1.00  0.00     0.043 C 
ATOM     10  C   UNL     1       3.810   3.703 -24.608  1.00  0.00    -0.003 C 
ATOM     11  C   UNL     1       2.420   3.912 -26.720  1.00  0.00     0.012 C 
ATOM     12  C   UNL     1       1.487   2.566 -24.803  1.00  0.00     0.013 C 
ATOM     13  C   UNL     1       3.846   3.051 -23.188  1.00  0.00     0.017 C 
ATOM     14  C   UNL     1       3.597   5.236 -24.465  1.00  0.00    -0.064 C 
ATOM     15  C   UNL     1       1.823   5.220 -26.225  1.00  0.00     0.032 C 
ATOM     16  C   UNL     1       2.720   5.956 -25.234  1.00  0.00    -0.064 C 
ATOM     17  C   UNL     1       4.455   5.938 -23.437  1.00  0.00     0.032 C 
ATOM     18  C   UNL     1       2.557   7.512 -25.120  1.00  0.00    -0.008 C 
ATOM     19  C   UNL     1       4.727   7.384 -23.787  1.00  0.00     0.009 C 
ATOM     20  C   UNL     1       3.394   8.150 -23.927  1.00  0.00     0.009 C 
ATOM     21  C   UNL     1       3.021   8.129 -26.474  1.00  0.00     0.015 C 
ATOM     22  C   UNL     1       1.041   7.768 -24.899  1.00  0.00     0.016 C 
ATOM     23  C   UNL     1       3.602   9.739 -23.981  1.00  0.00     0.005 C 
ATOM     24  C   UNL     1       3.065   9.657 -26.488  1.00  0.00     0.047 C 
ATOM     25  C   UNL     1       4.001  10.214 -25.414  1.00  0.00     0.182 C 
ATOM     26  C   UNL     1       4.702  10.209 -22.980  1.00  0.00     0.015 C 
ATOM     27  C   UNL     1       2.314  10.496 -23.520  1.00  0.00     0.015 C 
BRANCH   7  28
ATOM     28  O   UNL     1       5.879   1.957 -27.022  1.00  0.00    -0.393 OA
ATOM     29  H   UNL     1       6.180   2.879 -27.235  1.00  0.00     0.210 HD
ENDBRANCH   7  28
BRANCH  25  30
ATOM     30  O   UNL     1       5.336   9.813 -25.741  1.00  0.00    -0.462 OA
BRANCH  30  31
ATOM     31  C   UNL     1       6.385  10.701 -26.004  1.00  0.00     0.302 C 
ATOM     32  O   UNL     1       7.484  10.612 -25.393  1.00  0.00    -0.253 OA
ATOM     33  C   UNL     1       6.179  11.785 -27.006  1.00  0.00     0.139 C 
ENDBRANCH  30  31
ENDBRANCH  25  30
ENDBRANCH   2   6
ENDBRANCH   1   2
BRANCH   1  34
ATOM     34  C   UNL     1       4.641  -0.880 -23.801  1.00  0.00     0.031 C 
BRANCH  34  35
ATOM     35  C   UNL     1       4.776  -1.119 -22.304  1.00  0.00    -0.075 C 
ATOM     36  C   UNL     1       5.168  -0.090 -21.527  1.00  0.00     0.008 C 
BRANCH  35  37
ATOM     37  C   UNL     1       4.637  -2.542 -21.756  1.00  0.00     0.008 C 
ATOM     38  C   UNL     1       3.247  -2.749 -21.144  1.00  0.00     0.012 C 
ATOM     39  C   UNL     1       4.931  -3.649 -22.783  1.00  0.00     0.012 C 
ENDBRANCH  35  37
ENDBRANCH  34  35
ENDBRANCH   1  34
TORSDOF 9
ENDMDL
MODEL 7
REMARK VINA RESULT:    -7.002      2.749      4.622
REMARK INTER + INTRA:         -11.990
REMARK INTER:                 -10.168
REMARK INTRA:                  -1.822
REMARK UNBOUND:                -1.509
REMARK SMILES C=C(CC[C@@H](C(=O)[O-])[C@@H]1[C@@H](O)C[C@@]2(C)C3=C(CC[C@@]12C)[C@]1(C)CC[C@H](OC(C)=O)C(C)(C)[C@@H]1CC3)C(C)C
REMARK SMILES IDX 4 1 5 2 6 3 7 4 8 5 9 6 10 7 19 8 12 9 13 10 18 11 20 12
REMARK SMILES IDX 14 13 15 14 17 15 16 16 35 17 21 18 34 19 33 20 23 21 22 22
REMARK SMILES IDX 30 23 24 24 25 25 31 26 32 27 11 28 26 30 27 31 29 32 28 33
REMARK SMILES IDX 3 34 2 35 1 36 36 37 37 38 38 39
REMARK H PARENT 11 29
REMARK Flexibility Score: inf
ROOT
ATOM      1  C   UNL     1       3.071  -3.057 -24.373  1.00  0.00     0.014 C 
ENDROOT
BRANCH   1   2
ATOM      2  C   UNL     1       3.852  -1.820 -24.921  1.00  0.00     0.042 C 
BRANCH   2   3
ATOM      3  C   UNL     1       4.140  -2.064 -26.387  1.00  0.00     0.045 C 
ATOM      4  O   UNL     1       3.302  -2.644 -27.125  1.00  0.00    -0.550 OA
ATOM      5  O   UNL     1       5.369  -1.691 -26.919  1.00  0.00    -0.550 OA
ENDBRANCH   2   3
BRANCH   2   6
ATOM      6  C   UNL     1       3.223  -0.392 -24.664  1.00  0.00     0.033 C 
ATOM      7  C   UNL     1       2.469   0.119 -25.923  1.00  0.00     0.119 C 
ATOM      8  C   UNL     1       4.173   0.810 -24.243  1.00  0.00    -0.017 C 
ATOM      9  C   UNL     1       2.800   1.594 -26.089  1.00  0.00     0.043 C 
ATOM     10  C   UNL     1       4.191   1.788 -25.475  1.00  0.00    -0.003 C 
ATOM     11  C   UNL     1       3.500   1.538 -23.047  1.00  0.00     0.012 C 
ATOM     12  C   UNL     1       5.611   0.390 -23.813  1.00  0.00     0.013 C 
ATOM     13  C   UNL     1       5.264   1.355 -26.526  1.00  0.00     0.017 C 
ATOM     14  C   UNL     1       4.379   3.293 -25.137  1.00  0.00    -0.064 C 
ATOM     15  C   UNL     1       4.213   2.831 -22.687  1.00  0.00     0.032 C 
ATOM     16  C   UNL     1       4.345   3.795 -23.862  1.00  0.00    -0.064 C 
ATOM     17  C   UNL     1       4.565   4.225 -26.313  1.00  0.00     0.032 C 
ATOM     18  C   UNL     1       4.477   5.325 -23.539  1.00  0.00    -0.008 C 
ATOM     19  C   UNL     1       4.066   5.625 -26.038  1.00  0.00     0.009 C 
ATOM     20  C   UNL     1       4.804   6.215 -24.817  1.00  0.00     0.009 C 
ATOM     21  C   UNL     1       3.128   5.786 -22.911  1.00  0.00     0.015 C 
ATOM     22  C   UNL     1       5.627   5.445 -22.501  1.00  0.00     0.016 C 
ATOM     23  C   UNL     1       4.565   7.793 -24.658  1.00  0.00     0.005 C 
ATOM     24  C   UNL     1       3.028   7.292 -22.666  1.00  0.00     0.047 C 
ATOM     25  C   UNL     1       3.203   8.096 -23.955  1.00  0.00     0.182 C 
ATOM     26  C   UNL     1       4.581   8.518 -26.038  1.00  0.00     0.015 C 
ATOM     27  C   UNL     1       5.727   8.465 -23.856  1.00  0.00     0.015 C 
BRANCH   7  28
ATOM     28  O   UNL     1       1.082  -0.056 -25.784  1.00  0.00    -0.393 OA
ATOM     29  H   UNL     1       0.837   0.320 -24.899  1.00  0.00     0.210 HD
ENDBRANCH   7  28
BRANCH  25  30
ATOM     30  O   UNL     1       2.098   7.798 -24.815  1.00  0.00    -0.462 OA
BRANCH  30  31
ATOM     31  C   UNL     1       0.979   8.622 -24.975  1.00  0.00     0.302 C 
ATOM     32  O   UNL     1       0.004   8.560 -24.179  1.00  0.00    -0.253 OA
ATOM     33  C   UNL     1       0.937   9.568 -26.127  1.00  0.00     0.139 C 
ENDBRANCH  30  31
ENDBRANCH  25  30
ENDBRANCH   2   6
ENDBRANCH   1   2
BRANCH   1  34
ATOM     34  C   UNL     1       3.748  -3.907 -23.279  1.00  0.00     0.031 C 
BRANCH  34  35
ATOM     35  C   UNL     1       4.615  -3.129 -22.301  1.00  0.00    -0.075 C 
ATOM     36  C   UNL     1       5.941  -3.067 -22.533  1.00  0.00     0.008 C 
BRANCH  35  37
ATOM     37  C   UNL     1       3.994  -2.597 -21.006  1.00  0.00     0.008 C 
ATOM     38  C   UNL     1       4.382  -1.130 -20.787  1.00  0.00     0.012 C 
ATOM     39  C   UNL     1       2.466  -2.757 -20.923  1.00  0.00     0.012 C 
ENDBRANCH  35  37
ENDBRANCH  34  35
ENDBRANCH   1  34
TORSDOF 9
ENDMDL
MODEL 8
REMARK VINA RESULT:    -6.678      2.476      9.841
REMARK INTER + INTRA:         -11.506
REMARK INTER:                 -10.983
REMARK INTRA:                  -0.523
REMARK UNBOUND:                -1.509
REMARK SMILES C=C(CC[C@@H](C(=O)[O-])[C@@H]1[C@@H](O)C[C@@]2(C)C3=C(CC[C@@]12C)[C@]1(C)CC[C@H](OC(C)=O)C(C)(C)[C@@H]1CC3)C(C)C
REMARK SMILES IDX 4 1 5 2 6 3 7 4 8 5 9 6 10 7 19 8 12 9 13 10 18 11 20 12
REMARK SMILES IDX 14 13 15 14 17 15 16 16 35 17 21 18 34 19 33 20 23 21 22 22
REMARK SMILES IDX 30 23 24 24 25 25 31 26 32 27 11 28 26 30 27 31 29 32 28 33
REMARK SMILES IDX 3 34 2 35 1 36 36 37 37 38 38 39
REMARK H PARENT 11 29
REMARK Flexibility Score: inf
ROOT
ATOM      1  C   UNL     1       4.285   7.369 -25.054  1.00  0.00     0.014 C 
ENDROOT
BRANCH   1   2
ATOM      2  C   UNL     1       2.997   7.029 -24.239  1.00  0.00     0.042 C 
BRANCH   2   3
ATOM      3  C   UNL     1       1.808   7.579 -24.997  1.00  0.00     0.045 C 
ATOM      4  O   UNL     1       1.963   8.227 -26.064  1.00  0.00    -0.550 OA
ATOM      5  O   UNL     1       0.527   7.413 -24.483  1.00  0.00    -0.550 OA
ENDBRANCH   2   3
BRANCH   2   6
ATOM      6  C   UNL     1       2.788   5.522 -23.807  1.00  0.00     0.033 C 
ATOM      7  C   UNL     1       3.893   5.071 -22.811  1.00  0.00     0.119 C 
ATOM      8  C   UNL     1       2.761   4.391 -24.923  1.00  0.00    -0.017 C 
ATOM      9  C   UNL     1       4.322   3.667 -23.206  1.00  0.00     0.043 C 
ATOM     10  C   UNL     1       4.079   3.559 -24.716  1.00  0.00    -0.003 C 
ATOM     11  C   UNL     1       1.546   3.471 -24.621  1.00  0.00     0.012 C 
ATOM     12  C   UNL     1       2.626   4.915 -26.384  1.00  0.00     0.013 C 
ATOM     13  C   UNL     1       5.285   4.215 -25.463  1.00  0.00     0.017 C 
ATOM     14  C   UNL     1       3.993   2.055 -25.099  1.00  0.00    -0.064 C 
ATOM     15  C   UNL     1       1.533   2.231 -25.500  1.00  0.00     0.032 C 
ATOM     16  C   UNL     1       2.821   1.418 -25.416  1.00  0.00    -0.064 C 
ATOM     17  C   UNL     1       5.291   1.281 -25.065  1.00  0.00     0.032 C 
ATOM     18  C   UNL     1       2.740  -0.114 -25.744  1.00  0.00    -0.008 C 
ATOM     19  C   UNL     1       5.092  -0.187 -24.761  1.00  0.00     0.009 C 
ATOM     20  C   UNL     1       4.163  -0.822 -25.818  1.00  0.00     0.009 C 
ATOM     21  C   UNL     1       1.880  -0.783 -24.629  1.00  0.00     0.015 C 
ATOM     22  C   UNL     1       2.023  -0.221 -27.117  1.00  0.00     0.016 C 
ATOM     23  C   UNL     1       4.159  -2.424 -25.750  1.00  0.00     0.005 C 
ATOM     24  C   UNL     1       1.817  -2.308 -24.712  1.00  0.00     0.047 C 
ATOM     25  C   UNL     1       3.205  -2.945 -24.629  1.00  0.00     0.182 C 
ATOM     26  C   UNL     1       5.588  -2.991 -25.486  1.00  0.00     0.015 C 
ATOM     27  C   UNL     1       3.744  -3.049 -27.122  1.00  0.00     0.015 C 
BRANCH   7  28
ATOM     28  O   UNL     1       3.414   5.079 -21.491  1.00  0.00    -0.393 OA
ATOM     29  H   UNL     1       4.209   5.164 -20.901  1.00  0.00     0.210 HD
ENDBRANCH   7  28
BRANCH  25  30
ATOM     30  O   UNL     1       3.738  -2.678 -23.328  1.00  0.00    -0.462 OA
BRANCH  30  31
ATOM     31  C   UNL     1       3.424  -3.414 -22.180  1.00  0.00     0.302 C 
ATOM     32  O   UNL     1       3.515  -4.671 -22.167  1.00  0.00    -0.253 OA
ATOM     33  C   UNL     1       2.948  -2.692 -20.966  1.00  0.00     0.139 C 
ENDBRANCH  30  31
ENDBRANCH  25  30
ENDBRANCH   2   6
ENDBRANCH   1   2
BRANCH   1  34
ATOM     34  C   UNL     1       4.796   8.824 -25.018  1.00  0.00     0.031 C 
BRANCH  34  35
ATOM     35  C   UNL     1       5.843   9.114 -23.954  1.00  0.00    -0.075 C 
ATOM     36  C   UNL     1       6.826   9.989 -24.247  1.00  0.00     0.008 C 
BRANCH  35  37
ATOM     37  C   UNL     1       5.854   8.286 -22.666  1.00  0.00     0.008 C 
ATOM     38  C   UNL     1       7.191   8.447 -21.934  1.00  0.00     0.012 C 
ATOM     39  C   UNL     1       4.689   8.587 -21.708  1.00  0.00     0.012 C 
ENDBRANCH  35  37
ENDBRANCH  34  35
ENDBRANCH   1  34
TORSDOF 9
ENDMDL
MODEL 9
REMARK VINA RESULT:    -6.579      2.382     10.290
REMARK INTER + INTRA:         -11.356
REMARK INTER:                 -10.768
REMARK INTRA:                  -0.588
REMARK UNBOUND:                -1.509
REMARK SMILES C=C(CC[C@@H](C(=O)[O-])[C@@H]1[C@@H](O)C[C@@]2(C)C3=C(CC[C@@]12C)[C@]1(C)CC[C@H](OC(C)=O)C(C)(C)[C@@H]1CC3)C(C)C
REMARK SMILES IDX 4 1 5 2 6 3 7 4 8 5 9 6 10 7 19 8 12 9 13 10 18 11 20 12
REMARK SMILES IDX 14 13 15 14 17 15 16 16 35 17 21 18 34 19 33 20 23 21 22 22
REMARK SMILES IDX 30 23 24 24 25 25 31 26 32 27 11 28 26 30 27 31 29 32 28 33
REMARK SMILES IDX 3 34 2 35 1 36 36 37 37 38 38 39
REMARK H PARENT 11 29
REMARK Flexibility Score: inf
ROOT
ATOM      1  C   UNL     1       2.816   7.191 -26.773  1.00  0.00     0.014 C 
ENDROOT
BRANCH   1   2
ATOM      2  C   UNL     1       3.568   6.238 -25.790  1.00  0.00     0.042 C 
BRANCH   2   3
ATOM      3  C   UNL     1       3.650   6.927 -24.445  1.00  0.00     0.045 C 
ATOM      4  O   UNL     1       4.759   7.119 -23.882  1.00  0.00    -0.550 OA
ATOM      5  O   UNL     1       2.483   7.309 -23.794  1.00  0.00    -0.550 OA
ENDBRANCH   2   3
BRANCH   2   6
ATOM      6  C   UNL     1       3.037   4.752 -25.671  1.00  0.00     0.033 C 
ATOM      7  C   UNL     1       2.352   4.515 -24.296  1.00  0.00     0.119 C 
ATOM      8  C   UNL     1       4.061   3.547 -25.828  1.00  0.00    -0.017 C 
ATOM      9  C   UNL     1       2.792   3.149 -23.794  1.00  0.00     0.043 C 
ATOM     10  C   UNL     1       4.179   2.902 -24.399  1.00  0.00    -0.003 C 
ATOM     11  C   UNL     1       3.414   2.510 -26.786  1.00  0.00     0.012 C 
ATOM     12  C   UNL     1       5.454   3.942 -26.405  1.00  0.00     0.013 C 
ATOM     13  C   UNL     1       5.242   3.644 -23.528  1.00  0.00     0.017 C 
ATOM     14  C   UNL     1       4.466   1.374 -24.372  1.00  0.00    -0.064 C 
ATOM     15  C   UNL     1       4.209   1.216 -26.853  1.00  0.00     0.032 C 
ATOM     16  C   UNL     1       4.437   0.576 -25.487  1.00  0.00    -0.064 C 
ATOM     17  C   UNL     1       4.746   0.770 -23.015  1.00  0.00     0.032 C 
ATOM     18  C   UNL     1       4.672  -0.974 -25.438  1.00  0.00    -0.008 C 
ATOM     19  C   UNL     1       4.343  -0.685 -22.925  1.00  0.00     0.009 C 
ATOM     20  C   UNL     1       5.093  -1.505 -23.998  1.00  0.00     0.009 C 
ATOM     21  C   UNL     1       3.344  -1.659 -25.881  1.00  0.00     0.015 C 
ATOM     22  C   UNL     1       5.802  -1.269 -26.461  1.00  0.00     0.016 C 
ATOM     23  C   UNL     1       4.963  -3.086 -23.763  1.00  0.00     0.005 C 
ATOM     24  C   UNL     1       3.348  -3.183 -25.753  1.00  0.00     0.047 C 
ATOM     25  C   UNL     1       3.611  -3.637 -24.316  1.00  0.00     0.182 C 
ATOM     26  C   UNL     1       5.065  -3.452 -22.250  1.00  0.00     0.015 C 
ATOM     27  C   UNL     1       6.151  -3.857 -24.426  1.00  0.00     0.015 C 
BRANCH   7  28
ATOM     28  O   UNL     1       0.954   4.562 -24.417  1.00  0.00    -0.393 OA
ATOM     29  H   UNL     1       0.749   5.296 -25.053  1.00  0.00     0.210 HD
ENDBRANCH   7  28
BRANCH  25  30
ATOM     30  O   UNL     1       2.507  -3.211 -23.509  1.00  0.00    -0.462 OA
BRANCH  30  31
ATOM     31  C   UNL     1       2.109  -3.837 -22.324  1.00  0.00     0.302 C 
ATOM     32  O   UNL     1       1.761  -3.165 -21.316  1.00  0.00    -0.253 OA
ATOM     33  C   UNL     1       2.125  -5.326 -22.252  1.00  0.00     0.139 C 
ENDBRANCH  30  31
ENDBRANCH  25  30
ENDBRANCH   2   6
ENDBRANCH   1   2
BRANCH   1  34
ATOM     34  C   UNL     1       3.487   8.535 -27.125  1.00  0.00     0.031 C 
BRANCH  34  35
ATOM     35  C   UNL     1       3.301   9.638 -26.094  1.00  0.00    -0.075 C 
ATOM     36  C   UNL     1       2.046   9.999 -25.764  1.00  0.00     0.008 C 
BRANCH  35  37
ATOM     37  C   UNL     1       4.525  10.417 -25.602  1.00  0.00     0.008 C 
ATOM     38  C   UNL     1       4.411  10.703 -24.100  1.00  0.00     0.012 C 
ATOM     39  C   UNL     1       5.872   9.743 -25.910  1.00  0.00     0.012 C 
ENDBRANCH  35  37
ENDBRANCH  34  35
ENDBRANCH   1  34
TORSDOF 9
ENDMDL
