MODEL 1
REMARK VINA RESULT:    -4.195      0.000      0.000
REMARK INTER + INTRA:          -5.584
REMARK INTER:                  -5.422
REMARK INTRA:                  -0.162
REMARK UNBOUND:                -0.162
REMARK SMILES CCCCCCC(=O)[O-]
REMARK SMILES IDX 5 1 6 2 7 3 8 4 9 5 4 6 3 7 2 8 1 9
REMARK H PARENT
REMARK Flexibility Score: inf
ROOT
ATOM      1  C   UNL     1     115.326 164.545 119.175  1.00  0.00     0.006 C 
ENDROOT
BRANCH   1   2
ATOM      2  C   UNL     1     116.049 163.784 120.290  1.00  0.00     0.053 C 
BRANCH   2   3
ATOM      3  C   UNL     1     116.334 164.692 121.444  1.00  0.00     0.041 C 
ATOM      4  O   UNL     1     117.520 164.993 121.736  1.00  0.00    -0.550 OA
ATOM      5  O   UNL     1     115.285 165.245 122.169  1.00  0.00    -0.550 OA
ENDBRANCH   2   3
ENDBRANCH   1   2
BRANCH   1   6
ATOM      6  C   UNL     1     116.301 164.949 118.063  1.00  0.00     0.000 C 
BRANCH   6   7
ATOM      7  C   UNL     1     115.633 165.902 117.064  1.00  0.00    -0.000 C 
BRANCH   7   8
ATOM      8  C   UNL     1     116.339 165.855 115.704  1.00  0.00    -0.003 C 
ATOM      9  C   UNL     1     117.527 164.897 115.732  1.00  0.00     0.004 C 
ENDBRANCH   7   8
ENDBRANCH   6   7
ENDBRANCH   1   6
TORSDOF 5
ENDMDL
MODEL 2
REMARK VINA RESULT:    -4.119     14.492     15.299
REMARK INTER + INTRA:          -5.484
REMARK INTER:                  -5.258
REMARK INTRA:                  -0.227
REMARK UNBOUND:                -0.162
REMARK SMILES CCCCCCC(=O)[O-]
REMARK SMILES IDX 5 1 6 2 7 3 8 4 9 5 4 6 3 7 2 8 1 9
REMARK H PARENT
REMARK Flexibility Score: inf
ROOT
ATOM      1  C   UNL     1     117.428 178.843 126.611  1.00  0.00     0.006 C 
ENDROOT
BRANCH   1   2
ATOM      2  C   UNL     1     116.129 179.580 126.274  1.00  0.00     0.053 C 
BRANCH   2   3
ATOM      3  C   UNL     1     115.094 178.619 125.782  1.00  0.00     0.041 C 
ATOM      4  O   UNL     1     114.328 178.041 126.596  1.00  0.00    -0.550 OA
ATOM      5  O   UNL     1     114.943 178.398 124.419  1.00  0.00    -0.550 OA
ENDBRANCH   2   3
ENDBRANCH   1   2
BRANCH   1   6
ATOM      6  C   UNL     1     118.601 179.393 125.792  1.00  0.00     0.000 C 
BRANCH   6   7
ATOM      7  C   UNL     1     119.316 178.271 125.030  1.00  0.00    -0.000 C 
BRANCH   7   8
ATOM      8  C   UNL     1     118.630 177.993 123.688  1.00  0.00    -0.003 C 
ATOM      9  C   UNL     1     119.340 178.715 122.546  1.00  0.00     0.004 C 
ENDBRANCH   7   8
ENDBRANCH   6   7
ENDBRANCH   1   6
TORSDOF 5
ENDMDL
MODEL 3
REMARK VINA RESULT:    -4.041     14.397     15.165
REMARK INTER + INTRA:          -5.384
REMARK INTER:                  -5.128
REMARK INTRA:                  -0.257
REMARK UNBOUND:                -0.162
REMARK SMILES CCCCCCC(=O)[O-]
REMARK SMILES IDX 5 1 6 2 7 3 8 4 9 5 4 6 3 7 2 8 1 9
REMARK H PARENT
REMARK Flexibility Score: inf
ROOT
ATOM      1  C   UNL     1     123.306 176.537 117.745  1.00  0.00     0.006 C 
ENDROOT
BRANCH   1   2
ATOM      2  C   UNL     1     122.281 176.938 116.680  1.00  0.00     0.053 C 
BRANCH   2   3
ATOM      3  C   UNL     1     122.635 178.262 116.083  1.00  0.00     0.041 C 
ATOM      4  O   UNL     1     123.818 178.689 116.144  1.00  0.00    -0.550 OA
ATOM      5  O   UNL     1     121.669 179.006 115.417  1.00  0.00    -0.550 OA
ENDBRANCH   2   3
ENDBRANCH   1   2
BRANCH   1   6
ATOM      6  C   UNL     1     122.616 176.175 119.065  1.00  0.00     0.000 C 
BRANCH   6   7
ATOM      7  C   UNL     1     123.086 177.090 120.202  1.00  0.00    -0.000 C 
BRANCH   7   8
ATOM      8  C   UNL     1     123.930 178.250 119.662  1.00  0.00    -0.003 C 
ATOM      9  C   UNL     1     125.221 178.409 120.459  1.00  0.00     0.004 C 
ENDBRANCH   7   8
ENDBRANCH   6   7
ENDBRANCH   1   6
TORSDOF 5
ENDMDL
MODEL 4
REMARK VINA RESULT:    -4.026     14.639     15.294
REMARK INTER + INTRA:          -5.365
REMARK INTER:                  -5.156
REMARK INTRA:                  -0.209
REMARK UNBOUND:                -0.162
REMARK SMILES CCCCCCC(=O)[O-]
REMARK SMILES IDX 5 1 6 2 7 3 8 4 9 5 4 6 3 7 2 8 1 9
REMARK H PARENT
REMARK Flexibility Score: inf
ROOT
ATOM      1  C   UNL     1     124.385 177.943 118.015  1.00  0.00     0.006 C 
ENDROOT
BRANCH   1   2
ATOM      2  C   UNL     1     124.193 178.662 119.353  1.00  0.00     0.053 C 
BRANCH   2   3
ATOM      3  C   UNL     1     125.021 178.015 120.418  1.00  0.00     0.041 C 
ATOM      4  O   UNL     1     126.054 178.587 120.853  1.00  0.00    -0.550 OA
ATOM      5  O   UNL     1     124.624 176.802 120.966  1.00  0.00    -0.550 OA
ENDBRANCH   2   3
ENDBRANCH   1   2
BRANCH   1   6
ATOM      6  C   UNL     1     123.205 177.012 117.715  1.00  0.00     0.000 C 
BRANCH   6   7
ATOM      7  C   UNL     1     122.458 177.458 116.452  1.00  0.00    -0.000 C 
BRANCH   7   8
ATOM      8  C   UNL     1     123.118 178.693 115.830  1.00  0.00    -0.003 C 
ATOM      9  C   UNL     1     122.119 179.490 114.996  1.00  0.00     0.004 C 
ENDBRANCH   7   8
ENDBRANCH   6   7
ENDBRANCH   1   6
TORSDOF 5
ENDMDL
MODEL 5
REMARK VINA RESULT:    -3.986     14.330     15.279
REMARK INTER + INTRA:          -5.313
REMARK INTER:                  -4.937
REMARK INTRA:                  -0.376
REMARK UNBOUND:                -0.162
REMARK SMILES CCCCCCC(=O)[O-]
REMARK SMILES IDX 5 1 6 2 7 3 8 4 9 5 4 6 3 7 2 8 1 9
REMARK H PARENT
REMARK Flexibility Score: inf
ROOT
ATOM      1  C   UNL     1     117.691 178.754 126.440  1.00  0.00     0.006 C 
ENDROOT
BRANCH   1   2
ATOM      2  C   UNL     1     118.772 179.297 125.500  1.00  0.00     0.053 C 
BRANCH   2   3
ATOM      3  C   UNL     1     118.968 178.374 124.340  1.00  0.00     0.041 C 
ATOM      4  O   UNL     1     118.793 177.136 124.478  1.00  0.00    -0.550 OA
ATOM      5  O   UNL     1     119.298 178.887 123.091  1.00  0.00    -0.550 OA
ENDBRANCH   2   3
ENDBRANCH   1   2
BRANCH   1   6
ATOM      6  C   UNL     1     116.422 179.610 126.371  1.00  0.00     0.000 C 
BRANCH   6   7
ATOM      7  C   UNL     1     115.171 178.733 126.237  1.00  0.00    -0.000 C 
BRANCH   7   8
ATOM      8  C   UNL     1     115.433 177.541 125.309  1.00  0.00    -0.003 C 
ATOM      9  C   UNL     1     115.128 177.898 123.856  1.00  0.00     0.004 C 
ENDBRANCH   7   8
ENDBRANCH   6   7
ENDBRANCH   1   6
TORSDOF 5
ENDMDL
MODEL 6
REMARK VINA RESULT:    -3.977     14.068     14.934
REMARK INTER + INTRA:          -5.301
REMARK INTER:                  -4.993
REMARK INTRA:                  -0.308
REMARK UNBOUND:                -0.162
REMARK SMILES CCCCCCC(=O)[O-]
REMARK SMILES IDX 5 1 6 2 7 3 8 4 9 5 4 6 3 7 2 8 1 9
REMARK H PARENT
REMARK Flexibility Score: inf
ROOT
ATOM      1  C   UNL     1     123.832 178.123 118.331  1.00  0.00     0.006 C 
ENDROOT
BRANCH   1   2
ATOM      2  C   UNL     1     123.883 178.277 116.808  1.00  0.00     0.053 C 
BRANCH   2   3
ATOM      3  C   UNL     1     122.547 177.979 116.207  1.00  0.00     0.041 C 
ATOM      4  O   UNL     1     121.980 176.879 116.434  1.00  0.00    -0.550 OA
ATOM      5  O   UNL     1     121.903 178.938 115.434  1.00  0.00    -0.550 OA
ENDBRANCH   2   3
ENDBRANCH   1   2
BRANCH   1   6
ATOM      6  C   UNL     1     124.537 176.837 118.778  1.00  0.00     0.000 C 
BRANCH   6   7
ATOM      7  C   UNL     1     123.608 175.968 119.634  1.00  0.00    -0.000 C 
BRANCH   7   8
ATOM      8  C   UNL     1     122.345 176.740 120.032  1.00  0.00    -0.003 C 
ATOM      9  C   UNL     1     122.316 177.011 121.534  1.00  0.00     0.004 C 
ENDBRANCH   7   8
ENDBRANCH   6   7
ENDBRANCH   1   6
TORSDOF 5
ENDMDL
MODEL 7
REMARK VINA RESULT:    -3.780     15.208     16.028
REMARK INTER + INTRA:          -5.047
REMARK INTER:                  -4.883
REMARK INTRA:                  -0.164
REMARK UNBOUND:                -0.162
REMARK SMILES CCCCCCC(=O)[O-]
REMARK SMILES IDX 5 1 6 2 7 3 8 4 9 5 4 6 3 7 2 8 1 9
REMARK H PARENT
REMARK Flexibility Score: inf
ROOT
ATOM      1  C   UNL     1     117.789 178.733 126.879  1.00  0.00     0.006 C 
ENDROOT
BRANCH   1   2
ATOM      2  C   UNL     1     116.457 179.418 126.561  1.00  0.00     0.053 C 
BRANCH   2   3
ATOM      3  C   UNL     1     115.473 178.427 126.026  1.00  0.00     0.041 C 
ATOM      4  O   UNL     1     114.492 178.065 126.727  1.00  0.00    -0.550 OA
ATOM      5  O   UNL     1     115.611 177.938 124.732  1.00  0.00    -0.550 OA
ENDBRANCH   2   3
ENDBRANCH   1   2
BRANCH   1   6
ATOM      6  C   UNL     1     118.890 179.198 125.920  1.00  0.00     0.000 C 
BRANCH   6   7
ATOM      7  C   UNL     1     120.068 178.216 125.914  1.00  0.00    -0.000 C 
BRANCH   7   8
ATOM      8  C   UNL     1     120.719 178.131 127.300  1.00  0.00    -0.003 C 
ATOM      9  C   UNL     1     122.003 178.954 127.356  1.00  0.00     0.004 C 
ENDBRANCH   7   8
ENDBRANCH   6   7
ENDBRANCH   1   6
TORSDOF 5
ENDMDL
MODEL 8
REMARK VINA RESULT:    -3.775     15.748     16.537
REMARK INTER + INTRA:          -5.040
REMARK INTER:                  -4.726
REMARK INTRA:                  -0.314
REMARK UNBOUND:                -0.162
REMARK SMILES CCCCCCC(=O)[O-]
REMARK SMILES IDX 5 1 6 2 7 3 8 4 9 5 4 6 3 7 2 8 1 9
REMARK H PARENT
REMARK Flexibility Score: inf
ROOT
ATOM      1  C   UNL     1     118.788 177.982 128.413  1.00  0.00     0.006 C 
ENDROOT
BRANCH   1   2
ATOM      2  C   UNL     1     117.868 177.789 127.204  1.00  0.00     0.053 C 
BRANCH   2   3
ATOM      3  C   UNL     1     117.751 179.061 126.427  1.00  0.00     0.041 C 
ATOM      4  O   UNL     1     116.700 179.750 126.491  1.00  0.00    -0.550 OA
ATOM      5  O   UNL     1     118.823 179.512 125.666  1.00  0.00    -0.550 OA
ENDBRANCH   2   3
ENDBRANCH   1   2
BRANCH   1   6
ATOM      6  C   UNL     1     120.124 177.259 128.208  1.00  0.00     0.000 C 
BRANCH   6   7
ATOM      7  C   UNL     1     121.290 178.088 128.759  1.00  0.00    -0.000 C 
BRANCH   7   8
ATOM      8  C   UNL     1     122.033 178.811 127.630  1.00  0.00    -0.003 C 
ATOM      9  C   UNL     1     122.120 177.938 126.381  1.00  0.00     0.004 C 
ENDBRANCH   7   8
ENDBRANCH   6   7
ENDBRANCH   1   6
TORSDOF 5
ENDMDL
MODEL 9
REMARK VINA RESULT:    -3.751     14.146     15.321
REMARK INTER + INTRA:          -5.009
REMARK INTER:                  -4.589
REMARK INTRA:                  -0.420
REMARK UNBOUND:                -0.162
REMARK SMILES CCCCCCC(=O)[O-]
REMARK SMILES IDX 5 1 6 2 7 3 8 4 9 5 4 6 3 7 2 8 1 9
REMARK H PARENT
REMARK Flexibility Score: inf
ROOT
ATOM      1  C   UNL     1     115.915 177.148 127.388  1.00  0.00     0.006 C 
ENDROOT
BRANCH   1   2
ATOM      2  C   UNL     1     115.691 176.832 125.906  1.00  0.00     0.053 C 
BRANCH   2   3
ATOM      3  C   UNL     1     115.254 178.058 125.170  1.00  0.00     0.041 C 
ATOM      4  O   UNL     1     115.230 179.173 125.752  1.00  0.00    -0.550 OA
ATOM      5  O   UNL     1     114.919 177.978 123.824  1.00  0.00    -0.550 OA
ENDBRANCH   2   3
ENDBRANCH   1   2
BRANCH   1   6
ATOM      6  C   UNL     1     117.382 176.940 127.780  1.00  0.00     0.000 C 
BRANCH   6   7
ATOM      7  C   UNL     1     118.147 178.269 127.776  1.00  0.00    -0.000 C 
BRANCH   7   8
ATOM      8  C   UNL     1     119.164 178.314 126.630  1.00  0.00    -0.003 C 
ATOM      9  C   UNL     1     118.761 179.343 125.576  1.00  0.00     0.004 C 
ENDBRANCH   7   8
ENDBRANCH   6   7
ENDBRANCH   1   6
TORSDOF 5
ENDMDL
