MODEL 1
REMARK VINA RESULT:    -3.692      0.000      0.000
REMARK INTER + INTRA:          -3.800
REMARK INTER:                  -3.800
REMARK INTRA:                   0.000
REMARK UNBOUND:                 0.000
REMARK SMILES Cc1ccccc1O
REMARK SMILES IDX 1 1 2 2 3 3 4 4 5 5 6 6 7 7 8 8
REMARK H PARENT 8 9
REMARK Flexibility Score: inf
ROOT
ATOM      1  C   UNL     1     126.883 146.498 122.620  1.00  0.00     0.048 C 
ATOM      2  C   UNL     1     127.140 145.707 121.367  1.00  0.00    -0.009 A 
ATOM      3  C   UNL     1     127.022 146.333 120.113  1.00  0.00     0.007 A 
ATOM      4  C   UNL     1     127.256 145.614 118.939  1.00  0.00     0.001 A 
ATOM      5  C   UNL     1     127.609 144.266 119.001  1.00  0.00     0.004 A 
ATOM      6  C   UNL     1     127.729 143.631 120.240  1.00  0.00     0.046 A 
ATOM      7  C   UNL     1     127.498 144.339 121.426  1.00  0.00     0.118 A 
ENDROOT
BRANCH   7   8
ATOM      8  O   UNL     1     127.631 143.660 122.639  1.00  0.00    -0.508 OA
ATOM      9  H   UNL     1     126.915 143.663 123.353  1.00  0.00     0.293 HD
ENDBRANCH   7   8
TORSDOF 1
ENDMDL
MODEL 2
REMARK VINA RESULT:    -3.583      0.557      2.455
REMARK INTER + INTRA:          -3.687
REMARK INTER:                  -3.687
REMARK INTRA:                   0.000
REMARK UNBOUND:                 0.000
REMARK SMILES Cc1ccccc1O
REMARK SMILES IDX 1 1 2 2 3 3 4 4 5 5 6 6 7 7 8 8
REMARK H PARENT 8 9
REMARK Flexibility Score: inf
ROOT
ATOM      1  C   UNL     1     128.065 142.193 120.468  1.00  0.00     0.048 C 
ATOM      2  C   UNL     1     127.709 143.647 120.325  1.00  0.00    -0.009 A 
ATOM      3  C   UNL     1     127.592 144.210 119.041  1.00  0.00     0.007 A 
ATOM      4  C   UNL     1     127.263 145.558 118.888  1.00  0.00     0.001 A 
ATOM      5  C   UNL     1     127.045 146.359 120.009  1.00  0.00     0.004 A 
ATOM      6  C   UNL     1     127.157 145.812 121.290  1.00  0.00     0.046 A 
ATOM      7  C   UNL     1     127.488 144.461 121.460  1.00  0.00     0.118 A 
ENDROOT
BRANCH   7   8
ATOM      8  O   UNL     1     127.587 143.962 122.760  1.00  0.00    -0.508 OA
ATOM      9  H   UNL     1     126.844 143.443 123.209  1.00  0.00     0.293 HD
ENDBRANCH   7   8
TORSDOF 1
ENDMDL
MODEL 3
REMARK VINA RESULT:    -3.350      2.001      2.074
REMARK INTER + INTRA:          -3.448
REMARK INTER:                  -3.448
REMARK INTRA:                   0.000
REMARK UNBOUND:                 0.000
REMARK SMILES Cc1ccccc1O
REMARK SMILES IDX 1 1 2 2 3 3 4 4 5 5 6 6 7 7 8 8
REMARK H PARENT 8 9
REMARK Flexibility Score: inf
ROOT
ATOM      1  C   UNL     1     127.445 146.838 122.893  1.00  0.00     0.048 C 
ATOM      2  C   UNL     1     127.911 146.270 121.581  1.00  0.00    -0.009 A 
ATOM      3  C   UNL     1     126.964 145.847 120.631  1.00  0.00     0.007 A 
ATOM      4  C   UNL     1     127.377 145.316 119.408  1.00  0.00     0.001 A 
ATOM      5  C   UNL     1     128.736 145.203 119.116  1.00  0.00     0.004 A 
ATOM      6  C   UNL     1     129.688 145.619 120.050  1.00  0.00     0.046 A 
ATOM      7  C   UNL     1     129.289 146.153 121.282  1.00  0.00     0.118 A 
ENDROOT
BRANCH   7   8
ATOM      8  O   UNL     1     130.279 146.555 122.181  1.00  0.00    -0.508 OA
ATOM      9  H   UNL     1     131.134 146.036 122.327  1.00  0.00     0.293 HD
ENDBRANCH   7   8
TORSDOF 1
ENDMDL
MODEL 4
REMARK VINA RESULT:    -3.340      2.411      2.951
REMARK INTER + INTRA:          -3.437
REMARK INTER:                  -3.437
REMARK INTRA:                   0.000
REMARK UNBOUND:                 0.000
REMARK SMILES Cc1ccccc1O
REMARK SMILES IDX 1 1 2 2 3 3 4 4 5 5 6 6 7 7 8 8
REMARK H PARENT 8 9
REMARK Flexibility Score: inf
ROOT
ATOM      1  C   UNL     1     130.976 146.648 119.766  1.00  0.00     0.048 C 
ATOM      2  C   UNL     1     129.674 146.002 120.150  1.00  0.00    -0.009 A 
ATOM      3  C   UNL     1     128.923 145.319 119.175  1.00  0.00     0.007 A 
ATOM      4  C   UNL     1     127.711 144.713 119.512  1.00  0.00     0.001 A 
ATOM      5  C   UNL     1     127.235 144.779 120.821  1.00  0.00     0.004 A 
ATOM      6  C   UNL     1     127.970 145.453 121.799  1.00  0.00     0.046 A 
ATOM      7  C   UNL     1     129.187 146.066 121.476  1.00  0.00     0.118 A 
ENDROOT
BRANCH   7   8
ATOM      8  O   UNL     1     129.885 146.727 122.490  1.00  0.00    -0.508 OA
ATOM      9  H   UNL     1     130.891 146.829 122.489  1.00  0.00     0.293 HD
ENDBRANCH   7   8
TORSDOF 1
ENDMDL
MODEL 5
REMARK VINA RESULT:    -3.269      1.731      3.194
REMARK INTER + INTRA:          -3.365
REMARK INTER:                  -3.365
REMARK INTRA:                   0.000
REMARK UNBOUND:                 0.000
REMARK SMILES Cc1ccccc1O
REMARK SMILES IDX 1 1 2 2 3 3 4 4 5 5 6 6 7 7 8 8
REMARK H PARENT 8 9
REMARK Flexibility Score: inf
ROOT
ATOM      1  C   UNL     1     128.274 142.613 120.603  1.00  0.00     0.048 C 
ATOM      2  C   UNL     1     127.785 144.032 120.694  1.00  0.00    -0.009 A 
ATOM      3  C   UNL     1     127.624 144.632 121.957  1.00  0.00     0.007 A 
ATOM      4  C   UNL     1     127.171 145.949 122.062  1.00  0.00     0.001 A 
ATOM      5  C   UNL     1     126.875 146.682 120.913  1.00  0.00     0.004 A 
ATOM      6  C   UNL     1     127.031 146.099 119.652  1.00  0.00     0.046 A 
ATOM      7  C   UNL     1     127.484 144.779 119.531  1.00  0.00     0.118 A 
ENDROOT
BRANCH   7   8
ATOM      8  O   UNL     1     127.624 144.242 118.249  1.00  0.00    -0.508 OA
ATOM      9  H   UNL     1     126.835 143.980 117.674  1.00  0.00     0.293 HD
ENDBRANCH   7   8
TORSDOF 1
ENDMDL
MODEL 6
REMARK VINA RESULT:    -3.248     14.137     15.201
REMARK INTER + INTRA:          -3.343
REMARK INTER:                  -3.343
REMARK INTRA:                   0.000
REMARK UNBOUND:                 0.000
REMARK SMILES Cc1ccccc1O
REMARK SMILES IDX 1 1 2 2 3 3 4 4 5 5 6 6 7 7 8 8
REMARK H PARENT 8 9
REMARK Flexibility Score: inf
ROOT
ATOM      1  C   UNL     1     129.940 142.686 136.600  1.00  0.00     0.048 C 
ATOM      2  C   UNL     1     129.040 143.718 135.981  1.00  0.00    -0.009 A 
ATOM      3  C   UNL     1     129.547 144.580 134.991  1.00  0.00     0.007 A 
ATOM      4  C   UNL     1     128.726 145.545 134.405  1.00  0.00     0.001 A 
ATOM      5  C   UNL     1     127.392 145.662 134.797  1.00  0.00     0.004 A 
ATOM      6  C   UNL     1     126.875 144.813 135.778  1.00  0.00     0.046 A 
ATOM      7  C   UNL     1     127.687 143.840 136.376  1.00  0.00     0.118 A 
ENDROOT
BRANCH   7   8
ATOM      8  O   UNL     1     127.122 143.016 137.351  1.00  0.00    -0.508 OA
ATOM      9  H   UNL     1     127.089 142.009 137.268  1.00  0.00     0.293 HD
ENDBRANCH   7   8
TORSDOF 1
ENDMDL
MODEL 7
REMARK VINA RESULT:    -3.193     27.047     28.032
REMARK INTER + INTRA:          -3.287
REMARK INTER:                  -3.287
REMARK INTRA:                   0.000
REMARK UNBOUND:                 0.000
REMARK SMILES Cc1ccccc1O
REMARK SMILES IDX 1 1 2 2 3 3 4 4 5 5 6 6 7 7 8 8
REMARK H PARENT 8 9
REMARK Flexibility Score: inf
ROOT
ATOM      1  C   UNL     1     147.125 127.782 135.564  1.00  0.00     0.048 C 
ATOM      2  C   UNL     1     146.540 129.110 135.170  1.00  0.00    -0.009 A 
ATOM      3  C   UNL     1     146.469 130.147 136.118  1.00  0.00     0.007 A 
ATOM      4  C   UNL     1     145.928 131.387 135.772  1.00  0.00     0.001 A 
ATOM      5  C   UNL     1     145.454 131.608 134.479  1.00  0.00     0.004 A 
ATOM      6  C   UNL     1     145.518 130.587 133.527  1.00  0.00     0.046 A 
ATOM      7  C   UNL     1     146.057 129.338 133.860  1.00  0.00     0.118 A 
ENDROOT
BRANCH   7   8
ATOM      8  O   UNL     1     146.099 128.351 132.873  1.00  0.00    -0.508 OA
ATOM      9  H   UNL     1     146.910 128.189 132.292  1.00  0.00     0.293 HD
ENDBRANCH   7   8
TORSDOF 1
ENDMDL
MODEL 8
REMARK VINA RESULT:    -3.130      2.003      2.743
REMARK INTER + INTRA:          -3.221
REMARK INTER:                  -3.221
REMARK INTRA:                   0.000
REMARK UNBOUND:                 0.000
REMARK SMILES Cc1ccccc1O
REMARK SMILES IDX 1 1 2 2 3 3 4 4 5 5 6 6 7 7 8 8
REMARK H PARENT 8 9
REMARK Flexibility Score: inf
ROOT
ATOM      1  C   UNL     1     126.875 146.792 120.366  1.00  0.00     0.048 C 
ATOM      2  C   UNL     1     127.432 145.399 120.464  1.00  0.00    -0.009 A 
ATOM      3  C   UNL     1     127.619 144.812 121.729  1.00  0.00     0.007 A 
ATOM      4  C   UNL     1     128.136 143.520 121.841  1.00  0.00     0.001 A 
ATOM      5  C   UNL     1     128.471 142.798 120.695  1.00  0.00     0.004 A 
ATOM      6  C   UNL     1     128.290 143.367 119.432  1.00  0.00     0.046 A 
ATOM      7  C   UNL     1     127.773 144.663 119.305  1.00  0.00     0.118 A 
ENDROOT
BRANCH   7   8
ATOM      8  O   UNL     1     127.611 145.187 118.021  1.00  0.00    -0.508 OA
ATOM      9  H   UNL     1     127.959 146.098 117.750  1.00  0.00     0.293 HD
ENDBRANCH   7   8
TORSDOF 1
ENDMDL
MODEL 9
REMARK VINA RESULT:    -3.128      2.070      2.288
REMARK INTER + INTRA:          -3.219
REMARK INTER:                  -3.219
REMARK INTRA:                   0.000
REMARK UNBOUND:                 0.000
REMARK SMILES Cc1ccccc1O
REMARK SMILES IDX 1 1 2 2 3 3 4 4 5 5 6 6 7 7 8 8
REMARK H PARENT 8 9
REMARK Flexibility Score: inf
ROOT
ATOM      1  C   UNL     1     129.720 146.222 123.543  1.00  0.00     0.048 C 
ATOM      2  C   UNL     1     129.125 145.988 122.183  1.00  0.00    -0.009 A 
ATOM      3  C   UNL     1     129.950 146.043 121.045  1.00  0.00     0.007 A 
ATOM      4  C   UNL     1     129.416 145.828 119.773  1.00  0.00     0.001 A 
ATOM      5  C   UNL     1     128.056 145.556 119.620  1.00  0.00     0.004 A 
ATOM      6  C   UNL     1     127.225 145.499 120.742  1.00  0.00     0.046 A 
ATOM      7  C   UNL     1     127.747 145.712 122.024  1.00  0.00     0.118 A 
ENDROOT
BRANCH   7   8
ATOM      8  O   UNL     1     126.875 145.643 123.113  1.00  0.00    -0.508 OA
ATOM      9  H   UNL     1     127.089 145.131 123.958  1.00  0.00     0.293 HD
ENDBRANCH   7   8
TORSDOF 1
ENDMDL
