MODEL 1
REMARK VINA RESULT:    -4.938      0.000      0.000
REMARK INTER + INTRA:          -6.584
REMARK INTER:                  -6.958
REMARK INTRA:                   0.375
REMARK UNBOUND:                 0.375
REMARK SMILES CC1=CCC(=C(C)C)C(=O)CC(C)=CCC1
REMARK SMILES IDX 12 1 14 2 13 3 15 4 16 5 2 6 1 7 3 8 11 10 9 11 10 12 5 13
REMARK SMILES IDX 6 14 7 15 8 16 4 17
REMARK H PARENT
REMARK Flexibility Score: 60.00
ROOT
ATOM      1  C   UNL     1      32.210  21.382  25.554  1.00  0.00    -0.070 C 
ATOM      2  C   UNL     1      31.764  21.406  24.276  1.00  0.00    -0.027 C 
ATOM      3  C   UNL     1      32.149  22.660  26.350  1.00  0.00     0.039 C 
ENDROOT
BRANCH   2   4
ATOM      4  C   UNL     1      31.807  20.238  23.318  1.00  0.00     0.032 C 
BRANCH   4   5
ATOM      5  C   UNL     1      30.774  19.163  23.689  1.00  0.00     0.034 C 
BRANCH   5   6
ATOM      6  C   UNL     1      31.360  17.761  23.780  1.00  0.00    -0.077 C 
ATOM      7  C   UNL     1      32.104  17.206  22.591  1.00  0.00     0.039 C 
ATOM      8  C   UNL     1      31.235  16.972  24.871  1.00  0.00    -0.023 CG0
ATOM      9  G   UNL     1      30.589  17.378  26.176  1.00  0.00     0.000 G0
ENDBRANCH   5   6
ENDBRANCH   4   5
ENDBRANCH   2   4
BRANCH   1  10
ATOM     10  C   UNL     1      32.758  20.132  26.215  1.00  0.00     0.111 C 
BRANCH  10  11
ATOM     11  C   UNL     1      31.736  19.507  27.123  1.00  0.00     0.163 C 
ATOM     12  O   UNL     1      31.037  20.245  27.867  1.00  0.00    -0.294 OA
BRANCH  11  13
ATOM     13  C   UNL     1      31.552  18.034  27.178  1.00  0.00    -0.002 C 
ATOM     14  C   UNL     1      32.235  17.290  28.090  1.00  0.00    -0.069 C 
ATOM     15  C   UNL     1      33.261  17.921  29.004  1.00  0.00     0.039 C 
ATOM     16  C   UNL     1      32.021  15.797  28.195  1.00  0.00     0.039 C 
BRANCH  13  17
ATOM     17  C   UNL     1      30.591  17.370  26.198  1.00  0.00     0.066 CG0
ATOM     18  G   UNL     1      31.235  16.968  24.891  1.00  0.00     0.000 G0
ENDBRANCH  13  17
ENDBRANCH  11  13
ENDBRANCH  10  11
ENDBRANCH   1  10
TORSDOF 0
ENDMDL
MODEL 2
REMARK VINA RESULT:    -4.256      1.929      3.639
REMARK INTER + INTRA:          -5.623
REMARK INTER:                  -7.342
REMARK INTRA:                   1.719
REMARK UNBOUND:                 0.375
REMARK SMILES CC1=CCC(=C(C)C)C(=O)CC(C)=CCC1
REMARK SMILES IDX 12 1 14 2 13 3 15 4 16 5 2 6 1 7 3 8 11 10 9 11 10 12 5 13
REMARK SMILES IDX 6 14 7 15 8 16 4 17
REMARK H PARENT
REMARK Flexibility Score: 60.00
ROOT
ATOM      1  C   UNL     1      31.876  19.750  23.575  1.00  0.00    -0.070 C 
ATOM      2  C   UNL     1      31.507  20.981  24.001  1.00  0.00    -0.027 C 
ATOM      3  C   UNL     1      31.725  19.435  22.109  1.00  0.00     0.039 C 
ENDROOT
BRANCH   2   4
ATOM      4  C   UNL     1      31.532  21.446  25.439  1.00  0.00     0.032 C 
BRANCH   4   5
ATOM      5  C   UNL     1      32.875  22.099  25.800  1.00  0.00     0.034 C 
BRANCH   5   6
ATOM      6  C   UNL     1      33.658  21.337  26.860  1.00  0.00    -0.077 C 
ATOM      7  C   UNL     1      35.092  21.723  27.124  1.00  0.00     0.039 C 
ATOM      8  C   UNL     1      33.139  20.312  27.574  1.00  0.00    -0.023 CG0
ATOM      9  G   UNL     1      31.709  19.829  27.502  1.00  0.00     0.000 G0
ENDBRANCH   5   6
ENDBRANCH   4   5
ENDBRANCH   2   4
BRANCH   1  10
ATOM     10  C   UNL     1      32.433  18.686  24.501  1.00  0.00     0.111 C 
BRANCH  10  11
ATOM     11  C   UNL     1      31.390  18.219  25.477  1.00  0.00     0.163 C 
ATOM     12  O   UNL     1      30.334  17.685  25.045  1.00  0.00    -0.294 OA
BRANCH  11  13
ATOM     13  C   UNL     1      31.569  18.397  26.941  1.00  0.00    -0.002 C 
ATOM     14  C   UNL     1      31.611  17.313  27.764  1.00  0.00    -0.069 C 
ATOM     15  C   UNL     1      31.384  15.917  27.231  1.00  0.00     0.039 C 
ATOM     16  C   UNL     1      31.845  17.471  29.249  1.00  0.00     0.039 C 
BRANCH  13  17
ATOM     17  C   UNL     1      31.704  19.806  27.507  1.00  0.00     0.066 CG0
ATOM     18  G   UNL     1      33.131  20.298  27.585  1.00  0.00     0.000 G0
ENDBRANCH  13  17
ENDBRANCH  11  13
ENDBRANCH  10  11
ENDBRANCH   1  10
TORSDOF 0
ENDMDL
MODEL 3
REMARK VINA RESULT:    -4.168     12.198     13.648
REMARK INTER + INTRA:          -5.500
REMARK INTER:                  -5.779
REMARK INTRA:                   0.279
REMARK UNBOUND:                 0.375
REMARK SMILES CC1=CCC(=C(C)C)C(=O)CC(C)=CCC1
REMARK SMILES IDX 12 1 14 2 13 3 15 4 16 5 2 6 1 7 3 8 11 10 9 11 10 12 5 13
REMARK SMILES IDX 6 14 7 15 8 16 4 17
REMARK H PARENT
REMARK Flexibility Score: 60.00
ROOT
ATOM      1  C   UNL     1      17.818  23.712  27.161  1.00  0.00    -0.070 C 
ATOM      2  C   UNL     1      17.506  24.662  28.074  1.00  0.00    -0.027 C 
ATOM      3  C   UNL     1      17.091  22.394  27.233  1.00  0.00     0.039 C 
ENDROOT
BRANCH   2   4
ATOM      4  C   UNL     1      18.175  26.012  28.187  1.00  0.00     0.032 C 
BRANCH   4   5
ATOM      5  C   UNL     1      19.535  25.913  28.895  1.00  0.00     0.034 C 
BRANCH   5   6
ATOM      6  C   UNL     1      20.639  26.705  28.207  1.00  0.00    -0.077 C 
ATOM      7  C   UNL     1      20.564  28.211  28.211  1.00  0.00     0.039 C 
ATOM      8  C   UNL     1      21.684  26.127  27.573  1.00  0.00    -0.023 CG0
ATOM      9  G   UNL     1      21.966  24.643  27.523  1.00  0.00     0.000 G0
ENDBRANCH   5   6
ENDBRANCH   4   5
ENDBRANCH   2   4
BRANCH   1  10
ATOM     10  C   UNL     1      18.857  23.918  26.076  1.00  0.00     0.111 C 
BRANCH  10  11
ATOM     11  C   UNL     1      20.139  23.207  26.412  1.00  0.00     0.163 C 
ATOM     12  O   UNL     1      20.097  22.010  26.801  1.00  0.00    -0.294 OA
BRANCH  11  13
ATOM     13  C   UNL     1      21.451  23.897  26.316  1.00  0.00    -0.002 C 
ATOM     14  C   UNL     1      22.156  23.873  25.152  1.00  0.00    -0.069 C 
ATOM     15  C   UNL     1      21.675  23.074  23.962  1.00  0.00     0.039 C 
ATOM     16  C   UNL     1      23.468  24.612  25.020  1.00  0.00     0.039 C 
BRANCH  13  17
ATOM     17  C   UNL     1      21.996  24.628  27.539  1.00  0.00     0.066 CG0
ATOM     18  G   UNL     1      21.692  26.108  27.548  1.00  0.00     0.000 G0
ENDBRANCH  13  17
ENDBRANCH  11  13
ENDBRANCH  10  11
ENDBRANCH   1  10
TORSDOF 0
ENDMDL
MODEL 4
REMARK VINA RESULT:    -4.137     11.693     12.869
REMARK INTER + INTRA:          -5.455
REMARK INTER:                  -5.717
REMARK INTRA:                   0.261
REMARK UNBOUND:                 0.375
REMARK SMILES CC1=CCC(=C(C)C)C(=O)CC(C)=CCC1
REMARK SMILES IDX 12 1 14 2 13 3 15 4 16 5 2 6 1 7 3 8 11 10 9 11 10 12 5 13
REMARK SMILES IDX 6 14 7 15 8 16 4 17
REMARK H PARENT
REMARK Flexibility Score: 60.00
ROOT
ATOM      1  C   UNL     1      21.227  26.522  28.681  1.00  0.00    -0.070 C 
ATOM      2  C   UNL     1      19.942  26.377  29.081  1.00  0.00    -0.027 C 
ATOM      3  C   UNL     1      22.236  26.990  29.698  1.00  0.00     0.039 C 
ENDROOT
BRANCH   2   4
ATOM      4  C   UNL     1      18.792  25.977  28.185  1.00  0.00     0.032 C 
BRANCH   4   5
ATOM      5  C   UNL     1      18.644  24.451  28.099  1.00  0.00     0.034 C 
BRANCH   5   6
ATOM      6  C   UNL     1      18.442  23.938  26.680  1.00  0.00    -0.077 C 
ATOM      7  C   UNL     1      17.141  24.237  25.977  1.00  0.00     0.039 C 
ATOM      8  C   UNL     1      19.365  23.208  26.014  1.00  0.00    -0.023 CG0
ATOM      9  G   UNL     1      20.747  22.869  26.523  1.00  0.00     0.000 G0
ENDBRANCH   5   6
ENDBRANCH   4   5
ENDBRANCH   2   4
BRANCH   1  10
ATOM     10  C   UNL     1      21.690  26.232  27.267  1.00  0.00     0.111 C 
BRANCH  10  11
ATOM     11  C   UNL     1      22.310  24.866  27.170  1.00  0.00     0.163 C 
ATOM     12  O   UNL     1      23.253  24.559  27.946  1.00  0.00    -0.294 OA
BRANCH  11  13
ATOM     13  C   UNL     1      21.847  23.879  26.161  1.00  0.00    -0.002 C 
ATOM     14  C   UNL     1      22.384  23.872  24.910  1.00  0.00    -0.069 C 
ATOM     15  C   UNL     1      23.390  24.918  24.486  1.00  0.00     0.039 C 
ATOM     16  C   UNL     1      21.963  22.843  23.886  1.00  0.00     0.039 C 
BRANCH  13  17
ATOM     17  C   UNL     1      20.762  22.878  26.544  1.00  0.00     0.066 CG0
ATOM     18  G   UNL     1      19.393  23.230  26.011  1.00  0.00     0.000 G0
ENDBRANCH  13  17
ENDBRANCH  11  13
ENDBRANCH  10  11
ENDBRANCH   1  10
TORSDOF 0
ENDMDL
MODEL 5
REMARK VINA RESULT:    -3.926     12.684     14.010
REMARK INTER + INTRA:          -5.158
REMARK INTER:                  -5.516
REMARK INTRA:                   0.358
REMARK UNBOUND:                 0.375
REMARK SMILES CC1=CCC(=C(C)C)C(=O)CC(C)=CCC1
REMARK SMILES IDX 12 1 14 2 13 3 15 4 16 5 2 6 1 7 3 8 11 10 9 11 10 12 5 13
REMARK SMILES IDX 6 14 7 15 8 16 4 17
REMARK H PARENT
REMARK Flexibility Score: 60.00
ROOT
ATOM      1  C   UNL     1      17.963  23.600  27.244  1.00  0.00    -0.070 C 
ATOM      2  C   UNL     1      18.812  22.706  26.685  1.00  0.00    -0.027 C 
ATOM      3  C   UNL     1      16.766  23.069  27.990  1.00  0.00     0.039 C 
ENDROOT
BRANCH   2   4
ATOM      4  C   UNL     1      20.023  23.060  25.853  1.00  0.00     0.032 C 
BRANCH   4   5
ATOM      5  C   UNL     1      21.301  23.107  26.705  1.00  0.00     0.034 C 
BRANCH   5   6
ATOM      6  C   UNL     1      22.076  24.410  26.568  1.00  0.00    -0.077 C 
ATOM      7  C   UNL     1      22.954  24.610  25.358  1.00  0.00     0.039 C 
ATOM      8  C   UNL     1      22.033  25.400  27.488  1.00  0.00    -0.023 CG0
ATOM      9  G   UNL     1      21.163  25.412  28.723  1.00  0.00     0.000 G0
ENDBRANCH   5   6
ENDBRANCH   4   5
ENDBRANCH   2   4
BRANCH   1  10
ATOM     10  C   UNL     1      18.167  25.100  27.156  1.00  0.00     0.111 C 
BRANCH  10  11
ATOM     11  C   UNL     1      18.607  25.664  28.479  1.00  0.00     0.163 C 
ATOM     12  O   UNL     1      17.824  25.611  29.464  1.00  0.00    -0.294 OA
BRANCH  11  13
ATOM     13  C   UNL     1      19.938  26.304  28.639  1.00  0.00    -0.002 C 
ATOM     14  C   UNL     1      20.046  27.660  28.687  1.00  0.00    -0.069 C 
ATOM     15  C   UNL     1      18.839  28.549  28.486  1.00  0.00     0.039 C 
ATOM     16  C   UNL     1      21.385  28.328  28.902  1.00  0.00     0.039 C 
BRANCH  13  17
ATOM     17  C   UNL     1      21.178  25.423  28.747  1.00  0.00     0.066 CG0
ATOM     18  G   UNL     1      22.030  25.417  27.500  1.00  0.00     0.000 G0
ENDBRANCH  13  17
ENDBRANCH  11  13
ENDBRANCH  10  11
ENDBRANCH   1  10
TORSDOF 0
ENDMDL
MODEL 6
REMARK VINA RESULT:    -3.843      1.717      4.368
REMARK INTER + INTRA:          -5.041
REMARK INTER:                  -6.019
REMARK INTRA:                   0.978
REMARK UNBOUND:                 0.375
REMARK SMILES CC1=CCC(=C(C)C)C(=O)CC(C)=CCC1
REMARK SMILES IDX 12 1 14 2 13 3 15 4 16 5 2 6 1 7 3 8 11 10 9 11 10 12 5 13
REMARK SMILES IDX 6 14 7 15 8 16 4 17
REMARK H PARENT
REMARK Flexibility Score: 60.00
ROOT
ATOM      1  C   UNL     1      31.118  17.633  24.331  1.00  0.00    -0.070 C 
ATOM      2  C   UNL     1      30.673  16.711  25.216  1.00  0.00    -0.027 C 
ATOM      3  C   UNL     1      31.802  17.142  23.081  1.00  0.00     0.039 C 
ENDROOT
BRANCH   2   4
ATOM      4  C   UNL     1      30.022  17.024  26.544  1.00  0.00     0.032 C 
BRANCH   4   5
ATOM      5  C   UNL     1      30.689  16.258  27.696  1.00  0.00     0.034 C 
BRANCH   5   6
ATOM      6  C   UNL     1      32.068  16.789  28.062  1.00  0.00    -0.077 C 
ATOM      7  C   UNL     1      33.159  15.805  28.405  1.00  0.00     0.039 C 
ATOM      8  C   UNL     1      32.369  18.107  28.112  1.00  0.00    -0.023 CG0
ATOM      9  G   UNL     1      31.435  19.233  27.736  1.00  0.00     0.000 G0
ENDBRANCH   5   6
ENDBRANCH   4   5
ENDBRANCH   2   4
BRANCH   1  10
ATOM     10  C   UNL     1      30.955  19.126  24.540  1.00  0.00     0.111 C 
BRANCH  10  11
ATOM     11  C   UNL     1      32.126  19.698  25.289  1.00  0.00     0.163 C 
ATOM     12  O   UNL     1      33.254  19.743  24.730  1.00  0.00    -0.294 OA
BRANCH  11  13
ATOM     13  C   UNL     1      31.984  20.189  26.684  1.00  0.00    -0.002 C 
ATOM     14  C   UNL     1      32.341  21.464  27.002  1.00  0.00    -0.069 C 
ATOM     15  C   UNL     1      32.973  22.379  25.978  1.00  0.00     0.039 C 
ATOM     16  C   UNL     1      32.154  21.998  28.404  1.00  0.00     0.039 C 
BRANCH  13  17
ATOM     17  C   UNL     1      31.436  19.247  27.750  1.00  0.00     0.066 CG0
ATOM     18  G   UNL     1      32.374  18.115  28.101  1.00  0.00     0.000 G0
ENDBRANCH  13  17
ENDBRANCH  11  13
ENDBRANCH  10  11
ENDBRANCH   1  10
TORSDOF 0
ENDMDL
MODEL 7
REMARK VINA RESULT:    -3.806     13.038     14.292
REMARK INTER + INTRA:          -4.988
REMARK INTER:                  -5.431
REMARK INTRA:                   0.443
REMARK UNBOUND:                 0.375
REMARK SMILES CC1=CCC(=C(C)C)C(=O)CC(C)=CCC1
REMARK SMILES IDX 12 1 14 2 13 3 15 4 16 5 2 6 1 7 3 8 11 10 9 11 10 12 5 13
REMARK SMILES IDX 6 14 7 15 8 16 4 17
REMARK H PARENT
REMARK Flexibility Score: 60.00
ROOT
ATOM      1  C   UNL     1      20.852  23.185  25.908  1.00  0.00    -0.070 C 
ATOM      2  C   UNL     1      22.009  23.888  25.911  1.00  0.00    -0.027 C 
ATOM      3  C   UNL     1      20.487  22.428  24.657  1.00  0.00     0.039 C 
ENDROOT
BRANCH   2   4
ATOM      4  C   UNL     1      22.500  24.750  27.051  1.00  0.00     0.032 C 
BRANCH   4   5
ATOM      5  C   UNL     1      21.640  26.011  27.220  1.00  0.00     0.034 C 
BRANCH   5   6
ATOM      6  C   UNL     1      21.195  26.258  28.655  1.00  0.00    -0.077 C 
ATOM      7  C   UNL     1      22.247  26.427  29.723  1.00  0.00     0.039 C 
ATOM      8  C   UNL     1      19.898  26.318  29.031  1.00  0.00    -0.023 CG0
ATOM      9  G   UNL     1      18.711  26.242  28.099  1.00  0.00     0.000 G0
ENDBRANCH   5   6
ENDBRANCH   4   5
ENDBRANCH   2   4
BRANCH   1  10
ATOM     10  C   UNL     1      19.920  23.123  27.102  1.00  0.00     0.111 C 
BRANCH  10  11
ATOM     11  C   UNL     1      18.686  23.949  26.868  1.00  0.00     0.163 C 
ATOM     12  O   UNL     1      18.122  23.911  25.742  1.00  0.00    -0.294 OA
BRANCH  11  13
ATOM     13  C   UNL     1      18.132  24.826  27.931  1.00  0.00    -0.002 C 
ATOM     14  C   UNL     1      17.132  24.379  28.739  1.00  0.00    -0.069 C 
ATOM     15  C   UNL     1      16.498  23.023  28.522  1.00  0.00     0.039 C 
ATOM     16  C   UNL     1      16.592  25.238  29.859  1.00  0.00     0.039 C 
BRANCH  13  17
ATOM     17  C   UNL     1      18.695  26.233  28.101  1.00  0.00     0.066 CG0
ATOM     18  G   UNL     1      19.897  26.300  29.016  1.00  0.00     0.000 G0
ENDBRANCH  13  17
ENDBRANCH  11  13
ENDBRANCH  10  11
ENDBRANCH   1  10
TORSDOF 0
ENDMDL
MODEL 8
REMARK VINA RESULT:    -3.786     14.121     15.217
REMARK INTER + INTRA:          -4.961
REMARK INTER:                  -5.351
REMARK INTRA:                   0.390
REMARK UNBOUND:                 0.375
REMARK SMILES CC1=CCC(=C(C)C)C(=O)CC(C)=CCC1
REMARK SMILES IDX 12 1 14 2 13 3 15 4 16 5 2 6 1 7 3 8 11 10 9 11 10 12 5 13
REMARK SMILES IDX 6 14 7 15 8 16 4 17
REMARK H PARENT
REMARK Flexibility Score: 60.00
ROOT
ATOM      1  C   UNL     1      21.256  25.261  27.511  1.00  0.00    -0.070 C 
ATOM      2  C   UNL     1      21.100  24.160  26.740  1.00  0.00    -0.027 C 
ATOM      3  C   UNL     1      22.416  26.176  27.213  1.00  0.00     0.039 C 
ENDROOT
BRANCH   2   4
ATOM      4  C   UNL     1      20.034  23.106  26.935  1.00  0.00     0.032 C 
BRANCH   4   5
ATOM      5  C   UNL     1      18.678  23.562  26.376  1.00  0.00     0.034 C 
BRANCH   5   6
ATOM      6  C   UNL     1      17.543  23.480  27.388  1.00  0.00    -0.077 C 
ATOM      7  C   UNL     1      17.148  22.129  27.930  1.00  0.00     0.039 C 
ATOM      8  C   UNL     1      16.853  24.560  27.821  1.00  0.00    -0.023 CG0
ATOM      9  G   UNL     1      17.146  25.994  27.448  1.00  0.00     0.000 G0
ENDBRANCH   5   6
ENDBRANCH   4   5
ENDBRANCH   2   4
BRANCH   1  10
ATOM     10  C   UNL     1      20.319  25.613  28.650  1.00  0.00     0.111 C 
BRANCH  10  11
ATOM     11  C   UNL     1      19.459  26.794  28.298  1.00  0.00     0.163 C 
ATOM     12  O   UNL     1      20.001  27.845  27.865  1.00  0.00    -0.294 OA
BRANCH  11  13
ATOM     13  C   UNL     1      17.984  26.755  28.473  1.00  0.00    -0.002 C 
ATOM     14  C   UNL     1      17.401  27.381  29.532  1.00  0.00    -0.069 C 
ATOM     15  C   UNL     1      18.236  28.049  30.601  1.00  0.00     0.039 C 
ATOM     16  C   UNL     1      15.899  27.395  29.698  1.00  0.00     0.039 C 
BRANCH  13  17
ATOM     17  C   UNL     1      17.136  26.002  27.453  1.00  0.00     0.066 CG0
ATOM     18  G   UNL     1      16.868  24.563  27.829  1.00  0.00     0.000 G0
ENDBRANCH  13  17
ENDBRANCH  11  13
ENDBRANCH  10  11
ENDBRANCH   1  10
TORSDOF 0
ENDMDL
MODEL 9
REMARK VINA RESULT:    -3.771     17.221     19.322
REMARK INTER + INTRA:          -4.940
REMARK INTER:                  -5.430
REMARK INTRA:                   0.490
REMARK UNBOUND:                 0.375
REMARK SMILES CC1=CCC(=C(C)C)C(=O)CC(C)=CCC1
REMARK SMILES IDX 12 1 14 2 13 3 15 4 16 5 2 6 1 7 3 8 11 10 9 11 10 12 5 13
REMARK SMILES IDX 6 14 7 15 8 16 4 17
REMARK H PARENT
REMARK Flexibility Score: 60.00
ROOT
ATOM      1  C   UNL     1      16.736  32.974  31.061  1.00  0.00    -0.070 C 
ATOM      2  C   UNL     1      17.321  34.114  30.624  1.00  0.00    -0.027 C 
ATOM      3  C   UNL     1      16.010  33.013  32.382  1.00  0.00     0.039 C 
ENDROOT
BRANCH   2   4
ATOM      4  C   UNL     1      18.138  34.241  29.358  1.00  0.00     0.032 C 
BRANCH   4   5
ATOM      5  C   UNL     1      19.609  34.559  29.662  1.00  0.00     0.034 C 
BRANCH   5   6
ATOM      6  C   UNL     1      20.192  33.720  30.792  1.00  0.00    -0.077 C 
ATOM      7  C   UNL     1      20.513  34.390  32.104  1.00  0.00     0.039 C 
ATOM      8  C   UNL     1      20.456  32.398  30.677  1.00  0.00    -0.023 CG0
ATOM      9  G   UNL     1      20.139  31.543  29.472  1.00  0.00     0.000 G0
ENDBRANCH   5   6
ENDBRANCH   4   5
ENDBRANCH   2   4
BRANCH   1  10
ATOM     10  C   UNL     1      16.774  31.673  30.283  1.00  0.00     0.111 C 
BRANCH  10  11
ATOM     11  C   UNL     1      17.958  30.838  30.684  1.00  0.00     0.163 C 
ATOM     12  O   UNL     1      18.049  30.425  31.870  1.00  0.00    -0.294 OA
BRANCH  11  13
ATOM     13  C   UNL     1      19.035  30.510  29.714  1.00  0.00    -0.002 C 
ATOM     14  C   UNL     1      19.031  29.316  29.062  1.00  0.00    -0.069 C 
ATOM     15  C   UNL     1      17.994  28.260  29.370  1.00  0.00     0.039 C 
ATOM     16  C   UNL     1      20.089  28.986  28.034  1.00  0.00     0.039 C 
BRANCH  13  17
ATOM     17  C   UNL     1      20.143  31.528  29.463  1.00  0.00     0.066 CG0
ATOM     18  G   UNL     1      20.454  32.396  30.660  1.00  0.00     0.000 G0
ENDBRANCH  13  17
ENDBRANCH  11  13
ENDBRANCH  10  11
ENDBRANCH   1  10
TORSDOF 0
ENDMDL
