MODEL 1
REMARK VINA RESULT:    -5.397      0.000      0.000
REMARK INTER + INTRA:          -5.809
REMARK INTER:                  -5.712
REMARK INTRA:                  -0.096
REMARK UNBOUND:                -0.096
REMARK SMILES C=C(C)[C@H]1CC=C(C)C(=O)C1
REMARK SMILES IDX 8 1 7 2 6 3 5 4 4 5 11 6 9 7 10 8 2 9 1 10 3 11
REMARK H PARENT
REMARK Flexibility Score: inf
ROOT
ATOM      1  C   UNL     1      -0.237  29.924  54.704  1.00  0.00     0.048 C 
ATOM      2  C   UNL     1       0.896  29.250  55.428  1.00  0.00    -0.012 C 
ATOM      3  C   UNL     1       1.999  28.875  54.757  1.00  0.00    -0.019 C 
ATOM      4  C   UNL     1       3.125  28.126  55.421  1.00  0.00     0.036 C 
ATOM      5  C   UNL     1       3.240  28.501  56.911  1.00  0.00     0.025 C 
ATOM      6  C   UNL     1       1.891  28.284  57.623  1.00  0.00     0.089 C 
ATOM      7  C   UNL     1       0.781  28.977  56.882  1.00  0.00     0.158 C 
ATOM      8  O   UNL     1      -0.272  29.283  57.502  1.00  0.00    -0.295 OA
ENDROOT
BRANCH   5   9
ATOM      9  C   UNL     1       4.366  27.740  57.597  1.00  0.00    -0.077 C 
ATOM     10  C   UNL     1       4.125  26.909  58.626  1.00  0.00     0.008 C 
ATOM     11  C   UNL     1       5.788  27.908  57.125  1.00  0.00     0.039 C 
ENDBRANCH   5   9
TORSDOF 1
ENDMDL
MODEL 2
REMARK VINA RESULT:    -5.243      1.943      4.712
REMARK INTER + INTRA:          -5.646
REMARK INTER:                  -5.549
REMARK INTRA:                  -0.097
REMARK UNBOUND:                -0.096
REMARK SMILES C=C(C)[C@H]1CC=C(C)C(=O)C1
REMARK SMILES IDX 8 1 7 2 6 3 5 4 4 5 11 6 9 7 10 8 2 9 1 10 3 11
REMARK H PARENT
REMARK Flexibility Score: inf
ROOT
ATOM      1  C   UNL     1       5.434  27.753  56.799  1.00  0.00     0.048 C 
ATOM      2  C   UNL     1       3.978  28.048  56.566  1.00  0.00    -0.012 C 
ATOM      3  C   UNL     1       3.127  28.116  57.605  1.00  0.00    -0.019 C 
ATOM      4  C   UNL     1       1.648  28.329  57.416  1.00  0.00     0.036 C 
ATOM      5  C   UNL     1       1.363  29.164  56.152  1.00  0.00     0.025 C 
ATOM      6  C   UNL     1       2.023  28.513  54.922  1.00  0.00     0.089 C 
ATOM      7  C   UNL     1       3.478  28.239  55.182  1.00  0.00     0.158 C 
ATOM      8  O   UNL     1       4.265  28.126  54.204  1.00  0.00    -0.295 OA
ENDROOT
BRANCH   5   9
ATOM      9  C   UNL     1      -0.131  29.375  55.943  1.00  0.00    -0.077 C 
ATOM     10  C   UNL     1      -0.687  29.281  54.724  1.00  0.00     0.008 C 
ATOM     11  C   UNL     1      -1.019  29.694  57.118  1.00  0.00     0.039 C 
ENDBRANCH   5   9
TORSDOF 1
ENDMDL
MODEL 3
REMARK VINA RESULT:    -4.974      1.506      2.587
REMARK INTER + INTRA:          -5.361
REMARK INTER:                  -5.267
REMARK INTRA:                  -0.095
REMARK UNBOUND:                -0.096
REMARK SMILES C=C(C)[C@H]1CC=C(C)C(=O)C1
REMARK SMILES IDX 8 1 7 2 6 3 5 4 4 5 11 6 9 7 10 8 2 9 1 10 3 11
REMARK H PARENT
REMARK Flexibility Score: inf
ROOT
ATOM      1  C   UNL     1      -1.540  29.478  57.225  1.00  0.00     0.048 C 
ATOM      2  C   UNL     1      -0.130  29.254  56.751  1.00  0.00    -0.012 C 
ATOM      3  C   UNL     1       0.849  29.003  57.637  1.00  0.00    -0.019 C 
ATOM      4  C   UNL     1       2.288  28.851  57.219  1.00  0.00     0.036 C 
ATOM      5  C   UNL     1       2.396  28.275  55.793  1.00  0.00     0.025 C 
ATOM      6  C   UNL     1       1.587  29.137  54.806  1.00  0.00     0.089 C 
ATOM      7  C   UNL     1       0.181  29.336  55.302  1.00  0.00     0.158 C 
ATOM      8  O   UNL     1      -0.727  29.619  54.476  1.00  0.00    -0.295 OA
ENDROOT
BRANCH   5   9
ATOM      9  C   UNL     1       3.846  28.130  55.354  1.00  0.00    -0.077 C 
ATOM     10  C   UNL     1       4.797  27.709  56.205  1.00  0.00     0.008 C 
ATOM     11  C   UNL     1       4.242  28.459  53.937  1.00  0.00     0.039 C 
ENDBRANCH   5   9
TORSDOF 1
ENDMDL
MODEL 4
REMARK VINA RESULT:    -4.831      1.614      4.349
REMARK INTER + INTRA:          -5.209
REMARK INTER:                  -5.116
REMARK INTRA:                  -0.093
REMARK UNBOUND:                -0.096
REMARK SMILES C=C(C)[C@H]1CC=C(C)C(=O)C1
REMARK SMILES IDX 8 1 7 2 6 3 5 4 4 5 11 6 9 7 10 8 2 9 1 10 3 11
REMARK H PARENT
REMARK Flexibility Score: inf
ROOT
ATOM      1  C   UNL     1       5.367  27.287  56.854  1.00  0.00     0.048 C 
ATOM      2  C   UNL     1       3.995  27.867  56.643  1.00  0.00    -0.012 C 
ATOM      3  C   UNL     1       3.687  28.468  55.480  1.00  0.00    -0.019 C 
ATOM      4  C   UNL     1       2.355  29.133  55.251  1.00  0.00     0.036 C 
ATOM      5  C   UNL     1       1.241  28.442  56.062  1.00  0.00     0.025 C 
ATOM      6  C   UNL     1       1.620  28.390  57.554  1.00  0.00     0.089 C 
ATOM      7  C   UNL     1       2.991  27.797  57.733  1.00  0.00     0.158 C 
ATOM      8  O   UNL     1       3.295  27.279  58.840  1.00  0.00    -0.295 OA
ENDROOT
BRANCH   5   9
ATOM      9  C   UNL     1      -0.108  29.115  55.848  1.00  0.00    -0.077 C 
ATOM     10  C   UNL     1      -0.649  29.228  54.623  1.00  0.00     0.008 C 
ATOM     11  C   UNL     1      -0.869  29.670  57.025  1.00  0.00     0.039 C 
ENDBRANCH   5   9
TORSDOF 1
ENDMDL
MODEL 5
REMARK VINA RESULT:    -4.535      1.890      4.000
REMARK INTER + INTRA:          -4.897
REMARK INTER:                  -4.808
REMARK INTRA:                  -0.089
REMARK UNBOUND:                -0.096
REMARK SMILES C=C(C)[C@H]1CC=C(C)C(=O)C1
REMARK SMILES IDX 8 1 7 2 6 3 5 4 4 5 11 6 9 7 10 8 2 9 1 10 3 11
REMARK H PARENT
REMARK Flexibility Score: inf
ROOT
ATOM      1  C   UNL     1       3.243  27.139  58.687  1.00  0.00     0.048 C 
ATOM      2  C   UNL     1       3.450  27.754  57.330  1.00  0.00    -0.012 C 
ATOM      3  C   UNL     1       4.686  27.836  56.807  1.00  0.00    -0.019 C 
ATOM      4  C   UNL     1       4.954  28.514  55.489  1.00  0.00     0.036 C 
ATOM      5  C   UNL     1       3.742  28.393  54.545  1.00  0.00     0.025 C 
ATOM      6  C   UNL     1       2.473  28.931  55.232  1.00  0.00     0.089 C 
ATOM      7  C   UNL     1       2.288  28.292  56.581  1.00  0.00     0.158 C 
ATOM      8  O   UNL     1       1.137  28.260  57.092  1.00  0.00    -0.295 OA
ENDROOT
BRANCH   5   9
ATOM      9  C   UNL     1       3.996  29.086  53.213  1.00  0.00    -0.077 C 
ATOM     10  C   UNL     1       4.526  28.425  52.169  1.00  0.00     0.008 C 
ATOM     11  C   UNL     1       3.651  30.543  53.043  1.00  0.00     0.039 C 
ENDBRANCH   5   9
TORSDOF 1
ENDMDL
MODEL 6
REMARK VINA RESULT:    -4.534      1.460      2.308
REMARK INTER + INTRA:          -4.895
REMARK INTER:                  -4.798
REMARK INTRA:                  -0.097
REMARK UNBOUND:                -0.096
REMARK SMILES C=C(C)[C@H]1CC=C(C)C(=O)C1
REMARK SMILES IDX 8 1 7 2 6 3 5 4 4 5 11 6 9 7 10 8 2 9 1 10 3 11
REMARK H PARENT
REMARK Flexibility Score: inf
ROOT
ATOM      1  C   UNL     1      -0.321  29.207  55.485  1.00  0.00     0.048 C 
ATOM      2  C   UNL     1       1.024  28.870  56.067  1.00  0.00    -0.012 C 
ATOM      3  C   UNL     1       1.121  28.417  57.329  1.00  0.00    -0.019 C 
ATOM      4  C   UNL     1       2.450  28.142  57.982  1.00  0.00     0.036 C 
ATOM      5  C   UNL     1       3.501  27.708  56.942  1.00  0.00     0.025 C 
ATOM      6  C   UNL     1       3.606  28.756  55.817  1.00  0.00     0.089 C 
ATOM      7  C   UNL     1       2.248  29.064  55.250  1.00  0.00     0.158 C 
ATOM      8  O   UNL     1       2.163  29.535  54.085  1.00  0.00    -0.295 OA
ENDROOT
BRANCH   5   9
ATOM      9  C   UNL     1       4.854  27.440  57.588  1.00  0.00    -0.077 C 
ATOM     10  C   UNL     1       5.999  27.832  57.005  1.00  0.00     0.008 C 
ATOM     11  C   UNL     1       4.929  26.722  58.911  1.00  0.00     0.039 C 
ENDBRANCH   5   9
TORSDOF 1
ENDMDL
MODEL 7
REMARK VINA RESULT:    -4.479      8.253     10.676
REMARK INTER + INTRA:          -4.837
REMARK INTER:                  -4.742
REMARK INTRA:                  -0.094
REMARK UNBOUND:                -0.096
REMARK SMILES C=C(C)[C@H]1CC=C(C)C(=O)C1
REMARK SMILES IDX 8 1 7 2 6 3 5 4 4 5 11 6 9 7 10 8 2 9 1 10 3 11
REMARK H PARENT
REMARK Flexibility Score: inf
ROOT
ATOM      1  C   UNL     1      -4.341  31.271  59.910  1.00  0.00     0.048 C 
ATOM      2  C   UNL     1      -5.583  30.979  59.114  1.00  0.00    -0.012 C 
ATOM      3  C   UNL     1      -6.607  31.849  59.116  1.00  0.00    -0.019 C 
ATOM      4  C   UNL     1      -7.902  31.564  58.400  1.00  0.00     0.036 C 
ATOM      5  C   UNL     1      -7.669  30.675  57.163  1.00  0.00     0.025 C 
ATOM      6  C   UNL     1      -6.925  29.387  57.563  1.00  0.00     0.089 C 
ATOM      7  C   UNL     1      -5.684  29.712  58.348  1.00  0.00     0.158 C 
ATOM      8  O   UNL     1      -4.745  28.873  58.386  1.00  0.00    -0.295 OA
ENDROOT
BRANCH   5   9
ATOM      9  C   UNL     1      -8.973  30.369  56.439  1.00  0.00    -0.077 C 
ATOM     10  C   UNL     1      -9.878  31.330  56.188  1.00  0.00     0.008 C 
ATOM     11  C   UNL     1      -9.271  28.963  55.984  1.00  0.00     0.039 C 
ENDBRANCH   5   9
TORSDOF 1
ENDMDL
MODEL 8
REMARK VINA RESULT:    -4.434      8.302      9.999
REMARK INTER + INTRA:          -4.789
REMARK INTER:                  -4.692
REMARK INTRA:                  -0.097
REMARK UNBOUND:                -0.096
REMARK SMILES C=C(C)[C@H]1CC=C(C)C(=O)C1
REMARK SMILES IDX 8 1 7 2 6 3 5 4 4 5 11 6 9 7 10 8 2 9 1 10 3 11
REMARK H PARENT
REMARK Flexibility Score: inf
ROOT
ATOM      1  C   UNL     1      -4.743  31.346  59.766  1.00  0.00     0.048 C 
ATOM      2  C   UNL     1      -5.533  30.524  58.784  1.00  0.00    -0.012 C 
ATOM      3  C   UNL     1      -5.161  29.263  58.506  1.00  0.00    -0.019 C 
ATOM      4  C   UNL     1      -5.871  28.428  57.472  1.00  0.00     0.036 C 
ATOM      5  C   UNL     1      -7.359  28.816  57.371  1.00  0.00     0.025 C 
ATOM      6  C   UNL     1      -7.501  30.326  57.103  1.00  0.00     0.089 C 
ATOM      7  C   UNL     1      -6.709  31.120  58.104  1.00  0.00     0.158 C 
ATOM      8  O   UNL     1      -7.029  32.318  58.328  1.00  0.00    -0.295 OA
ENDROOT
BRANCH   5   9
ATOM      9  C   UNL     1      -8.085  27.988  56.319  1.00  0.00    -0.077 C 
ATOM     10  C   UNL     1      -9.365  28.234  55.994  1.00  0.00     0.008 C 
ATOM     11  C   UNL     1      -7.367  26.864  55.616  1.00  0.00     0.039 C 
ENDBRANCH   5   9
TORSDOF 1
ENDMDL
MODEL 9
REMARK VINA RESULT:    -4.241      8.173     10.948
REMARK INTER + INTRA:          -4.585
REMARK INTER:                  -4.492
REMARK INTRA:                  -0.093
REMARK UNBOUND:                -0.096
REMARK SMILES C=C(C)[C@H]1CC=C(C)C(=O)C1
REMARK SMILES IDX 8 1 7 2 6 3 5 4 4 5 11 6 9 7 10 8 2 9 1 10 3 11
REMARK H PARENT
REMARK Flexibility Score: inf
ROOT
ATOM      1  C   UNL     1      -4.871  28.502  58.249  1.00  0.00     0.048 C 
ATOM      2  C   UNL     1      -5.885  29.610  58.165  1.00  0.00    -0.012 C 
ATOM      3  C   UNL     1      -6.926  29.512  57.320  1.00  0.00    -0.019 C 
ATOM      4  C   UNL     1      -7.922  30.628  57.143  1.00  0.00     0.036 C 
ATOM      5  C   UNL     1      -8.078  31.445  58.440  1.00  0.00     0.025 C 
ATOM      6  C   UNL     1      -6.706  31.956  58.920  1.00  0.00     0.089 C 
ATOM      7  C   UNL     1      -5.717  30.824  59.001  1.00  0.00     0.158 C 
ATOM      8  O   UNL     1      -4.716  30.939  59.757  1.00  0.00    -0.295 OA
ENDROOT
BRANCH   5   9
ATOM      9  C   UNL     1      -9.073  32.586  58.269  1.00  0.00    -0.077 C 
ATOM     10  C   UNL     1      -8.820  33.618  57.447  1.00  0.00     0.008 C 
ATOM     11  C   UNL     1     -10.374  32.572  59.030  1.00  0.00     0.039 C 
ENDBRANCH   5   9
TORSDOF 1
ENDMDL
