MODEL 1
REMARK VINA RESULT:    -2.969      0.000      0.000
REMARK INTER + INTRA:          -3.348
REMARK INTER:                  -3.316
REMARK INTRA:                  -0.032
REMARK UNBOUND:                -0.032
REMARK SMILES CCCC(=O)[O-]
REMARK SMILES IDX 3 1 4 2 5 3 6 4 2 5 1 6
REMARK H PARENT
REMARK Flexibility Score: inf
ROOT
ATOM      1  C   UNL     1      15.516  51.145 159.927  1.00  0.00     0.052 C 
ENDROOT
BRANCH   1   2
ATOM      2  C   UNL     1      14.168  51.750 159.693  1.00  0.00     0.041 C 
ATOM      3  O   UNL     1      13.215  51.497 160.476  1.00  0.00    -0.550 OA
ATOM      4  O   UNL     1      13.975  52.632 158.637  1.00  0.00    -0.550 OA
ENDBRANCH   1   2
BRANCH   1   5
ATOM      5  C   UNL     1      16.528  51.688 158.914  1.00  0.00     0.003 C 
ATOM      6  C   UNL     1      17.367  52.808 159.521  1.00  0.00     0.004 C 
ENDBRANCH   1   5
TORSDOF 2
ENDMDL
MODEL 2
REMARK VINA RESULT:    -2.943      2.110      2.643
REMARK INTER + INTRA:          -3.319
REMARK INTER:                  -3.298
REMARK INTRA:                  -0.022
REMARK UNBOUND:                -0.032
REMARK SMILES CCCC(=O)[O-]
REMARK SMILES IDX 3 1 4 2 5 3 6 4 2 5 1 6
REMARK H PARENT
REMARK Flexibility Score: inf
ROOT
ATOM      1  C   UNL     1      15.263  52.420 158.612  1.00  0.00     0.052 C 
ENDROOT
BRANCH   1   2
ATOM      2  C   UNL     1      14.705  51.526 159.674  1.00  0.00     0.041 C 
ATOM      3  O   UNL     1      13.552  51.733 160.136  1.00  0.00    -0.550 OA
ATOM      4  O   UNL     1      15.439  50.434 160.120  1.00  0.00    -0.550 OA
ENDBRANCH   1   2
BRANCH   1   5
ATOM      5  C   UNL     1      14.134  53.017 157.767  1.00  0.00     0.003 C 
ATOM      6  C   UNL     1      14.292  52.644 156.296  1.00  0.00     0.004 C 
ENDBRANCH   1   5
TORSDOF 2
ENDMDL
MODEL 3
REMARK VINA RESULT:    -2.839      2.165      2.604
REMARK INTER + INTRA:          -3.203
REMARK INTER:                  -3.187
REMARK INTRA:                  -0.016
REMARK UNBOUND:                -0.032
REMARK SMILES CCCC(=O)[O-]
REMARK SMILES IDX 3 1 4 2 5 3 6 4 2 5 1 6
REMARK H PARENT
REMARK Flexibility Score: inf
ROOT
ATOM      1  C   UNL     1      14.429  52.237 158.950  1.00  0.00     0.052 C 
ENDROOT
BRANCH   1   2
ATOM      2  C   UNL     1      14.645  52.910 157.631  1.00  0.00     0.041 C 
ATOM      3  O   UNL     1      14.454  52.279 156.558  1.00  0.00    -0.550 OA
ATOM      4  O   UNL     1      15.013  54.249 157.586  1.00  0.00    -0.550 OA
ENDBRANCH   1   2
BRANCH   1   5
ATOM      5  C   UNL     1      15.771  51.909 159.610  1.00  0.00     0.003 C 
ATOM      6  C   UNL     1      15.864  50.428 159.961  1.00  0.00     0.004 C 
ENDBRANCH   1   5
TORSDOF 2
ENDMDL
MODEL 4
REMARK VINA RESULT:    -2.824      1.933      2.467
REMARK INTER + INTRA:          -3.186
REMARK INTER:                  -3.147
REMARK INTRA:                  -0.038
REMARK UNBOUND:                -0.032
REMARK SMILES CCCC(=O)[O-]
REMARK SMILES IDX 3 1 4 2 5 3 6 4 2 5 1 6
REMARK H PARENT
REMARK Flexibility Score: inf
ROOT
ATOM      1  C   UNL     1      14.367  52.227 159.183  1.00  0.00     0.052 C 
ENDROOT
BRANCH   1   2
ATOM      2  C   UNL     1      14.410  52.657 157.751  1.00  0.00     0.041 C 
ATOM      3  O   UNL     1      13.528  53.431 157.294  1.00  0.00    -0.550 OA
ATOM      4  O   UNL     1      15.452  52.241 156.932  1.00  0.00    -0.550 OA
ENDBRANCH   1   2
BRANCH   1   5
ATOM      5  C   UNL     1      15.769  51.852 159.672  1.00  0.00     0.003 C 
ATOM      6  C   UNL     1      15.867  50.360 159.970  1.00  0.00     0.004 C 
ENDBRANCH   1   5
TORSDOF 2
ENDMDL
MODEL 5
REMARK VINA RESULT:    -2.816      2.396      3.313
REMARK INTER + INTRA:          -3.177
REMARK INTER:                  -3.108
REMARK INTRA:                  -0.069
REMARK UNBOUND:                -0.032
REMARK SMILES CCCC(=O)[O-]
REMARK SMILES IDX 3 1 4 2 5 3 6 4 2 5 1 6
REMARK H PARENT
REMARK Flexibility Score: inf
ROOT
ATOM      1  C   UNL     1      16.147  51.348 159.326  1.00  0.00     0.052 C 
ENDROOT
BRANCH   1   2
ATOM      2  C   UNL     1      17.076  52.520 159.332  1.00  0.00     0.041 C 
ATOM      3  O   UNL     1      17.768  52.787 158.315  1.00  0.00    -0.550 OA
ATOM      4  O   UNL     1      17.144  53.348 160.446  1.00  0.00    -0.550 OA
ENDBRANCH   1   2
BRANCH   1   5
ATOM      5  C   UNL     1      14.701  51.811 159.530  1.00  0.00     0.003 C 
ATOM      6  C   UNL     1      14.226  52.664 158.359  1.00  0.00     0.004 C 
ENDBRANCH   1   5
TORSDOF 2
ENDMDL
MODEL 6
REMARK VINA RESULT:    -2.807      2.330      3.014
REMARK INTER + INTRA:          -3.167
REMARK INTER:                  -3.160
REMARK INTRA:                  -0.007
REMARK UNBOUND:                -0.032
REMARK SMILES CCCC(=O)[O-]
REMARK SMILES IDX 3 1 4 2 5 3 6 4 2 5 1 6
REMARK H PARENT
REMARK Flexibility Score: inf
ROOT
ATOM      1  C   UNL     1      14.339  52.238 159.055  1.00  0.00     0.052 C 
ENDROOT
BRANCH   1   2
ATOM      2  C   UNL     1      15.537  51.636 159.719  1.00  0.00     0.041 C 
ATOM      3  O   UNL     1      16.517  52.361 160.036  1.00  0.00    -0.550 OA
ATOM      4  O   UNL     1      15.552  50.283 160.033  1.00  0.00    -0.550 OA
ENDBRANCH   1   2
BRANCH   1   5
ATOM      5  C   UNL     1      14.707  52.770 157.667  1.00  0.00     0.003 C 
ATOM      6  C   UNL     1      13.528  53.491 157.023  1.00  0.00     0.004 C 
ENDBRANCH   1   5
TORSDOF 2
ENDMDL
MODEL 7
REMARK VINA RESULT:    -2.802      2.430      2.909
REMARK INTER + INTRA:          -3.162
REMARK INTER:                  -3.091
REMARK INTRA:                  -0.071
REMARK UNBOUND:                -0.032
REMARK SMILES CCCC(=O)[O-]
REMARK SMILES IDX 3 1 4 2 5 3 6 4 2 5 1 6
REMARK H PARENT
REMARK Flexibility Score: inf
ROOT
ATOM      1  C   UNL     1      14.730  51.871 159.256  1.00  0.00     0.052 C 
ENDROOT
BRANCH   1   2
ATOM      2  C   UNL     1      16.183  51.528 159.358  1.00  0.00     0.041 C 
ATOM      3  O   UNL     1      16.565  50.339 159.202  1.00  0.00    -0.550 OA
ATOM      4  O   UNL     1      17.120  52.530 159.578  1.00  0.00    -0.550 OA
ENDBRANCH   1   2
BRANCH   1   5
ATOM      5  C   UNL     1      14.502  52.914 158.158  1.00  0.00     0.003 C 
ATOM      6  C   UNL     1      14.889  52.364 156.788  1.00  0.00     0.004 C 
ENDBRANCH   1   5
TORSDOF 2
ENDMDL
MODEL 8
REMARK VINA RESULT:    -2.632      2.481      3.253
REMARK INTER + INTRA:          -2.971
REMARK INTER:                  -2.938
REMARK INTRA:                  -0.034
REMARK UNBOUND:                -0.032
REMARK SMILES CCCC(=O)[O-]
REMARK SMILES IDX 3 1 4 2 5 3 6 4 2 5 1 6
REMARK H PARENT
REMARK Flexibility Score: inf
ROOT
ATOM      1  C   UNL     1      15.770  52.539 158.658  1.00  0.00     0.052 C 
ENDROOT
BRANCH   1   2
ATOM      2  C   UNL     1      17.083  53.068 159.142  1.00  0.00     0.041 C 
ATOM      3  O   UNL     1      17.198  53.499 160.320  1.00  0.00    -0.550 OA
ATOM      4  O   UNL     1      18.194  53.041 158.308  1.00  0.00    -0.550 OA
ENDBRANCH   1   2
BRANCH   1   5
ATOM      5  C   UNL     1      15.086  51.718 159.755  1.00  0.00     0.003 C 
ATOM      6  C   UNL     1      15.792  50.382 159.963  1.00  0.00     0.004 C 
ENDBRANCH   1   5
TORSDOF 2
ENDMDL
MODEL 9
REMARK VINA RESULT:    -2.630     16.809     17.307
REMARK INTER + INTRA:          -2.969
REMARK INTER:                  -2.952
REMARK INTRA:                  -0.017
REMARK UNBOUND:                -0.032
REMARK SMILES CCCC(=O)[O-]
REMARK SMILES IDX 3 1 4 2 5 3 6 4 2 5 1 6
REMARK H PARENT
REMARK Flexibility Score: inf
ROOT
ATOM      1  C   UNL     1      15.771  63.322 171.155  1.00  0.00     0.052 C 
ENDROOT
BRANCH   1   2
ATOM      2  C   UNL     1      17.100  63.831 171.616  1.00  0.00     0.041 C 
ATOM      3  O   UNL     1      18.015  63.024 171.928  1.00  0.00    -0.550 OA
ATOM      4  O   UNL     1      17.345  65.198 171.655  1.00  0.00    -0.550 OA
ENDBRANCH   1   2
BRANCH   1   5
ATOM      5  C   UNL     1      14.783  64.480 170.987  1.00  0.00     0.003 C 
ATOM      6  C   UNL     1      13.408  64.113 171.536  1.00  0.00     0.004 C 
ENDBRANCH   1   5
TORSDOF 2
ENDMDL
