MODEL 1
REMARK VINA RESULT:    -3.930      0.000      0.000
REMARK INTER + INTRA:          -8.266
REMARK INTER:                  -7.376
REMARK INTRA:                  -0.889
REMARK UNBOUND:                -0.889
REMARK SMILES CCCCCCCCC=CCCCCCCCC(=O)[O-]
REMARK SMILES IDX 10 1 9 2 11 3 12 4 13 5 14 6 15 7 16 8 17 9 18 10 19 11
REMARK SMILES IDX 20 12 8 13 7 14 6 15 5 16 4 17 3 18 2 19 1 20
REMARK H PARENT
REMARK Flexibility Score: inf
ROOT
ATOM      1  C   UNL     1     121.167  70.084   0.566  1.00  0.00    -0.031 C 
ATOM      2  C   UNL     1     120.742  71.349   0.437  1.00  0.00    -0.031 C 
ENDROOT
BRANCH   1   3
ATOM      3  C   UNL     1     120.940  69.082  -0.534  1.00  0.00     0.027 C 
BRANCH   3   4
ATOM      4  C   UNL     1     120.508  67.726   0.033  1.00  0.00     0.004 C 
BRANCH   4   5
ATOM      5  C   UNL     1     119.914  66.833  -1.067  1.00  0.00     0.000 C 
BRANCH   5   6
ATOM      6  C   UNL     1     119.875  67.537  -2.435  1.00  0.00     0.000 C 
BRANCH   6   7
ATOM      7  C   UNL     1     120.109  66.560  -3.600  1.00  0.00     0.000 C 
BRANCH   7   8
ATOM      8  C   UNL     1     120.386  67.280  -4.930  1.00  0.00     0.006 C 
BRANCH   8   9
ATOM      9  C   UNL     1     120.343  68.808  -4.801  1.00  0.00     0.053 C 
BRANCH   9  10
ATOM     10  C   UNL     1     120.440  69.448  -6.150  1.00  0.00     0.041 C 
ATOM     11  O   UNL     1     120.141  70.662  -6.298  1.00  0.00    -0.550 OA
ATOM     12  O   UNL     1     120.906  68.716  -7.235  1.00  0.00    -0.550 OA
ENDBRANCH   9  10
ENDBRANCH   8   9
ENDBRANCH   7   8
ENDBRANCH   6   7
ENDBRANCH   5   6
ENDBRANCH   4   5
ENDBRANCH   3   4
ENDBRANCH   1   3
BRANCH   2  13
ATOM     13  C   UNL     1     120.940  72.367   1.529  1.00  0.00     0.027 C 
BRANCH  13  14
ATOM     14  C   UNL     1     120.467  71.863   2.901  1.00  0.00     0.004 C 
BRANCH  14  15
ATOM     15  C   UNL     1     121.586  71.914   3.955  1.00  0.00     0.000 C 
BRANCH  15  16
ATOM     16  C   UNL     1     121.333  70.955   5.129  1.00  0.00     0.000 C 
BRANCH  16  17
ATOM     17  C   UNL     1     119.981  71.209   5.818  1.00  0.00    -0.000 C 
BRANCH  17  18
ATOM     18  C   UNL     1     120.106  71.294   7.348  1.00  0.00    -0.000 C 
BRANCH  18  19
ATOM     19  C   UNL     1     120.290  72.736   7.844  1.00  0.00    -0.003 C 
ATOM     20  C   UNL     1     120.282  72.798   9.369  1.00  0.00     0.004 C 
ENDBRANCH  18  19
ENDBRANCH  17  18
ENDBRANCH  16  17
ENDBRANCH  15  16
ENDBRANCH  14  15
ENDBRANCH  13  14
ENDBRANCH   2  13
TORSDOF 15
ENDMDL
MODEL 2
REMARK VINA RESULT:    -3.482      5.487     11.540
REMARK INTER + INTRA:          -7.426
REMARK INTER:                  -6.785
REMARK INTRA:                  -0.640
REMARK UNBOUND:                -0.889
REMARK SMILES CCCCCCCCC=CCCCCCCCC(=O)[O-]
REMARK SMILES IDX 10 1 9 2 11 3 12 4 13 5 14 6 15 7 16 8 17 9 18 10 19 11
REMARK SMILES IDX 20 12 8 13 7 14 6 15 5 16 4 17 3 18 2 19 1 20
REMARK H PARENT
REMARK Flexibility Score: inf
ROOT
ATOM      1  C   UNL     1     120.020  70.903   0.285  1.00  0.00    -0.031 C 
ATOM      2  C   UNL     1     119.880  69.572   0.201  1.00  0.00    -0.031 C 
ENDROOT
BRANCH   1   3
ATOM      3  C   UNL     1     119.941  71.600   1.616  1.00  0.00     0.027 C 
BRANCH   3   4
ATOM      4  C   UNL     1     121.213  71.370   2.438  1.00  0.00     0.004 C 
BRANCH   4   5
ATOM      5  C   UNL     1     121.173  72.169   3.750  1.00  0.00     0.000 C 
BRANCH   5   6
ATOM      6  C   UNL     1     120.825  71.287   4.962  1.00  0.00     0.000 C 
BRANCH   6   7
ATOM      7  C   UNL     1     120.045  72.059   6.041  1.00  0.00     0.000 C 
BRANCH   7   8
ATOM      8  C   UNL     1     120.679  71.932   7.436  1.00  0.00     0.006 C 
BRANCH   8   9
ATOM      9  C   UNL     1     120.319  73.101   8.362  1.00  0.00     0.053 C 
BRANCH   9  10
ATOM     10  C   UNL     1     120.115  72.613   9.761  1.00  0.00     0.041 C 
ATOM     11  O   UNL     1     119.875  73.430  10.689  1.00  0.00    -0.550 OA
ATOM     12  O   UNL     1     120.142  71.250  10.034  1.00  0.00    -0.550 OA
ENDBRANCH   9  10
ENDBRANCH   8   9
ENDBRANCH   7   8
ENDBRANCH   6   7
ENDBRANCH   5   6
ENDBRANCH   4   5
ENDBRANCH   3   4
ENDBRANCH   1   3
BRANCH   2  13
ATOM     13  C   UNL     1     119.936  68.851  -1.120  1.00  0.00     0.027 C 
BRANCH  13  14
ATOM     14  C   UNL     1     120.481  69.734  -2.253  1.00  0.00     0.004 C 
BRANCH  14  15
ATOM     15  C   UNL     1     119.900  69.343  -3.623  1.00  0.00     0.000 C 
BRANCH  15  16
ATOM     16  C   UNL     1     120.575  70.091  -4.784  1.00  0.00     0.000 C 
BRANCH  16  17
ATOM     17  C   UNL     1     120.559  69.285  -6.095  1.00  0.00    -0.000 C 
BRANCH  17  18
ATOM     18  C   UNL     1     120.661  67.769  -5.855  1.00  0.00    -0.000 C 
BRANCH  18  19
ATOM     19  C   UNL     1     120.480  66.956  -7.144  1.00  0.00    -0.003 C 
ATOM     20  C   UNL     1     121.517  67.348  -8.192  1.00  0.00     0.004 C 
ENDBRANCH  18  19
ENDBRANCH  17  18
ENDBRANCH  16  17
ENDBRANCH  15  16
ENDBRANCH  14  15
ENDBRANCH  13  14
ENDBRANCH   2  13
TORSDOF 15
ENDMDL
MODEL 3
REMARK VINA RESULT:    -3.325      2.017      2.549
REMARK INTER + INTRA:          -7.131
REMARK INTER:                  -6.668
REMARK INTRA:                  -0.462
REMARK UNBOUND:                -0.889
REMARK SMILES CCCCCCCCC=CCCCCCCCC(=O)[O-]
REMARK SMILES IDX 10 1 9 2 11 3 12 4 13 5 14 6 15 7 16 8 17 9 18 10 19 11
REMARK SMILES IDX 20 12 8 13 7 14 6 15 5 16 4 17 3 18 2 19 1 20
REMARK H PARENT
REMARK Flexibility Score: inf
ROOT
ATOM      1  C   UNL     1     120.691  71.268   0.353  1.00  0.00    -0.031 C 
ATOM      2  C   UNL     1     120.138  71.832   1.436  1.00  0.00    -0.031 C 
ENDROOT
BRANCH   1   3
ATOM      3  C   UNL     1     119.965  70.190  -0.405  1.00  0.00     0.027 C 
BRANCH   3   4
ATOM      4  C   UNL     1     120.917  69.431  -1.336  1.00  0.00     0.004 C 
BRANCH   4   5
ATOM      5  C   UNL     1     120.258  69.164  -2.698  1.00  0.00     0.000 C 
BRANCH   5   6
ATOM      6  C   UNL     1     120.240  67.668  -3.056  1.00  0.00     0.000 C 
BRANCH   6   7
ATOM      7  C   UNL     1     119.875  67.426  -4.532  1.00  0.00     0.000 C 
BRANCH   7   8
ATOM      8  C   UNL     1     120.241  66.011  -5.008  1.00  0.00     0.006 C 
BRANCH   8   9
ATOM      9  C   UNL     1     121.367  66.006  -6.051  1.00  0.00     0.053 C 
BRANCH   9  10
ATOM     10  C   UNL     1     120.917  65.315  -7.299  1.00  0.00     0.041 C 
ATOM     11  O   UNL     1     119.898  64.575  -7.282  1.00  0.00    -0.550 OA
ATOM     12  O   UNL     1     121.594  65.526  -8.495  1.00  0.00    -0.550 OA
ENDBRANCH   9  10
ENDBRANCH   8   9
ENDBRANCH   7   8
ENDBRANCH   6   7
ENDBRANCH   5   6
ENDBRANCH   4   5
ENDBRANCH   3   4
ENDBRANCH   1   3
BRANCH   2  13
ATOM     13  C   UNL     1     120.850  72.899   2.225  1.00  0.00     0.027 C 
BRANCH  13  14
ATOM     14  C   UNL     1     121.145  72.470   3.670  1.00  0.00     0.004 C 
BRANCH  14  15
ATOM     15  C   UNL     1     119.875  72.440   4.537  1.00  0.00     0.000 C 
BRANCH  15  16
ATOM     16  C   UNL     1     120.071  73.137   5.893  1.00  0.00     0.000 C 
BRANCH  16  17
ATOM     17  C   UNL     1     120.107  72.143   7.068  1.00  0.00    -0.000 C 
BRANCH  17  18
ATOM     18  C   UNL     1     120.586  72.793   8.376  1.00  0.00    -0.000 C 
BRANCH  18  19
ATOM     19  C   UNL     1     120.617  71.804   9.549  1.00  0.00    -0.003 C 
ATOM     20  C   UNL     1     119.952  70.483   9.172  1.00  0.00     0.004 C 
ENDBRANCH  18  19
ENDBRANCH  17  18
ENDBRANCH  16  17
ENDBRANCH  15  16
ENDBRANCH  14  15
ENDBRANCH  13  14
ENDBRANCH   2  13
TORSDOF 15
ENDMDL
MODEL 4
REMARK VINA RESULT:    -3.251      1.216      2.367
REMARK INTER + INTRA:          -6.991
REMARK INTER:                  -5.957
REMARK INTRA:                  -1.034
REMARK UNBOUND:                -0.889
REMARK SMILES CCCCCCCCC=CCCCCCCCC(=O)[O-]
REMARK SMILES IDX 10 1 9 2 11 3 12 4 13 5 14 6 15 7 16 8 17 9 18 10 19 11
REMARK SMILES IDX 20 12 8 13 7 14 6 15 5 16 4 17 3 18 2 19 1 20
REMARK H PARENT
REMARK Flexibility Score: inf
ROOT
ATOM      1  C   UNL     1     121.277  72.464   2.009  1.00  0.00    -0.031 C 
ATOM      2  C   UNL     1     120.238  72.682   2.828  1.00  0.00    -0.031 C 
ENDROOT
BRANCH   1   3
ATOM      3  C   UNL     1     121.085  71.751   0.698  1.00  0.00     0.027 C 
BRANCH   3   4
ATOM      4  C   UNL     1     119.886  70.799   0.756  1.00  0.00     0.004 C 
BRANCH   4   5
ATOM      5  C   UNL     1     120.337  69.336   0.615  1.00  0.00     0.000 C 
BRANCH   5   6
ATOM      6  C   UNL     1     121.001  69.057  -0.744  1.00  0.00     0.000 C 
BRANCH   6   7
ATOM      7  C   UNL     1     119.971  68.740  -1.842  1.00  0.00     0.000 C 
BRANCH   7   8
ATOM      8  C   UNL     1     120.248  69.498  -3.151  1.00  0.00     0.006 C 
BRANCH   8   9
ATOM      9  C   UNL     1     119.990  68.644  -4.400  1.00  0.00     0.053 C 
BRANCH   9  10
ATOM     10  C   UNL     1     120.700  69.223  -5.582  1.00  0.00     0.041 C 
ATOM     11  O   UNL     1     120.951  68.504  -6.585  1.00  0.00    -0.550 OA
ATOM     12  O   UNL     1     121.043  70.570  -5.597  1.00  0.00    -0.550 OA
ENDBRANCH   9  10
ENDBRANCH   8   9
ENDBRANCH   7   8
ENDBRANCH   6   7
ENDBRANCH   5   6
ENDBRANCH   4   5
ENDBRANCH   3   4
ENDBRANCH   1   3
BRANCH   2  13
ATOM     13  C   UNL     1     120.407  73.376   4.154  1.00  0.00     0.027 C 
BRANCH  13  14
ATOM     14  C   UNL     1     119.877  72.542   5.330  1.00  0.00     0.004 C 
BRANCH  14  15
ATOM     15  C   UNL     1     120.789  71.346   5.650  1.00  0.00     0.000 C 
BRANCH  15  16
ATOM     16  C   UNL     1     120.173  70.398   6.692  1.00  0.00     0.000 C 
BRANCH  16  17
ATOM     17  C   UNL     1     119.879  71.103   8.029  1.00  0.00    -0.000 C 
BRANCH  17  18
ATOM     18  C   UNL     1     121.151  71.649   8.699  1.00  0.00    -0.000 C 
BRANCH  18  19
ATOM     19  C   UNL     1     121.182  73.183   8.742  1.00  0.00    -0.003 C 
ATOM     20  C   UNL     1     120.087  73.730   9.654  1.00  0.00     0.004 C 
ENDBRANCH  18  19
ENDBRANCH  17  18
ENDBRANCH  16  17
ENDBRANCH  15  16
ENDBRANCH  14  15
ENDBRANCH  13  14
ENDBRANCH   2  13
TORSDOF 15
ENDMDL
MODEL 5
REMARK VINA RESULT:    -3.103      4.976     10.924
REMARK INTER + INTRA:          -6.713
REMARK INTER:                  -6.144
REMARK INTRA:                  -0.569
REMARK UNBOUND:                -0.889
REMARK SMILES CCCCCCCCC=CCCCCCCCC(=O)[O-]
REMARK SMILES IDX 10 1 9 2 11 3 12 4 13 5 14 6 15 7 16 8 17 9 18 10 19 11
REMARK SMILES IDX 20 12 8 13 7 14 6 15 5 16 4 17 3 18 2 19 1 20
REMARK H PARENT
REMARK Flexibility Score: inf
ROOT
ATOM      1  C   UNL     1     121.151  69.637   0.180  1.00  0.00    -0.031 C 
ATOM      2  C   UNL     1     120.339  69.947  -0.841  1.00  0.00    -0.031 C 
ENDROOT
BRANCH   1   3
ATOM      3  C   UNL     1     121.423  70.633   1.274  1.00  0.00     0.027 C 
BRANCH   3   4
ATOM      4  C   UNL     1     121.187  72.067   0.789  1.00  0.00     0.004 C 
BRANCH   4   5
ATOM      5  C   UNL     1     119.907  72.653   1.405  1.00  0.00     0.000 C 
BRANCH   5   6
ATOM      6  C   UNL     1     120.116  73.118   2.857  1.00  0.00     0.000 C 
BRANCH   6   7
ATOM      7  C   UNL     1     119.945  71.971   3.867  1.00  0.00     0.000 C 
BRANCH   7   8
ATOM      8  C   UNL     1     120.009  72.451   5.326  1.00  0.00     0.006 C 
BRANCH   8   9
ATOM      9  C   UNL     1     120.505  71.364   6.290  1.00  0.00     0.053 C 
BRANCH   9  10
ATOM     10  C   UNL     1     120.299  71.793   7.708  1.00  0.00     0.041 C 
ATOM     11  O   UNL     1     120.279  70.937   8.632  1.00  0.00    -0.550 OA
ATOM     12  O   UNL     1     120.177  73.143   8.017  1.00  0.00    -0.550 OA
ENDBRANCH   9  10
ENDBRANCH   8   9
ENDBRANCH   7   8
ENDBRANCH   6   7
ENDBRANCH   5   6
ENDBRANCH   4   5
ENDBRANCH   3   4
ENDBRANCH   1   3
BRANCH   2  13
ATOM     13  C   UNL     1     120.064  68.976  -1.959  1.00  0.00     0.027 C 
BRANCH  13  14
ATOM     14  C   UNL     1     119.923  69.667  -3.323  1.00  0.00     0.004 C 
BRANCH  14  15
ATOM     15  C   UNL     1     120.193  68.705  -4.492  1.00  0.00     0.000 C 
BRANCH  15  16
ATOM     16  C   UNL     1     119.876  67.243  -4.137  1.00  0.00     0.000 C 
BRANCH  16  17
ATOM     17  C   UNL     1     120.447  66.249  -5.164  1.00  0.00    -0.000 C 
BRANCH  17  18
ATOM     18  C   UNL     1     120.916  66.940  -6.455  1.00  0.00    -0.000 C 
BRANCH  18  19
ATOM     19  C   UNL     1     121.297  65.939  -7.554  1.00  0.00    -0.003 C 
ATOM     20  C   UNL     1     120.766  64.544  -7.235  1.00  0.00     0.004 C 
ENDBRANCH  18  19
ENDBRANCH  17  18
ENDBRANCH  16  17
ENDBRANCH  15  16
ENDBRANCH  14  15
ENDBRANCH  13  14
ENDBRANCH   2  13
TORSDOF 15
ENDMDL
MODEL 6
REMARK VINA RESULT:    -2.250      1.589      2.234
REMARK INTER + INTRA:          -5.112
REMARK INTER:                  -4.281
REMARK INTRA:                  -0.831
REMARK UNBOUND:                -0.889
REMARK SMILES CCCCCCCCC=CCCCCCCCC(=O)[O-]
REMARK SMILES IDX 10 1 9 2 11 3 12 4 13 5 14 6 15 7 16 8 17 9 18 10 19 11
REMARK SMILES IDX 20 12 8 13 7 14 6 15 5 16 4 17 3 18 2 19 1 20
REMARK H PARENT
REMARK Flexibility Score: inf
ROOT
ATOM      1  C   UNL     1     120.832  69.905   0.226  1.00  0.00    -0.031 C 
ATOM      2  C   UNL     1     120.470  71.190   0.358  1.00  0.00    -0.031 C 
ENDROOT
BRANCH   1   3
ATOM      3  C   UNL     1     120.328  69.082  -0.928  1.00  0.00     0.027 C 
BRANCH   3   4
ATOM      4  C   UNL     1     119.929  69.970  -2.111  1.00  0.00     0.004 C 
BRANCH   4   5
ATOM      5  C   UNL     1     119.925  69.170  -3.423  1.00  0.00     0.000 C 
BRANCH   5   6
ATOM      6  C   UNL     1     120.709  69.876  -4.542  1.00  0.00     0.000 C 
BRANCH   6   7
ATOM      7  C   UNL     1     120.412  69.280  -5.929  1.00  0.00     0.000 C 
BRANCH   7   8
ATOM      8  C   UNL     1     120.086  67.778  -5.871  1.00  0.00     0.006 C 
BRANCH   8   9
ATOM      9  C   UNL     1     121.208  66.903  -6.445  1.00  0.00     0.053 C 
BRANCH   9  10
ATOM     10  C   UNL     1     121.230  66.997  -7.938  1.00  0.00     0.041 C 
ATOM     11  O   UNL     1     122.144  67.639  -8.519  1.00  0.00    -0.550 OA
ATOM     12  O   UNL     1     120.266  66.337  -8.691  1.00  0.00    -0.550 OA
ENDBRANCH   9  10
ENDBRANCH   8   9
ENDBRANCH   7   8
ENDBRANCH   6   7
ENDBRANCH   5   6
ENDBRANCH   4   5
ENDBRANCH   3   4
ENDBRANCH   1   3
BRANCH   2  13
ATOM     13  C   UNL     1     120.945  72.031   1.514  1.00  0.00     0.027 C 
BRANCH  13  14
ATOM     14  C   UNL     1     119.875  72.201   2.602  1.00  0.00     0.004 C 
BRANCH  14  15
ATOM     15  C   UNL     1     119.875  71.033   3.603  1.00  0.00     0.000 C 
BRANCH  15  16
ATOM     16  C   UNL     1     120.983  71.163   4.661  1.00  0.00     0.000 C 
BRANCH  16  17
ATOM     17  C   UNL     1     120.423  71.275   6.090  1.00  0.00    -0.000 C 
BRANCH  17  18
ATOM     18  C   UNL     1     120.272  72.734   6.551  1.00  0.00    -0.000 C 
BRANCH  18  19
ATOM     19  C   UNL     1     120.242  72.869   8.080  1.00  0.00    -0.003 C 
ATOM     20  C   UNL     1     120.206  71.499   8.752  1.00  0.00     0.004 C 
ENDBRANCH  18  19
ENDBRANCH  17  18
ENDBRANCH  16  17
ENDBRANCH  15  16
ENDBRANCH  14  15
ENDBRANCH  13  14
ENDBRANCH   2  13
TORSDOF 15
ENDMDL
