MODEL 1
REMARK VINA RESULT:    -4.394      0.000      0.000
REMARK INTER + INTRA:          -4.815
REMARK INTER:                  -4.780
REMARK INTRA:                  -0.035
REMARK UNBOUND:                -0.035
REMARK SMILES COc1ccccc1O
REMARK SMILES IDX 3 1 4 2 5 3 6 4 7 5 8 6 2 7 1 8 9 9
REMARK H PARENT 9 10
REMARK Flexibility Score: inf
ROOT
ATOM      1  C   UNL     1       7.691 -30.157 -19.714  1.00  0.00     0.160 A 
ATOM      2  C   UNL     1       7.923 -30.886 -20.898  1.00  0.00     0.050 A 
ATOM      3  C   UNL     1       7.965 -32.282 -20.870  1.00  0.00     0.004 A 
ATOM      4  C   UNL     1       7.779 -32.965 -19.668  1.00  0.00     0.004 A 
ATOM      5  C   UNL     1       7.549 -32.253 -18.488  1.00  0.00     0.050 A 
ATOM      6  C   UNL     1       7.505 -30.854 -18.504  1.00  0.00     0.157 A 
ENDROOT
BRANCH   1   7
ATOM      7  O   UNL     1       7.640 -28.753 -19.704  1.00  0.00    -0.493 OA
ATOM      8  C   UNL     1       6.803 -27.969 -20.548  1.00  0.00     0.278 C 
ENDBRANCH   1   7
BRANCH   6   9
ATOM      9  O   UNL     1       7.273 -30.174 -17.309  1.00  0.00    -0.504 OA
ATOM     10  H   UNL     1       7.084 -29.180 -17.282  1.00  0.00     0.293 HD
ENDBRANCH   6   9
TORSDOF 2
ENDMDL
MODEL 2
REMARK VINA RESULT:    -4.357      1.250      1.357
REMARK INTER + INTRA:          -4.774
REMARK INTER:                  -4.743
REMARK INTRA:                  -0.031
REMARK UNBOUND:                -0.035
REMARK SMILES COc1ccccc1O
REMARK SMILES IDX 3 1 4 2 5 3 6 4 7 5 8 6 2 7 1 8 9 9
REMARK H PARENT 9 10
REMARK Flexibility Score: inf
ROOT
ATOM      1  C   UNL     1       8.044 -30.348 -18.985  1.00  0.00     0.160 A 
ATOM      2  C   UNL     1       8.848 -30.373 -20.143  1.00  0.00     0.050 A 
ATOM      3  C   UNL     1       8.894 -31.516 -20.946  1.00  0.00     0.004 A 
ATOM      4  C   UNL     1       8.143 -32.642 -20.605  1.00  0.00     0.004 A 
ATOM      5  C   UNL     1       7.344 -32.629 -19.460  1.00  0.00     0.050 A 
ATOM      6  C   UNL     1       7.290 -31.489 -18.648  1.00  0.00     0.157 A 
ENDROOT
BRANCH   1   7
ATOM      7  O   UNL     1       7.972 -29.217 -18.155  1.00  0.00    -0.493 OA
ATOM      8  C   UNL     1       7.869 -27.876 -18.624  1.00  0.00     0.278 C 
ENDBRANCH   1   7
BRANCH   6   9
ATOM      9  O   UNL     1       6.482 -31.509 -17.512  1.00  0.00    -0.504 OA
ATOM     10  H   UNL     1       5.564 -31.081 -17.495  1.00  0.00     0.293 HD
ENDBRANCH   6   9
TORSDOF 2
ENDMDL
MODEL 3
REMARK VINA RESULT:    -4.129      2.148      3.582
REMARK INTER + INTRA:          -4.526
REMARK INTER:                  -4.499
REMARK INTRA:                  -0.027
REMARK UNBOUND:                -0.035
REMARK SMILES COc1ccccc1O
REMARK SMILES IDX 3 1 4 2 5 3 6 4 7 5 8 6 2 7 1 8 9 9
REMARK H PARENT 9 10
REMARK Flexibility Score: inf
ROOT
ATOM      1  C   UNL     1       8.843 -32.346 -17.874  1.00  0.00     0.160 A 
ATOM      2  C   UNL     1       9.856 -32.858 -18.711  1.00  0.00     0.050 A 
ATOM      3  C   UNL     1       9.644 -32.969 -20.088  1.00  0.00     0.004 A 
ATOM      4  C   UNL     1       8.427 -32.575 -20.644  1.00  0.00     0.004 A 
ATOM      5  C   UNL     1       7.416 -32.066 -19.825  1.00  0.00     0.050 A 
ATOM      6  C   UNL     1       7.617 -31.950 -18.444  1.00  0.00     0.157 A 
ENDROOT
BRANCH   1   7
ATOM      7  O   UNL     1       9.019 -32.218 -16.487  1.00  0.00    -0.493 OA
ATOM      8  C   UNL     1       9.869 -33.047 -15.701  1.00  0.00     0.278 C 
ENDBRANCH   1   7
BRANCH   6   9
ATOM      9  O   UNL     1       6.587 -31.438 -17.655  1.00  0.00    -0.504 OA
ATOM     10  H   UNL     1       6.266 -31.906 -16.817  1.00  0.00     0.293 HD
ENDBRANCH   6   9
TORSDOF 2
ENDMDL
MODEL 4
REMARK VINA RESULT:    -4.072      1.036      2.616
REMARK INTER + INTRA:          -4.464
REMARK INTER:                  -4.421
REMARK INTRA:                  -0.043
REMARK UNBOUND:                -0.035
REMARK SMILES COc1ccccc1O
REMARK SMILES IDX 3 1 4 2 5 3 6 4 7 5 8 6 2 7 1 8 9 9
REMARK H PARENT 9 10
REMARK Flexibility Score: inf
ROOT
ATOM      1  C   UNL     1       7.872 -31.001 -18.316  1.00  0.00     0.160 A 
ATOM      2  C   UNL     1       8.320 -32.338 -18.335  1.00  0.00     0.050 A 
ATOM      3  C   UNL     1       8.424 -33.030 -19.544  1.00  0.00     0.004 A 
ATOM      4  C   UNL     1       8.084 -32.402 -20.743  1.00  0.00     0.004 A 
ATOM      5  C   UNL     1       7.639 -31.078 -20.736  1.00  0.00     0.050 A 
ATOM      6  C   UNL     1       7.530 -30.374 -19.530  1.00  0.00     0.157 A 
ENDROOT
BRANCH   1   7
ATOM      7  O   UNL     1       7.755 -30.273 -17.120  1.00  0.00    -0.493 OA
ATOM      8  C   UNL     1       8.819 -29.552 -16.507  1.00  0.00     0.278 C 
ENDBRANCH   1   7
BRANCH   6   9
ATOM      9  O   UNL     1       7.083 -29.054 -19.559  1.00  0.00    -0.504 OA
ATOM     10  H   UNL     1       6.965 -28.543 -20.425  1.00  0.00     0.293 HD
ENDBRANCH   6   9
TORSDOF 2
ENDMDL
MODEL 5
REMARK VINA RESULT:    -4.061      9.308     10.171
REMARK INTER + INTRA:          -4.453
REMARK INTER:                  -4.406
REMARK INTRA:                  -0.046
REMARK UNBOUND:                -0.035
REMARK SMILES COc1ccccc1O
REMARK SMILES IDX 3 1 4 2 5 3 6 4 7 5 8 6 2 7 1 8 9 9
REMARK H PARENT 9 10
REMARK Flexibility Score: inf
ROOT
ATOM      1  C   UNL     1       7.847 -24.730 -12.154  1.00  0.00     0.160 A 
ATOM      2  C   UNL     1       9.175 -25.201 -12.204  1.00  0.00     0.050 A 
ATOM      3  C   UNL     1       9.840 -25.561 -11.030  1.00  0.00     0.004 A 
ATOM      4  C   UNL     1       9.193 -25.457  -9.797  1.00  0.00     0.004 A 
ATOM      5  C   UNL     1       7.877 -24.992  -9.736  1.00  0.00     0.050 A 
ATOM      6  C   UNL     1       7.201 -24.628 -10.907  1.00  0.00     0.157 A 
ENDROOT
BRANCH   1   7
ATOM      7  O   UNL     1       7.146 -24.359 -13.314  1.00  0.00    -0.493 OA
ATOM      8  C   UNL     1       7.289 -23.107 -13.978  1.00  0.00     0.278 C 
ENDBRANCH   1   7
BRANCH   6   9
ATOM      9  O   UNL     1       5.888 -24.167 -10.810  1.00  0.00    -0.504 OA
ATOM     10  H   UNL     1       5.172 -24.680 -10.310  1.00  0.00     0.293 HD
ENDBRANCH   6   9
TORSDOF 2
ENDMDL
MODEL 6
REMARK VINA RESULT:    -4.015      2.966      4.382
REMARK INTER + INTRA:          -4.402
REMARK INTER:                  -4.377
REMARK INTRA:                  -0.025
REMARK UNBOUND:                -0.035
REMARK SMILES COc1ccccc1O
REMARK SMILES IDX 3 1 4 2 5 3 6 4 7 5 8 6 2 7 1 8 9 9
REMARK H PARENT 9 10
REMARK Flexibility Score: inf
ROOT
ATOM      1  C   UNL     1       9.434 -32.940 -18.604  1.00  0.00     0.160 A 
ATOM      2  C   UNL     1       8.223 -32.258 -18.366  1.00  0.00     0.050 A 
ATOM      3  C   UNL     1       7.486 -31.737 -19.432  1.00  0.00     0.004 A 
ATOM      4  C   UNL     1       7.945 -31.887 -20.742  1.00  0.00     0.004 A 
ATOM      5  C   UNL     1       9.143 -32.560 -20.989  1.00  0.00     0.050 A 
ATOM      6  C   UNL     1       9.890 -33.087 -19.929  1.00  0.00     0.157 A 
ENDROOT
BRANCH   1   7
ATOM      7  O   UNL     1      10.202 -33.479 -17.558  1.00  0.00    -0.493 OA
ATOM      8  C   UNL     1       9.991 -33.203 -16.177  1.00  0.00     0.278 C 
ENDBRANCH   1   7
BRANCH   6   9
ATOM      9  O   UNL     1      11.082 -33.754 -20.211  1.00  0.00    -0.504 OA
ATOM     10  H   UNL     1      11.200 -34.318 -21.044  1.00  0.00     0.293 HD
ENDBRANCH   6   9
TORSDOF 2
ENDMDL
MODEL 7
REMARK VINA RESULT:    -4.011     12.457     13.310
REMARK INTER + INTRA:          -4.397
REMARK INTER:                  -4.352
REMARK INTRA:                  -0.045
REMARK UNBOUND:                -0.035
REMARK SMILES COc1ccccc1O
REMARK SMILES IDX 3 1 4 2 5 3 6 4 7 5 8 6 2 7 1 8 9 9
REMARK H PARENT 9 10
REMARK Flexibility Score: inf
ROOT
ATOM      1  C   UNL     1      18.888 -27.553 -23.225  1.00  0.00     0.160 A 
ATOM      2  C   UNL     1      17.892 -26.664 -23.678  1.00  0.00     0.050 A 
ATOM      3  C   UNL     1      18.220 -25.623 -24.551  1.00  0.00     0.004 A 
ATOM      4  C   UNL     1      19.537 -25.456 -24.979  1.00  0.00     0.004 A 
ATOM      5  C   UNL     1      20.532 -26.331 -24.536  1.00  0.00     0.050 A 
ATOM      6  C   UNL     1      20.215 -27.378 -23.662  1.00  0.00     0.157 A 
ENDROOT
BRANCH   1   7
ATOM      7  O   UNL     1      18.596 -28.612 -22.349  1.00  0.00    -0.493 OA
ATOM      8  C   UNL     1      18.524 -28.490 -20.932  1.00  0.00     0.278 C 
ENDBRANCH   1   7
BRANCH   6   9
ATOM      9  O   UNL     1      21.232 -28.233 -23.239  1.00  0.00    -0.504 OA
ATOM     10  H   UNL     1      21.550 -29.013 -23.802  1.00  0.00     0.293 HD
ENDBRANCH   6   9
TORSDOF 2
ENDMDL
MODEL 8
REMARK VINA RESULT:    -3.993     15.048     16.254
REMARK INTER + INTRA:          -4.378
REMARK INTER:                  -4.333
REMARK INTRA:                  -0.046
REMARK UNBOUND:                -0.035
REMARK SMILES COc1ccccc1O
REMARK SMILES IDX 3 1 4 2 5 3 6 4 7 5 8 6 2 7 1 8 9 9
REMARK H PARENT 9 10
REMARK Flexibility Score: inf
ROOT
ATOM      1  C   UNL     1      14.268 -37.476  -7.041  1.00  0.00     0.160 A 
ATOM      2  C   UNL     1      14.185 -36.241  -7.715  1.00  0.00     0.050 A 
ATOM      3  C   UNL     1      14.284 -35.041  -7.005  1.00  0.00     0.004 A 
ATOM      4  C   UNL     1      14.465 -35.058  -5.622  1.00  0.00     0.004 A 
ATOM      5  C   UNL     1      14.549 -36.276  -4.943  1.00  0.00     0.050 A 
ATOM      6  C   UNL     1      14.451 -37.484  -5.644  1.00  0.00     0.157 A 
ENDROOT
BRANCH   1   7
ATOM      7  O   UNL     1      14.175 -38.702  -7.721  1.00  0.00    -0.493 OA
ATOM      8  C   UNL     1      12.951 -39.338  -8.072  1.00  0.00     0.278 C 
ENDBRANCH   1   7
BRANCH   6   9
ATOM      9  O   UNL     1      14.540 -38.682  -4.936  1.00  0.00    -0.504 OA
ATOM     10  H   UNL     1      13.891 -39.446  -5.085  1.00  0.00     0.293 HD
ENDBRANCH   6   9
TORSDOF 2
ENDMDL
MODEL 9
REMARK VINA RESULT:    -3.983     15.078     16.297
REMARK INTER + INTRA:          -4.368
REMARK INTER:                  -4.335
REMARK INTRA:                  -0.032
REMARK UNBOUND:                -0.035
REMARK SMILES COc1ccccc1O
REMARK SMILES IDX 3 1 4 2 5 3 6 4 7 5 8 6 2 7 1 8 9 9
REMARK H PARENT 9 10
REMARK Flexibility Score: inf
ROOT
ATOM      1  C   UNL     1      14.430 -37.586  -6.379  1.00  0.00     0.160 A 
ATOM      2  C   UNL     1      14.294 -37.046  -7.674  1.00  0.00     0.050 A 
ATOM      3  C   UNL     1      13.750 -37.815  -8.706  1.00  0.00     0.004 A 
ATOM      4  C   UNL     1      13.337 -39.125  -8.461  1.00  0.00     0.004 A 
ATOM      5  C   UNL     1      13.468 -39.671  -7.182  1.00  0.00     0.050 A 
ATOM      6  C   UNL     1      14.011 -38.910  -6.140  1.00  0.00     0.157 A 
ENDROOT
BRANCH   1   7
ATOM      7  O   UNL     1      14.971 -36.844  -5.317  1.00  0.00    -0.493 OA
ATOM      8  C   UNL     1      14.592 -35.511  -4.988  1.00  0.00     0.278 C 
ENDBRANCH   1   7
BRANCH   6   9
ATOM      9  O   UNL     1      14.127 -39.485  -4.875  1.00  0.00    -0.504 OA
ATOM     10  H   UNL     1      13.674 -40.359  -4.636  1.00  0.00     0.293 HD
ENDBRANCH   6   9
TORSDOF 2
ENDMDL
