MODEL 1
REMARK VINA RESULT:    -7.240      0.000      0.000
REMARK INTER + INTRA:         -14.968
REMARK INTER:                 -14.013
REMARK INTRA:                  -0.955
REMARK UNBOUND:                -0.955
REMARK SMILES CCCCCCCCCCCCCCCCCC(=O)[O-]
REMARK SMILES IDX 10 1 11 2 12 3 13 4 14 5 15 6 16 7 17 8 18 9 19 10 20 11
REMARK SMILES IDX 9 12 8 13 7 14 6 15 5 16 4 17 3 18 2 19 1 20
REMARK H PARENT
REMARK Flexibility Score: inf
ROOT
ATOM      1  C   UNL     1     -21.901 -20.439  30.803  1.00  0.00     0.000 C 
ENDROOT
BRANCH   1   2
ATOM      2  C   UNL     1     -21.656 -21.725  31.613  1.00  0.00     0.000 C 
BRANCH   2   3
ATOM      3  C   UNL     1     -22.931 -22.562  31.809  1.00  0.00     0.000 C 
BRANCH   3   4
ATOM      4  C   UNL     1     -22.839 -23.947  31.134  1.00  0.00     0.000 C 
BRANCH   4   5
ATOM      5  C   UNL     1     -22.616 -23.882  29.610  1.00  0.00     0.000 C 
BRANCH   5   6
ATOM      6  C   UNL     1     -23.218 -25.056  28.813  1.00  0.00     0.000 C 
BRANCH   6   7
ATOM      7  C   UNL     1     -23.838 -26.180  29.672  1.00  0.00     0.006 C 
BRANCH   7   8
ATOM      8  C   UNL     1     -25.370 -26.269  29.600  1.00  0.00     0.053 C 
BRANCH   8   9
ATOM      9  C   UNL     1     -25.831 -27.579  29.035  1.00  0.00     0.041 C 
ATOM     10  O   UNL     1     -25.643 -27.848  27.820  1.00  0.00    -0.550 OA
ATOM     11  O   UNL     1     -26.502 -28.487  29.843  1.00  0.00    -0.550 OA
ENDBRANCH   8   9
ENDBRANCH   7   8
ENDBRANCH   6   7
ENDBRANCH   5   6
ENDBRANCH   4   5
ENDBRANCH   3   4
ENDBRANCH   2   3
ENDBRANCH   1   2
BRANCH   1  12
ATOM     12  C   UNL     1     -21.306 -20.439  29.383  1.00  0.00     0.000 C 
BRANCH  12  13
ATOM     13  C   UNL     1     -21.290 -19.040  28.743  1.00  0.00    -0.000 C 
BRANCH  13  14
ATOM     14  C   UNL     1     -20.529 -18.007  29.588  1.00  0.00    -0.000 C 
BRANCH  14  15
ATOM     15  C   UNL     1     -19.041 -18.359  29.760  1.00  0.00    -0.000 C 
BRANCH  15  16
ATOM     16  C   UNL     1     -18.150 -17.677  28.708  1.00  0.00    -0.000 C 
BRANCH  16  17
ATOM     17  C   UNL     1     -18.618 -16.252  28.364  1.00  0.00    -0.000 C 
BRANCH  17  18
ATOM     18  C   UNL     1     -17.549 -15.462  27.579  1.00  0.00    -0.000 C 
BRANCH  18  19
ATOM     19  C   UNL     1     -17.738 -15.515  26.056  1.00  0.00    -0.003 C 
ATOM     20  C   UNL     1     -16.490 -15.093  25.284  1.00  0.00     0.004 C 
ENDBRANCH  18  19
ENDBRANCH  17  18
ENDBRANCH  16  17
ENDBRANCH  15  16
ENDBRANCH  14  15
ENDBRANCH  13  14
ENDBRANCH  12  13
ENDBRANCH   1  12
TORSDOF 16
ENDMDL
MODEL 2
REMARK VINA RESULT:    -7.132      4.592     10.448
REMARK INTER + INTRA:         -14.759
REMARK INTER:                 -13.782
REMARK INTRA:                  -0.977
REMARK UNBOUND:                -0.955
REMARK SMILES CCCCCCCCCCCCCCCCCC(=O)[O-]
REMARK SMILES IDX 10 1 11 2 12 3 13 4 14 5 15 6 16 7 17 8 18 9 19 10 20 11
REMARK SMILES IDX 9 12 8 13 7 14 6 15 5 16 4 17 3 18 2 19 1 20
REMARK H PARENT
REMARK Flexibility Score: inf
ROOT
ATOM      1  C   UNL     1     -22.270 -23.568  31.021  1.00  0.00     0.000 C 
ENDROOT
BRANCH   1   2
ATOM      2  C   UNL     1     -22.558 -22.182  31.627  1.00  0.00     0.000 C 
BRANCH   2   3
ATOM      3  C   UNL     1     -21.282 -21.368  31.896  1.00  0.00     0.000 C 
BRANCH   3   4
ATOM      4  C   UNL     1     -21.340 -19.956  31.276  1.00  0.00     0.000 C 
BRANCH   4   5
ATOM      5  C   UNL     1     -21.989 -19.917  29.879  1.00  0.00     0.000 C 
BRANCH   5   6
ATOM      6  C   UNL     1     -21.132 -19.258  28.781  1.00  0.00     0.000 C 
BRANCH   6   7
ATOM      7  C   UNL     1     -20.578 -17.860  29.132  1.00  0.00     0.006 C 
BRANCH   7   8
ATOM      8  C   UNL     1     -19.067 -17.820  29.408  1.00  0.00     0.053 C 
BRANCH   8   9
ATOM      9  C   UNL     1     -18.739 -16.994  30.615  1.00  0.00     0.041 C 
ATOM     10  O   UNL     1     -18.285 -15.827  30.482  1.00  0.00    -0.550 OA
ATOM     11  O   UNL     1     -18.897 -17.528  31.886  1.00  0.00    -0.550 OA
ENDBRANCH   8   9
ENDBRANCH   7   8
ENDBRANCH   6   7
ENDBRANCH   5   6
ENDBRANCH   4   5
ENDBRANCH   3   4
ENDBRANCH   2   3
ENDBRANCH   1   2
BRANCH   1  12
ATOM     12  C   UNL     1     -22.334 -23.634  29.485  1.00  0.00     0.000 C 
BRANCH  12  13
ATOM     13  C   UNL     1     -23.358 -24.663  28.975  1.00  0.00    -0.000 C 
BRANCH  13  14
ATOM     14  C   UNL     1     -23.806 -25.648  30.066  1.00  0.00    -0.000 C 
BRANCH  14  15
ATOM     15  C   UNL     1     -25.331 -25.854  30.093  1.00  0.00    -0.000 C 
BRANCH  15  16
ATOM     16  C   UNL     1     -25.738 -27.290  29.724  1.00  0.00    -0.000 C 
BRANCH  16  17
ATOM     17  C   UNL     1     -25.497 -27.616  28.240  1.00  0.00    -0.000 C 
BRANCH  17  18
ATOM     18  C   UNL     1     -26.556 -28.589  27.679  1.00  0.00    -0.000 C 
BRANCH  18  19
ATOM     19  C   UNL     1     -27.231 -28.090  26.392  1.00  0.00    -0.003 C 
ATOM     20  C   UNL     1     -27.158 -29.101  25.250  1.00  0.00     0.004 C 
ENDBRANCH  18  19
ENDBRANCH  17  18
ENDBRANCH  16  17
ENDBRANCH  15  16
ENDBRANCH  14  15
ENDBRANCH  13  14
ENDBRANCH  12  13
ENDBRANCH   1  12
TORSDOF 16
ENDMDL
MODEL 3
REMARK VINA RESULT:    -7.044      4.957     10.627
REMARK INTER + INTRA:         -14.589
REMARK INTER:                 -13.654
REMARK INTRA:                  -0.934
REMARK UNBOUND:                -0.955
REMARK SMILES CCCCCCCCCCCCCCCCCC(=O)[O-]
REMARK SMILES IDX 10 1 11 2 12 3 13 4 14 5 15 6 16 7 17 8 18 9 19 10 20 11
REMARK SMILES IDX 9 12 8 13 7 14 6 15 5 16 4 17 3 18 2 19 1 20
REMARK H PARENT
REMARK Flexibility Score: inf
ROOT
ATOM      1  C   UNL     1     -23.150 -22.672  32.048  1.00  0.00     0.000 C 
ENDROOT
BRANCH   1   2
ATOM      2  C   UNL     1     -21.945 -21.856  31.543  1.00  0.00     0.000 C 
BRANCH   2   3
ATOM      3  C   UNL     1     -22.356 -20.553  30.840  1.00  0.00     0.000 C 
BRANCH   3   4
ATOM      4  C   UNL     1     -21.971 -20.541  29.345  1.00  0.00     0.000 C 
BRANCH   4   5
ATOM      5  C   UNL     1     -20.982 -19.421  28.967  1.00  0.00     0.000 C 
BRANCH   5   6
ATOM      6  C   UNL     1     -20.588 -18.483  30.124  1.00  0.00     0.000 C 
BRANCH   6   7
ATOM      7  C   UNL     1     -19.296 -17.670  29.897  1.00  0.00     0.006 C 
BRANCH   7   8
ATOM      8  C   UNL     1     -19.227 -16.940  28.547  1.00  0.00     0.053 C 
BRANCH   8   9
ATOM      9  C   UNL     1     -18.058 -16.003  28.473  1.00  0.00     0.041 C 
ATOM     10  O   UNL     1     -17.652 -15.412  29.508  1.00  0.00    -0.550 OA
ATOM     11  O   UNL     1     -17.443 -15.755  27.254  1.00  0.00    -0.550 OA
ENDBRANCH   8   9
ENDBRANCH   7   8
ENDBRANCH   6   7
ENDBRANCH   5   6
ENDBRANCH   4   5
ENDBRANCH   3   4
ENDBRANCH   2   3
ENDBRANCH   1   2
BRANCH   1  12
ATOM     12  C   UNL     1     -23.258 -24.096  31.474  1.00  0.00     0.000 C 
BRANCH  12  13
ATOM     13  C   UNL     1     -22.602 -24.233  30.089  1.00  0.00    -0.000 C 
BRANCH  13  14
ATOM     14  C   UNL     1     -23.562 -24.796  29.029  1.00  0.00    -0.000 C 
BRANCH  14  15
ATOM     15  C   UNL     1     -23.635 -26.333  29.048  1.00  0.00    -0.000 C 
BRANCH  15  16
ATOM     16  C   UNL     1     -24.911 -26.853  29.730  1.00  0.00    -0.000 C 
BRANCH  16  17
ATOM     17  C   UNL     1     -26.159 -26.722  28.839  1.00  0.00    -0.000 C 
BRANCH  17  18
ATOM     18  C   UNL     1     -26.599 -28.080  28.252  1.00  0.00    -0.000 C 
BRANCH  18  19
ATOM     19  C   UNL     1     -26.150 -28.298  26.799  1.00  0.00    -0.003 C 
ATOM     20  C   UNL     1     -27.297 -28.693  25.872  1.00  0.00     0.004 C 
ENDBRANCH  18  19
ENDBRANCH  17  18
ENDBRANCH  16  17
ENDBRANCH  15  16
ENDBRANCH  14  15
ENDBRANCH  13  14
ENDBRANCH  12  13
ENDBRANCH   1  12
TORSDOF 16
ENDMDL
MODEL 4
REMARK VINA RESULT:    -7.034      5.045     10.344
REMARK INTER + INTRA:         -14.569
REMARK INTER:                 -13.302
REMARK INTRA:                  -1.267
REMARK UNBOUND:                -0.955
REMARK SMILES CCCCCCCCCCCCCCCCCC(=O)[O-]
REMARK SMILES IDX 10 1 11 2 12 3 13 4 14 5 15 6 16 7 17 8 18 9 19 10 20 11
REMARK SMILES IDX 9 12 8 13 7 14 6 15 5 16 4 17 3 18 2 19 1 20
REMARK H PARENT
REMARK Flexibility Score: inf
ROOT
ATOM      1  C   UNL     1     -22.007 -22.400  28.748  1.00  0.00     0.000 C 
ENDROOT
BRANCH   1   2
ATOM      2  C   UNL     1     -22.469 -20.969  29.077  1.00  0.00     0.000 C 
BRANCH   2   3
ATOM      3  C   UNL     1     -21.308 -19.964  29.140  1.00  0.00     0.000 C 
BRANCH   3   4
ATOM      4  C   UNL     1     -21.427 -18.995  30.336  1.00  0.00     0.000 C 
BRANCH   4   5
ATOM      5  C   UNL     1     -20.288 -19.136  31.365  1.00  0.00     0.000 C 
BRANCH   5   6
ATOM      6  C   UNL     1     -18.955 -18.481  30.953  1.00  0.00     0.000 C 
BRANCH   6   7
ATOM      7  C   UNL     1     -19.087 -17.104  30.268  1.00  0.00     0.006 C 
BRANCH   7   8
ATOM      8  C   UNL     1     -18.657 -17.079  28.793  1.00  0.00     0.053 C 
BRANCH   8   9
ATOM      9  C   UNL     1     -17.874 -15.845  28.457  1.00  0.00     0.041 C 
ATOM     10  O   UNL     1     -17.514 -15.054  29.367  1.00  0.00    -0.550 OA
ATOM     11  O   UNL     1     -17.576 -15.550  27.134  1.00  0.00    -0.550 OA
ENDBRANCH   8   9
ENDBRANCH   7   8
ENDBRANCH   6   7
ENDBRANCH   5   6
ENDBRANCH   4   5
ENDBRANCH   3   4
ENDBRANCH   2   3
ENDBRANCH   1   2
BRANCH   1  12
ATOM     12  C   UNL     1     -21.822 -23.321  29.968  1.00  0.00     0.000 C 
BRANCH  12  13
ATOM     13  C   UNL     1     -22.364 -22.705  31.269  1.00  0.00    -0.000 C 
BRANCH  13  14
ATOM     14  C   UNL     1     -23.503 -23.530  31.888  1.00  0.00    -0.000 C 
BRANCH  14  15
ATOM     15  C   UNL     1     -23.341 -25.042  31.648  1.00  0.00    -0.000 C 
BRANCH  15  16
ATOM     16  C   UNL     1     -24.584 -25.670  30.996  1.00  0.00    -0.000 C 
BRANCH  16  17
ATOM     17  C   UNL     1     -24.620 -25.473  29.470  1.00  0.00    -0.000 C 
BRANCH  17  18
ATOM     18  C   UNL     1     -24.689 -26.815  28.711  1.00  0.00    -0.000 C 
BRANCH  18  19
ATOM     19  C   UNL     1     -25.952 -27.633  29.019  1.00  0.00    -0.003 C 
ATOM     20  C   UNL     1     -26.540 -28.311  27.784  1.00  0.00     0.004 C 
ENDBRANCH  18  19
ENDBRANCH  17  18
ENDBRANCH  16  17
ENDBRANCH  15  16
ENDBRANCH  14  15
ENDBRANCH  13  14
ENDBRANCH  12  13
ENDBRANCH   1  12
TORSDOF 16
ENDMDL
MODEL 5
REMARK VINA RESULT:    -6.989      1.131      1.503
REMARK INTER + INTRA:         -14.481
REMARK INTER:                 -13.515
REMARK INTRA:                  -0.966
REMARK UNBOUND:                -0.955
REMARK SMILES CCCCCCCCCCCCCCCCCC(=O)[O-]
REMARK SMILES IDX 10 1 11 2 12 3 13 4 14 5 15 6 16 7 17 8 18 9 19 10 20 11
REMARK SMILES IDX 9 12 8 13 7 14 6 15 5 16 4 17 3 18 2 19 1 20
REMARK H PARENT
REMARK Flexibility Score: inf
ROOT
ATOM      1  C   UNL     1     -22.426 -20.850  30.785  1.00  0.00     0.000 C 
ENDROOT
BRANCH   1   2
ATOM      2  C   UNL     1     -22.147 -22.033  31.731  1.00  0.00     0.000 C 
BRANCH   2   3
ATOM      3  C   UNL     1     -22.148 -23.390  31.011  1.00  0.00     0.000 C 
BRANCH   3   4
ATOM      4  C   UNL     1     -21.983 -23.250  29.482  1.00  0.00     0.000 C 
BRANCH   4   5
ATOM      5  C   UNL     1     -22.813 -24.264  28.673  1.00  0.00     0.000 C 
BRANCH   5   6
ATOM      6  C   UNL     1     -23.926 -24.976  29.467  1.00  0.00     0.000 C 
BRANCH   6   7
ATOM      7  C   UNL     1     -23.947 -26.514  29.329  1.00  0.00     0.006 C 
BRANCH   7   8
ATOM      8  C   UNL     1     -25.350 -27.128  29.209  1.00  0.00     0.053 C 
BRANCH   8   9
ATOM      9  C   UNL     1     -25.850 -27.647  30.523  1.00  0.00     0.041 C 
ATOM     10  O   UNL     1     -26.419 -28.768  30.589  1.00  0.00    -0.550 OA
ATOM     11  O   UNL     1     -25.724 -26.874  31.669  1.00  0.00    -0.550 OA
ENDBRANCH   8   9
ENDBRANCH   7   8
ENDBRANCH   6   7
ENDBRANCH   5   6
ENDBRANCH   4   5
ENDBRANCH   3   4
ENDBRANCH   2   3
ENDBRANCH   1   2
BRANCH   1  12
ATOM     12  C   UNL     1     -21.223 -19.927  30.521  1.00  0.00     0.000 C 
BRANCH  12  13
ATOM     13  C   UNL     1     -21.193 -19.382  29.083  1.00  0.00    -0.000 C 
BRANCH  13  14
ATOM     14  C   UNL     1     -20.725 -17.920  29.011  1.00  0.00    -0.000 C 
BRANCH  14  15
ATOM     15  C   UNL     1     -20.095 -17.431  30.327  1.00  0.00    -0.000 C 
BRANCH  15  16
ATOM     16  C   UNL     1     -18.581 -17.195  30.203  1.00  0.00    -0.000 C 
BRANCH  16  17
ATOM     17  C   UNL     1     -18.210 -15.702  30.193  1.00  0.00    -0.000 C 
BRANCH  17  18
ATOM     18  C   UNL     1     -17.470 -15.294  28.901  1.00  0.00    -0.000 C 
BRANCH  18  19
ATOM     19  C   UNL     1     -18.166 -15.768  27.617  1.00  0.00    -0.003 C 
ATOM     20  C   UNL     1     -17.304 -15.588  26.369  1.00  0.00     0.004 C 
ENDBRANCH  18  19
ENDBRANCH  17  18
ENDBRANCH  16  17
ENDBRANCH  15  16
ENDBRANCH  14  15
ENDBRANCH  13  14
ENDBRANCH  12  13
ENDBRANCH   1  12
TORSDOF 16
ENDMDL
MODEL 6
REMARK VINA RESULT:    -6.904      4.891     10.516
REMARK INTER + INTRA:         -14.316
REMARK INTER:                 -13.208
REMARK INTRA:                  -1.109
REMARK UNBOUND:                -0.955
REMARK SMILES CCCCCCCCCCCCCCCCCC(=O)[O-]
REMARK SMILES IDX 10 1 11 2 12 3 13 4 14 5 15 6 16 7 17 8 18 9 19 10 20 11
REMARK SMILES IDX 9 12 8 13 7 14 6 15 5 16 4 17 3 18 2 19 1 20
REMARK H PARENT
REMARK Flexibility Score: inf
ROOT
ATOM      1  C   UNL     1     -21.747 -22.790  30.278  1.00  0.00     0.000 C 
ENDROOT
BRANCH   1   2
ATOM      2  C   UNL     1     -22.296 -22.083  29.025  1.00  0.00     0.000 C 
BRANCH   2   3
ATOM      3  C   UNL     1     -22.530 -20.579  29.241  1.00  0.00     0.000 C 
BRANCH   3   4
ATOM      4  C   UNL     1     -21.212 -19.792  29.405  1.00  0.00     0.000 C 
BRANCH   4   5
ATOM      5  C   UNL     1     -21.013 -19.203  30.815  1.00  0.00     0.000 C 
BRANCH   5   6
ATOM      6  C   UNL     1     -19.707 -18.408  31.010  1.00  0.00     0.000 C 
BRANCH   6   7
ATOM      7  C   UNL     1     -19.546 -17.178  30.092  1.00  0.00     0.006 C 
BRANCH   7   8
ATOM      8  C   UNL     1     -18.540 -17.361  28.945  1.00  0.00     0.053 C 
BRANCH   8   9
ATOM      9  C   UNL     1     -18.054 -16.047  28.410  1.00  0.00     0.041 C 
ATOM     10  O   UNL     1     -18.071 -15.820  27.172  1.00  0.00    -0.550 OA
ATOM     11  O   UNL     1     -17.545 -15.090  29.276  1.00  0.00    -0.550 OA
ENDBRANCH   8   9
ENDBRANCH   7   8
ENDBRANCH   6   7
ENDBRANCH   5   6
ENDBRANCH   4   5
ENDBRANCH   3   4
ENDBRANCH   2   3
ENDBRANCH   1   2
BRANCH   1  12
ATOM     12  C   UNL     1     -22.421 -22.386  31.603  1.00  0.00     0.000 C 
BRANCH  12  13
ATOM     13  C   UNL     1     -23.575 -23.325  31.995  1.00  0.00    -0.000 C 
BRANCH  13  14
ATOM     14  C   UNL     1     -23.302 -24.791  31.624  1.00  0.00    -0.000 C 
BRANCH  14  15
ATOM     15  C   UNL     1     -24.386 -25.384  30.707  1.00  0.00    -0.000 C 
BRANCH  15  16
ATOM     16  C   UNL     1     -23.871 -25.656  29.284  1.00  0.00    -0.000 C 
BRANCH  16  17
ATOM     17  C   UNL     1     -24.424 -26.963  28.690  1.00  0.00    -0.000 C 
BRANCH  17  18
ATOM     18  C   UNL     1     -25.957 -26.921  28.517  1.00  0.00    -0.000 C 
BRANCH  18  19
ATOM     19  C   UNL     1     -26.604 -28.310  28.416  1.00  0.00    -0.003 C 
ATOM     20  C   UNL     1     -26.750 -29.001  29.771  1.00  0.00     0.004 C 
ENDBRANCH  18  19
ENDBRANCH  17  18
ENDBRANCH  16  17
ENDBRANCH  15  16
ENDBRANCH  14  15
ENDBRANCH  13  14
ENDBRANCH  12  13
ENDBRANCH   1  12
TORSDOF 16
ENDMDL
MODEL 7
REMARK VINA RESULT:    -6.838      1.663      3.074
REMARK INTER + INTRA:         -14.189
REMARK INTER:                 -13.448
REMARK INTRA:                  -0.741
REMARK UNBOUND:                -0.955
REMARK SMILES CCCCCCCCCCCCCCCCCC(=O)[O-]
REMARK SMILES IDX 10 1 11 2 12 3 13 4 14 5 15 6 16 7 17 8 18 9 19 10 20 11
REMARK SMILES IDX 9 12 8 13 7 14 6 15 5 16 4 17 3 18 2 19 1 20
REMARK H PARENT
REMARK Flexibility Score: inf
ROOT
ATOM      1  C   UNL     1     -22.379 -23.118  30.838  1.00  0.00     0.000 C 
ENDROOT
BRANCH   1   2
ATOM      2  C   UNL     1     -23.051 -24.491  30.650  1.00  0.00     0.000 C 
BRANCH   2   3
ATOM      3  C   UNL     1     -23.267 -24.856  29.173  1.00  0.00     0.000 C 
BRANCH   3   4
ATOM      4  C   UNL     1     -23.621 -26.346  28.977  1.00  0.00     0.000 C 
BRANCH   4   5
ATOM      5  C   UNL     1     -24.677 -26.868  29.970  1.00  0.00     0.000 C 
BRANCH   5   6
ATOM      6  C   UNL     1     -25.999 -27.336  29.329  1.00  0.00     0.000 C 
BRANCH   6   7
ATOM      7  C   UNL     1     -25.857 -27.984  27.935  1.00  0.00     0.006 C 
BRANCH   7   8
ATOM      8  C   UNL     1     -27.187 -28.337  27.253  1.00  0.00     0.053 C 
BRANCH   8   9
ATOM      9  C   UNL     1     -26.996 -28.741  25.822  1.00  0.00     0.041 C 
ATOM     10  O   UNL     1     -25.842 -28.766  25.318  1.00  0.00    -0.550 OA
ATOM     11  O   UNL     1     -28.095 -29.053  25.035  1.00  0.00    -0.550 OA
ENDBRANCH   8   9
ENDBRANCH   7   8
ENDBRANCH   6   7
ENDBRANCH   5   6
ENDBRANCH   4   5
ENDBRANCH   3   4
ENDBRANCH   2   3
ENDBRANCH   1   2
BRANCH   1  12
ATOM     12  C   UNL     1     -22.112 -22.340  29.536  1.00  0.00     0.000 C 
BRANCH  12  13
ATOM     13  C   UNL     1     -22.055 -20.819  29.752  1.00  0.00    -0.000 C 
BRANCH  13  14
ATOM     14  C   UNL     1     -21.650 -20.436  31.185  1.00  0.00    -0.000 C 
BRANCH  14  15
ATOM     15  C   UNL     1     -20.550 -19.360  31.225  1.00  0.00    -0.000 C 
BRANCH  15  16
ATOM     16  C   UNL     1     -20.440 -18.581  29.904  1.00  0.00    -0.000 C 
BRANCH  16  17
ATOM     17  C   UNL     1     -19.182 -17.698  29.835  1.00  0.00    -0.000 C 
BRANCH  17  18
ATOM     18  C   UNL     1     -19.182 -16.779  28.595  1.00  0.00    -0.000 C 
BRANCH  18  19
ATOM     19  C   UNL     1     -17.860 -16.026  28.386  1.00  0.00    -0.003 C 
ATOM     20  C   UNL     1     -17.569 -15.727  26.917  1.00  0.00     0.004 C 
ENDBRANCH  18  19
ENDBRANCH  17  18
ENDBRANCH  16  17
ENDBRANCH  15  16
ENDBRANCH  14  15
ENDBRANCH  13  14
ENDBRANCH  12  13
ENDBRANCH   1  12
TORSDOF 16
ENDMDL
MODEL 8
REMARK VINA RESULT:    -6.835      1.087      2.247
REMARK INTER + INTRA:         -14.184
REMARK INTER:                 -13.360
REMARK INTRA:                  -0.824
REMARK UNBOUND:                -0.955
REMARK SMILES CCCCCCCCCCCCCCCCCC(=O)[O-]
REMARK SMILES IDX 10 1 11 2 12 3 13 4 14 5 15 6 16 7 17 8 18 9 19 10 20 11
REMARK SMILES IDX 9 12 8 13 7 14 6 15 5 16 4 17 3 18 2 19 1 20
REMARK H PARENT
REMARK Flexibility Score: inf
ROOT
ATOM      1  C   UNL     1     -22.957 -22.373  32.101  1.00  0.00     0.000 C 
ENDROOT
BRANCH   1   2
ATOM      2  C   UNL     1     -23.203 -23.807  31.596  1.00  0.00     0.000 C 
BRANCH   2   3
ATOM      3  C   UNL     1     -22.288 -24.195  30.424  1.00  0.00     0.000 C 
BRANCH   3   4
ATOM      4  C   UNL     1     -23.046 -24.275  29.082  1.00  0.00     0.000 C 
BRANCH   4   5
ATOM      5  C   UNL     1     -23.452 -25.707  28.683  1.00  0.00     0.000 C 
BRANCH   5   6
ATOM      6  C   UNL     1     -23.897 -26.608  29.852  1.00  0.00     0.000 C 
BRANCH   6   7
ATOM      7  C   UNL     1     -25.425 -26.756  30.019  1.00  0.00     0.006 C 
BRANCH   7   8
ATOM      8  C   UNL     1     -26.221 -26.708  28.706  1.00  0.00     0.053 C 
BRANCH   8   9
ATOM      9  C   UNL     1     -26.556 -28.080  28.202  1.00  0.00     0.041 C 
ATOM     10  O   UNL     1     -26.762 -29.022  29.012  1.00  0.00    -0.550 OA
ATOM     11  O   UNL     1     -26.602 -28.327  26.837  1.00  0.00    -0.550 OA
ENDBRANCH   8   9
ENDBRANCH   7   8
ENDBRANCH   6   7
ENDBRANCH   5   6
ENDBRANCH   4   5
ENDBRANCH   3   4
ENDBRANCH   2   3
ENDBRANCH   1   2
BRANCH   1  12
ATOM     12  C   UNL     1     -21.615 -21.752  31.671  1.00  0.00     0.000 C 
BRANCH  12  13
ATOM     13  C   UNL     1     -21.768 -20.742  30.521  1.00  0.00    -0.000 C 
BRANCH  13  14
ATOM     14  C   UNL     1     -21.512 -19.293  30.965  1.00  0.00    -0.000 C 
BRANCH  14  15
ATOM     15  C   UNL     1     -20.106 -19.091  31.557  1.00  0.00    -0.000 C 
BRANCH  15  16
ATOM     16  C   UNL     1     -19.373 -17.889  30.938  1.00  0.00    -0.000 C 
BRANCH  16  17
ATOM     17  C   UNL     1     -18.981 -18.123  29.468  1.00  0.00    -0.000 C 
BRANCH  17  18
ATOM     18  C   UNL     1     -19.181 -16.860  28.605  1.00  0.00    -0.000 C 
BRANCH  18  19
ATOM     19  C   UNL     1     -17.908 -16.014  28.447  1.00  0.00    -0.003 C 
ATOM     20  C   UNL     1     -17.602 -15.660  26.993  1.00  0.00     0.004 C 
ENDBRANCH  18  19
ENDBRANCH  17  18
ENDBRANCH  16  17
ENDBRANCH  15  16
ENDBRANCH  14  15
ENDBRANCH  13  14
ENDBRANCH  12  13
ENDBRANCH   1  12
TORSDOF 16
ENDMDL
MODEL 9
REMARK VINA RESULT:    -6.818      5.012     10.476
REMARK INTER + INTRA:         -14.151
REMARK INTER:                 -13.253
REMARK INTRA:                  -0.897
REMARK UNBOUND:                -0.955
REMARK SMILES CCCCCCCCCCCCCCCCCC(=O)[O-]
REMARK SMILES IDX 10 1 11 2 12 3 13 4 14 5 15 6 16 7 17 8 18 9 19 10 20 11
REMARK SMILES IDX 9 12 8 13 7 14 6 15 5 16 4 17 3 18 2 19 1 20
REMARK H PARENT
REMARK Flexibility Score: inf
ROOT
ATOM      1  C   UNL     1     -21.603 -20.340  29.451  1.00  0.00     0.000 C 
ENDROOT
BRANCH   1   2
ATOM      2  C   UNL     1     -20.699 -19.106  29.635  1.00  0.00     0.000 C 
BRANCH   2   3
ATOM      3  C   UNL     1     -20.377 -18.814  31.109  1.00  0.00     0.000 C 
BRANCH   3   4
ATOM      4  C   UNL     1     -19.499 -17.556  31.284  1.00  0.00     0.000 C 
BRANCH   4   5
ATOM      5  C   UNL     1     -19.141 -16.859  29.958  1.00  0.00     0.000 C 
BRANCH   5   6
ATOM      6  C   UNL     1     -17.980 -15.849  30.045  1.00  0.00     0.000 C 
BRANCH   6   7
ATOM      7  C   UNL     1     -17.513 -15.271  28.692  1.00  0.00     0.006 C 
BRANCH   7   8
ATOM      8  C   UNL     1     -18.081 -15.987  27.457  1.00  0.00     0.053 C 
BRANCH   8   9
ATOM      9  C   UNL     1     -17.522 -15.435  26.181  1.00  0.00     0.041 C 
ATOM     10  O   UNL     1     -16.291 -15.193  26.078  1.00  0.00    -0.550 OA
ATOM     11  O   UNL     1     -18.368 -15.151  25.117  1.00  0.00    -0.550 OA
ENDBRANCH   8   9
ENDBRANCH   7   8
ENDBRANCH   6   7
ENDBRANCH   5   6
ENDBRANCH   4   5
ENDBRANCH   3   4
ENDBRANCH   2   3
ENDBRANCH   1   2
BRANCH   1  12
ATOM     12  C   UNL     1     -22.451 -20.715  30.680  1.00  0.00     0.000 C 
BRANCH  12  13
ATOM     13  C   UNL     1     -21.963 -22.000  31.371  1.00  0.00    -0.000 C 
BRANCH  13  14
ATOM     14  C   UNL     1     -23.091 -22.751  32.097  1.00  0.00    -0.000 C 
BRANCH  14  15
ATOM     15  C   UNL     1     -23.446 -24.087  31.422  1.00  0.00    -0.000 C 
BRANCH  15  16
ATOM     16  C   UNL     1     -22.502 -24.428  30.257  1.00  0.00    -0.000 C 
BRANCH  16  17
ATOM     17  C   UNL     1     -23.256 -24.792  28.966  1.00  0.00    -0.000 C 
BRANCH  17  18
ATOM     18  C   UNL     1     -23.834 -26.223  29.014  1.00  0.00    -0.000 C 
BRANCH  18  19
ATOM     19  C   UNL     1     -25.360 -26.265  29.186  1.00  0.00    -0.003 C 
ATOM     20  C   UNL     1     -25.991 -27.530  28.607  1.00  0.00     0.004 C 
ENDBRANCH  18  19
ENDBRANCH  17  18
ENDBRANCH  16  17
ENDBRANCH  15  16
ENDBRANCH  14  15
ENDBRANCH  13  14
ENDBRANCH  12  13
ENDBRANCH   1  12
TORSDOF 16
ENDMDL
