MODEL 1
REMARK VINA RESULT:    -5.141      0.000      0.000
REMARK INTER + INTRA:         -10.448
REMARK INTER:                  -9.047
REMARK INTRA:                  -1.401
REMARK UNBOUND:                -1.401
REMARK SMILES CCCCCCC=CCCCCCCCC(=O)[O-]
REMARK SMILES IDX 10 1 11 2 12 3 13 4 14 5 15 6 16 7 17 8 18 9 9 10 8 11 7 12
REMARK SMILES IDX 6 13 5 14 4 15 3 16 2 17 1 18
REMARK H PARENT
REMARK Flexibility Score: inf
ROOT
ATOM      1  C   UNL     1     -18.611   2.655 -16.734  1.00  0.00     0.004 C 
ENDROOT
BRANCH   1   2
ATOM      2  C   UNL     1     -17.198   2.302 -17.220  1.00  0.00     0.000 C 
BRANCH   2   3
ATOM      3  C   UNL     1     -16.136   2.806 -16.235  1.00  0.00     0.000 C 
BRANCH   3   4
ATOM      4  C   UNL     1     -16.784   3.549 -15.060  1.00  0.00     0.000 C 
BRANCH   4   5
ATOM      5  C   UNL     1     -15.808   3.673 -13.882  1.00  0.00     0.006 C 
BRANCH   5   6
ATOM      6  C   UNL     1     -16.009   4.974 -13.095  1.00  0.00     0.053 C 
BRANCH   6   7
ATOM      7  C   UNL     1     -14.988   5.129 -12.010  1.00  0.00     0.041 C 
ATOM      8  O   UNL     1     -15.234   5.845 -11.004  1.00  0.00    -0.550 OA
ATOM      9  O   UNL     1     -13.750   4.508 -12.126  1.00  0.00    -0.550 OA
ENDBRANCH   6   7
ENDBRANCH   5   6
ENDBRANCH   4   5
ENDBRANCH   3   4
ENDBRANCH   2   3
ENDBRANCH   1   2
BRANCH   1  10
ATOM     10  C   UNL     1     -19.541   3.046 -17.890  1.00  0.00     0.027 C 
BRANCH  10  11
ATOM     11  C   UNL     1     -19.889   4.510 -17.848  1.00  0.00    -0.031 C 
ATOM     12  C   UNL     1     -19.190   5.379 -17.101  1.00  0.00    -0.031 C 
BRANCH  12  13
ATOM     13  C   UNL     1     -19.508   6.850 -17.098  1.00  0.00     0.027 C 
BRANCH  13  14
ATOM     14  C   UNL     1     -19.853   7.371 -15.695  1.00  0.00     0.004 C 
BRANCH  14  15
ATOM     15  C   UNL     1     -19.224   6.511 -14.585  1.00  0.00     0.000 C 
BRANCH  15  16
ATOM     16  C   UNL     1     -19.124   7.269 -13.246  1.00  0.00    -0.000 C 
BRANCH  16  17
ATOM     17  C   UNL     1     -20.485   7.500 -12.566  1.00  0.00    -0.003 C 
ATOM     18  C   UNL     1     -20.736   8.964 -12.214  1.00  0.00     0.004 C 
ENDBRANCH  16  17
ENDBRANCH  15  16
ENDBRANCH  14  15
ENDBRANCH  13  14
ENDBRANCH  12  13
ENDBRANCH  10  11
ENDBRANCH   1  10
TORSDOF 13
ENDMDL
MODEL 2
REMARK VINA RESULT:    -5.000      4.798      8.483
REMARK INTER + INTRA:         -10.200
REMARK INTER:                  -9.237
REMARK INTRA:                  -0.964
REMARK UNBOUND:                -1.401
REMARK SMILES CCCCCCC=CCCCCCCCC(=O)[O-]
REMARK SMILES IDX 10 1 11 2 12 3 13 4 14 5 15 6 16 7 17 8 18 9 9 10 8 11 7 12
REMARK SMILES IDX 6 13 5 14 4 15 3 16 2 17 1 18
REMARK H PARENT
REMARK Flexibility Score: inf
ROOT
ATOM      1  C   UNL     1     -14.481   2.241 -17.652  1.00  0.00     0.004 C 
ENDROOT
BRANCH   1   2
ATOM      2  C   UNL     1     -15.790   3.027 -17.491  1.00  0.00     0.000 C 
BRANCH   2   3
ATOM      3  C   UNL     1     -16.590   2.522 -16.285  1.00  0.00     0.000 C 
BRANCH   3   4
ATOM      4  C   UNL     1     -16.881   3.662 -15.301  1.00  0.00     0.000 C 
BRANCH   4   5
ATOM      5  C   UNL     1     -15.902   3.632 -14.119  1.00  0.00     0.006 C 
BRANCH   5   6
ATOM      6  C   UNL     1     -16.040   4.867 -13.219  1.00  0.00     0.053 C 
BRANCH   6   7
ATOM      7  C   UNL     1     -14.874   5.007 -12.288  1.00  0.00     0.041 C 
ATOM      8  O   UNL     1     -13.783   4.437 -12.547  1.00  0.00    -0.550 OA
ATOM      9  O   UNL     1     -15.006   5.743 -11.117  1.00  0.00    -0.550 OA
ENDBRANCH   6   7
ENDBRANCH   5   6
ENDBRANCH   4   5
ENDBRANCH   3   4
ENDBRANCH   2   3
ENDBRANCH   1   2
BRANCH   1  10
ATOM     10  C   UNL     1     -14.647   0.759 -17.294  1.00  0.00     0.027 C 
BRANCH  10  11
ATOM     11  C   UNL     1     -13.468  -0.056 -17.755  1.00  0.00    -0.031 C 
ATOM     12  C   UNL     1     -12.751   0.292 -18.834  1.00  0.00    -0.031 C 
BRANCH  12  13
ATOM     13  C   UNL     1     -11.543  -0.496 -19.266  1.00  0.00     0.027 C 
BRANCH  13  14
ATOM     14  C   UNL     1     -10.699  -0.973 -18.074  1.00  0.00     0.004 C 
BRANCH  14  15
ATOM     15  C   UNL     1      -9.350  -0.239 -17.986  1.00  0.00     0.000 C 
BRANCH  15  16
ATOM     16  C   UNL     1      -8.699  -0.046 -19.372  1.00  0.00    -0.000 C 
BRANCH  16  17
ATOM     17  C   UNL     1      -8.404   1.424 -19.715  1.00  0.00    -0.003 C 
ATOM     18  C   UNL     1      -8.537   2.356 -18.513  1.00  0.00     0.004 C 
ENDBRANCH  16  17
ENDBRANCH  15  16
ENDBRANCH  14  15
ENDBRANCH  13  14
ENDBRANCH  12  13
ENDBRANCH  10  11
ENDBRANCH   1  10
TORSDOF 13
ENDMDL
MODEL 3
REMARK VINA RESULT:    -4.986      1.974      5.993
REMARK INTER + INTRA:         -10.176
REMARK INTER:                  -9.164
REMARK INTRA:                  -1.012
REMARK UNBOUND:                -1.401
REMARK SMILES CCCCCCC=CCCCCCCCC(=O)[O-]
REMARK SMILES IDX 10 1 11 2 12 3 13 4 14 5 15 6 16 7 17 8 18 9 9 10 8 11 7 12
REMARK SMILES IDX 6 13 5 14 4 15 3 16 2 17 1 18
REMARK H PARENT
REMARK Flexibility Score: inf
ROOT
ATOM      1  C   UNL     1     -19.868   7.253 -15.773  1.00  0.00     0.004 C 
ENDROOT
BRANCH   1   2
ATOM      2  C   UNL     1     -19.479   8.079 -14.538  1.00  0.00     0.000 C 
BRANCH   2   3
ATOM      3  C   UNL     1     -19.351   7.187 -13.298  1.00  0.00     0.000 C 
BRANCH   3   4
ATOM      4  C   UNL     1     -17.960   7.320 -12.665  1.00  0.00     0.000 C 
BRANCH   4   5
ATOM      5  C   UNL     1     -16.979   6.308 -13.274  1.00  0.00     0.006 C 
BRANCH   5   6
ATOM      6  C   UNL     1     -15.827   5.970 -12.320  1.00  0.00     0.053 C 
BRANCH   6   7
ATOM      7  C   UNL     1     -15.170   4.673 -12.681  1.00  0.00     0.041 C 
ATOM      8  O   UNL     1     -13.971   4.459 -12.363  1.00  0.00    -0.550 OA
ATOM      9  O   UNL     1     -15.874   3.713 -13.398  1.00  0.00    -0.550 OA
ENDBRANCH   6   7
ENDBRANCH   5   6
ENDBRANCH   4   5
ENDBRANCH   3   4
ENDBRANCH   2   3
ENDBRANCH   1   2
BRANCH   1  10
ATOM     10  C   UNL     1     -19.927   5.750 -15.470  1.00  0.00     0.027 C 
BRANCH  10  11
ATOM     11  C   UNL     1     -19.282   4.941 -16.563  1.00  0.00    -0.031 C 
ATOM     12  C   UNL     1     -18.230   4.145 -16.322  1.00  0.00    -0.031 C 
BRANCH  12  13
ATOM     13  C   UNL     1     -17.617   3.299 -17.406  1.00  0.00     0.027 C 
BRANCH  13  14
ATOM     14  C   UNL     1     -16.348   2.573 -16.935  1.00  0.00     0.004 C 
BRANCH  14  15
ATOM     15  C   UNL     1     -15.220   2.638 -17.980  1.00  0.00     0.000 C 
BRANCH  15  16
ATOM     16  C   UNL     1     -14.776   1.236 -18.446  1.00  0.00    -0.000 C 
BRANCH  16  17
ATOM     17  C   UNL     1     -13.995   0.450 -17.379  1.00  0.00    -0.003 C 
ATOM     18  C   UNL     1     -12.917  -0.453 -17.971  1.00  0.00     0.004 C 
ENDBRANCH  16  17
ENDBRANCH  15  16
ENDBRANCH  14  15
ENDBRANCH  13  14
ENDBRANCH  12  13
ENDBRANCH  10  11
ENDBRANCH   1  10
TORSDOF 13
ENDMDL
MODEL 4
REMARK VINA RESULT:    -4.919      3.304      5.478
REMARK INTER + INTRA:         -10.058
REMARK INTER:                  -8.502
REMARK INTRA:                  -1.556
REMARK UNBOUND:                -1.401
REMARK SMILES CCCCCCC=CCCCCCCCC(=O)[O-]
REMARK SMILES IDX 10 1 11 2 12 3 13 4 14 5 15 6 16 7 17 8 18 9 9 10 8 11 7 12
REMARK SMILES IDX 6 13 5 14 4 15 3 16 2 17 1 18
REMARK H PARENT
REMARK Flexibility Score: inf
ROOT
ATOM      1  C   UNL     1     -15.772   4.149 -12.760  1.00  0.00     0.004 C 
ENDROOT
BRANCH   1   2
ATOM      2  C   UNL     1     -15.446   3.553 -14.137  1.00  0.00     0.000 C 
BRANCH   2   3
ATOM      3  C   UNL     1     -16.669   3.600 -15.061  1.00  0.00     0.000 C 
BRANCH   3   4
ATOM      4  C   UNL     1     -16.384   2.888 -16.389  1.00  0.00     0.000 C 
BRANCH   4   5
ATOM      5  C   UNL     1     -17.572   3.021 -17.351  1.00  0.00     0.006 C 
BRANCH   5   6
ATOM      6  C   UNL     1     -18.921   2.927 -16.626  1.00  0.00     0.053 C 
BRANCH   6   7
ATOM      7  C   UNL     1     -20.043   2.645 -17.577  1.00  0.00     0.041 C 
ATOM      8  O   UNL     1     -20.074   3.202 -18.705  1.00  0.00    -0.550 OA
ATOM      9  O   UNL     1     -21.073   1.790 -17.203  1.00  0.00    -0.550 OA
ENDBRANCH   6   7
ENDBRANCH   5   6
ENDBRANCH   4   5
ENDBRANCH   3   4
ENDBRANCH   2   3
ENDBRANCH   1   2
BRANCH   1  10
ATOM     10  C   UNL     1     -15.363   5.623 -12.653  1.00  0.00     0.027 C 
BRANCH  10  11
ATOM     11  C   UNL     1     -16.557   6.514 -12.440  1.00  0.00    -0.031 C 
ATOM     12  C   UNL     1     -17.565   6.565 -13.324  1.00  0.00    -0.031 C 
BRANCH  12  13
ATOM     13  C   UNL     1     -18.781   7.419 -13.086  1.00  0.00     0.027 C 
BRANCH  13  14
ATOM     14  C   UNL     1     -19.671   7.530 -14.332  1.00  0.00     0.004 C 
BRANCH  14  15
ATOM     15  C   UNL     1     -19.998   6.154 -14.938  1.00  0.00     0.000 C 
BRANCH  15  16
ATOM     16  C   UNL     1     -20.585   6.267 -16.359  1.00  0.00    -0.000 C 
BRANCH  16  17
ATOM     17  C   UNL     1     -19.770   7.180 -17.292  1.00  0.00    -0.003 C 
ATOM     18  C   UNL     1     -18.770   6.414 -18.154  1.00  0.00     0.004 C 
ENDBRANCH  16  17
ENDBRANCH  15  16
ENDBRANCH  14  15
ENDBRANCH  13  14
ENDBRANCH  12  13
ENDBRANCH  10  11
ENDBRANCH   1  10
TORSDOF 13
ENDMDL
MODEL 5
REMARK VINA RESULT:    -4.907      4.086      5.366
REMARK INTER + INTRA:         -10.037
REMARK INTER:                  -8.962
REMARK INTRA:                  -1.076
REMARK UNBOUND:                -1.401
REMARK SMILES CCCCCCC=CCCCCCCCC(=O)[O-]
REMARK SMILES IDX 10 1 11 2 12 3 13 4 14 5 15 6 16 7 17 8 18 9 9 10 8 11 7 12
REMARK SMILES IDX 6 13 5 14 4 15 3 16 2 17 1 18
REMARK H PARENT
REMARK Flexibility Score: inf
ROOT
ATOM      1  C   UNL     1     -16.767   2.033 -17.002  1.00  0.00     0.004 C 
ENDROOT
BRANCH   1   2
ATOM      2  C   UNL     1     -15.463   2.185 -17.799  1.00  0.00     0.000 C 
BRANCH   2   3
ATOM      3  C   UNL     1     -14.258   1.717 -16.974  1.00  0.00     0.000 C 
BRANCH   3   4
ATOM      4  C   UNL     1     -13.982   0.225 -17.200  1.00  0.00     0.000 C 
BRANCH   4   5
ATOM      5  C   UNL     1     -13.432  -0.026 -18.611  1.00  0.00     0.006 C 
BRANCH   5   6
ATOM      6  C   UNL     1     -11.961   0.388 -18.742  1.00  0.00     0.053 C 
BRANCH   6   7
ATOM      7  C   UNL     1     -11.041  -0.788 -18.617  1.00  0.00     0.041 C 
ATOM      8  O   UNL     1     -10.412  -0.991 -17.546  1.00  0.00    -0.550 OA
ATOM      9  O   UNL     1     -10.854  -1.643 -19.697  1.00  0.00    -0.550 OA
ENDBRANCH   6   7
ENDBRANCH   5   6
ENDBRANCH   4   5
ENDBRANCH   3   4
ENDBRANCH   2   3
ENDBRANCH   1   2
BRANCH   1  10
ATOM     10  C   UNL     1     -16.905   3.098 -15.906  1.00  0.00     0.027 C 
BRANCH  10  11
ATOM     11  C   UNL     1     -17.964   4.111 -16.250  1.00  0.00    -0.031 C 
ATOM     12  C   UNL     1     -18.480   4.198 -17.486  1.00  0.00    -0.031 C 
BRANCH  12  13
ATOM     13  C   UNL     1     -19.574   5.178 -17.816  1.00  0.00     0.027 C 
BRANCH  13  14
ATOM     14  C   UNL     1     -19.042   6.606 -18.009  1.00  0.00     0.004 C 
BRANCH  14  15
ATOM     15  C   UNL     1     -19.825   7.636 -17.176  1.00  0.00     0.000 C 
BRANCH  15  16
ATOM     16  C   UNL     1     -20.168   7.107 -15.768  1.00  0.00    -0.000 C 
BRANCH  16  17
ATOM     17  C   UNL     1     -19.408   7.824 -14.639  1.00  0.00    -0.003 C 
ATOM     18  C   UNL     1     -18.812   6.861 -13.615  1.00  0.00     0.004 C 
ENDBRANCH  16  17
ENDBRANCH  15  16
ENDBRANCH  14  15
ENDBRANCH  13  14
ENDBRANCH  12  13
ENDBRANCH  10  11
ENDBRANCH   1  10
TORSDOF 13
ENDMDL
MODEL 6
REMARK VINA RESULT:    -4.853      2.533      4.790
REMARK INTER + INTRA:          -9.942
REMARK INTER:                  -8.639
REMARK INTRA:                  -1.303
REMARK UNBOUND:                -1.401
REMARK SMILES CCCCCCC=CCCCCCCCC(=O)[O-]
REMARK SMILES IDX 10 1 11 2 12 3 13 4 14 5 15 6 16 7 17 8 18 9 9 10 8 11 7 12
REMARK SMILES IDX 6 13 5 14 4 15 3 16 2 17 1 18
REMARK H PARENT
REMARK Flexibility Score: inf
ROOT
ATOM      1  C   UNL     1     -20.358   5.822 -17.490  1.00  0.00     0.004 C 
ENDROOT
BRANCH   1   2
ATOM      2  C   UNL     1     -19.442   4.626 -17.784  1.00  0.00     0.000 C 
BRANCH   2   3
ATOM      3  C   UNL     1     -19.181   3.808 -16.514  1.00  0.00     0.000 C 
BRANCH   3   4
ATOM      4  C   UNL     1     -17.691   3.819 -16.148  1.00  0.00     0.000 C 
BRANCH   4   5
ATOM      5  C   UNL     1     -17.003   2.524 -16.603  1.00  0.00     0.006 C 
BRANCH   5   6
ATOM      6  C   UNL     1     -15.697   2.797 -17.361  1.00  0.00     0.053 C 
BRANCH   6   7
ATOM      7  C   UNL     1     -14.951   1.530 -17.654  1.00  0.00     0.041 C 
ATOM      8  O   UNL     1     -14.232   0.999 -16.768  1.00  0.00    -0.550 OA
ATOM      9  O   UNL     1     -15.026   0.956 -18.917  1.00  0.00    -0.550 OA
ENDBRANCH   6   7
ENDBRANCH   5   6
ENDBRANCH   4   5
ENDBRANCH   3   4
ENDBRANCH   2   3
ENDBRANCH   1   2
BRANCH   1  10
ATOM     10  C   UNL     1     -19.572   7.056 -17.028  1.00  0.00     0.027 C 
BRANCH  10  11
ATOM     11  C   UNL     1     -19.875   7.400 -15.594  1.00  0.00    -0.031 C 
ATOM     12  C   UNL     1     -19.111   6.953 -14.587  1.00  0.00    -0.031 C 
BRANCH  12  13
ATOM     13  C   UNL     1     -19.387   7.337 -13.157  1.00  0.00     0.027 C 
BRANCH  13  14
ATOM     14  C   UNL     1     -18.113   7.355 -12.300  1.00  0.00     0.004 C 
BRANCH  14  15
ATOM     15  C   UNL     1     -16.957   6.582 -12.960  1.00  0.00     0.000 C 
BRANCH  15  16
ATOM     16  C   UNL     1     -15.944   6.052 -11.924  1.00  0.00    -0.000 C 
BRANCH  16  17
ATOM     17  C   UNL     1     -14.962   5.016 -12.499  1.00  0.00    -0.003 C 
ATOM     18  C   UNL     1     -15.661   3.841 -13.177  1.00  0.00     0.004 C 
ENDBRANCH  16  17
ENDBRANCH  15  16
ENDBRANCH  14  15
ENDBRANCH  13  14
ENDBRANCH  12  13
ENDBRANCH  10  11
ENDBRANCH   1  10
TORSDOF 13
ENDMDL
MODEL 7
REMARK VINA RESULT:    -4.849      2.519      5.762
REMARK INTER + INTRA:          -9.935
REMARK INTER:                  -8.555
REMARK INTRA:                  -1.380
REMARK UNBOUND:                -1.401
REMARK SMILES CCCCCCC=CCCCCCCCC(=O)[O-]
REMARK SMILES IDX 10 1 11 2 12 3 13 4 14 5 15 6 16 7 17 8 18 9 9 10 8 11 7 12
REMARK SMILES IDX 6 13 5 14 4 15 3 16 2 17 1 18
REMARK H PARENT
REMARK Flexibility Score: inf
ROOT
ATOM      1  C   UNL     1     -15.797   6.210 -12.688  1.00  0.00     0.004 C 
ENDROOT
BRANCH   1   2
ATOM      2  C   UNL     1     -17.198   6.805 -12.484  1.00  0.00     0.000 C 
BRANCH   2   3
ATOM      3  C   UNL     1     -18.053   6.643 -13.746  1.00  0.00     0.000 C 
BRANCH   3   4
ATOM      4  C   UNL     1     -19.537   6.880 -13.440  1.00  0.00     0.000 C 
BRANCH   4   5
ATOM      5  C   UNL     1     -19.886   8.372 -13.529  1.00  0.00     0.006 C 
BRANCH   5   6
ATOM      6  C   UNL     1     -20.961   8.778 -12.513  1.00  0.00     0.053 C 
BRANCH   6   7
ATOM      7  C   UNL     1     -20.386   8.963 -11.142  1.00  0.00     0.041 C 
ATOM      8  O   UNL     1     -20.557   8.083 -10.259  1.00  0.00    -0.550 OA
ATOM      9  O   UNL     1     -19.688  10.124 -10.831  1.00  0.00    -0.550 OA
ENDBRANCH   6   7
ENDBRANCH   5   6
ENDBRANCH   4   5
ENDBRANCH   3   4
ENDBRANCH   2   3
ENDBRANCH   1   2
BRANCH   1  10
ATOM     10  C   UNL     1     -15.744   4.716 -12.341  1.00  0.00     0.027 C 
BRANCH  10  11
ATOM     11  C   UNL     1     -15.552   3.870 -13.571  1.00  0.00    -0.031 C 
ATOM     12  C   UNL     1     -16.521   3.733 -14.489  1.00  0.00    -0.031 C 
BRANCH  12  13
ATOM     13  C   UNL     1     -16.310   2.926 -15.743  1.00  0.00     0.027 C 
BRANCH  13  14
ATOM     14  C   UNL     1     -17.574   2.856 -16.613  1.00  0.00     0.004 C 
BRANCH  14  15
ATOM     15  C   UNL     1     -18.514   4.050 -16.369  1.00  0.00     0.000 C 
BRANCH  15  16
ATOM     16  C   UNL     1     -18.518   5.039 -17.553  1.00  0.00    -0.000 C 
BRANCH  16  17
ATOM     17  C   UNL     1     -19.814   5.863 -17.662  1.00  0.00    -0.003 C 
ATOM     18  C   UNL     1     -19.664   7.286 -17.130  1.00  0.00     0.004 C 
ENDBRANCH  16  17
ENDBRANCH  15  16
ENDBRANCH  14  15
ENDBRANCH  13  14
ENDBRANCH  12  13
ENDBRANCH  10  11
ENDBRANCH   1  10
TORSDOF 13
ENDMDL
MODEL 8
REMARK VINA RESULT:    -4.763      3.982      5.567
REMARK INTER + INTRA:          -9.785
REMARK INTER:                  -8.436
REMARK INTRA:                  -1.349
REMARK UNBOUND:                -1.401
REMARK SMILES CCCCCCC=CCCCCCCCC(=O)[O-]
REMARK SMILES IDX 10 1 11 2 12 3 13 4 14 5 15 6 16 7 17 8 18 9 9 10 8 11 7 12
REMARK SMILES IDX 6 13 5 14 4 15 3 16 2 17 1 18
REMARK H PARENT
REMARK Flexibility Score: inf
ROOT
ATOM      1  C   UNL     1     -16.553   3.135 -16.404  1.00  0.00     0.004 C 
ENDROOT
BRANCH   1   2
ATOM      2  C   UNL     1     -16.068   3.439 -17.829  1.00  0.00     0.000 C 
BRANCH   2   3
ATOM      3  C   UNL     1     -15.284   2.255 -18.408  1.00  0.00     0.000 C 
BRANCH   3   4
ATOM      4  C   UNL     1     -14.081   1.906 -17.523  1.00  0.00     0.000 C 
BRANCH   4   5
ATOM      5  C   UNL     1     -13.057   1.060 -18.293  1.00  0.00     0.006 C 
BRANCH   5   6
ATOM      6  C   UNL     1     -13.038  -0.400 -17.823  1.00  0.00     0.053 C 
BRANCH   6   7
ATOM      7  C   UNL     1     -11.775  -1.096 -18.227  1.00  0.00     0.041 C 
ATOM      8  O   UNL     1     -10.765  -1.064 -17.477  1.00  0.00    -0.550 OA
ATOM      9  O   UNL     1     -11.704  -1.753 -19.450  1.00  0.00    -0.550 OA
ENDBRANCH   6   7
ENDBRANCH   5   6
ENDBRANCH   4   5
ENDBRANCH   3   4
ENDBRANCH   2   3
ENDBRANCH   1   2
BRANCH   1  10
ATOM     10  C   UNL     1     -17.614   2.028 -16.376  1.00  0.00     0.027 C 
BRANCH  10  11
ATOM     11  C   UNL     1     -18.849   2.429 -17.139  1.00  0.00    -0.031 C 
ATOM     12  C   UNL     1     -20.077   2.093 -16.716  1.00  0.00    -0.031 C 
BRANCH  12  13
ATOM     13  C   UNL     1     -21.313   2.536 -17.453  1.00  0.00     0.027 C 
BRANCH  13  14
ATOM     14  C   UNL     1     -21.924   3.813 -16.857  1.00  0.00     0.004 C 
BRANCH  14  15
ATOM     15  C   UNL     1     -21.238   4.226 -15.542  1.00  0.00     0.000 C 
BRANCH  15  16
ATOM     16  C   UNL     1     -20.734   5.684 -15.581  1.00  0.00    -0.000 C 
BRANCH  16  17
ATOM     17  C   UNL     1     -19.258   5.814 -15.996  1.00  0.00    -0.003 C 
ATOM     18  C   UNL     1     -19.081   6.150 -17.475  1.00  0.00     0.004 C 
ENDBRANCH  16  17
ENDBRANCH  15  16
ENDBRANCH  14  15
ENDBRANCH  13  14
ENDBRANCH  12  13
ENDBRANCH  10  11
ENDBRANCH   1  10
TORSDOF 13
ENDMDL
MODEL 9
REMARK VINA RESULT:    -4.742      4.231      8.193
REMARK INTER + INTRA:          -9.748
REMARK INTER:                  -9.046
REMARK INTRA:                  -0.702
REMARK UNBOUND:                -1.401
REMARK SMILES CCCCCCC=CCCCCCCCC(=O)[O-]
REMARK SMILES IDX 10 1 11 2 12 3 13 4 14 5 15 6 16 7 17 8 18 9 9 10 8 11 7 12
REMARK SMILES IDX 6 13 5 14 4 15 3 16 2 17 1 18
REMARK H PARENT
REMARK Flexibility Score: inf
ROOT
ATOM      1  C   UNL     1     -16.873   3.468 -16.653  1.00  0.00     0.004 C 
ENDROOT
BRANCH   1   2
ATOM      2  C   UNL     1     -18.311   3.032 -16.968  1.00  0.00     0.000 C 
BRANCH   2   3
ATOM      3  C   UNL     1     -19.321   4.084 -16.494  1.00  0.00     0.000 C 
BRANCH   3   4
ATOM      4  C   UNL     1     -19.168   5.389 -17.284  1.00  0.00     0.000 C 
BRANCH   4   5
ATOM      5  C   UNL     1     -19.561   6.601 -16.428  1.00  0.00     0.006 C 
BRANCH   5   6
ATOM      6  C   UNL     1     -19.881   6.209 -14.980  1.00  0.00     0.053 C 
BRANCH   6   7
ATOM      7  C   UNL     1     -19.250   7.149 -13.999  1.00  0.00     0.041 C 
ATOM      8  O   UNL     1     -18.143   6.865 -13.471  1.00  0.00    -0.550 OA
ATOM      9  O   UNL     1     -19.901   8.324 -13.643  1.00  0.00    -0.550 OA
ENDBRANCH   6   7
ENDBRANCH   5   6
ENDBRANCH   4   5
ENDBRANCH   3   4
ENDBRANCH   2   3
ENDBRANCH   1   2
BRANCH   1  10
ATOM     10  C   UNL     1     -15.941   3.313 -17.861  1.00  0.00     0.027 C 
BRANCH  10  11
ATOM     11  C   UNL     1     -15.392   1.915 -17.958  1.00  0.00    -0.031 C 
ATOM     12  C   UNL     1     -14.332   1.523 -17.235  1.00  0.00    -0.031 C 
BRANCH  12  13
ATOM     13  C   UNL     1     -13.813   0.111 -17.296  1.00  0.00     0.027 C 
BRANCH  13  14
ATOM     14  C   UNL     1     -12.761  -0.078 -18.399  1.00  0.00     0.004 C 
BRANCH  14  15
ATOM     15  C   UNL     1     -11.630  -1.027 -17.965  1.00  0.00     0.000 C 
BRANCH  15  16
ATOM     16  C   UNL     1     -10.335  -0.797 -18.772  1.00  0.00    -0.000 C 
BRANCH  16  17
ATOM     17  C   UNL     1      -9.167  -0.268 -17.922  1.00  0.00    -0.003 C 
ATOM     18  C   UNL     1      -8.659   1.094 -18.387  1.00  0.00     0.004 C 
ENDBRANCH  16  17
ENDBRANCH  15  16
ENDBRANCH  14  15
ENDBRANCH  13  14
ENDBRANCH  12  13
ENDBRANCH  10  11
ENDBRANCH   1  10
TORSDOF 13
ENDMDL
