MODEL 1
REMARK VINA RESULT:    -4.573      0.000      0.000
REMARK INTER + INTRA:          -4.706
REMARK INTER:                  -4.706
REMARK INTRA:                   0.000
REMARK UNBOUND:                 0.000
REMARK SMILES Nc1ncnc2nc[nH]c12
REMARK SMILES IDX 8 1 7 2 6 3 5 4 4 5 3 6 2 7 10 8 9 9 1 11
REMARK H PARENT 9 10 1 12 1 13
REMARK Flexibility Score: inf
ROOT
ATOM      1  C   UNL     1      21.576  -4.303  19.278  1.00  0.00     0.199 A 
ATOM      2  N   UNL     1      21.421  -3.815  18.017  1.00  0.00    -0.217 NA
ATOM      3  C   UNL     1      21.621  -4.908  17.261  1.00  0.00     0.182 A 
ATOM      4  N   UNL     1      21.579  -4.974  15.909  1.00  0.00    -0.215 NA
ATOM      5  C   UNL     1      21.810  -6.184  15.316  1.00  0.00     0.226 A 
ATOM      6  N   UNL     1      22.075  -7.294  16.076  1.00  0.00    -0.217 NA
ATOM      7  C   UNL     1      22.118  -7.229  17.441  1.00  0.00     0.152 A 
ATOM      8  C   UNL     1      21.881  -5.990  18.030  1.00  0.00     0.127 A 
ATOM      9  N   UNL     1      21.858  -5.630  19.319  1.00  0.00    -0.340 N 
ATOM     10  H   UNL     1      22.016  -6.220  20.165  1.00  0.00     0.168 HD
ENDROOT
BRANCH   7  11
ATOM     11  N   UNL     1      22.395  -8.397  18.212  1.00  0.00    -0.382 N 
ATOM     12  H   UNL     1      22.542  -8.320  19.244  1.00  0.00     0.158 HD
ATOM     13  H   UNL     1      22.456  -9.341  17.769  1.00  0.00     0.158 HD
ENDBRANCH   7  11
TORSDOF 1
ENDMDL
MODEL 2
REMARK VINA RESULT:    -4.520      1.935      2.404
REMARK INTER + INTRA:          -4.653
REMARK INTER:                  -4.653
REMARK INTRA:                   0.000
REMARK UNBOUND:                 0.000
REMARK SMILES Nc1ncnc2nc[nH]c12
REMARK SMILES IDX 8 1 7 2 6 3 5 4 4 5 3 6 2 7 10 8 9 9 1 11
REMARK H PARENT 9 10 1 12 1 13
REMARK Flexibility Score: inf
ROOT
ATOM      1  C   UNL     1      22.565  -6.588  18.922  1.00  0.00     0.199 A 
ATOM      2  N   UNL     1      21.396  -5.914  18.739  1.00  0.00    -0.217 NA
ATOM      3  C   UNL     1      20.801  -6.631  17.771  1.00  0.00     0.182 A 
ATOM      4  N   UNL     1      19.593  -6.386  17.211  1.00  0.00    -0.215 NA
ATOM      5  C   UNL     1      19.152  -7.233  16.232  1.00  0.00     0.226 A 
ATOM      6  N   UNL     1      19.919  -8.298  15.836  1.00  0.00    -0.217 NA
ATOM      7  C   UNL     1      21.138  -8.548  16.400  1.00  0.00     0.152 A 
ATOM      8  C   UNL     1      21.573  -7.676  17.395  1.00  0.00     0.127 A 
ATOM      9  N   UNL     1      22.702  -7.670  18.114  1.00  0.00    -0.340 N 
ATOM     10  H   UNL     1      23.506  -8.334  18.073  1.00  0.00     0.168 HD
ENDROOT
BRANCH   7  11
ATOM     11  N   UNL     1      21.919  -9.663  15.973  1.00  0.00    -0.382 N 
ATOM     12  H   UNL     1      21.597 -10.636  16.178  1.00  0.00     0.158 HD
ATOM     13  H   UNL     1      22.815  -9.534  15.453  1.00  0.00     0.158 HD
ENDBRANCH   7  11
TORSDOF 1
ENDMDL
MODEL 3
REMARK VINA RESULT:    -4.452      1.516      3.090
REMARK INTER + INTRA:          -4.582
REMARK INTER:                  -4.582
REMARK INTRA:                   0.000
REMARK UNBOUND:                 0.000
REMARK SMILES Nc1ncnc2nc[nH]c12
REMARK SMILES IDX 8 1 7 2 6 3 5 4 4 5 3 6 2 7 10 8 9 9 1 11
REMARK H PARENT 9 10 1 12 1 13
REMARK Flexibility Score: inf
ROOT
ATOM      1  C   UNL     1      22.194  -3.593  20.793  1.00  0.00     0.199 A 
ATOM      2  N   UNL     1      22.113  -4.947  20.687  1.00  0.00    -0.217 NA
ATOM      3  C   UNL     1      21.929  -5.120  19.367  1.00  0.00     0.182 A 
ATOM      4  N   UNL     1      21.785  -6.300  18.719  1.00  0.00    -0.215 NA
ATOM      5  C   UNL     1      21.606  -6.273  17.364  1.00  0.00     0.226 A 
ATOM      6  N   UNL     1      21.574  -5.080  16.688  1.00  0.00    -0.217 NA
ATOM      7  C   UNL     1      21.719  -3.888  17.341  1.00  0.00     0.152 A 
ATOM      8  C   UNL     1      21.900  -3.932  18.720  1.00  0.00     0.127 A 
ATOM      9  N   UNL     1      22.067  -2.944  19.608  1.00  0.00    -0.340 N 
ATOM     10  H   UNL     1      22.096  -1.914  19.441  1.00  0.00     0.168 HD
ENDROOT
BRANCH   7  11
ATOM     11  N   UNL     1      21.684  -2.658  16.617  1.00  0.00    -0.382 N 
ATOM     12  H   UNL     1      22.171  -1.815  16.996  1.00  0.00     0.158 HD
ATOM     13  H   UNL     1      21.179  -2.576  15.707  1.00  0.00     0.158 HD
ENDBRANCH   7  11
TORSDOF 1
ENDMDL
MODEL 4
REMARK VINA RESULT:    -4.386     12.005     14.096
REMARK INTER + INTRA:          -4.514
REMARK INTER:                  -4.514
REMARK INTRA:                   0.000
REMARK UNBOUND:                 0.000
REMARK SMILES Nc1ncnc2nc[nH]c12
REMARK SMILES IDX 8 1 7 2 6 3 5 4 4 5 3 6 2 7 10 8 9 9 1 11
REMARK H PARENT 9 10 1 12 1 13
REMARK Flexibility Score: inf
ROOT
ATOM      1  C   UNL     1      25.800   2.520  23.947  1.00  0.00     0.199 A 
ATOM      2  N   UNL     1      27.151   2.674  23.898  1.00  0.00    -0.217 NA
ATOM      3  C   UNL     1      27.327   3.852  24.521  1.00  0.00     0.182 A 
ATOM      4  N   UNL     1      28.507   4.478  24.746  1.00  0.00    -0.215 NA
ATOM      5  C   UNL     1      28.485   5.678  25.400  1.00  0.00     0.226 A 
ATOM      6  N   UNL     1      27.297   6.225  25.813  1.00  0.00    -0.217 NA
ATOM      7  C   UNL     1      26.106   5.595  25.586  1.00  0.00     0.152 A 
ATOM      8  C   UNL     1      26.145   4.374  24.919  1.00  0.00     0.127 A 
ATOM      9  N   UNL     1      25.156   3.544  24.565  1.00  0.00    -0.340 N 
ATOM     10  H   UNL     1      24.129   3.646  24.721  1.00  0.00     0.168 HD
ENDROOT
BRANCH   7  11
ATOM     11  N   UNL     1      24.881   6.182  26.026  1.00  0.00    -0.382 N 
ATOM     12  H   UNL     1      24.091   5.573  26.337  1.00  0.00     0.158 HD
ATOM     13  H   UNL     1      24.750   7.218  26.047  1.00  0.00     0.158 HD
ENDBRANCH   7  11
TORSDOF 1
ENDMDL
MODEL 5
REMARK VINA RESULT:    -4.175     17.590     18.272
REMARK INTER + INTRA:          -4.297
REMARK INTER:                  -4.297
REMARK INTRA:                   0.000
REMARK UNBOUND:                 0.000
REMARK SMILES Nc1ncnc2nc[nH]c12
REMARK SMILES IDX 8 1 7 2 6 3 5 4 4 5 3 6 2 7 10 8 9 9 1 11
REMARK H PARENT 9 10 1 12 1 13
REMARK Flexibility Score: inf
ROOT
ATOM      1  C   UNL     1      19.654   7.179  30.708  1.00  0.00     0.199 A 
ATOM      2  N   UNL     1      20.947   7.012  30.319  1.00  0.00    -0.217 NA
ATOM      3  C   UNL     1      20.991   7.706  29.169  1.00  0.00     0.182 A 
ATOM      4  N   UNL     1      22.067   7.865  28.362  1.00  0.00    -0.215 NA
ATOM      5  C   UNL     1      21.916   8.612  27.227  1.00  0.00     0.226 A 
ATOM      6  N   UNL     1      20.706   9.180  26.922  1.00  0.00    -0.217 NA
ATOM      7  C   UNL     1      19.619   9.021  27.735  1.00  0.00     0.152 A 
ATOM      8  C   UNL     1      19.789   8.257  28.887  1.00  0.00     0.127 A 
ATOM      9  N   UNL     1      18.920   7.936  29.853  1.00  0.00    -0.340 N 
ATOM     10  H   UNL     1      17.914   8.199  29.942  1.00  0.00     0.168 HD
ENDROOT
BRANCH   7  11
ATOM     11  N   UNL     1      18.369   9.622  27.399  1.00  0.00    -0.382 N 
ATOM     12  H   UNL     1      18.343  10.593  27.014  1.00  0.00     0.158 HD
ATOM     13  H   UNL     1      17.467   9.113  27.528  1.00  0.00     0.158 HD
ENDBRANCH   7  11
TORSDOF 1
ENDMDL
MODEL 6
REMARK VINA RESULT:    -4.118      0.708      2.448
REMARK INTER + INTRA:          -4.239
REMARK INTER:                  -4.239
REMARK INTRA:                   0.000
REMARK UNBOUND:                 0.000
REMARK SMILES Nc1ncnc2nc[nH]c12
REMARK SMILES IDX 8 1 7 2 6 3 5 4 4 5 3 6 2 7 10 8 9 9 1 11
REMARK H PARENT 9 10 1 12 1 13
REMARK Flexibility Score: inf
ROOT
ATOM      1  C   UNL     1      21.725  -4.035  19.307  1.00  0.00     0.199 A 
ATOM      2  N   UNL     1      21.994  -5.272  19.806  1.00  0.00    -0.217 NA
ATOM      3  C   UNL     1      21.976  -6.036  18.700  1.00  0.00     0.182 A 
ATOM      4  N   UNL     1      22.188  -7.372  18.638  1.00  0.00    -0.215 NA
ATOM      5  C   UNL     1      22.128  -7.978  17.413  1.00  0.00     0.226 A 
ATOM      6  N   UNL     1      21.859  -7.245  16.286  1.00  0.00    -0.217 NA
ATOM      7  C   UNL     1      21.645  -5.896  16.347  1.00  0.00     0.152 A 
ATOM      8  C   UNL     1      21.709  -5.295  17.601  1.00  0.00     0.127 A 
ATOM      9  N   UNL     1      21.546  -4.016  17.961  1.00  0.00    -0.340 N 
ATOM     10  H   UNL     1      21.332  -3.190  17.361  1.00  0.00     0.168 HD
ENDROOT
BRANCH   7  11
ATOM     11  N   UNL     1      21.368  -5.153  15.160  1.00  0.00    -0.382 N 
ATOM     12  H   UNL     1      20.540  -4.516  15.123  1.00  0.00     0.158 HD
ATOM     13  H   UNL     1      21.977  -5.228  14.316  1.00  0.00     0.158 HD
ENDBRANCH   7  11
TORSDOF 1
ENDMDL
MODEL 7
REMARK VINA RESULT:    -4.052     17.636     18.182
REMARK INTER + INTRA:          -4.170
REMARK INTER:                  -4.170
REMARK INTRA:                   0.000
REMARK UNBOUND:                 0.000
REMARK SMILES Nc1ncnc2nc[nH]c12
REMARK SMILES IDX 8 1 7 2 6 3 5 4 4 5 3 6 2 7 10 8 9 9 1 11
REMARK H PARENT 9 10 1 12 1 13
REMARK Flexibility Score: inf
ROOT
ATOM      1  C   UNL     1      21.905   6.755  30.105  1.00  0.00     0.199 A 
ATOM      2  N   UNL     1      20.616   7.102  30.371  1.00  0.00    -0.217 NA
ATOM      3  C   UNL     1      20.323   7.919  29.346  1.00  0.00     0.182 A 
ATOM      4  N   UNL     1      19.145   8.550  29.127  1.00  0.00    -0.215 NA
ATOM      5  C   UNL     1      19.036   9.347  28.021  1.00  0.00     0.226 A 
ATOM      6  N   UNL     1      20.095   9.496  27.163  1.00  0.00    -0.217 NA
ATOM      7  C   UNL     1      21.285   8.860  27.382  1.00  0.00     0.152 A 
ATOM      8  C   UNL     1      21.380   8.053  28.513  1.00  0.00     0.127 A 
ATOM      9  N   UNL     1      22.401   7.321  28.975  1.00  0.00    -0.340 N 
ATOM     10  H   UNL     1      23.356   7.203  28.572  1.00  0.00     0.168 HD
ENDROOT
BRANCH   7  11
ATOM     11  N   UNL     1      22.374   9.030  26.475  1.00  0.00    -0.382 N 
ATOM     12  H   UNL     1      23.170   9.659  26.726  1.00  0.00     0.158 HD
ATOM     13  H   UNL     1      22.399   8.537  25.555  1.00  0.00     0.158 HD
ENDBRANCH   7  11
TORSDOF 1
ENDMDL
MODEL 8
REMARK VINA RESULT:    -3.989     11.924     13.454
REMARK INTER + INTRA:          -4.105
REMARK INTER:                  -4.105
REMARK INTRA:                   0.000
REMARK UNBOUND:                 0.000
REMARK SMILES Nc1ncnc2nc[nH]c12
REMARK SMILES IDX 8 1 7 2 6 3 5 4 4 5 3 6 2 7 10 8 9 9 1 11
REMARK H PARENT 9 10 1 12 1 13
REMARK Flexibility Score: inf
ROOT
ATOM      1  C   UNL     1      28.504   4.393  23.503  1.00  0.00     0.199 A 
ATOM      2  N   UNL     1      28.138   3.085  23.586  1.00  0.00    -0.217 NA
ATOM      3  C   UNL     1      27.013   3.149  24.318  1.00  0.00     0.182 A 
ATOM      4  N   UNL     1      26.235   2.107  24.697  1.00  0.00    -0.215 NA
ATOM      5  C   UNL     1      25.122   2.372  25.445  1.00  0.00     0.226 A 
ATOM      6  N   UNL     1      24.810   3.660  25.798  1.00  0.00    -0.217 NA
ATOM      7  C   UNL     1      25.594   4.713  25.417  1.00  0.00     0.152 A 
ATOM      8  C   UNL     1      26.724   4.426  24.655  1.00  0.00     0.127 A 
ATOM      9  N   UNL     1      27.659   5.238  24.147  1.00  0.00    -0.340 N 
ATOM     10  H   UNL     1      27.733   6.276  24.221  1.00  0.00     0.168 HD
ENDROOT
BRANCH   7  11
ATOM     11  N   UNL     1      25.249   6.045  25.794  1.00  0.00    -0.382 N 
ATOM     12  H   UNL     1      25.058   6.272  26.796  1.00  0.00     0.158 HD
ATOM     13  H   UNL     1      25.182   6.812  25.088  1.00  0.00     0.158 HD
ENDBRANCH   7  11
TORSDOF 1
ENDMDL
MODEL 9
REMARK VINA RESULT:    -3.936     18.237     19.226
REMARK INTER + INTRA:          -4.051
REMARK INTER:                  -4.051
REMARK INTRA:                   0.000
REMARK UNBOUND:                 0.000
REMARK SMILES Nc1ncnc2nc[nH]c12
REMARK SMILES IDX 8 1 7 2 6 3 5 4 4 5 3 6 2 7 10 8 9 9 1 11
REMARK H PARENT 9 10 1 12 1 13
REMARK Flexibility Score: inf
ROOT
ATOM      1  C   UNL     1      19.783   9.485  27.234  1.00  0.00     0.199 A 
ATOM      2  N   UNL     1      20.728  10.125  27.974  1.00  0.00    -0.217 NA
ATOM      3  C   UNL     1      20.630   9.503  29.162  1.00  0.00     0.182 A 
ATOM      4  N   UNL     1      21.362   9.762  30.272  1.00  0.00    -0.215 NA
ATOM      5  C   UNL     1      21.116   9.019  31.393  1.00  0.00     0.226 A 
ATOM      6  N   UNL     1      20.154   8.042  31.384  1.00  0.00    -0.217 NA
ATOM      7  C   UNL     1      19.415   7.780  30.265  1.00  0.00     0.152 A 
ATOM      8  C   UNL     1      19.677   8.545  29.132  1.00  0.00     0.127 A 
ATOM      9  N   UNL     1      19.122   8.514  27.914  1.00  0.00    -0.340 N 
ATOM     10  H   UNL     1      18.362   7.894  27.558  1.00  0.00     0.168 HD
ENDROOT
BRANCH   7  11
ATOM     11  N   UNL     1      18.419   6.757  30.279  1.00  0.00    -0.382 N 
ATOM     12  H   UNL     1      18.654   5.794  29.948  1.00  0.00     0.158 HD
ATOM     13  H   UNL     1      17.449   6.946  30.615  1.00  0.00     0.158 HD
ENDBRANCH   7  11
TORSDOF 1
ENDMDL
