MODEL 1
REMARK VINA RESULT:    -5.525      0.000      0.000
REMARK INTER + INTRA:         -11.546
REMARK INTER:                 -10.694
REMARK INTRA:                  -0.852
REMARK UNBOUND:                -0.852
REMARK SMILES CCCCCC=CCC=CCCCCCCCCOC(C)=O
REMARK SMILES IDX 12 1 11 2 10 3 9 4 8 5 7 6 6 7 5 8 4 9 3 10 2 11 1 12 13 13
REMARK SMILES IDX 14 14 15 15 16 16 17 17 18 18 19 19 20 20 22 21 21 22
REMARK H PARENT
REMARK Flexibility Score: inf
ROOT
ATOM      1  C   UNL     1      53.728  -4.108  -5.976  1.00  0.00     0.004 C 
ENDROOT
BRANCH   1   2
ATOM      2  C   UNL     1      53.538  -4.933  -4.698  1.00  0.00     0.027 C 
BRANCH   2   3
ATOM      3  C   UNL     1      52.109  -5.371  -4.541  1.00  0.00    -0.031 C 
ATOM      4  C   UNL     1      51.086  -4.541  -4.797  1.00  0.00    -0.027 C 
BRANCH   4   5
ATOM      5  C   UNL     1      49.658  -4.980  -4.630  1.00  0.00     0.054 C 
BRANCH   5   6
ATOM      6  C   UNL     1      49.581  -6.399  -4.140  1.00  0.00    -0.027 C 
ATOM      7  C   UNL     1      48.902  -6.720  -3.028  1.00  0.00    -0.031 C 
BRANCH   7   8
ATOM      8  C   UNL     1      48.828  -8.139  -2.535  1.00  0.00     0.027 C 
BRANCH   8   9
ATOM      9  C   UNL     1      48.524  -8.182  -1.031  1.00  0.00     0.004 C 
BRANCH   9  10
ATOM     10  C   UNL     1      47.030  -8.002  -0.724  1.00  0.00     0.000 C 
BRANCH  10  11
ATOM     11  C   UNL     1      46.758  -6.811   0.208  1.00  0.00    -0.003 C 
ATOM     12  C   UNL     1      45.307  -6.806   0.683  1.00  0.00     0.004 C 
ENDBRANCH  10  11
ENDBRANCH   9  10
ENDBRANCH   8   9
ENDBRANCH   7   8
ENDBRANCH   5   6
ENDBRANCH   4   5
ENDBRANCH   2   3
ENDBRANCH   1   2
BRANCH   1  13
ATOM     13  C   UNL     1      55.117  -3.453  -6.006  1.00  0.00     0.000 C 
BRANCH  13  14
ATOM     14  C   UNL     1      55.633  -3.077  -4.607  1.00  0.00     0.000 C 
BRANCH  14  15
ATOM     15  C   UNL     1      57.096  -3.472  -4.320  1.00  0.00     0.000 C 
BRANCH  15  16
ATOM     16  C   UNL     1      57.713  -2.825  -3.066  1.00  0.00     0.003 C 
BRANCH  16  17
ATOM     17  C   UNL     1      58.747  -1.740  -3.404  1.00  0.00     0.042 C 
BRANCH  17  18
ATOM     18  C   UNL     1      58.829  -0.676  -2.302  1.00  0.00     0.233 C 
BRANCH  18  19
ATOM     19  O   UNL     1      58.272   0.564  -2.737  1.00  0.00    -0.466 OA
BRANCH  19  20
ATOM     20  C   UNL     1      59.031   1.591  -3.309  1.00  0.00     0.302 C 
ATOM     21  O   UNL     1      60.170   1.359  -3.797  1.00  0.00    -0.253 OA
ATOM     22  C   UNL     1      58.500   2.983  -3.306  1.00  0.00     0.139 C 
ENDBRANCH  19  20
ENDBRANCH  18  19
ENDBRANCH  17  18
ENDBRANCH  16  17
ENDBRANCH  15  16
ENDBRANCH  14  15
ENDBRANCH  13  14
ENDBRANCH   1  13
TORSDOF 16
ENDMDL
MODEL 2
REMARK VINA RESULT:    -5.374      4.525      5.394
REMARK INTER + INTRA:         -11.254
REMARK INTER:                  -9.215
REMARK INTRA:                  -2.038
REMARK UNBOUND:                -0.852
REMARK SMILES CCCCCC=CCC=CCCCCCCCCOC(C)=O
REMARK SMILES IDX 12 1 11 2 10 3 9 4 8 5 7 6 6 7 5 8 4 9 3 10 2 11 1 12 13 13
REMARK SMILES IDX 14 14 15 15 16 16 17 17 18 18 19 19 20 20 22 21 21 22
REMARK H PARENT
REMARK Flexibility Score: inf
ROOT
ATOM      1  C   UNL     1      53.805  -5.000  -4.729  1.00  0.00     0.004 C 
ENDROOT
BRANCH   1   2
ATOM      2  C   UNL     1      52.778  -4.284  -5.613  1.00  0.00     0.027 C 
BRANCH   2   3
ATOM      3  C   UNL     1      51.407  -4.327  -4.997  1.00  0.00    -0.031 C 
ATOM      4  C   UNL     1      50.550  -5.327  -5.257  1.00  0.00    -0.027 C 
BRANCH   4   5
ATOM      5  C   UNL     1      49.176  -5.361  -4.647  1.00  0.00     0.054 C 
BRANCH   5   6
ATOM      6  C   UNL     1      49.074  -6.439  -3.604  1.00  0.00    -0.027 C 
ATOM      7  C   UNL     1      50.025  -7.375  -3.469  1.00  0.00    -0.031 C 
BRANCH   7   8
ATOM      8  C   UNL     1      49.921  -8.456  -2.429  1.00  0.00     0.027 C 
BRANCH   8   9
ATOM      9  C   UNL     1      49.220  -7.937  -1.165  1.00  0.00     0.004 C 
BRANCH   9  10
ATOM     10  C   UNL     1      47.883  -8.644  -0.898  1.00  0.00     0.000 C 
BRANCH  10  11
ATOM     11  C   UNL     1      46.721  -7.657  -0.710  1.00  0.00    -0.003 C 
ATOM     12  C   UNL     1      46.828  -6.931   0.628  1.00  0.00     0.004 C 
ENDBRANCH  10  11
ENDBRANCH   9  10
ENDBRANCH   8   9
ENDBRANCH   7   8
ENDBRANCH   5   6
ENDBRANCH   4   5
ENDBRANCH   2   3
ENDBRANCH   1   2
BRANCH   1  13
ATOM     13  C   UNL     1      53.930  -6.480  -5.120  1.00  0.00     0.000 C 
BRANCH  13  14
ATOM     14  C   UNL     1      54.070  -7.412  -3.904  1.00  0.00     0.000 C 
BRANCH  14  15
ATOM     15  C   UNL     1      53.804  -6.749  -2.537  1.00  0.00     0.000 C 
BRANCH  15  16
ATOM     16  C   UNL     1      53.282  -7.698  -1.442  1.00  0.00     0.003 C 
BRANCH  16  17
ATOM     17  C   UNL     1      54.312  -7.946  -0.329  1.00  0.00     0.042 C 
BRANCH  17  18
ATOM     18  C   UNL     1      55.129  -6.684  -0.025  1.00  0.00     0.233 C 
BRANCH  18  19
ATOM     19  O   UNL     1      54.984  -6.289   1.339  1.00  0.00    -0.466 OA
BRANCH  19  20
ATOM     20  C   UNL     1      54.168  -5.231   1.752  1.00  0.00     0.302 C 
ATOM     21  O   UNL     1      54.583  -4.040   1.713  1.00  0.00    -0.253 OA
ATOM     22  C   UNL     1      52.806  -5.519   2.283  1.00  0.00     0.139 C 
ENDBRANCH  19  20
ENDBRANCH  18  19
ENDBRANCH  17  18
ENDBRANCH  16  17
ENDBRANCH  15  16
ENDBRANCH  14  15
ENDBRANCH  13  14
ENDBRANCH   1  13
TORSDOF 16
ENDMDL
MODEL 3
REMARK VINA RESULT:    -5.275      5.347      8.739
REMARK INTER + INTRA:         -11.061
REMARK INTER:                  -8.880
REMARK INTRA:                  -2.182
REMARK UNBOUND:                -0.852
REMARK SMILES CCCCCC=CCC=CCCCCCCCCOC(C)=O
REMARK SMILES IDX 12 1 11 2 10 3 9 4 8 5 7 6 6 7 5 8 4 9 3 10 2 11 1 12 13 13
REMARK SMILES IDX 14 14 15 15 16 16 17 17 18 18 19 19 20 20 22 21 21 22
REMARK H PARENT
REMARK Flexibility Score: inf
ROOT
ATOM      1  C   UNL     1      58.375   2.681  -2.714  1.00  0.00     0.004 C 
ENDROOT
BRANCH   1   2
ATOM      2  C   UNL     1      59.587   2.159  -3.494  1.00  0.00     0.027 C 
BRANCH   2   3
ATOM      3  C   UNL     1      59.592   0.657  -3.549  1.00  0.00    -0.031 C 
ATOM      4  C   UNL     1      60.512  -0.069  -2.895  1.00  0.00    -0.027 C 
BRANCH   4   5
ATOM      5  C   UNL     1      60.519  -1.571  -2.961  1.00  0.00     0.054 C 
BRANCH   5   6
ATOM      6  C   UNL     1      59.233  -2.094  -3.536  1.00  0.00    -0.027 C 
ATOM      7  C   UNL     1      58.244  -2.542  -2.748  1.00  0.00    -0.031 C 
BRANCH   7   8
ATOM      8  C   UNL     1      56.958  -3.069  -3.323  1.00  0.00     0.027 C 
BRANCH   8   9
ATOM      9  C   UNL     1      57.226  -4.227  -4.295  1.00  0.00     0.004 C 
BRANCH   9  10
ATOM     10  C   UNL     1      56.457  -4.079  -5.617  1.00  0.00     0.000 C 
BRANCH  10  11
ATOM     11  C   UNL     1      55.263  -3.120  -5.501  1.00  0.00    -0.003 C 
ATOM     12  C   UNL     1      53.948  -3.889  -5.401  1.00  0.00     0.004 C 
ENDBRANCH  10  11
ENDBRANCH   9  10
ENDBRANCH   8   9
ENDBRANCH   7   8
ENDBRANCH   5   6
ENDBRANCH   4   5
ENDBRANCH   2   3
ENDBRANCH   1   2
BRANCH   1  13
ATOM     13  C   UNL     1      57.698   1.549  -1.928  1.00  0.00     0.000 C 
BRANCH  13  14
ATOM     14  C   UNL     1      58.238   1.408  -0.494  1.00  0.00     0.000 C 
BRANCH  14  15
ATOM     15  C   UNL     1      58.176  -0.017   0.092  1.00  0.00     0.000 C 
BRANCH  15  16
ATOM     16  C   UNL     1      56.801  -0.703  -0.005  1.00  0.00     0.003 C 
BRANCH  16  17
ATOM     17  C   UNL     1      56.425  -1.467   1.275  1.00  0.00     0.042 C 
BRANCH  17  18
ATOM     18  C   UNL     1      56.262  -2.969   1.008  1.00  0.00     0.233 C 
BRANCH  18  19
ATOM     19  O   UNL     1      57.285  -3.724   1.655  1.00  0.00    -0.466 OA
BRANCH  19  20
ATOM     20  C   UNL     1      58.615  -3.301   1.744  1.00  0.00     0.302 C 
ATOM     21  O   UNL     1      59.045  -2.728   2.781  1.00  0.00    -0.253 OA
ATOM     22  C   UNL     1      59.525  -3.496   0.579  1.00  0.00     0.139 C 
ENDBRANCH  19  20
ENDBRANCH  18  19
ENDBRANCH  17  18
ENDBRANCH  16  17
ENDBRANCH  15  16
ENDBRANCH  14  15
ENDBRANCH  13  14
ENDBRANCH   1  13
TORSDOF 16
ENDMDL
MODEL 4
REMARK VINA RESULT:    -5.244      4.267     11.156
REMARK INTER + INTRA:         -11.002
REMARK INTER:                 -10.111
REMARK INTRA:                  -0.890
REMARK UNBOUND:                -0.852
REMARK SMILES CCCCCC=CCC=CCCCCCCCCOC(C)=O
REMARK SMILES IDX 12 1 11 2 10 3 9 4 8 5 7 6 6 7 5 8 4 9 3 10 2 11 1 12 13 13
REMARK SMILES IDX 14 14 15 15 16 16 17 17 18 18 19 19 20 20 22 21 21 22
REMARK H PARENT
REMARK Flexibility Score: inf
ROOT
ATOM      1  C   UNL     1      52.558  -4.636  -4.925  1.00  0.00     0.004 C 
ENDROOT
BRANCH   1   2
ATOM      2  C   UNL     1      53.484  -4.024  -5.982  1.00  0.00     0.027 C 
BRANCH   2   3
ATOM      3  C   UNL     1      54.929  -4.209  -5.611  1.00  0.00    -0.031 C 
ATOM      4  C   UNL     1      55.561  -3.354  -4.793  1.00  0.00    -0.027 C 
BRANCH   4   5
ATOM      5  C   UNL     1      57.009  -3.538  -4.433  1.00  0.00     0.054 C 
BRANCH   5   6
ATOM      6  C   UNL     1      57.310  -2.952  -3.082  1.00  0.00    -0.027 C 
ATOM      7  C   UNL     1      58.107  -1.883  -2.944  1.00  0.00    -0.031 C 
BRANCH   7   8
ATOM      8  C   UNL     1      58.412  -1.299  -1.592  1.00  0.00     0.027 C 
BRANCH   8   9
ATOM      9  C   UNL     1      58.472   0.234  -1.657  1.00  0.00     0.004 C 
BRANCH   9  10
ATOM     10  C   UNL     1      59.588   0.744  -2.580  1.00  0.00     0.000 C 
BRANCH  10  11
ATOM     11  C   UNL     1      59.098   1.822  -3.559  1.00  0.00    -0.003 C 
ATOM     12  C   UNL     1      58.023   2.696  -2.920  1.00  0.00     0.004 C 
ENDBRANCH  10  11
ENDBRANCH   9  10
ENDBRANCH   8   9
ENDBRANCH   7   8
ENDBRANCH   5   6
ENDBRANCH   4   5
ENDBRANCH   2   3
ENDBRANCH   1   2
BRANCH   1  13
ATOM     13  C   UNL     1      51.140  -4.057  -5.036  1.00  0.00     0.000 C 
BRANCH  13  14
ATOM     14  C   UNL     1      50.045  -5.079  -4.681  1.00  0.00     0.000 C 
BRANCH  14  15
ATOM     15  C   UNL     1      50.345  -6.532  -5.102  1.00  0.00     0.000 C 
BRANCH  15  16
ATOM     16  C   UNL     1      49.926  -7.607  -4.083  1.00  0.00     0.003 C 
BRANCH  16  17
ATOM     17  C   UNL     1      49.095  -7.036  -2.924  1.00  0.00     0.042 C 
BRANCH  17  18
ATOM     18  C   UNL     1      49.306  -7.835  -1.631  1.00  0.00     0.233 C 
BRANCH  18  19
ATOM     19  O   UNL     1      48.460  -7.360  -0.584  1.00  0.00    -0.466 OA
BRANCH  19  20
ATOM     20  C   UNL     1      47.115  -7.721  -0.458  1.00  0.00     0.302 C 
ATOM     21  O   UNL     1      46.659  -8.738  -1.049  1.00  0.00    -0.253 OA
ATOM     22  C   UNL     1      46.201  -6.869   0.354  1.00  0.00     0.139 C 
ENDBRANCH  19  20
ENDBRANCH  18  19
ENDBRANCH  17  18
ENDBRANCH  16  17
ENDBRANCH  15  16
ENDBRANCH  14  15
ENDBRANCH  13  14
ENDBRANCH   1  13
TORSDOF 16
ENDMDL
MODEL 5
REMARK VINA RESULT:    -5.147      4.837      7.784
REMARK INTER + INTRA:         -10.813
REMARK INTER:                  -8.841
REMARK INTRA:                  -1.972
REMARK UNBOUND:                -0.852
REMARK SMILES CCCCCC=CCC=CCCCCCCCCOC(C)=O
REMARK SMILES IDX 12 1 11 2 10 3 9 4 8 5 7 6 6 7 5 8 4 9 3 10 2 11 1 12 13 13
REMARK SMILES IDX 14 14 15 15 16 16 17 17 18 18 19 19 20 20 22 21 21 22
REMARK H PARENT
REMARK Flexibility Score: inf
ROOT
ATOM      1  C   UNL     1      57.961   2.112  -2.893  1.00  0.00     0.004 C 
ENDROOT
BRANCH   1   2
ATOM      2  C   UNL     1      57.774   2.061  -1.373  1.00  0.00     0.027 C 
BRANCH   2   3
ATOM      3  C   UNL     1      57.865   0.651  -0.861  1.00  0.00    -0.031 C 
ATOM      4  C   UNL     1      58.683   0.321   0.150  1.00  0.00    -0.027 C 
BRANCH   4   5
ATOM      5  C   UNL     1      58.779  -1.093   0.653  1.00  0.00     0.054 C 
BRANCH   5   6
ATOM      6  C   UNL     1      57.467  -1.556   1.222  1.00  0.00    -0.027 C 
ATOM      7  C   UNL     1      56.899  -2.705   0.828  1.00  0.00    -0.031 C 
BRANCH   7   8
ATOM      8  C   UNL     1      55.585  -3.167   1.394  1.00  0.00     0.027 C 
BRANCH   8   9
ATOM      9  C   UNL     1      55.387  -4.672   1.165  1.00  0.00     0.004 C 
BRANCH   9  10
ATOM     10  C   UNL     1      54.820  -5.389   2.400  1.00  0.00     0.000 C 
BRANCH  10  11
ATOM     11  C   UNL     1      54.226  -6.765   2.063  1.00  0.00    -0.003 C 
ATOM     12  C   UNL     1      55.193  -7.587   1.216  1.00  0.00     0.004 C 
ENDBRANCH  10  11
ENDBRANCH   9  10
ENDBRANCH   8   9
ENDBRANCH   7   8
ENDBRANCH   5   6
ENDBRANCH   4   5
ENDBRANCH   2   3
ENDBRANCH   1   2
BRANCH   1  13
ATOM     13  C   UNL     1      59.445   2.272  -3.259  1.00  0.00     0.000 C 
BRANCH  13  14
ATOM     14  C   UNL     1      60.055   0.993  -3.858  1.00  0.00     0.000 C 
BRANCH  14  15
ATOM     15  C   UNL     1      60.861   0.126  -2.869  1.00  0.00     0.000 C 
BRANCH  15  16
ATOM     16  C   UNL     1      60.363  -1.323  -2.715  1.00  0.00     0.003 C 
BRANCH  16  17
ATOM     17  C   UNL     1      59.036  -1.577  -3.445  1.00  0.00     0.042 C 
BRANCH  17  18
ATOM     18  C   UNL     1      58.183  -2.624  -2.717  1.00  0.00     0.233 C 
BRANCH  18  19
ATOM     19  O   UNL     1      56.883  -2.727  -3.296  1.00  0.00    -0.466 OA
BRANCH  19  20
ATOM     20  C   UNL     1      56.604  -3.495  -4.431  1.00  0.00     0.302 C 
ATOM     21  O   UNL     1      57.505  -4.179  -4.988  1.00  0.00    -0.253 OA
ATOM     22  C   UNL     1      55.231  -3.472  -5.012  1.00  0.00     0.139 C 
ENDBRANCH  19  20
ENDBRANCH  18  19
ENDBRANCH  17  18
ENDBRANCH  16  17
ENDBRANCH  15  16
ENDBRANCH  14  15
ENDBRANCH  13  14
ENDBRANCH   1  13
TORSDOF 16
ENDMDL
MODEL 6
REMARK VINA RESULT:    -5.124      5.765      8.372
REMARK INTER + INTRA:         -10.768
REMARK INTER:                  -8.364
REMARK INTRA:                  -2.404
REMARK UNBOUND:                -0.852
REMARK SMILES CCCCCC=CCC=CCCCCCCCCOC(C)=O
REMARK SMILES IDX 12 1 11 2 10 3 9 4 8 5 7 6 6 7 5 8 4 9 3 10 2 11 1 12 13 13
REMARK SMILES IDX 14 14 15 15 16 16 17 17 18 18 19 19 20 20 22 21 21 22
REMARK H PARENT
REMARK Flexibility Score: inf
ROOT
ATOM      1  C   UNL     1      58.090   1.782  -2.886  1.00  0.00     0.004 C 
ENDROOT
BRANCH   1   2
ATOM      2  C   UNL     1      58.012   2.154  -1.402  1.00  0.00     0.027 C 
BRANCH   2   3
ATOM      3  C   UNL     1      58.238   0.952  -0.527  1.00  0.00    -0.031 C 
ATOM      4  C   UNL     1      57.439  -0.124  -0.591  1.00  0.00    -0.027 C 
BRANCH   4   5
ATOM      5  C   UNL     1      57.663  -1.320   0.292  1.00  0.00     0.054 C 
BRANCH   5   6
ATOM      6  C   UNL     1      57.226  -2.587  -0.390  1.00  0.00    -0.027 C 
ATOM      7  C   UNL     1      57.868  -3.058  -1.469  1.00  0.00    -0.031 C 
BRANCH   7   8
ATOM      8  C   UNL     1      57.429  -4.323  -2.154  1.00  0.00     0.027 C 
BRANCH   8   9
ATOM      9  C   UNL     1      57.502  -4.174  -3.681  1.00  0.00     0.004 C 
BRANCH   9  10
ATOM     10  C   UNL     1      56.557  -3.087  -4.215  1.00  0.00     0.000 C 
BRANCH  10  11
ATOM     11  C   UNL     1      55.259  -3.668  -4.796  1.00  0.00    -0.003 C 
ATOM     12  C   UNL     1      55.127  -3.340  -6.281  1.00  0.00     0.004 C 
ENDBRANCH  10  11
ENDBRANCH   9  10
ENDBRANCH   8   9
ENDBRANCH   7   8
ENDBRANCH   5   6
ENDBRANCH   4   5
ENDBRANCH   2   3
ENDBRANCH   1   2
BRANCH   1  13
ATOM     13  C   UNL     1      59.448   2.181  -3.482  1.00  0.00     0.000 C 
BRANCH  13  14
ATOM     14  C   UNL     1      60.446   1.012  -3.536  1.00  0.00     0.000 C 
BRANCH  14  15
ATOM     15  C   UNL     1      59.812  -0.393  -3.486  1.00  0.00     0.000 C 
BRANCH  15  16
ATOM     16  C   UNL     1      60.582  -1.427  -2.644  1.00  0.00     0.003 C 
BRANCH  16  17
ATOM     17  C   UNL     1      61.292  -0.800  -1.434  1.00  0.00     0.042 C 
BRANCH  17  18
ATOM     18  C   UNL     1      62.063  -1.851  -0.625  1.00  0.00     0.233 C 
BRANCH  18  19
ATOM     19  O   UNL     1      61.215  -2.500   0.322  1.00  0.00    -0.466 OA
BRANCH  19  20
ATOM     20  C   UNL     1      61.366  -2.372   1.706  1.00  0.00     0.302 C 
ATOM     21  O   UNL     1      60.650  -1.570   2.365  1.00  0.00    -0.253 OA
ATOM     22  C   UNL     1      62.417  -3.165   2.405  1.00  0.00     0.139 C 
ENDBRANCH  19  20
ENDBRANCH  18  19
ENDBRANCH  17  18
ENDBRANCH  16  17
ENDBRANCH  15  16
ENDBRANCH  14  15
ENDBRANCH  13  14
ENDBRANCH   1  13
TORSDOF 16
ENDMDL
MODEL 7
REMARK VINA RESULT:    -5.119      4.066      6.220
REMARK INTER + INTRA:         -10.760
REMARK INTER:                  -9.129
REMARK INTRA:                  -1.630
REMARK UNBOUND:                -0.852
REMARK SMILES CCCCCC=CCC=CCCCCCCCCOC(C)=O
REMARK SMILES IDX 12 1 11 2 10 3 9 4 8 5 7 6 6 7 5 8 4 9 3 10 2 11 1 12 13 13
REMARK SMILES IDX 14 14 15 15 16 16 17 17 18 18 19 19 20 20 22 21 21 22
REMARK H PARENT
REMARK Flexibility Score: inf
ROOT
ATOM      1  C   UNL     1      48.172  -7.597  -7.213  1.00  0.00     0.004 C 
ENDROOT
BRANCH   1   2
ATOM      2  C   UNL     1      48.102  -6.241  -6.503  1.00  0.00     0.027 C 
BRANCH   2   3
ATOM      3  C   UNL     1      48.523  -6.358  -5.065  1.00  0.00    -0.031 C 
ATOM      4  C   UNL     1      49.408  -7.284  -4.664  1.00  0.00    -0.027 C 
BRANCH   4   5
ATOM      5  C   UNL     1      49.820  -7.404  -3.223  1.00  0.00     0.054 C 
BRANCH   5   6
ATOM      6  C   UNL     1      48.628  -7.629  -2.336  1.00  0.00    -0.027 C 
ATOM      7  C   UNL     1      48.560  -7.097  -1.106  1.00  0.00    -0.031 C 
BRANCH   7   8
ATOM      8  C   UNL     1      47.370  -7.325  -0.216  1.00  0.00     0.027 C 
BRANCH   8   9
ATOM      9  C   UNL     1      46.259  -8.074  -0.965  1.00  0.00     0.004 C 
BRANCH   9  10
ATOM     10  C   UNL     1      44.853  -7.663  -0.505  1.00  0.00     0.000 C 
BRANCH  10  11
ATOM     11  C   UNL     1      44.880  -6.537   0.541  1.00  0.00    -0.003 C 
ATOM     12  C   UNL     1      43.549  -6.444   1.281  1.00  0.00     0.004 C 
ENDBRANCH  10  11
ENDBRANCH   9  10
ENDBRANCH   8   9
ENDBRANCH   7   8
ENDBRANCH   5   6
ENDBRANCH   4   5
ENDBRANCH   2   3
ENDBRANCH   1   2
BRANCH   1  13
ATOM     13  C   UNL     1      48.961  -7.489  -8.526  1.00  0.00     0.000 C 
BRANCH  13  14
ATOM     14  C   UNL     1      49.547  -6.086  -8.760  1.00  0.00     0.000 C 
BRANCH  14  15
ATOM     15  C   UNL     1      51.068  -5.967  -8.535  1.00  0.00     0.000 C 
BRANCH  15  16
ATOM     16  C   UNL     1      51.674  -7.024  -7.594  1.00  0.00     0.003 C 
BRANCH  16  17
ATOM     17  C   UNL     1      53.171  -7.261  -7.849  1.00  0.00     0.042 C 
BRANCH  17  18
ATOM     18  C   UNL     1      54.039  -6.587  -6.778  1.00  0.00     0.233 C 
BRANCH  18  19
ATOM     19  O   UNL     1      54.187  -5.191  -7.034  1.00  0.00    -0.466 OA
BRANCH  19  20
ATOM     20  C   UNL     1      53.788  -4.197  -6.135  1.00  0.00     0.302 C 
ATOM     21  O   UNL     1      52.566  -3.945  -5.949  1.00  0.00    -0.253 OA
ATOM     22  C   UNL     1      54.822  -3.398  -5.418  1.00  0.00     0.139 C 
ENDBRANCH  19  20
ENDBRANCH  18  19
ENDBRANCH  17  18
ENDBRANCH  16  17
ENDBRANCH  15  16
ENDBRANCH  14  15
ENDBRANCH  13  14
ENDBRANCH   1  13
TORSDOF 16
ENDMDL
MODEL 8
REMARK VINA RESULT:    -5.075      1.185      1.890
REMARK INTER + INTRA:         -10.674
REMARK INTER:                  -9.684
REMARK INTRA:                  -0.990
REMARK UNBOUND:                -0.852
REMARK SMILES CCCCCC=CCC=CCCCCCCCCOC(C)=O
REMARK SMILES IDX 12 1 11 2 10 3 9 4 8 5 7 6 6 7 5 8 4 9 3 10 2 11 1 12 13 13
REMARK SMILES IDX 14 14 15 15 16 16 17 17 18 18 19 19 20 20 22 21 21 22
REMARK H PARENT
REMARK Flexibility Score: inf
ROOT
ATOM      1  C   UNL     1      55.990  -3.989  -5.892  1.00  0.00     0.004 C 
ENDROOT
BRANCH   1   2
ATOM      2  C   UNL     1      54.691  -4.506  -6.519  1.00  0.00     0.027 C 
BRANCH   2   3
ATOM      3  C   UNL     1      53.517  -4.271  -5.609  1.00  0.00    -0.031 C 
ATOM      4  C   UNL     1      52.258  -4.502  -6.010  1.00  0.00    -0.027 C 
BRANCH   4   5
ATOM      5  C   UNL     1      51.087  -4.256  -5.100  1.00  0.00     0.054 C 
BRANCH   5   6
ATOM      6  C   UNL     1      50.552  -5.547  -4.545  1.00  0.00    -0.027 C 
ATOM      7  C   UNL     1      49.252  -5.696  -4.248  1.00  0.00    -0.031 C 
BRANCH   7   8
ATOM      8  C   UNL     1      48.717  -6.985  -3.689  1.00  0.00     0.027 C 
BRANCH   8   9
ATOM      9  C   UNL     1      48.828  -7.008  -2.158  1.00  0.00     0.004 C 
BRANCH   9  10
ATOM     10  C   UNL     1      48.451  -8.371  -1.558  1.00  0.00     0.000 C 
BRANCH  10  11
ATOM     11  C   UNL     1      47.048  -8.372  -0.931  1.00  0.00    -0.003 C 
ATOM     12  C   UNL     1      46.854  -7.164  -0.019  1.00  0.00     0.004 C 
ENDBRANCH  10  11
ENDBRANCH   9  10
ENDBRANCH   8   9
ENDBRANCH   7   8
ENDBRANCH   5   6
ENDBRANCH   4   5
ENDBRANCH   2   3
ENDBRANCH   1   2
BRANCH   1  13
ATOM     13  C   UNL     1      55.718  -3.318  -4.538  1.00  0.00     0.000 C 
BRANCH  13  14
ATOM     14  C   UNL     1      57.002  -2.843  -3.835  1.00  0.00     0.000 C 
BRANCH  14  15
ATOM     15  C   UNL     1      58.206  -3.798  -3.955  1.00  0.00     0.000 C 
BRANCH  15  16
ATOM     16  C   UNL     1      59.530  -3.132  -4.372  1.00  0.00     0.003 C 
BRANCH  16  17
ATOM     17  C   UNL     1      60.571  -3.119  -3.243  1.00  0.00     0.042 C 
BRANCH  17  18
ATOM     18  C   UNL     1      60.561  -1.788  -2.481  1.00  0.00     0.233 C 
BRANCH  18  19
ATOM     19  O   UNL     1      60.230  -0.700  -3.343  1.00  0.00    -0.466 OA
BRANCH  19  20
ATOM     20  C   UNL     1      59.311   0.298  -3.004  1.00  0.00     0.302 C 
ATOM     21  O   UNL     1      58.293   0.033  -2.307  1.00  0.00    -0.253 OA
ATOM     22  C   UNL     1      59.516   1.686  -3.508  1.00  0.00     0.139 C 
ENDBRANCH  19  20
ENDBRANCH  18  19
ENDBRANCH  17  18
ENDBRANCH  16  17
ENDBRANCH  15  16
ENDBRANCH  14  15
ENDBRANCH  13  14
ENDBRANCH   1  13
TORSDOF 16
ENDMDL
MODEL 9
REMARK VINA RESULT:    -4.134     12.194     16.620
REMARK INTER + INTRA:          -8.854
REMARK INTER:                  -8.084
REMARK INTRA:                  -0.770
REMARK UNBOUND:                -0.852
REMARK SMILES CCCCCC=CCC=CCCCCCCCCOC(C)=O
REMARK SMILES IDX 12 1 11 2 10 3 9 4 8 5 7 6 6 7 5 8 4 9 3 10 2 11 1 12 13 13
REMARK SMILES IDX 14 14 15 15 16 16 17 17 18 18 19 19 20 20 22 21 21 22
REMARK H PARENT
REMARK Flexibility Score: inf
ROOT
ATOM      1  C   UNL     1      59.201   2.057  10.423  1.00  0.00     0.004 C 
ENDROOT
BRANCH   1   2
ATOM      2  C   UNL     1      59.384   0.707  11.125  1.00  0.00     0.027 C 
BRANCH   2   3
ATOM      3  C   UNL     1      60.806   0.229  11.023  1.00  0.00    -0.031 C 
ATOM      4  C   UNL     1      61.193  -0.629  10.067  1.00  0.00    -0.027 C 
BRANCH   4   5
ATOM      5  C   UNL     1      62.615  -1.111   9.975  1.00  0.00     0.054 C 
BRANCH   5   6
ATOM      6  C   UNL     1      63.030  -1.304   8.543  1.00  0.00    -0.027 C 
ATOM      7  C   UNL     1      62.144  -1.215   7.540  1.00  0.00    -0.031 C 
BRANCH   7   8
ATOM      8  C   UNL     1      62.558  -1.411   6.107  1.00  0.00     0.027 C 
BRANCH   8   9
ATOM      9  C   UNL     1      61.421  -1.025   5.150  1.00  0.00     0.004 C 
BRANCH   9  10
ATOM     10  C   UNL     1      60.834  -2.236   4.410  1.00  0.00     0.000 C 
BRANCH  10  11
ATOM     11  C   UNL     1      61.072  -3.557   5.158  1.00  0.00    -0.003 C 
ATOM     12  C   UNL     1      60.722  -4.755   4.280  1.00  0.00     0.004 C 
ENDBRANCH  10  11
ENDBRANCH   9  10
ENDBRANCH   8   9
ENDBRANCH   7   8
ENDBRANCH   5   6
ENDBRANCH   4   5
ENDBRANCH   2   3
ENDBRANCH   1   2
BRANCH   1  13
ATOM     13  C   UNL     1      57.922   2.758  10.904  1.00  0.00     0.000 C 
BRANCH  13  14
ATOM     14  C   UNL     1      56.680   2.371  10.082  1.00  0.00     0.000 C 
BRANCH  14  15
ATOM     15  C   UNL     1      55.713   1.392  10.779  1.00  0.00     0.000 C 
BRANCH  15  16
ATOM     16  C   UNL     1      54.278   1.917  10.969  1.00  0.00     0.003 C 
BRANCH  16  17
ATOM     17  C   UNL     1      53.438   1.834   9.685  1.00  0.00     0.042 C 
BRANCH  17  18
ATOM     18  C   UNL     1      52.113   2.592   9.828  1.00  0.00     0.233 C 
BRANCH  18  19
ATOM     19  O   UNL     1      51.646   3.062   8.564  1.00  0.00    -0.466 OA
BRANCH  19  20
ATOM     20  C   UNL     1      50.295   3.284   8.275  1.00  0.00     0.302 C 
ATOM     21  O   UNL     1      49.942   4.223   7.512  1.00  0.00    -0.253 OA
ATOM     22  C   UNL     1      49.259   2.422   8.912  1.00  0.00     0.139 C 
ENDBRANCH  19  20
ENDBRANCH  18  19
ENDBRANCH  17  18
ENDBRANCH  16  17
ENDBRANCH  15  16
ENDBRANCH  14  15
ENDBRANCH  13  14
ENDBRANCH   1  13
TORSDOF 16
ENDMDL
