MODEL 1
REMARK VINA RESULT:    -4.662      0.000      0.000
REMARK INTER + INTRA:          -7.296
REMARK INTER:                  -7.115
REMARK INTRA:                  -0.181
REMARK UNBOUND:                -0.181
REMARK SMILES CC1=CCC[C@H](C)C(=O)C[C@H](C(C)C)C(=O)C1
REMARK SMILES IDX 8 1 9 2 6 3 7 4 5 5 4 6 3 7 2 8 1 9 10 11 11 12 15 13 16 14
REMARK SMILES IDX 17 15 12 17 13 18 14 19
REMARK H PARENT
REMARK Flexibility Score: 70.00
ROOT
ATOM      1  C   UNL     1       0.824  14.687  46.731  1.00  0.00     0.136 C 
ATOM      2  O   UNL     1       1.255  15.213  47.749  1.00  0.00    -0.299 OA
ENDROOT
BRANCH   1   3
ATOM      3  C   UNL     1      -0.650  14.903  46.395  1.00  0.00     0.053 C 
ATOM      4  C   UNL     1      -0.988  16.392  46.581  1.00  0.00     0.016 C 
BRANCH   3   5
ATOM      5  C   UNL     1      -1.119  14.457  44.988  1.00  0.00     0.015 C 
BRANCH   5   6
ATOM      6  C   UNL     1      -2.129  13.295  44.921  1.00  0.00     0.028 C 
BRANCH   6   7
ATOM      7  C   UNL     1      -1.917  12.205  45.945  1.00  0.00    -0.028 C 
ATOM      8  C   UNL     1      -0.902  11.301  45.999  1.00  0.00    -0.070 CG0
ATOM      9  C   UNL     1      -0.991  10.251  47.082  1.00  0.00     0.039 C 
ATOM     10  G   UNL     1       0.373  11.326  45.158  1.00  0.00     0.000 G0
ENDBRANCH   6   7
ENDBRANCH   5   6
ENDBRANCH   3   5
ENDBRANCH   1   3
BRANCH   1  11
ATOM     11  C   UNL     1       1.793  13.854  45.921  1.00  0.00     0.087 C 
BRANCH  11  12
ATOM     12  C   UNL     1       2.176  12.539  46.652  1.00  0.00     0.066 C 
BRANCH  12  13
ATOM     13  C   UNL     1       1.685  11.296  45.908  1.00  0.00     0.140 C 
ATOM     14  O   UNL     1       2.313  10.248  45.947  1.00  0.00    -0.299 OA
BRANCH  13  15
ATOM     15  C   UNL     1       0.380  11.328  45.151  1.00  0.00     0.106 CG0
ATOM     16  G   UNL     1      -0.889  11.300  46.002  1.00  0.00     0.000 G0
ENDBRANCH  13  15
ENDBRANCH  12  13
BRANCH  12  17
ATOM     17  C   UNL     1       3.689  12.514  47.043  1.00  0.00    -0.006 C 
ATOM     18  C   UNL     1       3.990  11.829  48.390  1.00  0.00     0.008 C 
ATOM     19  C   UNL     1       4.320  13.915  46.995  1.00  0.00     0.008 C 
ENDBRANCH  12  17
ENDBRANCH  11  12
ENDBRANCH   1  11
TORSDOF 1
ENDMDL
MODEL 2
REMARK VINA RESULT:    -4.290      2.035      5.168
REMARK INTER + INTRA:          -6.728
REMARK INTER:                  -6.705
REMARK INTRA:                  -0.023
REMARK UNBOUND:                -0.181
REMARK SMILES CC1=CCC[C@H](C)C(=O)C[C@H](C(C)C)C(=O)C1
REMARK SMILES IDX 8 1 9 2 6 3 7 4 5 5 4 6 3 7 2 8 1 9 10 11 11 12 15 13 16 14
REMARK SMILES IDX 17 15 12 17 13 18 14 19
REMARK H PARENT
REMARK Flexibility Score: 70.00
ROOT
ATOM      1  C   UNL     1      -1.791  12.122  45.904  1.00  0.00     0.136 C 
ATOM      2  O   UNL     1      -2.998  11.925  45.894  1.00  0.00    -0.299 OA
ENDROOT
BRANCH   1   3
ATOM      3  C   UNL     1      -0.932  11.198  46.764  1.00  0.00     0.053 C 
ATOM      4  C   UNL     1      -1.834  10.116  47.381  1.00  0.00     0.016 C 
BRANCH   3   5
ATOM      5  C   UNL     1       0.268  10.509  46.067  1.00  0.00     0.015 C 
BRANCH   5   6
ATOM      6  C   UNL     1       1.302  11.424  45.383  1.00  0.00     0.028 C 
BRANCH   6   7
ATOM      7  C   UNL     1       2.146  12.249  46.326  1.00  0.00    -0.028 C 
ATOM      8  C   UNL     1       2.228  13.605  46.399  1.00  0.00    -0.070 CG0
ATOM      9  C   UNL     1       3.235  14.168  47.374  1.00  0.00     0.039 C 
ATOM     10  G   UNL     1       1.316  14.602  45.687  1.00  0.00     0.000 G0
ENDBRANCH   6   7
ENDBRANCH   5   6
ENDBRANCH   3   5
ENDBRANCH   1   3
BRANCH   1  11
ATOM     11  C   UNL     1      -1.273  13.281  45.080  1.00  0.00     0.087 C 
BRANCH  11  12
ATOM     12  C   UNL     1      -1.320  14.618  45.869  1.00  0.00     0.066 C 
BRANCH  12  13
ATOM     13  C   UNL     1       0.049  15.015  46.422  1.00  0.00     0.140 C 
ATOM     14  O   UNL     1       0.150  15.621  47.479  1.00  0.00    -0.299 OA
BRANCH  13  15
ATOM     15  C   UNL     1       1.309  14.615  45.695  1.00  0.00     0.106 CG0
ATOM     16  G   UNL     1       2.214  13.621  46.419  1.00  0.00     0.000 G0
ENDBRANCH  13  15
ENDBRANCH  12  13
BRANCH  12  17
ATOM     17  C   UNL     1      -2.053  15.740  45.063  1.00  0.00    -0.006 C 
ATOM     18  C   UNL     1      -2.842  16.738  45.931  1.00  0.00     0.008 C 
ATOM     19  C   UNL     1      -2.946  15.162  43.953  1.00  0.00     0.008 C 
ENDBRANCH  12  17
ENDBRANCH  11  12
ENDBRANCH   1  11
TORSDOF 1
ENDMDL
MODEL 3
REMARK VINA RESULT:    -4.130      1.594      4.055
REMARK INTER + INTRA:          -6.485
REMARK INTER:                  -6.389
REMARK INTRA:                  -0.096
REMARK UNBOUND:                -0.181
REMARK SMILES CC1=CCC[C@H](C)C(=O)C[C@H](C(C)C)C(=O)C1
REMARK SMILES IDX 8 1 9 2 6 3 7 4 5 5 4 6 3 7 2 8 1 9 10 11 11 12 15 13 16 14
REMARK SMILES IDX 17 15 12 17 13 18 14 19
REMARK H PARENT
REMARK Flexibility Score: 70.00
ROOT
ATOM      1  C   UNL     1       2.328  14.018  46.867  1.00  0.00     0.136 C 
ATOM      2  O   UNL     1       3.134  14.934  46.784  1.00  0.00    -0.299 OA
ENDROOT
BRANCH   1   3
ATOM      3  C   UNL     1       2.862  12.594  46.741  1.00  0.00     0.053 C 
ATOM      4  C   UNL     1       4.272  12.537  47.353  1.00  0.00     0.016 C 
BRANCH   3   5
ATOM      5  C   UNL     1       2.002  11.466  47.364  1.00  0.00     0.015 C 
BRANCH   5   6
ATOM      6  C   UNL     1       1.233  10.551  46.391  1.00  0.00     0.028 C 
BRANCH   6   7
ATOM      7  C   UNL     1      -0.231  10.365  46.712  1.00  0.00    -0.028 C 
ATOM      8  C   UNL     1      -1.277  11.128  46.295  1.00  0.00    -0.070 CG0
ATOM      9  C   UNL     1      -2.636  10.771  46.851  1.00  0.00     0.039 C 
ATOM     10  G   UNL     1      -1.227  12.219  45.227  1.00  0.00     0.000 G0
ENDBRANCH   6   7
ENDBRANCH   5   6
ENDBRANCH   3   5
ENDBRANCH   1   3
BRANCH   1  11
ATOM     11  C   UNL     1       0.874  14.393  47.061  1.00  0.00     0.087 C 
BRANCH  11  12
ATOM     12  C   UNL     1       0.108  14.454  45.711  1.00  0.00     0.066 C 
BRANCH  12  13
ATOM     13  C   UNL     1      -1.192  13.648  45.744  1.00  0.00     0.140 C 
ATOM     14  O   UNL     1      -2.233  14.149  46.141  1.00  0.00    -0.299 OA
BRANCH  13  15
ATOM     15  C   UNL     1      -1.221  12.229  45.232  1.00  0.00     0.106 CG0
ATOM     16  G   UNL     1      -1.288  11.134  46.295  1.00  0.00     0.000 G0
ENDBRANCH  13  15
ENDBRANCH  12  13
BRANCH  12  17
ATOM     17  C   UNL     1      -0.044  15.923  45.197  1.00  0.00    -0.006 C 
ATOM     18  C   UNL     1      -0.401  16.948  46.290  1.00  0.00     0.008 C 
ATOM     19  C   UNL     1      -1.026  16.022  44.019  1.00  0.00     0.008 C 
ENDBRANCH  12  17
ENDBRANCH  11  12
ENDBRANCH   1  11
TORSDOF 1
ENDMDL
MODEL 4
REMARK VINA RESULT:    -4.043      1.782      4.943
REMARK INTER + INTRA:          -6.352
REMARK INTER:                  -6.797
REMARK INTRA:                   0.445
REMARK UNBOUND:                -0.181
REMARK SMILES CC1=CCC[C@H](C)C(=O)C[C@H](C(C)C)C(=O)C1
REMARK SMILES IDX 8 1 9 2 6 3 7 4 5 5 4 6 3 7 2 8 1 9 10 11 11 12 15 13 16 14
REMARK SMILES IDX 17 15 12 17 13 18 14 19
REMARK H PARENT
REMARK Flexibility Score: 70.00
ROOT
ATOM      1  C   UNL     1       2.571  11.007  46.250  1.00  0.00     0.136 C 
ATOM      2  O   UNL     1       3.533  10.350  45.876  1.00  0.00    -0.299 OA
ENDROOT
BRANCH   1   3
ATOM      3  C   UNL     1       2.744  11.856  47.507  1.00  0.00     0.053 C 
ATOM      4  C   UNL     1       2.832  10.924  48.727  1.00  0.00     0.016 C 
BRANCH   3   5
ATOM      5  C   UNL     1       3.950  12.828  47.534  1.00  0.00     0.015 C 
BRANCH   5   6
ATOM      6  C   UNL     1       3.713  14.255  47.001  1.00  0.00     0.028 C 
BRANCH   6   7
ATOM      7  C   UNL     1       2.374  14.856  47.359  1.00  0.00    -0.028 C 
ATOM      8  C   UNL     1       1.240  14.866  46.608  1.00  0.00    -0.070 CG0
ATOM      9  C   UNL     1       0.065  15.631  47.172  1.00  0.00     0.039 C 
ATOM     10  G   UNL     1       1.004  14.077  45.322  1.00  0.00     0.000 G0
ENDBRANCH   6   7
ENDBRANCH   5   6
ENDBRANCH   3   5
ENDBRANCH   1   3
BRANCH   1  11
ATOM     11  C   UNL     1       1.298  10.891  45.441  1.00  0.00     0.087 C 
BRANCH  11  12
ATOM     12  C   UNL     1       0.133  11.696  46.079  1.00  0.00     0.066 C 
BRANCH  12  13
ATOM     13  C   UNL     1      -0.100  13.035  45.379  1.00  0.00     0.140 C 
ATOM     14  O   UNL     1      -1.186  13.312  44.893  1.00  0.00    -0.299 OA
BRANCH  13  15
ATOM     15  C   UNL     1       1.000  14.067  45.325  1.00  0.00     0.106 CG0
ATOM     16  G   UNL     1       1.233  14.866  46.605  1.00  0.00     0.000 G0
ENDBRANCH  13  15
ENDBRANCH  12  13
BRANCH  12  17
ATOM     17  C   UNL     1      -1.148  10.817  46.256  1.00  0.00    -0.006 C 
ATOM     18  C   UNL     1      -2.446  11.617  46.479  1.00  0.00     0.008 C 
ATOM     19  C   UNL     1      -0.971   9.755  47.354  1.00  0.00     0.008 C 
ENDBRANCH  12  17
ENDBRANCH  11  12
ENDBRANCH   1  11
TORSDOF 1
ENDMDL
MODEL 5
REMARK VINA RESULT:    -3.881      1.884      4.536
REMARK INTER + INTRA:          -6.104
REMARK INTER:                  -5.796
REMARK INTRA:                  -0.309
REMARK UNBOUND:                -0.181
REMARK SMILES CC1=CCC[C@H](C)C(=O)C[C@H](C(C)C)C(=O)C1
REMARK SMILES IDX 8 1 9 2 6 3 7 4 5 5 4 6 3 7 2 8 1 9 10 11 11 12 15 13 16 14
REMARK SMILES IDX 17 15 12 17 13 18 14 19
REMARK H PARENT
REMARK Flexibility Score: 70.00
ROOT
ATOM      1  C   UNL     1       0.759  15.200  46.945  1.00  0.00     0.136 C 
ATOM      2  O   UNL     1       0.414  15.090  48.114  1.00  0.00    -0.299 OA
ENDROOT
BRANCH   1   3
ATOM      3  C   UNL     1       1.812  14.224  46.426  1.00  0.00     0.053 C 
ATOM      4  C   UNL     1       3.178  14.604  47.021  1.00  0.00     0.016 C 
BRANCH   3   5
ATOM      5  C   UNL     1       1.556  12.718  46.684  1.00  0.00     0.015 C 
BRANCH   5   6
ATOM      6  C   UNL     1       0.786  11.941  45.599  1.00  0.00     0.028 C 
BRANCH   6   7
ATOM      7  C   UNL     1      -0.627  11.557  45.970  1.00  0.00    -0.028 C 
ATOM      8  C   UNL     1      -1.773  12.235  45.691  1.00  0.00    -0.070 CG0
ATOM      9  C   UNL     1      -3.048  11.671  46.272  1.00  0.00     0.039 C 
ATOM     10  G   UNL     1      -1.906  13.430  44.748  1.00  0.00     0.000 G0
ENDBRANCH   6   7
ENDBRANCH   5   6
ENDBRANCH   3   5
ENDBRANCH   1   3
BRANCH   1  11
ATOM     11  C   UNL     1       0.124  16.312  46.138  1.00  0.00     0.087 C 
BRANCH  11  12
ATOM     12  C   UNL     1      -0.689  15.761  44.935  1.00  0.00     0.066 C 
BRANCH  12  13
ATOM     13  C   UNL     1      -1.800  14.806  45.374  1.00  0.00     0.140 C 
ATOM     14  O   UNL     1      -2.633  15.146  46.200  1.00  0.00    -0.299 OA
BRANCH  13  15
ATOM     15  C   UNL     1      -1.918  13.438  44.748  1.00  0.00     0.106 CG0
ATOM     16  G   UNL     1      -1.801  12.252  45.703  1.00  0.00     0.000 G0
ENDBRANCH  13  15
ENDBRANCH  12  13
BRANCH  12  17
ATOM     17  C   UNL     1      -1.149  16.906  43.975  1.00  0.00    -0.006 C 
ATOM     18  C   UNL     1      -1.473  18.238  44.678  1.00  0.00     0.008 C 
ATOM     19  C   UNL     1      -2.317  16.469  43.076  1.00  0.00     0.008 C 
ENDBRANCH  12  17
ENDBRANCH  11  12
ENDBRANCH   1  11
TORSDOF 1
ENDMDL
MODEL 6
REMARK VINA RESULT:    -3.763      1.410      3.749
REMARK INTER + INTRA:          -5.924
REMARK INTER:                  -6.480
REMARK INTRA:                   0.556
REMARK UNBOUND:                -0.181
REMARK SMILES CC1=CCC[C@H](C)C(=O)C[C@H](C(C)C)C(=O)C1
REMARK SMILES IDX 8 1 9 2 6 3 7 4 5 5 4 6 3 7 2 8 1 9 10 11 11 12 15 13 16 14
REMARK SMILES IDX 17 15 12 17 13 18 14 19
REMARK H PARENT
REMARK Flexibility Score: 70.00
ROOT
ATOM      1  C   UNL     1       1.974  10.815  46.428  1.00  0.00     0.136 C 
ATOM      2  O   UNL     1       2.868  10.126  45.957  1.00  0.00    -0.299 OA
ENDROOT
BRANCH   1   3
ATOM      3  C   UNL     1       0.569  10.633  45.860  1.00  0.00     0.053 C 
ATOM      4  C   UNL     1      -0.366  10.170  46.989  1.00  0.00     0.016 C 
BRANCH   3   5
ATOM      5  C   UNL     1      -0.066  11.860  45.158  1.00  0.00     0.015 C 
BRANCH   5   6
ATOM      6  C   UNL     1      -1.308  12.484  45.823  1.00  0.00     0.028 C 
BRANCH   6   7
ATOM      7  C   UNL     1      -1.318  13.993  45.867  1.00  0.00    -0.028 C 
ATOM      8  C   UNL     1      -0.248  14.832  45.872  1.00  0.00    -0.070 CG0
ATOM      9  C   UNL     1      -0.546  16.306  46.023  1.00  0.00     0.039 C 
ATOM     10  G   UNL     1       1.206  14.440  45.612  1.00  0.00     0.000 G0
ENDBRANCH   6   7
ENDBRANCH   5   6
ENDBRANCH   3   5
ENDBRANCH   1   3
BRANCH   1  11
ATOM     11  C   UNL     1       2.359  11.799  47.512  1.00  0.00     0.087 C 
BRANCH  11  12
ATOM     12  C   UNL     1       3.043  13.065  46.928  1.00  0.00     0.066 C 
BRANCH  12  13
ATOM     13  C   UNL     1       2.083  14.253  46.835  1.00  0.00     0.140 C 
ATOM     14  O   UNL     1       2.034  15.094  47.720  1.00  0.00    -0.299 OA
BRANCH  13  15
ATOM     15  C   UNL     1       1.216  14.437  45.615  1.00  0.00     0.106 CG0
ATOM     16  G   UNL     1      -0.235  14.837  45.877  1.00  0.00     0.000 G0
ENDBRANCH  13  15
ENDBRANCH  12  13
BRANCH  12  17
ATOM     17  C   UNL     1       4.399  13.372  47.641  1.00  0.00    -0.006 C 
ATOM     18  C   UNL     1       5.534  13.810  46.695  1.00  0.00     0.008 C 
ATOM     19  C   UNL     1       4.857  12.207  48.534  1.00  0.00     0.008 C 
ENDBRANCH  12  17
ENDBRANCH  11  12
ENDBRANCH   1  11
TORSDOF 1
ENDMDL
MODEL 7
REMARK VINA RESULT:    -3.603      1.871      4.496
REMARK INTER + INTRA:          -5.680
REMARK INTER:                  -5.327
REMARK INTRA:                  -0.354
REMARK UNBOUND:                -0.181
REMARK SMILES CC1=CCC[C@H](C)C(=O)C[C@H](C(C)C)C(=O)C1
REMARK SMILES IDX 8 1 9 2 6 3 7 4 5 5 4 6 3 7 2 8 1 9 10 11 11 12 15 13 16 14
REMARK SMILES IDX 17 15 12 17 13 18 14 19
REMARK H PARENT
REMARK Flexibility Score: 70.00
ROOT
ATOM      1  C   UNL     1       3.452  14.205  47.016  1.00  0.00     0.136 C 
ATOM      2  O   UNL     1       3.698  15.326  46.591  1.00  0.00    -0.299 OA
ENDROOT
BRANCH   1   3
ATOM      3  C   UNL     1       4.585  13.182  47.006  1.00  0.00     0.053 C 
ATOM      4  C   UNL     1       5.924  13.927  46.879  1.00  0.00     0.016 C 
BRANCH   3   5
ATOM      5  C   UNL     1       4.665  12.214  48.213  1.00  0.00     0.015 C 
BRANCH   5   6
ATOM      6  C   UNL     1       4.011  10.829  48.046  1.00  0.00     0.028 C 
BRANCH   6   7
ATOM      7  C   UNL     1       3.538  10.510  46.647  1.00  0.00    -0.028 C 
ATOM      8  C   UNL     1       2.275  10.611  46.153  1.00  0.00    -0.070 CG0
ATOM      9  C   UNL     1       2.064  10.128  44.737  1.00  0.00     0.039 C 
ATOM     10  G   UNL     1       1.088  11.281  46.844  1.00  0.00     0.000 G0
ENDBRANCH   6   7
ENDBRANCH   5   6
ENDBRANCH   3   5
ENDBRANCH   1   3
BRANCH   1  11
ATOM     11  C   UNL     1       2.038  13.939  47.486  1.00  0.00     0.087 C 
BRANCH  11  12
ATOM     12  C   UNL     1       1.040  13.854  46.299  1.00  0.00     0.066 C 
BRANCH  12  13
ATOM     13  C   UNL     1       0.453  12.452  46.133  1.00  0.00     0.140 C 
ATOM     14  O   UNL     1      -0.498  12.250  45.392  1.00  0.00    -0.299 OA
BRANCH  13  15
ATOM     15  C   UNL     1       1.076  11.276  46.845  1.00  0.00     0.106 CG0
ATOM     16  G   UNL     1       2.272  10.629  46.150  1.00  0.00     0.000 G0
ENDBRANCH  13  15
ENDBRANCH  12  13
BRANCH  12  17
ATOM     17  C   UNL     1      -0.015  15.006  46.346  1.00  0.00    -0.006 C 
ATOM     18  C   UNL     1      -0.092  15.854  45.062  1.00  0.00     0.008 C 
ATOM     19  C   UNL     1       0.167  15.905  47.580  1.00  0.00     0.008 C 
ENDBRANCH  12  17
ENDBRANCH  11  12
ENDBRANCH   1  11
TORSDOF 1
ENDMDL
MODEL 8
REMARK VINA RESULT:    -3.584      1.793      3.936
REMARK INTER + INTRA:          -5.651
REMARK INTER:                  -6.826
REMARK INTRA:                   1.175
REMARK UNBOUND:                -0.181
REMARK SMILES CC1=CCC[C@H](C)C(=O)C[C@H](C(C)C)C(=O)C1
REMARK SMILES IDX 8 1 9 2 6 3 7 4 5 5 4 6 3 7 2 8 1 9 10 11 11 12 15 13 16 14
REMARK SMILES IDX 17 15 12 17 13 18 14 19
REMARK H PARENT
REMARK Flexibility Score: 70.00
ROOT
ATOM      1  C   UNL     1       2.723  11.347  47.615  1.00  0.00     0.136 C 
ATOM      2  O   UNL     1       2.185  10.881  48.610  1.00  0.00    -0.299 OA
ENDROOT
BRANCH   1   3
ATOM      3  C   UNL     1       2.008  11.168  46.278  1.00  0.00     0.053 C 
ATOM      4  C   UNL     1       2.604   9.948  45.556  1.00  0.00     0.016 C 
BRANCH   3   5
ATOM      5  C   UNL     1       0.467  11.017  46.323  1.00  0.00     0.015 C 
BRANCH   5   6
ATOM      6  C   UNL     1      -0.361  12.031  45.510  1.00  0.00     0.028 C 
BRANCH   6   7
ATOM      7  C   UNL     1      -0.470  13.406  46.124  1.00  0.00    -0.028 C 
ATOM      8  C   UNL     1       0.532  14.298  46.350  1.00  0.00    -0.070 CG0
ATOM      9  C   UNL     1       0.153  15.568  47.075  1.00  0.00     0.039 C 
ATOM     10  G   UNL     1       1.964  14.194  45.830  1.00  0.00     0.000 G0
ENDBRANCH   6   7
ENDBRANCH   5   6
ENDBRANCH   3   5
ENDBRANCH   1   3
BRANCH   1  11
ATOM     11  C   UNL     1       4.058  12.033  47.809  1.00  0.00     0.087 C 
BRANCH  11  12
ATOM     12  C   UNL     1       4.232  13.240  46.847  1.00  0.00     0.066 C 
BRANCH  12  13
ATOM     13  C   UNL     1       3.055  14.215  46.920  1.00  0.00     0.140 C 
ATOM     14  O   UNL     1       2.983  15.051  47.808  1.00  0.00    -0.299 OA
BRANCH  13  15
ATOM     15  C   UNL     1       1.984  14.195  45.858  1.00  0.00     0.106 CG0
ATOM     16  G   UNL     1       0.544  14.303  46.355  1.00  0.00     0.000 G0
ENDBRANCH  13  15
ENDBRANCH  12  13
BRANCH  12  17
ATOM     17  C   UNL     1       5.640  13.901  46.996  1.00  0.00    -0.006 C 
ATOM     18  C   UNL     1       6.647  13.513  45.897  1.00  0.00     0.008 C 
ATOM     19  C   UNL     1       6.243  13.666  48.391  1.00  0.00     0.008 C 
ENDBRANCH  12  17
ENDBRANCH  11  12
ENDBRANCH   1  11
TORSDOF 1
ENDMDL
MODEL 9
REMARK VINA RESULT:    -2.684      2.522      4.388
REMARK INTER + INTRA:          -4.278
REMARK INTER:                  -5.714
REMARK INTRA:                   1.436
REMARK UNBOUND:                -0.181
REMARK SMILES CC1=CCC[C@H](C)C(=O)C[C@H](C(C)C)C(=O)C1
REMARK SMILES IDX 8 1 9 2 6 3 7 4 5 5 4 6 3 7 2 8 1 9 10 11 11 12 15 13 16 14
REMARK SMILES IDX 17 15 12 17 13 18 14 19
REMARK H PARENT
REMARK Flexibility Score: 70.00
ROOT
ATOM      1  C   UNL     1      -0.037  12.138  46.275  1.00  0.00     0.136 C 
ATOM      2  O   UNL     1      -1.254  12.022  46.310  1.00  0.00    -0.299 OA
ENDROOT
BRANCH   1   3
ATOM      3  C   UNL     1       0.535  13.341  45.528  1.00  0.00     0.053 C 
ATOM      4  C   UNL     1      -0.505  13.833  44.508  1.00  0.00     0.016 C 
BRANCH   3   5
ATOM      5  C   UNL     1       0.997  14.544  46.389  1.00  0.00     0.015 C 
BRANCH   5   6
ATOM      6  C   UNL     1       2.053  14.264  47.476  1.00  0.00     0.028 C 
BRANCH   6   7
ATOM      7  C   UNL     1       3.486  14.327  47.005  1.00  0.00    -0.028 C 
ATOM      8  C   UNL     1       4.513  13.506  47.353  1.00  0.00    -0.070 CG0
ATOM      9  C   UNL     1       5.876  13.861  46.807  1.00  0.00     0.039 C 
ATOM     10  G   UNL     1       4.395  12.197  48.132  1.00  0.00     0.000 G0
ENDBRANCH   6   7
ENDBRANCH   5   6
ENDBRANCH   3   5
ENDBRANCH   1   3
BRANCH   1  11
ATOM     11  C   UNL     1       0.780  11.062  46.956  1.00  0.00     0.087 C 
BRANCH  11  12
ATOM     12  C   UNL     1       2.305  11.291  46.772  1.00  0.00     0.066 C 
BRANCH  12  13
ATOM     13  C   UNL     1       3.022  11.529  48.102  1.00  0.00     0.140 C 
ATOM     14  O   UNL     1       2.529  11.161  49.158  1.00  0.00    -0.299 OA
BRANCH  13  15
ATOM     15  C   UNL     1       4.383  12.179  48.127  1.00  0.00     0.106 CG0
ATOM     16  G   UNL     1       4.515  13.489  47.353  1.00  0.00     0.000 G0
ENDBRANCH  13  15
ENDBRANCH  12  13
BRANCH  12  17
ATOM     17  C   UNL     1       2.950  10.191  45.867  1.00  0.00    -0.006 C 
ATOM     18  C   UNL     1       4.390  10.500  45.415  1.00  0.00     0.008 C 
ATOM     19  C   UNL     1       2.065   9.847  44.659  1.00  0.00     0.008 C 
ENDBRANCH  12  17
ENDBRANCH  11  12
ENDBRANCH   1  11
TORSDOF 1
ENDMDL
