MODEL 1
REMARK VINA RESULT:    -4.704      0.000      0.000
REMARK INTER + INTRA:          -8.112
REMARK INTER:                  -7.455
REMARK INTRA:                  -0.657
REMARK UNBOUND:                -0.657
REMARK SMILES CCCCCCCCCCCC(=O)[O-]
REMARK SMILES IDX 7 1 8 2 9 3 10 4 11 5 12 6 13 7 14 8 6 9 5 10 4 11 3 12 2 13
REMARK SMILES IDX 1 14
REMARK H PARENT
REMARK Flexibility Score: inf
ROOT
ATOM      1  C   UNL     1     -19.456  43.382  85.701  1.00  0.00     0.000 C 
ENDROOT
BRANCH   1   2
ATOM      2  C   UNL     1     -20.698  43.089  86.570  1.00  0.00     0.000 C 
BRANCH   2   3
ATOM      3  C   UNL     1     -20.829  41.611  86.978  1.00  0.00     0.000 C 
BRANCH   3   4
ATOM      4  C   UNL     1     -19.476  40.885  87.035  1.00  0.00     0.006 C 
BRANCH   4   5
ATOM      5  C   UNL     1     -19.523  39.642  87.934  1.00  0.00     0.053 C 
BRANCH   5   6
ATOM      6  C   UNL     1     -20.156  38.476  87.240  1.00  0.00     0.041 C 
ATOM      7  O   UNL     1     -20.984  37.749  87.849  1.00  0.00    -0.550 OA
ATOM      8  O   UNL     1     -19.811  38.174  85.928  1.00  0.00    -0.550 OA
ENDBRANCH   5   6
ENDBRANCH   4   5
ENDBRANCH   3   4
ENDBRANCH   2   3
ENDBRANCH   1   2
BRANCH   1   9
ATOM      9  C   UNL     1     -19.029  44.859  85.779  1.00  0.00     0.000 C 
BRANCH   9  10
ATOM     10  C   UNL     1     -17.590  45.090  85.290  1.00  0.00    -0.000 C 
BRANCH  10  11
ATOM     11  C   UNL     1     -17.511  46.124  84.154  1.00  0.00    -0.000 C 
BRANCH  11  12
ATOM     12  C   UNL     1     -18.789  46.970  84.030  1.00  0.00    -0.000 C 
BRANCH  12  13
ATOM     13  C   UNL     1     -19.458  46.884  82.643  1.00  0.00    -0.003 C 
ATOM     14  C   UNL     1     -20.763  46.089  82.675  1.00  0.00     0.004 C 
ENDBRANCH  12  13
ENDBRANCH  11  12
ENDBRANCH  10  11
ENDBRANCH   9  10
ENDBRANCH   1   9
TORSDOF 10
ENDMDL
MODEL 2
REMARK VINA RESULT:    -4.655      1.318      2.460
REMARK INTER + INTRA:          -8.034
REMARK INTER:                  -7.078
REMARK INTRA:                  -0.956
REMARK UNBOUND:                -0.657
REMARK SMILES CCCCCCCCCCCC(=O)[O-]
REMARK SMILES IDX 7 1 8 2 9 3 10 4 11 5 12 6 13 7 14 8 6 9 5 10 4 11 3 12 2 13
REMARK SMILES IDX 1 14
REMARK H PARENT
REMARK Flexibility Score: inf
ROOT
ATOM      1  C   UNL     1     -21.040  45.239  86.148  1.00  0.00     0.000 C 
ENDROOT
BRANCH   1   2
ATOM      2  C   UNL     1     -20.331  44.148  86.978  1.00  0.00     0.000 C 
BRANCH   2   3
ATOM      3  C   UNL     1     -20.033  42.866  86.182  1.00  0.00     0.000 C 
BRANCH   3   4
ATOM      4  C   UNL     1     -20.457  41.589  86.925  1.00  0.00     0.006 C 
BRANCH   4   5
ATOM      5  C   UNL     1     -19.252  40.769  87.404  1.00  0.00     0.053 C 
BRANCH   5   6
ATOM      6  C   UNL     1     -19.675  39.519  88.113  1.00  0.00     0.041 C 
ATOM      7  O   UNL     1     -19.066  39.141  89.149  1.00  0.00    -0.550 OA
ATOM      8  O   UNL     1     -20.723  38.754  87.614  1.00  0.00    -0.550 OA
ENDBRANCH   5   6
ENDBRANCH   4   5
ENDBRANCH   3   4
ENDBRANCH   2   3
ENDBRANCH   1   2
BRANCH   1   9
ATOM      9  C   UNL     1     -20.923  44.984  84.634  1.00  0.00     0.000 C 
BRANCH   9  10
ATOM     10  C   UNL     1     -20.907  46.283  83.811  1.00  0.00    -0.000 C 
BRANCH  10  11
ATOM     11  C   UNL     1     -19.671  46.392  82.903  1.00  0.00    -0.000 C 
BRANCH  11  12
ATOM     12  C   UNL     1     -18.528  45.461  83.340  1.00  0.00    -0.000 C 
BRANCH  12  13
ATOM     13  C   UNL     1     -17.548  46.110  84.339  1.00  0.00    -0.003 C 
ATOM     14  C   UNL     1     -17.070  45.126  85.407  1.00  0.00     0.004 C 
ENDBRANCH  12  13
ENDBRANCH  11  12
ENDBRANCH  10  11
ENDBRANCH   9  10
ENDBRANCH   1   9
TORSDOF 10
ENDMDL
MODEL 3
REMARK VINA RESULT:    -4.653      5.416      7.607
REMARK INTER + INTRA:          -8.031
REMARK INTER:                  -7.229
REMARK INTRA:                  -0.802
REMARK UNBOUND:                -0.657
REMARK SMILES CCCCCCCCCCCC(=O)[O-]
REMARK SMILES IDX 7 1 8 2 9 3 10 4 11 5 12 6 13 7 14 8 6 9 5 10 4 11 3 12 2 13
REMARK SMILES IDX 1 14
REMARK H PARENT
REMARK Flexibility Score: inf
ROOT
ATOM      1  C   UNL     1     -20.413  38.960  86.735  1.00  0.00     0.000 C 
ENDROOT
BRANCH   1   2
ATOM      2  C   UNL     1     -19.656  37.786  86.078  1.00  0.00     0.000 C 
BRANCH   2   3
ATOM      3  C   UNL     1     -19.210  38.072  84.633  1.00  0.00     0.000 C 
BRANCH   3   4
ATOM      4  C   UNL     1     -18.329  36.957  84.047  1.00  0.00     0.006 C 
BRANCH   4   5
ATOM      5  C   UNL     1     -17.391  37.476  82.950  1.00  0.00     0.053 C 
BRANCH   5   6
ATOM      6  C   UNL     1     -17.125  36.435  81.906  1.00  0.00     0.041 C 
ATOM      7  O   UNL     1     -16.927  35.238  82.242  1.00  0.00    -0.550 OA
ATOM      8  O   UNL     1     -17.068  36.792  80.564  1.00  0.00    -0.550 OA
ENDBRANCH   5   6
ENDBRANCH   4   5
ENDBRANCH   3   4
ENDBRANCH   2   3
ENDBRANCH   1   2
BRANCH   1   9
ATOM      9  C   UNL     1     -19.456  40.047  87.258  1.00  0.00     0.000 C 
BRANCH   9  10
ATOM     10  C   UNL     1     -19.571  40.260  88.776  1.00  0.00    -0.000 C 
BRANCH  10  11
ATOM     11  C   UNL     1     -20.577  39.300  89.434  1.00  0.00    -0.000 C 
BRANCH  11  12
ATOM     12  C   UNL     1     -19.922  38.375  90.473  1.00  0.00    -0.000 C 
BRANCH  12  13
ATOM     13  C   UNL     1     -18.511  37.896  90.075  1.00  0.00    -0.003 C 
ATOM     14  C   UNL     1     -18.528  36.514  89.423  1.00  0.00     0.004 C 
ENDBRANCH  12  13
ENDBRANCH  11  12
ENDBRANCH  10  11
ENDBRANCH   9  10
ENDBRANCH   1   9
TORSDOF 10
ENDMDL
MODEL 4
REMARK VINA RESULT:    -4.621      1.103      2.069
REMARK INTER + INTRA:          -7.979
REMARK INTER:                  -7.129
REMARK INTRA:                  -0.850
REMARK UNBOUND:                -0.657
REMARK SMILES CCCCCCCCCCCC(=O)[O-]
REMARK SMILES IDX 7 1 8 2 9 3 10 4 11 5 12 6 13 7 14 8 6 9 5 10 4 11 3 12 2 13
REMARK SMILES IDX 1 14
REMARK H PARENT
REMARK Flexibility Score: inf
ROOT
ATOM      1  C   UNL     1     -20.511  44.694  86.487  1.00  0.00     0.000 C 
ENDROOT
BRANCH   1   2
ATOM      2  C   UNL     1     -20.139  43.307  85.921  1.00  0.00     0.000 C 
BRANCH   2   3
ATOM      3  C   UNL     1     -20.537  42.140  86.842  1.00  0.00     0.000 C 
BRANCH   3   4
ATOM      4  C   UNL     1     -19.487  41.018  86.874  1.00  0.00     0.006 C 
BRANCH   4   5
ATOM      5  C   UNL     1     -19.781  39.980  87.964  1.00  0.00     0.053 C 
BRANCH   5   6
ATOM      6  C   UNL     1     -20.192  38.662  87.382  1.00  0.00     0.041 C 
ATOM      7  O   UNL     1     -20.652  37.757  88.127  1.00  0.00    -0.550 OA
ATOM      8  O   UNL     1     -20.042  38.423  86.022  1.00  0.00    -0.550 OA
ENDBRANCH   5   6
ENDBRANCH   4   5
ENDBRANCH   3   4
ENDBRANCH   2   3
ENDBRANCH   1   2
BRANCH   1   9
ATOM      9  C   UNL     1     -21.322  45.532  85.481  1.00  0.00     0.000 C 
BRANCH   9  10
ATOM     10  C   UNL     1     -20.468  46.587  84.759  1.00  0.00    -0.000 C 
BRANCH  10  11
ATOM     11  C   UNL     1     -20.014  46.126  83.364  1.00  0.00    -0.000 C 
BRANCH  11  12
ATOM     12  C   UNL     1     -18.598  45.526  83.369  1.00  0.00    -0.000 C 
BRANCH  12  13
ATOM     13  C   UNL     1     -17.636  46.214  84.360  1.00  0.00    -0.003 C 
ATOM     14  C   UNL     1     -17.004  45.225  85.339  1.00  0.00     0.004 C 
ENDBRANCH  12  13
ENDBRANCH  11  12
ENDBRANCH  10  11
ENDBRANCH   9  10
ENDBRANCH   1   9
TORSDOF 10
ENDMDL
MODEL 5
REMARK VINA RESULT:    -4.594      5.345      7.352
REMARK INTER + INTRA:          -7.937
REMARK INTER:                  -7.560
REMARK INTRA:                  -0.377
REMARK UNBOUND:                -0.657
REMARK SMILES CCCCCCCCCCCC(=O)[O-]
REMARK SMILES IDX 7 1 8 2 9 3 10 4 11 5 12 6 13 7 14 8 6 9 5 10 4 11 3 12 2 13
REMARK SMILES IDX 1 14
REMARK H PARENT
REMARK Flexibility Score: inf
ROOT
ATOM      1  C   UNL     1     -18.324  36.842  84.269  1.00  0.00     0.000 C 
ENDROOT
BRANCH   1   2
ATOM      2  C   UNL     1     -19.166  38.098  84.580  1.00  0.00     0.000 C 
BRANCH   2   3
ATOM      3  C   UNL     1     -19.939  38.007  85.907  1.00  0.00     0.000 C 
BRANCH   3   4
ATOM      4  C   UNL     1     -20.019  39.353  86.645  1.00  0.00     0.006 C 
BRANCH   4   5
ATOM      5  C   UNL     1     -21.075  39.342  87.758  1.00  0.00     0.053 C 
BRANCH   5   6
ATOM      6  C   UNL     1     -20.479  39.656  89.096  1.00  0.00     0.041 C 
ATOM      7  O   UNL     1     -19.974  40.788  89.315  1.00  0.00    -0.550 OA
ATOM      8  O   UNL     1     -20.456  38.688  90.093  1.00  0.00    -0.550 OA
ENDBRANCH   5   6
ENDBRANCH   4   5
ENDBRANCH   3   4
ENDBRANCH   2   3
ENDBRANCH   1   2
BRANCH   1   9
ATOM      9  C   UNL     1     -17.200  37.133  83.258  1.00  0.00     0.000 C 
BRANCH   9  10
ATOM     10  C   UNL     1     -16.459  35.862  82.809  1.00  0.00    -0.000 C 
BRANCH  10  11
ATOM     11  C   UNL     1     -16.796  35.462  81.363  1.00  0.00    -0.000 C 
BRANCH  11  12
ATOM     12  C   UNL     1     -17.274  36.651  80.513  1.00  0.00    -0.000 C 
BRANCH  12  13
ATOM     13  C   UNL     1     -18.520  36.340  79.657  1.00  0.00    -0.003 C 
ATOM     14  C   UNL     1     -18.714  37.349  78.526  1.00  0.00     0.004 C 
ENDBRANCH  12  13
ENDBRANCH  11  12
ENDBRANCH  10  11
ENDBRANCH   9  10
ENDBRANCH   1   9
TORSDOF 10
ENDMDL
MODEL 6
REMARK VINA RESULT:    -4.588      1.336      2.073
REMARK INTER + INTRA:          -7.928
REMARK INTER:                  -7.005
REMARK INTRA:                  -0.922
REMARK UNBOUND:                -0.657
REMARK SMILES CCCCCCCCCCCC(=O)[O-]
REMARK SMILES IDX 7 1 8 2 9 3 10 4 11 5 12 6 13 7 14 8 6 9 5 10 4 11 3 12 2 13
REMARK SMILES IDX 1 14
REMARK H PARENT
REMARK Flexibility Score: inf
ROOT
ATOM      1  C   UNL     1     -18.301  44.642  85.731  1.00  0.00     0.000 C 
ENDROOT
BRANCH   1   2
ATOM      2  C   UNL     1     -19.127  43.389  85.368  1.00  0.00     0.000 C 
BRANCH   2   3
ATOM      3  C   UNL     1     -20.077  42.932  86.488  1.00  0.00     0.000 C 
BRANCH   3   4
ATOM      4  C   UNL     1     -19.862  41.465  86.893  1.00  0.00     0.006 C 
BRANCH   4   5
ATOM      5  C   UNL     1     -21.177  40.767  87.262  1.00  0.00     0.053 C 
BRANCH   5   6
ATOM      6  C   UNL     1     -20.949  39.586  88.156  1.00  0.00     0.041 C 
ATOM      7  O   UNL     1     -20.700  39.757  89.379  1.00  0.00    -0.550 OA
ATOM      8  O   UNL     1     -20.984  38.299  87.634  1.00  0.00    -0.550 OA
ENDBRANCH   5   6
ENDBRANCH   4   5
ENDBRANCH   3   4
ENDBRANCH   2   3
ENDBRANCH   1   2
BRANCH   1   9
ATOM      9  C   UNL     1     -17.628  45.271  84.497  1.00  0.00     0.000 C 
BRANCH   9  10
ATOM     10  C   UNL     1     -18.317  46.567  84.039  1.00  0.00    -0.000 C 
BRANCH  10  11
ATOM     11  C   UNL     1     -19.185  46.363  82.785  1.00  0.00    -0.000 C 
BRANCH  11  12
ATOM     12  C   UNL     1     -20.642  46.007  83.123  1.00  0.00    -0.000 C 
BRANCH  12  13
ATOM     13  C   UNL     1     -21.249  46.876  84.244  1.00  0.00    -0.003 C 
ATOM     14  C   UNL     1     -21.763  46.039  85.415  1.00  0.00     0.004 C 
ENDBRANCH  12  13
ENDBRANCH  11  12
ENDBRANCH  10  11
ENDBRANCH   9  10
ENDBRANCH   1   9
TORSDOF 10
ENDMDL
MODEL 7
REMARK VINA RESULT:    -4.554      6.552      8.007
REMARK INTER + INTRA:          -7.874
REMARK INTER:                  -6.523
REMARK INTRA:                  -1.351
REMARK UNBOUND:                -0.657
REMARK SMILES CCCCCCCCCCCC(=O)[O-]
REMARK SMILES IDX 7 1 8 2 9 3 10 4 11 5 12 6 13 7 14 8 6 9 5 10 4 11 3 12 2 13
REMARK SMILES IDX 1 14
REMARK H PARENT
REMARK Flexibility Score: inf
ROOT
ATOM      1  C   UNL     1     -26.196  45.622  87.969  1.00  0.00     0.000 C 
ENDROOT
BRANCH   1   2
ATOM      2  C   UNL     1     -26.472  46.616  89.118  1.00  0.00     0.000 C 
BRANCH   2   3
ATOM      3  C   UNL     1     -26.527  45.952  90.504  1.00  0.00     0.000 C 
BRANCH   3   4
ATOM      4  C   UNL     1     -25.974  44.518  90.504  1.00  0.00     0.006 C 
BRANCH   4   5
ATOM      5  C   UNL     1     -26.783  43.584  91.412  1.00  0.00     0.053 C 
BRANCH   5   6
ATOM      6  C   UNL     1     -27.930  42.953  90.683  1.00  0.00     0.041 C 
ATOM      7  O   UNL     1     -27.818  42.654  89.465  1.00  0.00    -0.550 OA
ATOM      8  O   UNL     1     -29.131  42.719  91.341  1.00  0.00    -0.550 OA
ENDBRANCH   5   6
ENDBRANCH   4   5
ENDBRANCH   3   4
ENDBRANCH   2   3
ENDBRANCH   1   2
BRANCH   1   9
ATOM      9  C   UNL     1     -25.473  46.291  86.785  1.00  0.00     0.000 C 
BRANCH   9  10
ATOM     10  C   UNL     1     -24.087  46.836  87.165  1.00  0.00    -0.000 C 
BRANCH  10  11
ATOM     11  C   UNL     1     -23.017  45.733  87.236  1.00  0.00    -0.000 C 
BRANCH  11  12
ATOM     12  C   UNL     1     -22.515  45.484  88.667  1.00  0.00    -0.000 C 
BRANCH  12  13
ATOM     13  C   UNL     1     -22.536  43.997  89.081  1.00  0.00    -0.003 C 
ATOM     14  C   UNL     1     -23.399  43.147  88.150  1.00  0.00     0.004 C 
ENDBRANCH  12  13
ENDBRANCH  11  12
ENDBRANCH  10  11
ENDBRANCH   9  10
ENDBRANCH   1   9
TORSDOF 10
ENDMDL
MODEL 8
REMARK VINA RESULT:    -4.544      5.214      7.416
REMARK INTER + INTRA:          -7.858
REMARK INTER:                  -7.411
REMARK INTRA:                  -0.447
REMARK UNBOUND:                -0.657
REMARK SMILES CCCCCCCCCCCC(=O)[O-]
REMARK SMILES IDX 7 1 8 2 9 3 10 4 11 5 12 6 13 7 14 8 6 9 5 10 4 11 3 12 2 13
REMARK SMILES IDX 1 14
REMARK H PARENT
REMARK Flexibility Score: inf
ROOT
ATOM      1  C   UNL     1     -19.110  37.360  83.878  1.00  0.00     0.000 C 
ENDROOT
BRANCH   1   2
ATOM      2  C   UNL     1     -19.093  38.088  85.240  1.00  0.00     0.000 C 
BRANCH   2   3
ATOM      3  C   UNL     1     -20.496  38.368  85.805  1.00  0.00     0.000 C 
BRANCH   3   4
ATOM      4  C   UNL     1     -20.467  39.240  87.071  1.00  0.00     0.006 C 
BRANCH   4   5
ATOM      5  C   UNL     1     -19.631  40.511  86.880  1.00  0.00     0.053 C 
BRANCH   5   6
ATOM      6  C   UNL     1     -20.484  41.742  86.855  1.00  0.00     0.041 C 
ATOM      7  O   UNL     1     -20.109  42.760  86.216  1.00  0.00    -0.550 OA
ATOM      8  O   UNL     1     -21.681  41.775  87.560  1.00  0.00    -0.550 OA
ENDBRANCH   5   6
ENDBRANCH   4   5
ENDBRANCH   3   4
ENDBRANCH   2   3
ENDBRANCH   1   2
BRANCH   1   9
ATOM      9  C   UNL     1     -17.758  36.697  83.558  1.00  0.00     0.000 C 
BRANCH   9  10
ATOM     10  C   UNL     1     -17.341  36.875  82.089  1.00  0.00    -0.000 C 
BRANCH  10  11
ATOM     11  C   UNL     1     -17.301  35.543  81.321  1.00  0.00    -0.000 C 
BRANCH  11  12
ATOM     12  C   UNL     1     -18.088  35.595  80.001  1.00  0.00    -0.000 C 
BRANCH  12  13
ATOM     13  C   UNL     1     -18.778  36.951  79.743  1.00  0.00    -0.003 C 
ATOM     14  C   UNL     1     -18.789  37.325  78.262  1.00  0.00     0.004 C 
ENDBRANCH  12  13
ENDBRANCH  11  12
ENDBRANCH  10  11
ENDBRANCH   9  10
ENDBRANCH   1   9
TORSDOF 10
ENDMDL
MODEL 9
REMARK VINA RESULT:    -4.477      1.407      2.619
REMARK INTER + INTRA:          -7.751
REMARK INTER:                  -6.627
REMARK INTRA:                  -1.125
REMARK UNBOUND:                -0.657
REMARK SMILES CCCCCCCCCCCC(=O)[O-]
REMARK SMILES IDX 7 1 8 2 9 3 10 4 11 5 12 6 13 7 14 8 6 9 5 10 4 11 3 12 2 13
REMARK SMILES IDX 1 14
REMARK H PARENT
REMARK Flexibility Score: inf
ROOT
ATOM      1  C   UNL     1     -22.282  43.906  88.169  1.00  0.00     0.000 C 
ENDROOT
BRANCH   1   2
ATOM      2  C   UNL     1     -22.066  42.382  88.062  1.00  0.00     0.000 C 
BRANCH   2   3
ATOM      3  C   UNL     1     -20.744  41.902  88.684  1.00  0.00     0.000 C 
BRANCH   3   4
ATOM      4  C   UNL     1     -19.944  40.980  87.751  1.00  0.00     0.006 C 
BRANCH   4   5
ATOM      5  C   UNL     1     -20.852  40.180  86.808  1.00  0.00     0.053 C 
BRANCH   5   6
ATOM      6  C   UNL     1     -20.518  38.720  86.818  1.00  0.00     0.041 C 
ATOM      7  O   UNL     1     -20.700  38.036  87.860  1.00  0.00    -0.550 OA
ATOM      8  O   UNL     1     -19.979  38.120  85.686  1.00  0.00    -0.550 OA
ENDBRANCH   5   6
ENDBRANCH   4   5
ENDBRANCH   3   4
ENDBRANCH   2   3
ENDBRANCH   1   2
BRANCH   1   9
ATOM      9  C   UNL     1     -21.091  44.702  87.605  1.00  0.00     0.000 C 
BRANCH   9  10
ATOM     10  C   UNL     1     -21.292  45.114  86.137  1.00  0.00    -0.000 C 
BRANCH  10  11
ATOM     11  C   UNL     1     -20.478  44.246  85.163  1.00  0.00    -0.000 C 
BRANCH  11  12
ATOM     12  C   UNL     1     -19.090  43.878  85.712  1.00  0.00    -0.000 C 
BRANCH  12  13
ATOM     13  C   UNL     1     -17.970  44.838  85.261  1.00  0.00    -0.003 C 
ATOM     14  C   UNL     1     -18.239  45.438  83.881  1.00  0.00     0.004 C 
ENDBRANCH  12  13
ENDBRANCH  11  12
ENDBRANCH  10  11
ENDBRANCH   9  10
ENDBRANCH   1   9
TORSDOF 10
ENDMDL
