MODEL 1
REMARK VINA RESULT:    -3.862      0.000      0.000
REMARK INTER + INTRA:          -4.608
REMARK INTER:                  -4.314
REMARK INTRA:                  -0.294
REMARK UNBOUND:                -0.294
REMARK SMILES CC=C(C)C=CC=C(C)C
REMARK SMILES IDX 5 1 6 2 3 3 1 4 2 5 4 6 7 7 8 8 9 9 10 10
REMARK H PARENT
REMARK Flexibility Score: inf
ROOT
ATOM      1  C   UNL     1     134.477 134.731 132.130  1.00  0.00     0.003 C 
ATOM      2  C   UNL     1     135.251 133.651 132.304  1.00  0.00     0.000 C 
ENDROOT
BRANCH   1   3
ATOM      3  C   UNL     1     133.746 135.018 130.870  1.00  0.00    -0.055 C 
ATOM      4  C   UNL     1     133.601 134.693 128.379  1.00  0.00     0.036 C 
ATOM      5  C   UNL     1     134.255 134.536 129.719  1.00  0.00    -0.027 C 
ATOM      6  C   UNL     1     132.434 135.772 130.900  1.00  0.00     0.044 C 
ENDBRANCH   1   3
BRANCH   2   7
ATOM      7  C   UNL     1     135.958 133.428 133.584  1.00  0.00    -0.001 C 
ATOM      8  C   UNL     1     137.264 133.692 133.775  1.00  0.00    -0.076 C 
ATOM      9  C   UNL     1     138.135 134.245 132.677  1.00  0.00     0.039 C 
ATOM     10  C   UNL     1     137.861 133.419 135.129  1.00  0.00     0.039 C 
ENDBRANCH   2   7
TORSDOF 2
ENDMDL
MODEL 2
REMARK VINA RESULT:    -3.836      4.158      5.018
REMARK INTER + INTRA:          -4.579
REMARK INTER:                  -4.284
REMARK INTRA:                  -0.295
REMARK UNBOUND:                -0.294
REMARK SMILES CC=C(C)C=CC=C(C)C
REMARK SMILES IDX 5 1 6 2 3 3 1 4 2 5 4 6 7 7 8 8 9 9 10 10
REMARK H PARENT
REMARK Flexibility Score: inf
ROOT
ATOM      1  C   UNL     1     134.729 139.187 132.156  1.00  0.00     0.003 C 
ATOM      2  C   UNL     1     133.669 138.382 132.307  1.00  0.00     0.000 C 
ENDROOT
BRANCH   1   3
ATOM      3  C   UNL     1     135.043 139.897 130.889  1.00  0.00    -0.055 C 
ATOM      4  C   UNL     1     134.762 140.006 128.392  1.00  0.00     0.036 C 
ATOM      5  C   UNL     1     134.577 139.373 129.739  1.00  0.00    -0.027 C 
ATOM      6  C   UNL     1     135.806 141.203 130.912  1.00  0.00     0.044 C 
ENDBRANCH   1   3
BRANCH   2   7
ATOM      7  C   UNL     1     133.418 137.699 133.595  1.00  0.00    -0.001 C 
ATOM      8  C   UNL     1     133.673 136.396 133.814  1.00  0.00    -0.076 C 
ATOM      9  C   UNL     1     134.245 135.503 132.744  1.00  0.00     0.039 C 
ATOM     10  C   UNL     1     133.371 135.825 135.173  1.00  0.00     0.039 C 
ENDBRANCH   2   7
TORSDOF 2
ENDMDL
MODEL 3
REMARK VINA RESULT:    -3.827      5.762      7.169
REMARK INTER + INTRA:          -4.569
REMARK INTER:                  -4.274
REMARK INTRA:                  -0.295
REMARK UNBOUND:                -0.294
REMARK SMILES CC=C(C)C=CC=C(C)C
REMARK SMILES IDX 5 1 6 2 3 3 1 4 2 5 4 6 7 7 8 8 9 9 10 10
REMARK H PARENT
REMARK Flexibility Score: inf
ROOT
ATOM      1  C   UNL     1     139.200 139.066 132.142  1.00  0.00     0.003 C 
ATOM      2  C   UNL     1     138.361 140.102 132.277  1.00  0.00     0.000 C 
ENDROOT
BRANCH   1   3
ATOM      3  C   UNL     1     139.915 138.751 130.879  1.00  0.00    -0.055 C 
ATOM      4  C   UNL     1     140.045 139.045 128.384  1.00  0.00     0.036 C 
ATOM      5  C   UNL     1     139.404 139.230 129.727  1.00  0.00    -0.027 C 
ATOM      6  C   UNL     1     141.212 137.974 130.907  1.00  0.00     0.044 C 
ENDBRANCH   1   3
BRANCH   2   7
ATOM      7  C   UNL     1     137.675 140.355 133.562  1.00  0.00    -0.001 C 
ATOM      8  C   UNL     1     136.383 140.060 133.793  1.00  0.00    -0.076 C 
ATOM      9  C   UNL     1     135.505 139.436 132.739  1.00  0.00     0.039 C 
ATOM     10  C   UNL     1     135.807 140.369 135.149  1.00  0.00     0.039 C 
ENDBRANCH   2   7
TORSDOF 2
ENDMDL
MODEL 4
REMARK VINA RESULT:    -3.810      4.227      5.149
REMARK INTER + INTRA:          -4.549
REMARK INTER:                  -4.264
REMARK INTRA:                  -0.285
REMARK UNBOUND:                -0.294
REMARK SMILES CC=C(C)C=CC=C(C)C
REMARK SMILES IDX 5 1 6 2 3 3 1 4 2 5 4 6 7 7 8 8 9 9 10 10
REMARK H PARENT
REMARK Flexibility Score: inf
ROOT
ATOM      1  C   UNL     1     139.059 134.663 132.118  1.00  0.00     0.003 C 
ATOM      2  C   UNL     1     140.144 135.424 132.309  1.00  0.00     0.000 C 
ENDROOT
BRANCH   1   3
ATOM      3  C   UNL     1     138.785 133.932 130.854  1.00  0.00    -0.055 C 
ATOM      4  C   UNL     1     139.109 133.807 128.362  1.00  0.00     0.036 C 
ATOM      5  C   UNL     1     139.254 134.458 129.705  1.00  0.00    -0.027 C 
ATOM      6  C   UNL     1     138.058 132.606 130.878  1.00  0.00     0.044 C 
ENDBRANCH   1   3
BRANCH   2   7
ATOM      7  C   UNL     1     140.352 136.131 133.591  1.00  0.00    -0.001 C 
ATOM      8  C   UNL     1     140.011 137.416 133.804  1.00  0.00    -0.076 C 
ATOM      9  C   UNL     1     139.376 138.261 132.730  1.00  0.00     0.039 C 
ATOM     10  C   UNL     1     140.278 138.015 135.158  1.00  0.00     0.039 C 
ENDBRANCH   2   7
TORSDOF 2
ENDMDL
MODEL 5
REMARK VINA RESULT:    -3.789      2.300      3.537
REMARK INTER + INTRA:          -4.526
REMARK INTER:                  -4.240
REMARK INTRA:                  -0.286
REMARK UNBOUND:                -0.294
REMARK SMILES CC=C(C)C=CC=C(C)C
REMARK SMILES IDX 5 1 6 2 3 3 1 4 2 5 4 6 7 7 8 8 9 9 10 10
REMARK H PARENT
REMARK Flexibility Score: inf
ROOT
ATOM      1  C   UNL     1     134.455 135.347 132.586  1.00  0.00     0.003 C 
ATOM      2  C   UNL     1     135.100 134.321 133.156  1.00  0.00     0.000 C 
ENDROOT
BRANCH   1   3
ATOM      3  C   UNL     1     133.739 136.395 133.358  1.00  0.00    -0.055 C 
ATOM      4  C   UNL     1     133.034 137.258 135.613  1.00  0.00     0.036 C 
ATOM      5  C   UNL     1     133.670 136.256 134.697  1.00  0.00    -0.027 C 
ATOM      6  C   UNL     1     133.168 137.608 132.658  1.00  0.00     0.044 C 
ENDBRANCH   1   3
BRANCH   2   7
ATOM      7  C   UNL     1     135.787 133.308 132.327  1.00  0.00    -0.001 C 
ATOM      8  C   UNL     1     137.121 133.263 132.149  1.00  0.00    -0.076 C 
ATOM      9  C   UNL     1     138.046 134.265 132.791  1.00  0.00     0.039 C 
ATOM     10  C   UNL     1     137.693 132.178 131.278  1.00  0.00     0.039 C 
ENDBRANCH   2   7
TORSDOF 2
ENDMDL
MODEL 6
REMARK VINA RESULT:    -3.784      4.550      6.471
REMARK INTER + INTRA:          -4.521
REMARK INTER:                  -4.234
REMARK INTRA:                  -0.287
REMARK UNBOUND:                -0.294
REMARK SMILES CC=C(C)C=CC=C(C)C
REMARK SMILES IDX 5 1 6 2 3 3 1 4 2 5 4 6 7 7 8 8 9 9 10 10
REMARK H PARENT
REMARK Flexibility Score: inf
ROOT
ATOM      1  C   UNL     1     135.305 139.250 132.408  1.00  0.00     0.003 C 
ATOM      2  C   UNL     1     134.285 138.628 133.014  1.00  0.00     0.000 C 
ENDROOT
BRANCH   1   3
ATOM      3  C   UNL     1     136.365 139.987 133.143  1.00  0.00    -0.055 C 
ATOM      4  C   UNL     1     137.381 140.588 135.365  1.00  0.00     0.036 C 
ATOM      5  C   UNL     1     136.347 139.944 134.490  1.00  0.00    -0.027 C 
ATOM      6  C   UNL     1     137.464 140.702 132.389  1.00  0.00     0.044 C 
ENDBRANCH   1   3
BRANCH   2   7
ATOM      7  C   UNL     1     133.258 137.918 132.221  1.00  0.00    -0.001 C 
ATOM      8  C   UNL     1     133.235 136.583 132.047  1.00  0.00    -0.076 C 
ATOM      9  C   UNL     1     134.277 135.681 132.656  1.00  0.00     0.039 C 
ATOM     10  C   UNL     1     132.132 135.987 131.215  1.00  0.00     0.039 C 
ENDBRANCH   2   7
TORSDOF 2
ENDMDL
MODEL 7
REMARK VINA RESULT:    -3.778      5.359      7.649
REMARK INTER + INTRA:          -4.514
REMARK INTER:                  -4.229
REMARK INTRA:                  -0.285
REMARK UNBOUND:                -0.294
REMARK SMILES CC=C(C)C=CC=C(C)C
REMARK SMILES IDX 5 1 6 2 3 3 1 4 2 5 4 6 7 7 8 8 9 9 10 10
REMARK H PARENT
REMARK Flexibility Score: inf
ROOT
ATOM      1  C   UNL     1     139.348 138.152 132.503  1.00  0.00     0.003 C 
ATOM      2  C   UNL     1     138.766 139.213 133.079  1.00  0.00     0.000 C 
ENDROOT
BRANCH   1   3
ATOM      3  C   UNL     1     140.066 137.100 133.266  1.00  0.00    -0.055 C 
ATOM      4  C   UNL     1     140.689 136.161 135.515  1.00  0.00     0.036 C 
ATOM      5  C   UNL     1     140.060 137.178 134.612  1.00  0.00    -0.027 C 
ATOM      6  C   UNL     1     140.724 135.944 132.544  1.00  0.00     0.044 C 
ENDBRANCH   1   3
BRANCH   2   7
ATOM      7  C   UNL     1     138.073 140.230 132.259  1.00  0.00    -0.001 C 
ATOM      8  C   UNL     1     136.739 140.413 132.261  1.00  0.00    -0.076 C 
ATOM      9  C   UNL     1     135.820 139.579 133.117  1.00  0.00     0.039 C 
ATOM     10  C   UNL     1     136.160 141.485 131.378  1.00  0.00     0.039 C 
ENDBRANCH   2   7
TORSDOF 2
ENDMDL
MODEL 8
REMARK VINA RESULT:    -3.758      4.810      7.095
REMARK INTER + INTRA:          -4.491
REMARK INTER:                  -4.248
REMARK INTRA:                  -0.243
REMARK UNBOUND:                -0.294
REMARK SMILES CC=C(C)C=CC=C(C)C
REMARK SMILES IDX 5 1 6 2 3 3 1 4 2 5 4 6 7 7 8 8 9 9 10 10
REMARK H PARENT
REMARK Flexibility Score: inf
ROOT
ATOM      1  C   UNL     1     139.797 136.090 132.852  1.00  0.00     0.003 C 
ATOM      2  C   UNL     1     140.513 137.214 132.713  1.00  0.00     0.000 C 
ENDROOT
BRANCH   1   3
ATOM      3  C   UNL     1     139.522 135.453 134.166  1.00  0.00    -0.055 C 
ATOM      4  C   UNL     1     138.174 133.777 135.471  1.00  0.00     0.036 C 
ATOM      5  C   UNL     1     138.529 134.544 134.232  1.00  0.00    -0.027 C 
ATOM      6  C   UNL     1     140.380 135.777 135.369  1.00  0.00     0.044 C 
ENDBRANCH   1   3
BRANCH   2   7
ATOM      7  C   UNL     1     140.756 137.791 131.374  1.00  0.00    -0.001 C 
ATOM      8  C   UNL     1     140.105 138.866 130.891  1.00  0.00    -0.076 C 
ATOM      9  C   UNL     1     139.050 139.586 131.690  1.00  0.00     0.039 C 
ATOM     10  C   UNL     1     140.449 139.352 129.509  1.00  0.00     0.039 C 
ENDBRANCH   2   7
TORSDOF 2
ENDMDL
MODEL 9
REMARK VINA RESULT:    -3.756      3.494      5.536
REMARK INTER + INTRA:          -4.489
REMARK INTER:                  -4.250
REMARK INTRA:                  -0.239
REMARK UNBOUND:                -0.294
REMARK SMILES CC=C(C)C=CC=C(C)C
REMARK SMILES IDX 5 1 6 2 3 3 1 4 2 5 4 6 7 7 8 8 9 9 10 10
REMARK H PARENT
REMARK Flexibility Score: inf
ROOT
ATOM      1  C   UNL     1     134.094 137.757 132.713  1.00  0.00     0.003 C 
ATOM      2  C   UNL     1     133.282 136.694 132.629  1.00  0.00     0.000 C 
ENDROOT
BRANCH   1   3
ATOM      3  C   UNL     1     134.424 138.435 133.993  1.00  0.00    -0.055 C 
ATOM      4  C   UNL     1     135.797 140.178 135.178  1.00  0.00     0.036 C 
ATOM      5  C   UNL     1     135.394 139.370 133.981  1.00  0.00    -0.027 C 
ATOM      6  C   UNL     1     133.642 138.122 135.249  1.00  0.00     0.044 C 
ENDBRANCH   1   3
BRANCH   2   7
ATOM      7  C   UNL     1     132.989 136.071 131.321  1.00  0.00    -0.001 C 
ATOM      8  C   UNL     1     133.594 134.958 130.867  1.00  0.00    -0.076 C 
ATOM      9  C   UNL     1     134.646 134.238 131.671  1.00  0.00     0.039 C 
ATOM     10  C   UNL     1     133.202 134.427 129.515  1.00  0.00     0.039 C 
ENDBRANCH   2   7
TORSDOF 2
ENDMDL
