MODEL 1
REMARK VINA RESULT:    -2.634      0.000      0.000
REMARK INTER + INTRA:          -3.782
REMARK INTER:                  -3.403
REMARK INTRA:                  -0.379
REMARK UNBOUND:                -0.379
REMARK SMILES CCCCCCC(=O)[O-]
REMARK SMILES IDX 5 1 6 2 7 3 8 4 9 5 4 6 3 7 2 8 1 9
REMARK H PARENT
REMARK Flexibility Score: inf
ROOT
ATOM      1  C   UNL     1     -23.631  29.690 -21.868  1.00  0.00     0.006 C 
ENDROOT
BRANCH   1   2
ATOM      2  C   UNL     1     -23.380  28.176 -21.886  1.00  0.00     0.053 C 
BRANCH   2   3
ATOM      3  C   UNL     1     -21.960  27.844 -21.542  1.00  0.00     0.041 C 
ATOM      4  O   UNL     1     -21.278  28.630 -20.834  1.00  0.00    -0.550 OA
ATOM      5  O   UNL     1     -21.381  26.678 -22.029  1.00  0.00    -0.550 OA
ENDBRANCH   2   3
ENDBRANCH   1   2
BRANCH   1   6
ATOM      6  C   UNL     1     -24.871  30.062 -21.035  1.00  0.00     0.000 C 
BRANCH   6   7
ATOM      7  C   UNL     1     -24.959  29.269 -19.721  1.00  0.00    -0.000 C 
BRANCH   7   8
ATOM      8  C   UNL     1     -24.351  30.025 -18.531  1.00  0.00    -0.003 C 
ATOM      9  C   UNL     1     -23.190  29.245 -17.919  1.00  0.00     0.004 C 
ENDBRANCH   7   8
ENDBRANCH   6   7
ENDBRANCH   1   6
TORSDOF 5
ENDMDL
MODEL 2
REMARK VINA RESULT:    -2.564     13.962     15.686
REMARK INTER + INTRA:          -3.693
REMARK INTER:                  -3.322
REMARK INTRA:                  -0.371
REMARK UNBOUND:                -0.379
REMARK SMILES CCCCCCC(=O)[O-]
REMARK SMILES IDX 5 1 6 2 7 3 8 4 9 5 4 6 3 7 2 8 1 9
REMARK H PARENT
REMARK Flexibility Score: inf
ROOT
ATOM      1  C   UNL     1     -21.826  13.224 -23.741  1.00  0.00     0.006 C 
ENDROOT
BRANCH   1   2
ATOM      2  C   UNL     1     -22.204  14.645 -23.300  1.00  0.00     0.053 C 
BRANCH   2   3
ATOM      3  C   UNL     1     -21.638  14.978 -21.954  1.00  0.00     0.041 C 
ATOM      4  O   UNL     1     -20.978  14.120 -21.312  1.00  0.00    -0.550 OA
ATOM      5  O   UNL     1     -21.864  16.231 -21.396  1.00  0.00    -0.550 OA
ENDBRANCH   2   3
ENDBRANCH   1   2
BRANCH   1   6
ATOM      6  C   UNL     1     -21.073  13.215 -25.083  1.00  0.00     0.000 C 
BRANCH   6   7
ATOM      7  C   UNL     1     -19.679  13.854 -24.983  1.00  0.00    -0.000 C 
BRANCH   7   8
ATOM      8  C   UNL     1     -18.653  12.934 -24.305  1.00  0.00    -0.003 C 
ATOM      9  C   UNL     1     -17.979  13.634 -23.128  1.00  0.00     0.004 C 
ENDBRANCH   7   8
ENDBRANCH   6   7
ENDBRANCH   1   6
TORSDOF 5
ENDMDL
MODEL 3
REMARK VINA RESULT:    -2.468     14.567     15.751
REMARK INTER + INTRA:          -3.568
REMARK INTER:                  -3.193
REMARK INTRA:                  -0.375
REMARK UNBOUND:                -0.379
REMARK SMILES CCCCCCC(=O)[O-]
REMARK SMILES IDX 5 1 6 2 7 3 8 4 9 5 4 6 3 7 2 8 1 9
REMARK H PARENT
REMARK Flexibility Score: inf
ROOT
ATOM      1  C   UNL     1     -21.496  14.528 -22.883  1.00  0.00     0.006 C 
ENDROOT
BRANCH   1   2
ATOM      2  C   UNL     1     -21.085  14.318 -21.420  1.00  0.00     0.053 C 
BRANCH   2   3
ATOM      3  C   UNL     1     -19.636  14.626 -21.200  1.00  0.00     0.041 C 
ATOM      4  O   UNL     1     -19.079  15.553 -21.844  1.00  0.00    -0.550 OA
ATOM      5  O   UNL     1     -18.892  13.869 -20.303  1.00  0.00    -0.550 OA
ENDBRANCH   2   3
ENDBRANCH   1   2
BRANCH   1   6
ATOM      6  C   UNL     1     -21.906  13.210 -23.565  1.00  0.00     0.000 C 
BRANCH   6   7
ATOM      7  C   UNL     1     -21.023  12.873 -24.777  1.00  0.00    -0.000 C 
BRANCH   7   8
ATOM      8  C   UNL     1     -19.722  13.689 -24.808  1.00  0.00    -0.003 C 
ATOM      9  C   UNL     1     -18.529  12.839 -24.380  1.00  0.00     0.004 C 
ENDBRANCH   7   8
ENDBRANCH   6   7
ENDBRANCH   1   6
TORSDOF 5
ENDMDL
MODEL 4
REMARK VINA RESULT:    -2.465     14.720     15.972
REMARK INTER + INTRA:          -3.564
REMARK INTER:                  -3.193
REMARK INTRA:                  -0.371
REMARK UNBOUND:                -0.379
REMARK SMILES CCCCCCC(=O)[O-]
REMARK SMILES IDX 5 1 6 2 7 3 8 4 9 5 4 6 3 7 2 8 1 9
REMARK H PARENT
REMARK Flexibility Score: inf
ROOT
ATOM      1  C   UNL     1     -19.787  13.656 -24.833  1.00  0.00     0.006 C 
ENDROOT
BRANCH   1   2
ATOM      2  C   UNL     1     -18.608  12.813 -24.329  1.00  0.00     0.053 C 
BRANCH   2   3
ATOM      3  C   UNL     1     -17.711  13.598 -23.422  1.00  0.00     0.041 C 
ATOM      4  O   UNL     1     -16.695  13.059 -22.912  1.00  0.00    -0.550 OA
ATOM      5  O   UNL     1     -18.015  14.920 -23.116  1.00  0.00    -0.550 OA
ENDBRANCH   2   3
ENDBRANCH   1   2
BRANCH   1   6
ATOM      6  C   UNL     1     -21.119  12.887 -24.770  1.00  0.00     0.000 C 
BRANCH   6   7
ATOM      7  C   UNL     1     -21.923  13.202 -23.499  1.00  0.00    -0.000 C 
BRANCH   7   8
ATOM      8  C   UNL     1     -21.547  14.556 -22.880  1.00  0.00    -0.003 C 
ATOM      9  C   UNL     1     -21.138  14.399 -21.418  1.00  0.00     0.004 C 
ENDBRANCH   7   8
ENDBRANCH   6   7
ENDBRANCH   1   6
TORSDOF 5
ENDMDL
MODEL 5
REMARK VINA RESULT:    -2.463      1.806      3.564
REMARK INTER + INTRA:          -3.562
REMARK INTER:                  -3.203
REMARK INTRA:                  -0.359
REMARK UNBOUND:                -0.379
REMARK SMILES CCCCCCC(=O)[O-]
REMARK SMILES IDX 5 1 6 2 7 3 8 4 9 5 4 6 3 7 2 8 1 9
REMARK H PARENT
REMARK Flexibility Score: inf
ROOT
ATOM      1  C   UNL     1     -24.959  29.227 -19.755  1.00  0.00     0.006 C 
ENDROOT
BRANCH   1   2
ATOM      2  C   UNL     1     -24.310  29.946 -18.565  1.00  0.00     0.053 C 
BRANCH   2   3
ATOM      3  C   UNL     1     -23.297  29.082 -17.878  1.00  0.00     0.041 C 
ATOM      4  O   UNL     1     -22.569  29.558 -16.969  1.00  0.00    -0.550 OA
ATOM      5  O   UNL     1     -23.139  27.756 -18.263  1.00  0.00    -0.550 OA
ENDBRANCH   2   3
ENDBRANCH   1   2
BRANCH   1   6
ATOM      6  C   UNL     1     -24.824  30.031 -21.061  1.00  0.00     0.000 C 
BRANCH   6   7
ATOM      7  C   UNL     1     -23.566  29.654 -21.859  1.00  0.00    -0.000 C 
BRANCH   7   8
ATOM      8  C   UNL     1     -23.370  28.135 -21.974  1.00  0.00    -0.003 C 
ATOM      9  C   UNL     1     -21.955  27.731 -21.571  1.00  0.00     0.004 C 
ENDBRANCH   7   8
ENDBRANCH   6   7
ENDBRANCH   1   6
TORSDOF 5
ENDMDL
MODEL 6
REMARK VINA RESULT:    -2.459      1.312      1.782
REMARK INTER + INTRA:          -3.556
REMARK INTER:                  -3.347
REMARK INTRA:                  -0.209
REMARK UNBOUND:                -0.379
REMARK SMILES CCCCCCC(=O)[O-]
REMARK SMILES IDX 5 1 6 2 7 3 8 4 9 5 4 6 3 7 2 8 1 9
REMARK H PARENT
REMARK Flexibility Score: inf
ROOT
ATOM      1  C   UNL     1     -24.814  29.522 -21.058  1.00  0.00     0.006 C 
ENDROOT
BRANCH   1   2
ATOM      2  C   UNL     1     -23.503  29.551 -21.854  1.00  0.00     0.053 C 
BRANCH   2   3
ATOM      3  C   UNL     1     -23.103  28.184 -22.318  1.00  0.00     0.041 C 
ATOM      4  O   UNL     1     -22.281  27.503 -21.652  1.00  0.00    -0.550 OA
ATOM      5  O   UNL     1     -23.618  27.674 -23.504  1.00  0.00    -0.550 OA
ENDBRANCH   2   3
ENDBRANCH   1   2
BRANCH   1   6
ATOM      6  C   UNL     1     -24.626  30.016 -19.613  1.00  0.00     0.000 C 
BRANCH   6   7
ATOM      7  C   UNL     1     -23.730  29.084 -18.782  1.00  0.00    -0.000 C 
BRANCH   7   8
ATOM      8  C   UNL     1     -23.463  29.624 -17.369  1.00  0.00    -0.003 C 
ATOM      9  C   UNL     1     -24.459  30.721 -17.002  1.00  0.00     0.004 C 
ENDBRANCH   7   8
ENDBRANCH   6   7
ENDBRANCH   1   6
TORSDOF 5
ENDMDL
MODEL 7
REMARK VINA RESULT:    -2.456     14.356     15.569
REMARK INTER + INTRA:          -3.553
REMARK INTER:                  -3.109
REMARK INTRA:                  -0.443
REMARK UNBOUND:                -0.379
REMARK SMILES CCCCCCC(=O)[O-]
REMARK SMILES IDX 5 1 6 2 7 3 8 4 9 5 4 6 3 7 2 8 1 9
REMARK H PARENT
REMARK Flexibility Score: inf
ROOT
ATOM      1  C   UNL     1     -18.749  13.325 -24.022  1.00  0.00     0.006 C 
ENDROOT
BRANCH   1   2
ATOM      2  C   UNL     1     -18.138  14.488 -23.229  1.00  0.00     0.053 C 
BRANCH   2   3
ATOM      3  C   UNL     1     -19.074  14.993 -22.173  1.00  0.00     0.041 C 
ATOM      4  O   UNL     1     -19.496  16.178 -22.213  1.00  0.00    -0.550 OA
ATOM      5  O   UNL     1     -19.457  14.161 -21.128  1.00  0.00    -0.550 OA
ENDBRANCH   2   3
ENDBRANCH   1   2
BRANCH   1   6
ATOM      6  C   UNL     1     -19.915  13.782 -24.916  1.00  0.00     0.000 C 
BRANCH   6   7
ATOM      7  C   UNL     1     -21.149  12.875 -24.787  1.00  0.00    -0.000 C 
BRANCH   7   8
ATOM      8  C   UNL     1     -22.002  13.206 -23.554  1.00  0.00    -0.003 C 
ATOM      9  C   UNL     1     -22.522  14.639 -23.613  1.00  0.00     0.004 C 
ENDBRANCH   7   8
ENDBRANCH   6   7
ENDBRANCH   1   6
TORSDOF 5
ENDMDL
MODEL 8
REMARK VINA RESULT:    -2.446     14.584     15.679
REMARK INTER + INTRA:          -3.540
REMARK INTER:                  -3.136
REMARK INTRA:                  -0.404
REMARK UNBOUND:                -0.379
REMARK SMILES CCCCCCC(=O)[O-]
REMARK SMILES IDX 5 1 6 2 7 3 8 4 9 5 4 6 3 7 2 8 1 9
REMARK H PARENT
REMARK Flexibility Score: inf
ROOT
ATOM      1  C   UNL     1     -20.832  13.260 -24.801  1.00  0.00     0.006 C 
ENDROOT
BRANCH   1   2
ATOM      2  C   UNL     1     -21.763  13.172 -23.585  1.00  0.00     0.053 C 
BRANCH   2   3
ATOM      3  C   UNL     1     -22.236  14.524 -23.147  1.00  0.00     0.041 C 
ATOM      4  O   UNL     1     -23.297  15.009 -23.620  1.00  0.00    -0.550 OA
ATOM      5  O   UNL     1     -21.487  15.262 -22.238  1.00  0.00    -0.550 OA
ENDBRANCH   2   3
ENDBRANCH   1   2
BRANCH   1   6
ATOM      6  C   UNL     1     -19.361  13.013 -24.424  1.00  0.00     0.000 C 
BRANCH   6   7
ATOM      7  C   UNL     1     -18.482  14.257 -24.625  1.00  0.00    -0.000 C 
BRANCH   7   8
ATOM      8  C   UNL     1     -18.147  14.965 -23.304  1.00  0.00    -0.003 C 
ATOM      9  C   UNL     1     -18.174  13.986 -22.134  1.00  0.00     0.004 C 
ENDBRANCH   7   8
ENDBRANCH   6   7
ENDBRANCH   1   6
TORSDOF 5
ENDMDL
MODEL 9
REMARK VINA RESULT:    -2.414     15.378     17.073
REMARK INTER + INTRA:          -3.499
REMARK INTER:                  -3.345
REMARK INTRA:                  -0.154
REMARK UNBOUND:                -0.379
REMARK SMILES CCCCCCC(=O)[O-]
REMARK SMILES IDX 5 1 6 2 7 3 8 4 9 5 4 6 3 7 2 8 1 9
REMARK H PARENT
REMARK Flexibility Score: inf
ROOT
ATOM      1  C   UNL     1     -19.702  13.717 -24.745  1.00  0.00     0.006 C 
ENDROOT
BRANCH   1   2
ATOM      2  C   UNL     1     -21.020  13.045 -24.337  1.00  0.00     0.053 C 
BRANCH   2   3
ATOM      3  C   UNL     1     -21.741  13.830 -23.284  1.00  0.00     0.041 C 
ATOM      4  O   UNL     1     -21.320  13.836 -22.097  1.00  0.00    -0.550 OA
ATOM      5  O   UNL     1     -22.895  14.533 -23.608  1.00  0.00    -0.550 OA
ENDBRANCH   2   3
ENDBRANCH   1   2
BRANCH   1   6
ATOM      6  C   UNL     1     -18.479  12.848 -24.402  1.00  0.00     0.000 C 
BRANCH   6   7
ATOM      7  C   UNL     1     -17.178  13.393 -25.014  1.00  0.00    -0.000 C 
BRANCH   7   8
ATOM      8  C   UNL     1     -16.054  12.348 -25.042  1.00  0.00    -0.003 C 
ATOM      9  C   UNL     1     -16.518  11.024 -24.442  1.00  0.00     0.004 C 
ENDBRANCH   7   8
ENDBRANCH   6   7
ENDBRANCH   1   6
TORSDOF 5
ENDMDL
