MODEL 1
REMARK VINA RESULT:    -4.246      0.000      0.000
REMARK INTER + INTRA:          -4.812
REMARK INTER:                  -4.618
REMARK INTRA:                  -0.194
REMARK UNBOUND:                -0.194
REMARK SMILES Cc1ccc(C(C)C)c(O)c1
REMARK SMILES IDX 1 1 2 2 11 3 9 4 5 5 4 6 3 7 10 8 6 10 7 11 8 12
REMARK H PARENT 10 9
REMARK Flexibility Score: inf
ROOT
ATOM      1  C   UNL     1    -106.244 -13.329  52.238  1.00  0.00     0.044 C 
ATOM      2  C   UNL     1    -107.373 -13.985  52.977  1.00  0.00    -0.047 A 
ATOM      3  C   UNL     1    -108.166 -14.950  52.343  1.00  0.00     0.049 A 
ATOM      4  C   UNL     1    -109.246 -15.542  53.015  1.00  0.00     0.119 A 
ATOM      5  C   UNL     1    -109.552 -15.157  54.342  1.00  0.00    -0.004 A 
ATOM      6  C   UNL     1    -108.758 -14.172  54.959  1.00  0.00     0.008 A 
ATOM      7  C   UNL     1    -107.684 -13.589  54.283  1.00  0.00     0.004 A 
ENDROOT
BRANCH   4   8
ATOM      8  O   UNL     1    -110.012 -16.506  52.360  1.00  0.00    -0.508 OA
ATOM      9  H   UNL     1    -110.989 -16.351  52.139  1.00  0.00     0.293 HD
ENDBRANCH   4   8
BRANCH   5  10
ATOM     10  C   UNL     1    -110.710 -15.763  55.123  1.00  0.00     0.017 C 
ATOM     11  C   UNL     1    -111.591 -14.682  55.765  1.00  0.00     0.012 C 
ATOM     12  C   UNL     1    -110.226 -16.784  56.159  1.00  0.00     0.012 C 
ENDBRANCH   5  10
TORSDOF 2
ENDMDL
MODEL 2
REMARK VINA RESULT:    -4.213      2.406      3.493
REMARK INTER + INTRA:          -4.777
REMARK INTER:                  -4.585
REMARK INTRA:                  -0.192
REMARK UNBOUND:                -0.194
REMARK SMILES Cc1ccc(C(C)C)c(O)c1
REMARK SMILES IDX 1 1 2 2 11 3 9 4 5 5 4 6 3 7 10 8 6 10 7 11 8 12
REMARK H PARENT 10 9
REMARK Flexibility Score: inf
ROOT
ATOM      1  C   UNL     1    -105.866 -16.988  49.982  1.00  0.00     0.044 C 
ATOM      2  C   UNL     1    -106.728 -16.156  50.886  1.00  0.00    -0.047 A 
ATOM      3  C   UNL     1    -106.270 -14.920  51.358  1.00  0.00     0.049 A 
ATOM      4  C   UNL     1    -107.054 -14.152  52.232  1.00  0.00     0.119 A 
ATOM      5  C   UNL     1    -108.317 -14.631  52.655  1.00  0.00    -0.004 A 
ATOM      6  C   UNL     1    -108.756 -15.884  52.188  1.00  0.00     0.008 A 
ATOM      7  C   UNL     1    -107.968 -16.641  51.318  1.00  0.00     0.004 A 
ENDROOT
BRANCH   4   8
ATOM      8  O   UNL     1    -106.575 -12.921  52.677  1.00  0.00    -0.508 OA
ATOM      9  H   UNL     1    -107.162 -12.096  52.698  1.00  0.00     0.293 HD
ENDBRANCH   4   8
BRANCH   5  10
ATOM     10  C   UNL     1    -109.214 -13.844  53.602  1.00  0.00     0.017 C 
ATOM     11  C   UNL     1    -109.596 -14.667  54.840  1.00  0.00     0.012 C 
ATOM     12  C   UNL     1    -110.453 -13.293  52.886  1.00  0.00     0.012 C 
ENDBRANCH   5  10
TORSDOF 2
ENDMDL
MODEL 3
REMARK VINA RESULT:    -4.178     14.326     15.699
REMARK INTER + INTRA:          -4.738
REMARK INTER:                  -4.544
REMARK INTRA:                  -0.194
REMARK UNBOUND:                -0.194
REMARK SMILES Cc1ccc(C(C)C)c(O)c1
REMARK SMILES IDX 1 1 2 2 11 3 9 4 5 5 4 6 3 7 10 8 6 10 7 11 8 12
REMARK H PARENT 10 9
REMARK Flexibility Score: inf
ROOT
ATOM      1  C   UNL     1     -99.125  -0.875  48.120  1.00  0.00     0.044 C 
ATOM      2  C   UNL     1    -100.301  -1.714  47.713  1.00  0.00    -0.047 A 
ATOM      3  C   UNL     1    -101.073  -2.365  48.683  1.00  0.00     0.049 A 
ATOM      4  C   UNL     1    -102.152  -3.180  48.311  1.00  0.00     0.119 A 
ATOM      5  C   UNL     1    -102.462  -3.362  46.941  1.00  0.00    -0.004 A 
ATOM      6  C   UNL     1    -101.666  -2.716  45.977  1.00  0.00     0.008 A 
ATOM      7  C   UNL     1    -100.594  -1.906  46.358  1.00  0.00     0.004 A 
ENDROOT
BRANCH   4   8
ATOM      8  O   UNL     1    -102.907  -3.808  49.300  1.00  0.00    -0.508 OA
ATOM      9  H   UNL     1    -103.113  -3.354  50.182  1.00  0.00     0.293 HD
ENDBRANCH   4   8
BRANCH   5  10
ATOM     10  C   UNL     1    -103.621  -4.233  46.474  1.00  0.00     0.017 C 
ATOM     11  C   UNL     1    -103.305  -4.935  45.146  1.00  0.00     0.012 C 
ATOM     12  C   UNL     1    -104.933  -3.444  46.397  1.00  0.00     0.012 C 
ENDBRANCH   5  10
TORSDOF 2
ENDMDL
MODEL 4
REMARK VINA RESULT:    -4.143     12.385     14.928
REMARK INTER + INTRA:          -4.700
REMARK INTER:                  -4.503
REMARK INTRA:                  -0.196
REMARK UNBOUND:                -0.194
REMARK SMILES Cc1ccc(C(C)C)c(O)c1
REMARK SMILES IDX 1 1 2 2 11 3 9 4 5 5 4 6 3 7 10 8 6 10 7 11 8 12
REMARK H PARENT 10 9
REMARK Flexibility Score: inf
ROOT
ATOM      1  C   UNL     1    -100.283  -2.610  44.728  1.00  0.00     0.044 C 
ATOM      2  C   UNL     1    -101.184  -2.913  45.889  1.00  0.00    -0.047 A 
ATOM      3  C   UNL     1    -100.722  -2.757  47.201  1.00  0.00     0.049 A 
ATOM      4  C   UNL     1    -101.546  -3.072  48.292  1.00  0.00     0.119 A 
ATOM      5  C   UNL     1    -102.854  -3.565  48.072  1.00  0.00    -0.004 A 
ATOM      6  C   UNL     1    -103.298  -3.735  46.748  1.00  0.00     0.008 A 
ATOM      7  C   UNL     1    -102.471  -3.419  45.668  1.00  0.00     0.004 A 
ENDROOT
BRANCH   4   8
ATOM      8  O   UNL     1    -101.060  -2.897  49.587  1.00  0.00    -0.508 OA
ATOM      9  H   UNL     1    -100.067  -2.844  49.782  1.00  0.00     0.293 HD
ENDBRANCH   4   8
BRANCH   5  10
ATOM     10  C   UNL     1    -103.795  -3.925  49.215  1.00  0.00     0.017 C 
ATOM     11  C   UNL     1    -103.710  -5.414  49.575  1.00  0.00     0.012 C 
ATOM     12  C   UNL     1    -105.238  -3.496  48.920  1.00  0.00     0.012 C 
ENDBRANCH   5  10
TORSDOF 2
ENDMDL
MODEL 5
REMARK VINA RESULT:    -4.132      2.411      4.261
REMARK INTER + INTRA:          -4.689
REMARK INTER:                  -4.499
REMARK INTRA:                  -0.190
REMARK UNBOUND:                -0.194
REMARK SMILES Cc1ccc(C(C)C)c(O)c1
REMARK SMILES IDX 1 1 2 2 11 3 9 4 5 5 4 6 3 7 10 8 6 10 7 11 8 12
REMARK H PARENT 10 9
REMARK Flexibility Score: inf
ROOT
ATOM      1  C   UNL     1    -112.013 -11.364  54.808  1.00  0.00     0.044 C 
ATOM      2  C   UNL     1    -111.025 -12.360  54.274  1.00  0.00    -0.047 A 
ATOM      3  C   UNL     1    -109.877 -12.678  55.010  1.00  0.00     0.049 A 
ATOM      4  C   UNL     1    -108.929 -13.579  54.503  1.00  0.00     0.119 A 
ATOM      5  C   UNL     1    -109.123 -14.168  53.230  1.00  0.00    -0.004 A 
ATOM      6  C   UNL     1    -110.272 -13.825  52.495  1.00  0.00     0.008 A 
ATOM      7  C   UNL     1    -111.210 -12.926  53.008  1.00  0.00     0.004 A 
ENDROOT
BRANCH   4   8
ATOM      8  O   UNL     1    -107.800 -13.883  55.263  1.00  0.00    -0.508 OA
ATOM      9  H   UNL     1    -107.161 -13.162  55.579  1.00  0.00     0.293 HD
ENDBRANCH   4   8
BRANCH   5  10
ATOM     10  C   UNL     1    -108.131 -15.154  52.626  1.00  0.00     0.017 C 
ATOM     11  C   UNL     1    -107.001 -14.437  51.876  1.00  0.00     0.012 C 
ATOM     12  C   UNL     1    -108.829 -16.191  51.738  1.00  0.00     0.012 C 
ENDBRANCH   5  10
TORSDOF 2
ENDMDL
MODEL 6
REMARK VINA RESULT:    -4.114      1.723      2.551
REMARK INTER + INTRA:          -4.669
REMARK INTER:                  -4.473
REMARK INTRA:                  -0.196
REMARK UNBOUND:                -0.194
REMARK SMILES Cc1ccc(C(C)C)c(O)c1
REMARK SMILES IDX 1 1 2 2 11 3 9 4 5 5 4 6 3 7 10 8 6 10 7 11 8 12
REMARK H PARENT 10 9
REMARK Flexibility Score: inf
ROOT
ATOM      1  C   UNL     1    -106.135 -13.213  52.593  1.00  0.00     0.044 C 
ATOM      2  C   UNL     1    -107.352 -14.025  52.926  1.00  0.00    -0.047 A 
ATOM      3  C   UNL     1    -108.081 -13.759  54.092  1.00  0.00     0.049 A 
ATOM      4  C   UNL     1    -109.199 -14.536  54.430  1.00  0.00     0.119 A 
ATOM      5  C   UNL     1    -109.593 -15.609  53.595  1.00  0.00    -0.004 A 
ATOM      6  C   UNL     1    -108.840 -15.876  52.437  1.00  0.00     0.008 A 
ATOM      7  C   UNL     1    -107.729 -15.097  52.109  1.00  0.00     0.004 A 
ENDROOT
BRANCH   4   8
ATOM      8  O   UNL     1    -109.909 -14.241  55.592  1.00  0.00    -0.508 OA
ATOM      9  H   UNL     1    -110.859 -13.888  55.562  1.00  0.00     0.293 HD
ENDBRANCH   4   8
BRANCH   5  10
ATOM     10  C   UNL     1    -110.798 -16.488  53.908  1.00  0.00     0.017 C 
ATOM     11  C   UNL     1    -110.568 -17.943  53.478  1.00  0.00     0.012 C 
ATOM     12  C   UNL     1    -112.089 -15.919  53.307  1.00  0.00     0.012 C 
ENDBRANCH   5  10
TORSDOF 2
ENDMDL
MODEL 7
REMARK VINA RESULT:    -3.978     13.978     16.448
REMARK INTER + INTRA:          -4.521
REMARK INTER:                  -4.324
REMARK INTRA:                  -0.196
REMARK UNBOUND:                -0.194
REMARK SMILES Cc1ccc(C(C)C)c(O)c1
REMARK SMILES IDX 1 1 2 2 11 3 9 4 5 5 4 6 3 7 10 8 6 10 7 11 8 12
REMARK H PARENT 10 9
REMARK Flexibility Score: inf
ROOT
ATOM      1  C   UNL     1    -103.954  -3.470  49.358  1.00  0.00     0.044 C 
ATOM      2  C   UNL     1    -102.996  -3.368  48.207  1.00  0.00    -0.047 A 
ATOM      3  C   UNL     1    -101.711  -2.848  48.403  1.00  0.00     0.049 A 
ATOM      4  C   UNL     1    -100.821  -2.715  47.326  1.00  0.00     0.119 A 
ATOM      5  C   UNL     1    -101.224  -3.097  46.024  1.00  0.00    -0.004 A 
ATOM      6  C   UNL     1    -102.525  -3.601  45.840  1.00  0.00     0.008 A 
ATOM      7  C   UNL     1    -103.403  -3.729  46.918  1.00  0.00     0.004 A 
ENDROOT
BRANCH   4   8
ATOM      8  O   UNL     1     -99.545  -2.202  47.554  1.00  0.00    -0.508 OA
ATOM      9  H   UNL     1     -99.157  -1.463  46.979  1.00  0.00     0.293 HD
ENDBRANCH   4   8
BRANCH   5  10
ATOM     10  C   UNL     1    -100.304  -2.977  44.816  1.00  0.00     0.017 C 
ATOM     11  C   UNL     1    -100.464  -1.624  44.110  1.00  0.00     0.012 C 
ATOM     12  C   UNL     1    -100.489  -4.147  43.842  1.00  0.00     0.012 C 
ENDBRANCH   5  10
TORSDOF 2
ENDMDL
MODEL 8
REMARK VINA RESULT:    -3.802     14.342     15.696
REMARK INTER + INTRA:          -4.329
REMARK INTER:                  -4.207
REMARK INTRA:                  -0.122
REMARK UNBOUND:                -0.194
REMARK SMILES Cc1ccc(C(C)C)c(O)c1
REMARK SMILES IDX 1 1 2 2 11 3 9 4 5 5 4 6 3 7 10 8 6 10 7 11 8 12
REMARK H PARENT 10 9
REMARK Flexibility Score: inf
ROOT
ATOM      1  C   UNL     1    -103.451  -5.657  43.630  1.00  0.00     0.044 C 
ATOM      2  C   UNL     1    -102.935  -4.763  44.719  1.00  0.00    -0.047 A 
ATOM      3  C   UNL     1    -103.651  -4.622  45.915  1.00  0.00     0.049 A 
ATOM      4  C   UNL     1    -103.196  -3.761  46.924  1.00  0.00     0.119 A 
ATOM      5  C   UNL     1    -102.008  -3.015  46.735  1.00  0.00    -0.004 A 
ATOM      6  C   UNL     1    -101.309  -3.153  45.521  1.00  0.00     0.008 A 
ATOM      7  C   UNL     1    -101.771  -4.012  44.522  1.00  0.00     0.004 A 
ENDROOT
BRANCH   4   8
ATOM      8  O   UNL     1    -103.926  -3.648  48.106  1.00  0.00    -0.508 OA
ATOM      9  H   UNL     1    -104.054  -2.756  48.571  1.00  0.00     0.293 HD
ENDBRANCH   4   8
BRANCH   5  10
ATOM     10  C   UNL     1    -101.462  -2.064  47.793  1.00  0.00     0.017 C 
ATOM     11  C   UNL     1    -100.497  -1.035  47.191  1.00  0.00     0.012 C 
ATOM     12  C   UNL     1    -100.821  -2.822  48.963  1.00  0.00     0.012 C 
ENDBRANCH   5  10
TORSDOF 2
ENDMDL
MODEL 9
REMARK VINA RESULT:    -3.788      2.487      3.480
REMARK INTER + INTRA:          -4.315
REMARK INTER:                  -4.118
REMARK INTRA:                  -0.196
REMARK UNBOUND:                -0.194
REMARK SMILES Cc1ccc(C(C)C)c(O)c1
REMARK SMILES IDX 1 1 2 2 11 3 9 4 5 5 4 6 3 7 10 8 6 10 7 11 8 12
REMARK H PARENT 10 9
REMARK Flexibility Score: inf
ROOT
ATOM      1  C   UNL     1    -108.498 -16.695  51.589  1.00  0.00     0.044 C 
ATOM      2  C   UNL     1    -109.037 -15.497  52.313  1.00  0.00    -0.047 A 
ATOM      3  C   UNL     1    -108.180 -14.679  53.060  1.00  0.00     0.049 A 
ATOM      4  C   UNL     1    -108.681 -13.577  53.770  1.00  0.00     0.119 A 
ATOM      5  C   UNL     1    -110.067 -13.291  53.746  1.00  0.00    -0.004 A 
ATOM      6  C   UNL     1    -110.918 -14.133  53.006  1.00  0.00     0.008 A 
ATOM      7  C   UNL     1    -110.410 -15.227  52.303  1.00  0.00     0.004 A 
ENDROOT
BRANCH   4   8
ATOM      8  O   UNL     1    -107.802 -12.776  54.497  1.00  0.00    -0.508 OA
ATOM      9  H   UNL     1    -108.134 -12.064  55.137  1.00  0.00     0.293 HD
ENDBRANCH   4   8
BRANCH   5  10
ATOM     10  C   UNL     1    -110.671 -12.110  54.495  1.00  0.00     0.017 C 
ATOM     11  C   UNL     1    -111.103 -12.497  55.915  1.00  0.00     0.012 C 
ATOM     12  C   UNL     1    -111.821 -11.466  53.711  1.00  0.00     0.012 C 
ENDBRANCH   5  10
TORSDOF 2
ENDMDL
