MODEL 1
REMARK VINA RESULT:    -4.335      0.000      0.000
REMARK INTER + INTRA:         -15.315
REMARK INTER:                 -10.925
REMARK INTRA:                  -4.390
REMARK UNBOUND:                -4.390
REMARK SMILES CCCCCCCCCCCCCCCCCCCCCCCCCCCC(=O)[O-]
REMARK SMILES IDX 15 1 16 2 17 3 18 4 19 5 20 6 21 7 22 8 23 9 24 10 25 11
REMARK SMILES IDX 26 12 27 13 28 14 29 15 30 16 14 17 13 18 12 19 11 20 10 21
REMARK SMILES IDX 9 22 8 23 7 24 6 25 5 26 4 27 3 28 2 29 1 30
REMARK H PARENT
REMARK Flexibility Score: inf
ROOT
ATOM      1  C   UNL     1      26.075  27.585 -10.478  1.00  0.00     0.000 C 
ENDROOT
BRANCH   1   2
ATOM      2  C   UNL     1      26.276  28.956  -9.814  1.00  0.00     0.000 C 
BRANCH   2   3
ATOM      3  C   UNL     1      27.762  29.320  -9.641  1.00  0.00     0.000 C 
BRANCH   3   4
ATOM      4  C   UNL     1      28.198  30.467 -10.567  1.00  0.00     0.000 C 
BRANCH   4   5
ATOM      5  C   UNL     1      29.314  30.050 -11.541  1.00  0.00     0.000 C 
BRANCH   5   6
ATOM      6  C   UNL     1      28.913  30.238 -13.013  1.00  0.00     0.000 C 
BRANCH   6   7
ATOM      7  C   UNL     1      27.452  30.692 -13.179  1.00  0.00     0.000 C 
BRANCH   7   8
ATOM      8  C   UNL     1      26.914  30.422 -14.594  1.00  0.00     0.000 C 
BRANCH   8   9
ATOM      9  C   UNL     1      25.416  30.747 -14.725  1.00  0.00     0.000 C 
BRANCH   9  10
ATOM     10  C   UNL     1      25.114  32.236 -14.492  1.00  0.00     0.000 C 
BRANCH  10  11
ATOM     11  C   UNL     1      24.009  32.461 -13.445  1.00  0.00     0.000 C 
BRANCH  11  12
ATOM     12  C   UNL     1      24.515  32.291 -12.002  1.00  0.00     0.006 C 
BRANCH  12  13
ATOM     13  C   UNL     1      23.773  31.210 -11.198  1.00  0.00     0.053 C 
BRANCH  13  14
ATOM     14  C   UNL     1      22.381  31.633 -10.843  1.00  0.00     0.041 C 
ATOM     15  O   UNL     1      22.190  32.498  -9.947  1.00  0.00    -0.550 OA
ATOM     16  O   UNL     1      21.296  31.100 -11.527  1.00  0.00    -0.550 OA
ENDBRANCH  13  14
ENDBRANCH  12  13
ENDBRANCH  11  12
ENDBRANCH  10  11
ENDBRANCH   9  10
ENDBRANCH   8   9
ENDBRANCH   7   8
ENDBRANCH   6   7
ENDBRANCH   5   6
ENDBRANCH   4   5
ENDBRANCH   3   4
ENDBRANCH   2   3
ENDBRANCH   1   2
BRANCH   1  17
ATOM     17  C   UNL     1      25.860  27.685 -12.000  1.00  0.00     0.000 C 
BRANCH  17  18
ATOM     18  C   UNL     1      26.945  26.946 -12.809  1.00  0.00     0.000 C 
BRANCH  18  19
ATOM     19  C   UNL     1      26.629  26.811 -14.310  1.00  0.00     0.000 C 
BRANCH  19  20
ATOM     20  C   UNL     1      25.169  27.103 -14.703  1.00  0.00     0.000 C 
BRANCH  20  21
ATOM     21  C   UNL     1      24.400  25.910 -15.304  1.00  0.00     0.000 C 
BRANCH  21  22
ATOM     22  C   UNL     1      25.116  24.551 -15.196  1.00  0.00    -0.000 C 
BRANCH  22  23
ATOM     23  C   UNL     1      24.283  23.493 -14.459  1.00  0.00    -0.000 C 
BRANCH  23  24
ATOM     24  C   UNL     1      25.184  22.585 -13.610  1.00  0.00    -0.000 C 
BRANCH  24  25
ATOM     25  C   UNL     1      26.672  22.700 -13.987  1.00  0.00    -0.000 C 
BRANCH  25  26
ATOM     26  C   UNL     1      27.619  23.095 -12.833  1.00  0.00    -0.000 C 
BRANCH  26  27
ATOM     27  C   UNL     1      27.043  22.927 -11.411  1.00  0.00    -0.000 C 
BRANCH  27  28
ATOM     28  C   UNL     1      27.467  21.622 -10.699  1.00  0.00    -0.000 C 
BRANCH  28  29
ATOM     29  C   UNL     1      26.453  20.475 -10.850  1.00  0.00    -0.003 C 
ATOM     30  C   UNL     1      26.763  19.550 -12.027  1.00  0.00     0.004 C 
ENDBRANCH  28  29
ENDBRANCH  27  28
ENDBRANCH  26  27
ENDBRANCH  25  26
ENDBRANCH  24  25
ENDBRANCH  23  24
ENDBRANCH  22  23
ENDBRANCH  21  22
ENDBRANCH  20  21
ENDBRANCH  19  20
ENDBRANCH  18  19
ENDBRANCH  17  18
ENDBRANCH   1  17
TORSDOF 26
ENDMDL
MODEL 2
REMARK VINA RESULT:    -4.206      3.253      7.440
REMARK INTER + INTRA:         -14.990
REMARK INTER:                  -9.270
REMARK INTRA:                  -5.720
REMARK UNBOUND:                -4.390
REMARK SMILES CCCCCCCCCCCCCCCCCCCCCCCCCCCC(=O)[O-]
REMARK SMILES IDX 15 1 16 2 17 3 18 4 19 5 20 6 21 7 22 8 23 9 24 10 25 11
REMARK SMILES IDX 26 12 27 13 28 14 29 15 30 16 14 17 13 18 12 19 11 20 10 21
REMARK SMILES IDX 9 22 8 23 7 24 6 25 5 26 4 27 3 28 2 29 1 30
REMARK H PARENT
REMARK Flexibility Score: inf
ROOT
ATOM      1  C   UNL     1      28.230  29.375 -12.033  1.00  0.00     0.000 C 
ENDROOT
BRANCH   1   2
ATOM      2  C   UNL     1      27.797  29.969 -10.683  1.00  0.00     0.000 C 
BRANCH   2   3
ATOM      3  C   UNL     1      26.717  29.125  -9.982  1.00  0.00     0.000 C 
BRANCH   3   4
ATOM      4  C   UNL     1      26.409  27.822 -10.738  1.00  0.00     0.000 C 
BRANCH   4   5
ATOM      5  C   UNL     1      24.900  27.528 -10.821  1.00  0.00     0.000 C 
BRANCH   5   6
ATOM      6  C   UNL     1      24.324  27.792 -12.222  1.00  0.00     0.000 C 
BRANCH   6   7
ATOM      7  C   UNL     1      23.300  26.729 -12.654  1.00  0.00     0.000 C 
BRANCH   7   8
ATOM      8  C   UNL     1      23.593  26.172 -14.057  1.00  0.00     0.000 C 
BRANCH   8   9
ATOM      9  C   UNL     1      24.556  24.972 -14.024  1.00  0.00     0.000 C 
BRANCH   9  10
ATOM     10  C   UNL     1      25.899  25.277 -14.706  1.00  0.00     0.000 C 
BRANCH  10  11
ATOM     11  C   UNL     1      26.997  25.674 -13.705  1.00  0.00     0.000 C 
BRANCH  11  12
ATOM     12  C   UNL     1      27.120  24.681 -12.534  1.00  0.00     0.006 C 
BRANCH  12  13
ATOM     13  C   UNL     1      27.899  23.401 -12.874  1.00  0.00     0.053 C 
BRANCH  13  14
ATOM     14  C   UNL     1      27.599  22.291 -11.913  1.00  0.00     0.041 C 
ATOM     15  O   UNL     1      26.407  22.024 -11.605  1.00  0.00    -0.550 OA
ATOM     16  O   UNL     1      28.634  21.529 -11.386  1.00  0.00    -0.550 OA
ENDBRANCH  13  14
ENDBRANCH  12  13
ENDBRANCH  11  12
ENDBRANCH  10  11
ENDBRANCH   9  10
ENDBRANCH   8   9
ENDBRANCH   7   8
ENDBRANCH   6   7
ENDBRANCH   5   6
ENDBRANCH   4   5
ENDBRANCH   3   4
ENDBRANCH   2   3
ENDBRANCH   1   2
BRANCH   1  17
ATOM     17  C   UNL     1      28.607  30.454 -13.065  1.00  0.00     0.000 C 
BRANCH  17  18
ATOM     18  C   UNL     1      27.643  30.493 -14.270  1.00  0.00     0.000 C 
BRANCH  18  19
ATOM     19  C   UNL     1      26.567  29.392 -14.251  1.00  0.00     0.000 C 
BRANCH  19  20
ATOM     20  C   UNL     1      26.174  28.833 -15.630  1.00  0.00     0.000 C 
BRANCH  20  21
ATOM     21  C   UNL     1      24.700  29.049 -16.031  1.00  0.00     0.000 C 
BRANCH  21  22
ATOM     22  C   UNL     1      24.160  30.470 -15.790  1.00  0.00    -0.000 C 
BRANCH  22  23
ATOM     23  C   UNL     1      23.115  30.531 -14.667  1.00  0.00    -0.000 C 
BRANCH  23  24
ATOM     24  C   UNL     1      23.061  31.936 -14.050  1.00  0.00    -0.000 C 
BRANCH  24  25
ATOM     25  C   UNL     1      24.320  32.279 -13.234  1.00  0.00    -0.000 C 
BRANCH  25  26
ATOM     26  C   UNL     1      24.530  31.438 -11.957  1.00  0.00    -0.000 C 
BRANCH  26  27
ATOM     27  C   UNL     1      23.426  31.565 -10.886  1.00  0.00    -0.000 C 
BRANCH  27  28
ATOM     28  C   UNL     1      22.371  30.435 -10.918  1.00  0.00    -0.000 C 
BRANCH  28  29
ATOM     29  C   UNL     1      22.044  29.853  -9.532  1.00  0.00    -0.003 C 
ATOM     30  C   UNL     1      23.235  29.874  -8.574  1.00  0.00     0.004 C 
ENDBRANCH  28  29
ENDBRANCH  27  28
ENDBRANCH  26  27
ENDBRANCH  25  26
ENDBRANCH  24  25
ENDBRANCH  23  24
ENDBRANCH  22  23
ENDBRANCH  21  22
ENDBRANCH  20  21
ENDBRANCH  19  20
ENDBRANCH  18  19
ENDBRANCH  17  18
ENDBRANCH   1  17
TORSDOF 26
ENDMDL
MODEL 3
REMARK VINA RESULT:    -4.197      1.864      4.143
REMARK INTER + INTRA:         -14.967
REMARK INTER:                  -9.519
REMARK INTRA:                  -5.448
REMARK UNBOUND:                -4.390
REMARK SMILES CCCCCCCCCCCCCCCCCCCCCCCCCCCC(=O)[O-]
REMARK SMILES IDX 15 1 16 2 17 3 18 4 19 5 20 6 21 7 22 8 23 9 24 10 25 11
REMARK SMILES IDX 26 12 27 13 28 14 29 15 30 16 14 17 13 18 12 19 11 20 10 21
REMARK SMILES IDX 9 22 8 23 7 24 6 25 5 26 4 27 3 28 2 29 1 30
REMARK H PARENT
REMARK Flexibility Score: inf
ROOT
ATOM      1  C   UNL     1      26.291  29.605 -15.369  1.00  0.00     0.000 C 
ENDROOT
BRANCH   1   2
ATOM      2  C   UNL     1      27.371  30.507 -14.753  1.00  0.00     0.000 C 
BRANCH   2   3
ATOM      3  C   UNL     1      27.480  30.345 -13.226  1.00  0.00     0.000 C 
BRANCH   3   4
ATOM      4  C   UNL     1      28.938  30.254 -12.747  1.00  0.00     0.000 C 
BRANCH   4   5
ATOM      5  C   UNL     1      29.050  29.909 -11.251  1.00  0.00     0.000 C 
BRANCH   5   6
ATOM      6  C   UNL     1      27.702  30.006 -10.520  1.00  0.00     0.000 C 
BRANCH   6   7
ATOM      7  C   UNL     1      27.195  28.642 -10.021  1.00  0.00     0.000 C 
BRANCH   7   8
ATOM      8  C   UNL     1      25.739  28.373 -10.435  1.00  0.00     0.000 C 
BRANCH   8   9
ATOM      9  C   UNL     1      24.727  28.973  -9.444  1.00  0.00     0.000 C 
BRANCH   9  10
ATOM     10  C   UNL     1      23.738  29.933 -10.124  1.00  0.00     0.000 C 
BRANCH  10  11
ATOM     11  C   UNL     1      24.128  30.257 -11.577  1.00  0.00     0.000 C 
BRANCH  11  12
ATOM     12  C   UNL     1      24.732  31.664 -11.730  1.00  0.00     0.006 C 
BRANCH  12  13
ATOM     13  C   UNL     1      23.909  32.609 -12.621  1.00  0.00     0.053 C 
BRANCH  13  14
ATOM     14  C   UNL     1      24.110  32.320 -14.078  1.00  0.00     0.041 C 
ATOM     15  O   UNL     1      23.440  31.415 -14.643  1.00  0.00    -0.550 OA
ATOM     16  O   UNL     1      25.010  33.075 -14.818  1.00  0.00    -0.550 OA
ENDBRANCH  13  14
ENDBRANCH  12  13
ENDBRANCH  11  12
ENDBRANCH  10  11
ENDBRANCH   9  10
ENDBRANCH   8   9
ENDBRANCH   7   8
ENDBRANCH   6   7
ENDBRANCH   5   6
ENDBRANCH   4   5
ENDBRANCH   3   4
ENDBRANCH   2   3
ENDBRANCH   1   2
BRANCH   1  17
ATOM     17  C   UNL     1      25.794  28.519 -14.397  1.00  0.00     0.000 C 
BRANCH  17  18
ATOM     18  C   UNL     1      25.623  27.142 -15.071  1.00  0.00     0.000 C 
BRANCH  18  19
ATOM     19  C   UNL     1      26.454  26.018 -14.426  1.00  0.00     0.000 C 
BRANCH  19  20
ATOM     20  C   UNL     1      26.891  26.276 -12.972  1.00  0.00     0.000 C 
BRANCH  20  21
ATOM     21  C   UNL     1      27.103  25.010 -12.116  1.00  0.00     0.000 C 
BRANCH  21  22
ATOM     22  C   UNL     1      27.608  23.778 -12.888  1.00  0.00    -0.000 C 
BRANCH  22  23
ATOM     23  C   UNL     1      26.675  22.565 -12.756  1.00  0.00    -0.000 C 
BRANCH  23  24
ATOM     24  C   UNL     1      25.804  22.410 -14.010  1.00  0.00    -0.000 C 
BRANCH  24  25
ATOM     25  C   UNL     1      24.404  23.028 -13.844  1.00  0.00    -0.000 C 
BRANCH  25  26
ATOM     26  C   UNL     1      23.890  23.122 -12.392  1.00  0.00    -0.000 C 
BRANCH  26  27
ATOM     27  C   UNL     1      22.875  24.252 -12.115  1.00  0.00    -0.000 C 
BRANCH  27  28
ATOM     28  C   UNL     1      23.508  25.575 -11.626  1.00  0.00    -0.000 C 
BRANCH  28  29
ATOM     29  C   UNL     1      23.071  26.807 -12.436  1.00  0.00    -0.003 C 
ATOM     30  C   UNL     1      22.292  26.450 -13.701  1.00  0.00     0.004 C 
ENDBRANCH  28  29
ENDBRANCH  27  28
ENDBRANCH  26  27
ENDBRANCH  25  26
ENDBRANCH  24  25
ENDBRANCH  23  24
ENDBRANCH  22  23
ENDBRANCH  21  22
ENDBRANCH  20  21
ENDBRANCH  19  20
ENDBRANCH  18  19
ENDBRANCH  17  18
ENDBRANCH   1  17
TORSDOF 26
ENDMDL
MODEL 4
REMARK VINA RESULT:    -4.182      3.485      8.279
REMARK INTER + INTRA:         -14.928
REMARK INTER:                 -10.440
REMARK INTRA:                  -4.488
REMARK UNBOUND:                -4.390
REMARK SMILES CCCCCCCCCCCCCCCCCCCCCCCCCCCC(=O)[O-]
REMARK SMILES IDX 15 1 16 2 17 3 18 4 19 5 20 6 21 7 22 8 23 9 24 10 25 11
REMARK SMILES IDX 26 12 27 13 28 14 29 15 30 16 14 17 13 18 12 19 11 20 10 21
REMARK SMILES IDX 9 22 8 23 7 24 6 25 5 26 4 27 3 28 2 29 1 30
REMARK H PARENT
REMARK Flexibility Score: inf
ROOT
ATOM      1  C   UNL     1      27.481  28.957  -9.945  1.00  0.00     0.000 C 
ENDROOT
BRANCH   1   2
ATOM      2  C   UNL     1      26.278  28.390 -10.714  1.00  0.00     0.000 C 
BRANCH   2   3
ATOM      3  C   UNL     1      26.537  26.974 -11.261  1.00  0.00     0.000 C 
BRANCH   3   4
ATOM      4  C   UNL     1      26.961  26.984 -12.739  1.00  0.00     0.000 C 
BRANCH   4   5
ATOM      5  C   UNL     1      25.760  26.919 -13.700  1.00  0.00     0.000 C 
BRANCH   5   6
ATOM      6  C   UNL     1      25.102  25.530 -13.730  1.00  0.00     0.000 C 
BRANCH   6   7
ATOM      7  C   UNL     1      25.733  24.595 -14.776  1.00  0.00     0.000 C 
BRANCH   7   8
ATOM      8  C   UNL     1      26.264  23.294 -14.151  1.00  0.00     0.000 C 
BRANCH   8   9
ATOM      9  C   UNL     1      27.628  23.485 -13.466  1.00  0.00     0.000 C 
BRANCH   9  10
ATOM     10  C   UNL     1      27.706  22.777 -12.104  1.00  0.00     0.000 C 
BRANCH  10  11
ATOM     11  C   UNL     1      26.556  23.174 -11.162  1.00  0.00     0.000 C 
BRANCH  11  12
ATOM     12  C   UNL     1      25.990  21.976 -10.379  1.00  0.00     0.006 C 
BRANCH  12  13
ATOM     13  C   UNL     1      26.859  20.710 -10.451  1.00  0.00     0.053 C 
BRANCH  13  14
ATOM     14  C   UNL     1      26.204  19.626 -11.251  1.00  0.00     0.041 C 
ATOM     15  O   UNL     1      25.042  19.235 -10.959  1.00  0.00    -0.550 OA
ATOM     16  O   UNL     1      26.862  19.072 -12.342  1.00  0.00    -0.550 OA
ENDBRANCH  13  14
ENDBRANCH  12  13
ENDBRANCH  11  12
ENDBRANCH  10  11
ENDBRANCH   9  10
ENDBRANCH   8   9
ENDBRANCH   7   8
ENDBRANCH   6   7
ENDBRANCH   5   6
ENDBRANCH   4   5
ENDBRANCH   3   4
ENDBRANCH   2   3
ENDBRANCH   1   2
BRANCH   1  17
ATOM     17  C   UNL     1      28.042  30.243 -10.581  1.00  0.00     0.000 C 
BRANCH  17  18
ATOM     18  C   UNL     1      29.219  29.973 -11.541  1.00  0.00     0.000 C 
BRANCH  18  19
ATOM     19  C   UNL     1      28.894  30.233 -13.024  1.00  0.00     0.000 C 
BRANCH  19  20
ATOM     20  C   UNL     1      27.446  30.671 -13.312  1.00  0.00     0.000 C 
BRANCH  20  21
ATOM     21  C   UNL     1      26.878  30.207 -14.669  1.00  0.00     0.000 C 
BRANCH  21  22
ATOM     22  C   UNL     1      25.432  30.651 -14.956  1.00  0.00    -0.000 C 
BRANCH  22  23
ATOM     23  C   UNL     1      25.206  32.149 -14.707  1.00  0.00    -0.000 C 
BRANCH  23  24
ATOM     24  C   UNL     1      23.937  32.376 -13.873  1.00  0.00    -0.000 C 
BRANCH  24  25
ATOM     25  C   UNL     1      24.239  32.656 -12.390  1.00  0.00    -0.000 C 
BRANCH  25  26
ATOM     26  C   UNL     1      24.348  31.406 -11.490  1.00  0.00    -0.000 C 
BRANCH  26  27
ATOM     27  C   UNL     1      23.166  31.174 -10.525  1.00  0.00    -0.000 C 
BRANCH  27  28
ATOM     28  C   UNL     1      22.147  30.115 -11.005  1.00  0.00    -0.000 C 
BRANCH  28  29
ATOM     29  C   UNL     1      22.653  29.251 -12.173  1.00  0.00    -0.003 C 
ATOM     30  C   UNL     1      22.782  27.772 -11.815  1.00  0.00     0.004 C 
ENDBRANCH  28  29
ENDBRANCH  27  28
ENDBRANCH  26  27
ENDBRANCH  25  26
ENDBRANCH  24  25
ENDBRANCH  23  24
ENDBRANCH  22  23
ENDBRANCH  21  22
ENDBRANCH  20  21
ENDBRANCH  19  20
ENDBRANCH  18  19
ENDBRANCH  17  18
ENDBRANCH   1  17
TORSDOF 26
ENDMDL
MODEL 5
REMARK VINA RESULT:    -4.107      1.489      2.284
REMARK INTER + INTRA:         -14.740
REMARK INTER:                 -10.027
REMARK INTRA:                  -4.713
REMARK UNBOUND:                -4.390
REMARK SMILES CCCCCCCCCCCCCCCCCCCCCCCCCCCC(=O)[O-]
REMARK SMILES IDX 15 1 16 2 17 3 18 4 19 5 20 6 21 7 22 8 23 9 24 10 25 11
REMARK SMILES IDX 26 12 27 13 28 14 29 15 30 16 14 17 13 18 12 19 11 20 10 21
REMARK SMILES IDX 9 22 8 23 7 24 6 25 5 26 4 27 3 28 2 29 1 30
REMARK H PARENT
REMARK Flexibility Score: inf
ROOT
ATOM      1  C   UNL     1      25.628  28.034 -11.196  1.00  0.00     0.000 C 
ENDROOT
BRANCH   1   2
ATOM      2  C   UNL     1      25.992  28.706  -9.863  1.00  0.00     0.000 C 
BRANCH   2   3
ATOM      3  C   UNL     1      27.497  29.002  -9.738  1.00  0.00     0.000 C 
BRANCH   3   4
ATOM      4  C   UNL     1      27.901  30.302 -10.454  1.00  0.00     0.000 C 
BRANCH   4   5
ATOM      5  C   UNL     1      29.208  30.157 -11.253  1.00  0.00     0.000 C 
BRANCH   5   6
ATOM      6  C   UNL     1      28.978  30.180 -12.772  1.00  0.00     0.000 C 
BRANCH   6   7
ATOM      7  C   UNL     1      27.529  30.535 -13.149  1.00  0.00     0.000 C 
BRANCH   7   8
ATOM      8  C   UNL     1      27.280  30.443 -14.663  1.00  0.00     0.000 C 
BRANCH   8   9
ATOM      9  C   UNL     1      25.875  29.913 -14.997  1.00  0.00     0.000 C 
BRANCH   9  10
ATOM     10  C   UNL     1      24.840  30.273 -13.920  1.00  0.00     0.000 C 
BRANCH  10  11
ATOM     11  C   UNL     1      24.215  31.662 -14.138  1.00  0.00     0.000 C 
BRANCH  11  12
ATOM     12  C   UNL     1      24.148  32.493 -12.844  1.00  0.00     0.006 C 
BRANCH  12  13
ATOM     13  C   UNL     1      24.357  31.675 -11.559  1.00  0.00     0.053 C 
BRANCH  13  14
ATOM     14  C   UNL     1      23.060  31.355 -10.882  1.00  0.00     0.041 C 
ATOM     15  O   UNL     1      23.054  30.875  -9.716  1.00  0.00    -0.550 OA
ATOM     16  O   UNL     1      21.857  31.619 -11.523  1.00  0.00    -0.550 OA
ENDBRANCH  13  14
ENDBRANCH  12  13
ENDBRANCH  11  12
ENDBRANCH  10  11
ENDBRANCH   9  10
ENDBRANCH   8   9
ENDBRANCH   7   8
ENDBRANCH   6   7
ENDBRANCH   5   6
ENDBRANCH   4   5
ENDBRANCH   3   4
ENDBRANCH   2   3
ENDBRANCH   1   2
BRANCH   1  17
ATOM     17  C   UNL     1      26.616  26.920 -11.591  1.00  0.00     0.000 C 
BRANCH  17  18
ATOM     18  C   UNL     1      27.098  27.037 -13.052  1.00  0.00     0.000 C 
BRANCH  18  19
ATOM     19  C   UNL     1      26.852  25.774 -13.898  1.00  0.00     0.000 C 
BRANCH  19  20
ATOM     20  C   UNL     1      27.319  24.454 -13.259  1.00  0.00     0.000 C 
BRANCH  20  21
ATOM     21  C   UNL     1      26.918  23.175 -14.024  1.00  0.00     0.000 C 
BRANCH  21  22
ATOM     22  C   UNL     1      25.642  22.483 -13.511  1.00  0.00    -0.000 C 
BRANCH  22  23
ATOM     23  C   UNL     1      25.925  21.140 -12.824  1.00  0.00    -0.000 C 
BRANCH  23  24
ATOM     24  C   UNL     1      24.701  20.667 -12.028  1.00  0.00    -0.000 C 
BRANCH  24  25
ATOM     25  C   UNL     1      23.575  21.715 -11.986  1.00  0.00    -0.000 C 
BRANCH  25  26
ATOM     26  C   UNL     1      23.433  22.481 -10.653  1.00  0.00    -0.000 C 
BRANCH  26  27
ATOM     27  C   UNL     1      24.041  23.900 -10.632  1.00  0.00    -0.000 C 
BRANCH  27  28
ATOM     28  C   UNL     1      25.146  24.106  -9.571  1.00  0.00    -0.000 C 
BRANCH  28  29
ATOM     29  C   UNL     1      26.482  23.430  -9.926  1.00  0.00    -0.003 C 
ATOM     30  C   UNL     1      26.762  22.179  -9.094  1.00  0.00     0.004 C 
ENDBRANCH  28  29
ENDBRANCH  27  28
ENDBRANCH  26  27
ENDBRANCH  25  26
ENDBRANCH  24  25
ENDBRANCH  23  24
ENDBRANCH  22  23
ENDBRANCH  21  22
ENDBRANCH  20  21
ENDBRANCH  19  20
ENDBRANCH  18  19
ENDBRANCH  17  18
ENDBRANCH   1  17
TORSDOF 26
ENDMDL
MODEL 6
REMARK VINA RESULT:    -4.090      3.381      8.093
REMARK INTER + INTRA:         -14.698
REMARK INTER:                  -9.882
REMARK INTRA:                  -4.816
REMARK UNBOUND:                -4.390
REMARK SMILES CCCCCCCCCCCCCCCCCCCCCCCCCCCC(=O)[O-]
REMARK SMILES IDX 15 1 16 2 17 3 18 4 19 5 20 6 21 7 22 8 23 9 24 10 25 11
REMARK SMILES IDX 26 12 27 13 28 14 29 15 30 16 14 17 13 18 12 19 11 20 10 21
REMARK SMILES IDX 9 22 8 23 7 24 6 25 5 26 4 27 3 28 2 29 1 30
REMARK H PARENT
REMARK Flexibility Score: inf
ROOT
ATOM      1  C   UNL     1      24.215  28.040 -10.305  1.00  0.00     0.000 C 
ENDROOT
BRANCH   1   2
ATOM      2  C   UNL     1      24.555  26.846 -11.212  1.00  0.00     0.000 C 
BRANCH   2   3
ATOM      3  C   UNL     1      25.546  27.214 -12.332  1.00  0.00     0.000 C 
BRANCH   3   4
ATOM      4  C   UNL     1      26.817  26.350 -12.298  1.00  0.00     0.000 C 
BRANCH   4   5
ATOM      5  C   UNL     1      27.135  25.710 -13.661  1.00  0.00     0.000 C 
BRANCH   5   6
ATOM      6  C   UNL     1      25.916  25.678 -14.597  1.00  0.00     0.000 C 
BRANCH   6   7
ATOM      7  C   UNL     1      25.560  24.255 -15.062  1.00  0.00     0.000 C 
BRANCH   7   8
ATOM      8  C   UNL     1      26.338  23.177 -14.290  1.00  0.00     0.000 C 
BRANCH   8   9
ATOM      9  C   UNL     1      25.435  22.362 -13.348  1.00  0.00     0.000 C 
BRANCH   9  10
ATOM     10  C   UNL     1      24.618  23.254 -12.400  1.00  0.00     0.000 C 
BRANCH  10  11
ATOM     11  C   UNL     1      24.281  22.556 -11.071  1.00  0.00     0.000 C 
BRANCH  11  12
ATOM     12  C   UNL     1      25.172  23.031  -9.909  1.00  0.00     0.006 C 
BRANCH  12  13
ATOM     13  C   UNL     1      26.657  23.187 -10.278  1.00  0.00     0.053 C 
BRANCH  13  14
ATOM     14  C   UNL     1      27.386  21.879 -10.230  1.00  0.00     0.041 C 
ATOM     15  O   UNL     1      27.117  21.035  -9.333  1.00  0.00    -0.550 OA
ATOM     16  O   UNL     1      28.336  21.576 -11.197  1.00  0.00    -0.550 OA
ENDBRANCH  13  14
ENDBRANCH  12  13
ENDBRANCH  11  12
ENDBRANCH  10  11
ENDBRANCH   9  10
ENDBRANCH   8   9
ENDBRANCH   7   8
ENDBRANCH   6   7
ENDBRANCH   5   6
ENDBRANCH   4   5
ENDBRANCH   3   4
ENDBRANCH   2   3
ENDBRANCH   1   2
BRANCH   1  17
ATOM     17  C   UNL     1      25.379  29.040 -10.177  1.00  0.00     0.000 C 
BRANCH  17  18
ATOM     18  C   UNL     1      26.394  28.642  -9.086  1.00  0.00     0.000 C 
BRANCH  18  19
ATOM     19  C   UNL     1      27.712  29.437  -9.132  1.00  0.00     0.000 C 
BRANCH  19  20
ATOM     20  C   UNL     1      27.882  30.357 -10.355  1.00  0.00     0.000 C 
BRANCH  20  21
ATOM     21  C   UNL     1      29.130  30.078 -11.219  1.00  0.00     0.000 C 
BRANCH  21  22
ATOM     22  C   UNL     1      28.895  30.128 -12.739  1.00  0.00    -0.000 C 
BRANCH  22  23
ATOM     23  C   UNL     1      27.406  30.180 -13.113  1.00  0.00    -0.000 C 
BRANCH  23  24
ATOM     24  C   UNL     1      27.232  30.413 -14.620  1.00  0.00    -0.000 C 
BRANCH  24  25
ATOM     25  C   UNL     1      26.295  29.384 -15.279  1.00  0.00    -0.000 C 
BRANCH  25  26
ATOM     26  C   UNL     1      24.845  29.861 -15.507  1.00  0.00    -0.000 C 
BRANCH  26  27
ATOM     27  C   UNL     1      23.847  29.527 -14.378  1.00  0.00    -0.000 C 
BRANCH  27  28
ATOM     28  C   UNL     1      23.019  30.732 -13.878  1.00  0.00    -0.000 C 
BRANCH  28  29
ATOM     29  C   UNL     1      23.508  31.308 -12.538  1.00  0.00    -0.003 C 
ATOM     30  C   UNL     1      24.471  32.483 -12.704  1.00  0.00     0.004 C 
ENDBRANCH  28  29
ENDBRANCH  27  28
ENDBRANCH  26  27
ENDBRANCH  25  26
ENDBRANCH  24  25
ENDBRANCH  23  24
ENDBRANCH  22  23
ENDBRANCH  21  22
ENDBRANCH  20  21
ENDBRANCH  19  20
ENDBRANCH  18  19
ENDBRANCH  17  18
ENDBRANCH   1  17
TORSDOF 26
ENDMDL
MODEL 7
REMARK VINA RESULT:    -4.077      3.344      7.404
REMARK INTER + INTRA:         -14.664
REMARK INTER:                  -9.349
REMARK INTRA:                  -5.315
REMARK UNBOUND:                -4.390
REMARK SMILES CCCCCCCCCCCCCCCCCCCCCCCCCCCC(=O)[O-]
REMARK SMILES IDX 15 1 16 2 17 3 18 4 19 5 20 6 21 7 22 8 23 9 24 10 25 11
REMARK SMILES IDX 26 12 27 13 28 14 29 15 30 16 14 17 13 18 12 19 11 20 10 21
REMARK SMILES IDX 9 22 8 23 7 24 6 25 5 26 4 27 3 28 2 29 1 30
REMARK H PARENT
REMARK Flexibility Score: inf
ROOT
ATOM      1  C   UNL     1      23.723  29.343 -11.011  1.00  0.00     0.000 C 
ENDROOT
BRANCH   1   2
ATOM      2  C   UNL     1      23.888  28.535 -12.308  1.00  0.00     0.000 C 
BRANCH   2   3
ATOM      3  C   UNL     1      22.612  28.529 -13.170  1.00  0.00     0.000 C 
BRANCH   3   4
ATOM      4  C   UNL     1      22.857  29.076 -14.585  1.00  0.00     0.000 C 
BRANCH   4   5
ATOM      5  C   UNL     1      24.066  28.418 -15.274  1.00  0.00     0.000 C 
BRANCH   5   6
ATOM      6  C   UNL     1      23.807  26.949 -15.644  1.00  0.00     0.000 C 
BRANCH   6   7
ATOM      7  C   UNL     1      24.787  25.981 -14.959  1.00  0.00     0.000 C 
BRANCH   7   8
ATOM      8  C   UNL     1      26.190  26.588 -14.798  1.00  0.00     0.000 C 
BRANCH   8   9
ATOM      9  C   UNL     1      27.007  25.897 -13.692  1.00  0.00     0.000 C 
BRANCH   9  10
ATOM     10  C   UNL     1      26.923  26.640 -12.350  1.00  0.00     0.000 C 
BRANCH  10  11
ATOM     11  C   UNL     1      26.194  25.827 -11.266  1.00  0.00     0.000 C 
BRANCH  11  12
ATOM     12  C   UNL     1      25.869  24.392 -11.718  1.00  0.00     0.006 C 
BRANCH  12  13
ATOM     13  C   UNL     1      26.572  23.299 -10.896  1.00  0.00     0.053 C 
BRANCH  13  14
ATOM     14  C   UNL     1      27.184  22.248 -11.770  1.00  0.00     0.041 C 
ATOM     15  O   UNL     1      26.514  21.730 -12.704  1.00  0.00    -0.550 OA
ATOM     16  O   UNL     1      28.505  21.866 -11.577  1.00  0.00    -0.550 OA
ENDBRANCH  13  14
ENDBRANCH  12  13
ENDBRANCH  11  12
ENDBRANCH  10  11
ENDBRANCH   9  10
ENDBRANCH   8   9
ENDBRANCH   7   8
ENDBRANCH   6   7
ENDBRANCH   5   6
ENDBRANCH   4   5
ENDBRANCH   3   4
ENDBRANCH   2   3
ENDBRANCH   1   2
BRANCH   1  17
ATOM     17  C   UNL     1      23.805  30.863 -11.241  1.00  0.00     0.000 C 
BRANCH  17  18
ATOM     18  C   UNL     1      25.148  31.305 -11.857  1.00  0.00     0.000 C 
BRANCH  18  19
ATOM     19  C   UNL     1      25.033  31.850 -13.293  1.00  0.00     0.000 C 
BRANCH  19  20
ATOM     20  C   UNL     1      26.107  31.346 -14.274  1.00  0.00     0.000 C 
BRANCH  20  21
ATOM     21  C   UNL     1      26.910  30.118 -13.796  1.00  0.00     0.000 C 
BRANCH  21  22
ATOM     22  C   UNL     1      28.389  30.394 -13.469  1.00  0.00    -0.000 C 
BRANCH  22  23
ATOM     23  C   UNL     1      28.835  29.764 -12.142  1.00  0.00    -0.000 C 
BRANCH  23  24
ATOM     24  C   UNL     1      28.973  30.835 -11.050  1.00  0.00    -0.000 C 
BRANCH  24  25
ATOM     25  C   UNL     1      28.036  30.591  -9.854  1.00  0.00    -0.000 C 
BRANCH  25  26
ATOM     26  C   UNL     1      27.431  29.174  -9.764  1.00  0.00    -0.000 C 
BRANCH  26  27
ATOM     27  C   UNL     1      27.118  28.671  -8.339  1.00  0.00    -0.000 C 
BRANCH  27  28
ATOM     28  C   UNL     1      25.668  28.175  -8.140  1.00  0.00    -0.000 C 
BRANCH  28  29
ATOM     29  C   UNL     1      24.959  28.802  -6.927  1.00  0.00    -0.003 C 
ATOM     30  C   UNL     1      23.653  29.507  -7.292  1.00  0.00     0.004 C 
ENDBRANCH  28  29
ENDBRANCH  27  28
ENDBRANCH  26  27
ENDBRANCH  25  26
ENDBRANCH  24  25
ENDBRANCH  23  24
ENDBRANCH  22  23
ENDBRANCH  21  22
ENDBRANCH  20  21
ENDBRANCH  19  20
ENDBRANCH  18  19
ENDBRANCH  17  18
ENDBRANCH   1  17
TORSDOF 26
ENDMDL
MODEL 8
REMARK VINA RESULT:    -4.050      1.690      4.383
REMARK INTER + INTRA:         -14.596
REMARK INTER:                  -8.967
REMARK INTRA:                  -5.629
REMARK UNBOUND:                -4.390
REMARK SMILES CCCCCCCCCCCCCCCCCCCCCCCCCCCC(=O)[O-]
REMARK SMILES IDX 15 1 16 2 17 3 18 4 19 5 20 6 21 7 22 8 23 9 24 10 25 11
REMARK SMILES IDX 26 12 27 13 28 14 29 15 30 16 14 17 13 18 12 19 11 20 10 21
REMARK SMILES IDX 9 22 8 23 7 24 6 25 5 26 4 27 3 28 2 29 1 30
REMARK H PARENT
REMARK Flexibility Score: inf
ROOT
ATOM      1  C   UNL     1      24.394  27.538 -14.594  1.00  0.00     0.000 C 
ENDROOT
BRANCH   1   2
ATOM      2  C   UNL     1      25.652  27.485 -15.474  1.00  0.00     0.000 C 
BRANCH   2   3
ATOM      3  C   UNL     1      26.214  28.883 -15.792  1.00  0.00     0.000 C 
BRANCH   3   4
ATOM      4  C   UNL     1      25.469  29.999 -15.041  1.00  0.00     0.000 C 
BRANCH   4   5
ATOM      5  C   UNL     1      26.425  30.984 -14.343  1.00  0.00     0.000 C 
BRANCH   5   6
ATOM      6  C   UNL     1      27.894  30.539 -14.427  1.00  0.00     0.000 C 
BRANCH   6   7
ATOM      7  C   UNL     1      28.551  30.393 -13.043  1.00  0.00     0.000 C 
BRANCH   7   8
ATOM      8  C   UNL     1      28.087  29.125 -12.308  1.00  0.00     0.000 C 
BRANCH   8   9
ATOM      9  C   UNL     1      27.722  29.398 -10.838  1.00  0.00     0.000 C 
BRANCH   9  10
ATOM     10  C   UNL     1      26.306  29.975 -10.682  1.00  0.00     0.000 C 
BRANCH  10  11
ATOM     11  C   UNL     1      25.265  29.234 -11.539  1.00  0.00     0.000 C 
BRANCH  11  12
ATOM     12  C   UNL     1      23.818  29.580 -11.146  1.00  0.00     0.006 C 
BRANCH  12  13
ATOM     13  C   UNL     1      23.584  31.073 -10.859  1.00  0.00     0.053 C 
BRANCH  13  14
ATOM     14  C   UNL     1      23.502  31.879 -12.119  1.00  0.00     0.041 C 
ATOM     15  O   UNL     1      24.123  32.972 -12.213  1.00  0.00    -0.550 OA
ATOM     16  O   UNL     1      22.771  31.407 -13.201  1.00  0.00    -0.550 OA
ENDBRANCH  13  14
ENDBRANCH  12  13
ENDBRANCH  11  12
ENDBRANCH  10  11
ENDBRANCH   9  10
ENDBRANCH   8   9
ENDBRANCH   7   8
ENDBRANCH   6   7
ENDBRANCH   5   6
ENDBRANCH   4   5
ENDBRANCH   3   4
ENDBRANCH   2   3
ENDBRANCH   1   2
BRANCH   1  17
ATOM     17  C   UNL     1      23.499  26.296 -14.758  1.00  0.00     0.000 C 
BRANCH  17  18
ATOM     18  C   UNL     1      24.010  25.329 -15.846  1.00  0.00     0.000 C 
BRANCH  18  19
ATOM     19  C   UNL     1      23.520  23.878 -15.680  1.00  0.00     0.000 C 
BRANCH  19  20
ATOM     20  C   UNL     1      24.361  23.006 -14.730  1.00  0.00     0.000 C 
BRANCH  20  21
ATOM     21  C   UNL     1      25.862  23.360 -14.670  1.00  0.00     0.000 C 
BRANCH  21  22
ATOM     22  C   UNL     1      26.648  22.673 -13.538  1.00  0.00    -0.000 C 
BRANCH  22  23
ATOM     23  C   UNL     1      27.540  23.646 -12.754  1.00  0.00    -0.000 C 
BRANCH  23  24
ATOM     24  C   UNL     1      27.258  25.097 -13.168  1.00  0.00    -0.000 C 
BRANCH  24  25
ATOM     25  C   UNL     1      26.657  25.938 -12.027  1.00  0.00    -0.000 C 
BRANCH  25  26
ATOM     26  C   UNL     1      25.237  25.529 -11.581  1.00  0.00    -0.000 C 
BRANCH  26  27
ATOM     27  C   UNL     1      25.047  25.327 -10.063  1.00  0.00    -0.000 C 
BRANCH  27  28
ATOM     28  C   UNL     1      25.564  26.495  -9.192  1.00  0.00    -0.000 C 
BRANCH  28  29
ATOM     29  C   UNL     1      24.520  27.039  -8.201  1.00  0.00    -0.003 C 
ATOM     30  C   UNL     1      24.853  28.439  -7.686  1.00  0.00     0.004 C 
ENDBRANCH  28  29
ENDBRANCH  27  28
ENDBRANCH  26  27
ENDBRANCH  25  26
ENDBRANCH  24  25
ENDBRANCH  23  24
ENDBRANCH  22  23
ENDBRANCH  21  22
ENDBRANCH  20  21
ENDBRANCH  19  20
ENDBRANCH  18  19
ENDBRANCH  17  18
ENDBRANCH   1  17
TORSDOF 26
ENDMDL
MODEL 9
REMARK VINA RESULT:    -4.043      2.712      7.475
REMARK INTER + INTRA:         -14.580
REMARK INTER:                  -9.265
REMARK INTRA:                  -5.314
REMARK UNBOUND:                -4.390
REMARK SMILES CCCCCCCCCCCCCCCCCCCCCCCCCCCC(=O)[O-]
REMARK SMILES IDX 15 1 16 2 17 3 18 4 19 5 20 6 21 7 22 8 23 9 24 10 25 11
REMARK SMILES IDX 26 12 27 13 28 14 29 15 30 16 14 17 13 18 12 19 11 20 10 21
REMARK SMILES IDX 9 22 8 23 7 24 6 25 5 26 4 27 3 28 2 29 1 30
REMARK H PARENT
REMARK Flexibility Score: inf
ROOT
ATOM      1  C   UNL     1      29.035  29.764 -11.719  1.00  0.00     0.000 C 
ENDROOT
BRANCH   1   2
ATOM      2  C   UNL     1      28.916  30.425 -13.102  1.00  0.00     0.000 C 
BRANCH   2   3
ATOM      3  C   UNL     1      27.457  30.555 -13.574  1.00  0.00     0.000 C 
BRANCH   3   4
ATOM      4  C   UNL     1      27.283  30.173 -15.054  1.00  0.00     0.000 C 
BRANCH   4   5
ATOM      5  C   UNL     1      26.196  29.104 -15.267  1.00  0.00     0.000 C 
BRANCH   5   6
ATOM      6  C   UNL     1      25.374  28.837 -13.996  1.00  0.00     0.000 C 
BRANCH   6   7
ATOM      7  C   UNL     1      25.476  27.379 -13.516  1.00  0.00     0.000 C 
BRANCH   7   8
ATOM      8  C   UNL     1      26.266  26.496 -14.497  1.00  0.00     0.000 C 
BRANCH   8   9
ATOM      9  C   UNL     1      27.265  25.571 -13.781  1.00  0.00     0.000 C 
BRANCH   9  10
ATOM     10  C   UNL     1      26.822  24.099 -13.801  1.00  0.00     0.000 C 
BRANCH  10  11
ATOM     11  C   UNL     1      25.993  23.712 -12.564  1.00  0.00     0.000 C 
BRANCH  11  12
ATOM     12  C   UNL     1      26.594  24.252 -11.254  1.00  0.00     0.006 C 
BRANCH  12  13
ATOM     13  C   UNL     1      25.669  25.210 -10.485  1.00  0.00     0.053 C 
BRANCH  13  14
ATOM     14  C   UNL     1      25.338  24.692  -9.119  1.00  0.00     0.041 C 
ATOM     15  O   UNL     1      24.703  23.612  -8.986  1.00  0.00    -0.550 OA
ATOM     16  O   UNL     1      25.762  25.384  -7.992  1.00  0.00    -0.550 OA
ENDBRANCH  13  14
ENDBRANCH  12  13
ENDBRANCH  11  12
ENDBRANCH  10  11
ENDBRANCH   9  10
ENDBRANCH   8   9
ENDBRANCH   7   8
ENDBRANCH   6   7
ENDBRANCH   5   6
ENDBRANCH   4   5
ENDBRANCH   3   4
ENDBRANCH   2   3
ENDBRANCH   1   2
BRANCH   1  17
ATOM     17  C   UNL     1      27.839  30.081 -10.802  1.00  0.00     0.000 C 
BRANCH  17  18
ATOM     18  C   UNL     1      27.016  28.829 -10.436  1.00  0.00     0.000 C 
BRANCH  18  19
ATOM     19  C   UNL     1      26.324  28.910  -9.063  1.00  0.00     0.000 C 
BRANCH  19  20
ATOM     20  C   UNL     1      24.795  28.737  -9.086  1.00  0.00     0.000 C 
BRANCH  20  21
ATOM     21  C   UNL     1      24.189  28.431 -10.472  1.00  0.00     0.000 C 
BRANCH  21  22
ATOM     22  C   UNL     1      23.295  29.542 -11.052  1.00  0.00    -0.000 C 
BRANCH  22  23
ATOM     23  C   UNL     1      23.723  30.948 -10.607  1.00  0.00    -0.000 C 
BRANCH  23  24
ATOM     24  C   UNL     1      24.702  31.563 -11.616  1.00  0.00    -0.000 C 
BRANCH  24  25
ATOM     25  C   UNL     1      24.062  32.670 -12.472  1.00  0.00    -0.000 C 
BRANCH  25  26
ATOM     26  C   UNL     1      24.455  32.663 -13.965  1.00  0.00    -0.000 C 
BRANCH  26  27
ATOM     27  C   UNL     1      23.544  31.830 -14.891  1.00  0.00    -0.000 C 
BRANCH  27  28
ATOM     28  C   UNL     1      22.240  31.331 -14.227  1.00  0.00    -0.000 C 
BRANCH  28  29
ATOM     29  C   UNL     1      21.701  30.021 -14.826  1.00  0.00    -0.003 C 
ATOM     30  C   UNL     1      22.504  29.535 -16.031  1.00  0.00     0.004 C 
ENDBRANCH  28  29
ENDBRANCH  27  28
ENDBRANCH  26  27
ENDBRANCH  25  26
ENDBRANCH  24  25
ENDBRANCH  23  24
ENDBRANCH  22  23
ENDBRANCH  21  22
ENDBRANCH  20  21
ENDBRANCH  19  20
ENDBRANCH  18  19
ENDBRANCH  17  18
ENDBRANCH   1  17
TORSDOF 26
ENDMDL
