MODEL 1
REMARK VINA RESULT:    -5.011      0.000      0.000
REMARK INTER + INTRA:          -5.571
REMARK INTER:                  -5.450
REMARK INTRA:                  -0.121
REMARK UNBOUND:                -0.121
REMARK SMILES Cc1ccc(C(C)C)cc1O
REMARK SMILES IDX 1 1 2 2 10 3 9 4 5 5 4 6 3 7 11 8 6 10 7 11 8 12
REMARK H PARENT 11 9
REMARK Flexibility Score: inf
ROOT
ATOM      1  C   UNL     1     177.632 173.371 174.032  1.00  0.00     0.048 C 
ATOM      2  C   UNL     1     177.283 172.237 173.108  1.00  0.00    -0.009 A 
ATOM      3  C   UNL     1     178.231 171.715 172.200  1.00  0.00     0.118 A 
ATOM      4  C   UNL     1     177.875 170.659 171.353  1.00  0.00     0.050 A 
ATOM      5  C   UNL     1     176.582 170.105 171.392  1.00  0.00    -0.042 A 
ATOM      6  C   UNL     1     175.646 170.630 172.297  1.00  0.00     0.004 A 
ATOM      7  C   UNL     1     175.993 171.684 173.145  1.00  0.00     0.007 A 
ENDROOT
BRANCH   3   8
ATOM      8  O   UNL     1     179.530 172.222 172.114  1.00  0.00    -0.508 OA
ATOM      9  H   UNL     1     180.145 172.299 172.914  1.00  0.00     0.293 HD
ENDBRANCH   3   8
BRANCH   5  10
ATOM     10  C   UNL     1     176.192 168.960 170.476  1.00  0.00     0.013 C 
ATOM     11  C   UNL     1     177.317 168.636 169.485  1.00  0.00     0.012 C 
ATOM     12  C   UNL     1     174.880 169.261 169.742  1.00  0.00     0.012 C 
ENDBRANCH   5  10
TORSDOF 2
ENDMDL
MODEL 2
REMARK VINA RESULT:    -4.965      1.955      2.290
REMARK INTER + INTRA:          -5.522
REMARK INTER:                  -5.407
REMARK INTRA:                  -0.115
REMARK UNBOUND:                -0.121
REMARK SMILES Cc1ccc(C(C)C)cc1O
REMARK SMILES IDX 1 1 2 2 10 3 9 4 5 5 4 6 3 7 11 8 6 10 7 11 8 12
REMARK H PARENT 11 9
REMARK Flexibility Score: inf
ROOT
ATOM      1  C   UNL     1     178.888 172.502 173.751  1.00  0.00     0.048 C 
ATOM      2  C   UNL     1     177.697 171.974 172.998  1.00  0.00    -0.009 A 
ATOM      3  C   UNL     1     177.044 172.756 172.019  1.00  0.00     0.118 A 
ATOM      4  C   UNL     1     175.939 172.236 171.336  1.00  0.00     0.050 A 
ATOM      5  C   UNL     1     175.466 170.939 171.609  1.00  0.00    -0.042 A 
ATOM      6  C   UNL     1     176.120 170.169 172.582  1.00  0.00     0.004 A 
ATOM      7  C   UNL     1     177.224 170.681 173.269  1.00  0.00     0.007 A 
ENDROOT
BRANCH   3   8
ATOM      8  O   UNL     1     177.467 174.050 171.704  1.00  0.00    -0.508 OA
ATOM      9  H   UNL     1     178.154 174.246 170.988  1.00  0.00     0.293 HD
ENDBRANCH   3   8
BRANCH   5  10
ATOM     10  C   UNL     1     174.269 170.371 170.870  1.00  0.00     0.013 C 
ATOM     11  C   UNL     1     173.819 171.307 169.741  1.00  0.00     0.012 C 
ATOM     12  C   UNL     1     173.113 170.075 171.834  1.00  0.00     0.012 C 
ENDBRANCH   5  10
TORSDOF 2
ENDMDL
MODEL 3
REMARK VINA RESULT:    -4.948      1.868      3.195
REMARK INTER + INTRA:          -5.502
REMARK INTER:                  -5.382
REMARK INTRA:                  -0.121
REMARK UNBOUND:                -0.121
REMARK SMILES Cc1ccc(C(C)C)cc1O
REMARK SMILES IDX 1 1 2 2 10 3 9 4 5 5 4 6 3 7 11 8 6 10 7 11 8 12
REMARK H PARENT 11 9
REMARK Flexibility Score: inf
ROOT
ATOM      1  C   UNL     1     179.097 172.537 172.429  1.00  0.00     0.048 C 
ATOM      2  C   UNL     1     177.737 171.909 172.560  1.00  0.00    -0.009 A 
ATOM      3  C   UNL     1     176.766 172.440 173.438  1.00  0.00     0.118 A 
ATOM      4  C   UNL     1     175.509 171.832 173.537  1.00  0.00     0.050 A 
ATOM      5  C   UNL     1     175.195 170.694 172.772  1.00  0.00    -0.042 A 
ATOM      6  C   UNL     1     176.165 170.172 171.903  1.00  0.00     0.004 A 
ATOM      7  C   UNL     1     177.422 170.773 171.798  1.00  0.00     0.007 A 
ENDROOT
BRANCH   3   8
ATOM      8  O   UNL     1     177.018 173.568 174.223  1.00  0.00    -0.508 OA
ATOM      9  H   UNL     1     177.947 173.832 174.527  1.00  0.00     0.293 HD
ENDBRANCH   3   8
BRANCH   5  10
ATOM     10  C   UNL     1     173.835 170.031 172.876  1.00  0.00     0.013 C 
ATOM     11  C   UNL     1     172.984 170.683 173.973  1.00  0.00     0.012 C 
ATOM     12  C   UNL     1     173.970 168.521 173.107  1.00  0.00     0.012 C 
ENDBRANCH   5  10
TORSDOF 2
ENDMDL
MODEL 4
REMARK VINA RESULT:    -4.834      1.893      4.174
REMARK INTER + INTRA:          -5.379
REMARK INTER:                  -5.252
REMARK INTRA:                  -0.127
REMARK UNBOUND:                -0.121
REMARK SMILES Cc1ccc(C(C)C)cc1O
REMARK SMILES IDX 1 1 2 2 10 3 9 4 5 5 4 6 3 7 11 8 6 10 7 11 8 12
REMARK H PARENT 11 9
REMARK Flexibility Score: inf
ROOT
ATOM      1  C   UNL     1     174.152 168.129 171.665  1.00  0.00     0.048 C 
ATOM      2  C   UNL     1     175.069 169.301 171.886  1.00  0.00    -0.009 A 
ATOM      3  C   UNL     1     176.260 169.449 171.142  1.00  0.00     0.118 A 
ATOM      4  C   UNL     1     177.092 170.551 171.371  1.00  0.00     0.050 A 
ATOM      5  C   UNL     1     176.759 171.520 172.336  1.00  0.00    -0.042 A 
ATOM      6  C   UNL     1     175.573 171.365 173.071  1.00  0.00     0.004 A 
ATOM      7  C   UNL     1     174.737 170.268 172.848  1.00  0.00     0.007 A 
ENDROOT
BRANCH   3   8
ATOM      8  O   UNL     1     176.645 168.522 170.170  1.00  0.00    -0.508 OA
ATOM      9  H   UNL     1     176.405 167.540 170.220  1.00  0.00     0.293 HD
ENDBRANCH   3   8
BRANCH   5  10
ATOM     10  C   UNL     1     177.657 172.716 172.588  1.00  0.00     0.013 C 
ATOM     11  C   UNL     1     179.137 172.332 172.467  1.00  0.00     0.012 C 
ATOM     12  C   UNL     1     177.362 173.352 173.952  1.00  0.00     0.012 C 
ENDBRANCH   5  10
TORSDOF 2
ENDMDL
MODEL 5
REMARK VINA RESULT:    -4.810      2.347      4.492
REMARK INTER + INTRA:          -5.353
REMARK INTER:                  -5.225
REMARK INTRA:                  -0.128
REMARK UNBOUND:                -0.121
REMARK SMILES Cc1ccc(C(C)C)cc1O
REMARK SMILES IDX 1 1 2 2 10 3 9 4 5 5 4 6 3 7 11 8 6 10 7 11 8 12
REMARK H PARENT 11 9
REMARK Flexibility Score: inf
ROOT
ATOM      1  C   UNL     1     173.905 168.992 170.632  1.00  0.00     0.048 C 
ATOM      2  C   UNL     1     174.964 169.779 171.355  1.00  0.00    -0.009 A 
ATOM      3  C   UNL     1     175.786 169.175 172.332  1.00  0.00     0.118 A 
ATOM      4  C   UNL     1     176.762 169.934 172.987  1.00  0.00     0.050 A 
ATOM      5  C   UNL     1     176.939 171.298 172.687  1.00  0.00    -0.042 A 
ATOM      6  C   UNL     1     176.118 171.891 171.716  1.00  0.00     0.004 A 
ATOM      7  C   UNL     1     175.141 171.139 171.057  1.00  0.00     0.007 A 
ENDROOT
BRANCH   3   8
ATOM      8  O   UNL     1     175.659 167.826 172.673  1.00  0.00    -0.508 OA
ATOM      9  H   UNL     1     174.959 167.484 173.318  1.00  0.00     0.293 HD
ENDBRANCH   3   8
BRANCH   5  10
ATOM     10  C   UNL     1     177.995 172.125 173.394  1.00  0.00     0.013 C 
ATOM     11  C   UNL     1     177.395 173.412 173.973  1.00  0.00     0.012 C 
ATOM     12  C   UNL     1     179.171 172.437 172.460  1.00  0.00     0.012 C 
ENDBRANCH   5  10
TORSDOF 2
ENDMDL
MODEL 6
REMARK VINA RESULT:    -4.805      2.223      4.566
REMARK INTER + INTRA:          -5.347
REMARK INTER:                  -5.222
REMARK INTRA:                  -0.125
REMARK UNBOUND:                -0.121
REMARK SMILES Cc1ccc(C(C)C)cc1O
REMARK SMILES IDX 1 1 2 2 10 3 9 4 5 5 4 6 3 7 11 8 6 10 7 11 8 12
REMARK H PARENT 11 9
REMARK Flexibility Score: inf
ROOT
ATOM      1  C   UNL     1     174.450 168.063 171.350  1.00  0.00     0.048 C 
ATOM      2  C   UNL     1     175.255 169.286 171.694  1.00  0.00    -0.009 A 
ATOM      3  C   UNL     1     174.817 170.198 172.679  1.00  0.00     0.118 A 
ATOM      4  C   UNL     1     175.590 171.327 172.976  1.00  0.00     0.050 A 
ATOM      5  C   UNL     1     176.802 171.570 172.304  1.00  0.00    -0.042 A 
ATOM      6  C   UNL     1     177.230 170.659 171.326  1.00  0.00     0.004 A 
ATOM      7  C   UNL     1     176.465 169.530 171.024  1.00  0.00     0.007 A 
ENDROOT
BRANCH   3   8
ATOM      8  O   UNL     1     173.623 170.012 173.380  1.00  0.00    -0.508 OA
ATOM      9  H   UNL     1     173.133 170.765 173.845  1.00  0.00     0.293 HD
ENDBRANCH   3   8
BRANCH   5  10
ATOM     10  C   UNL     1     177.642 172.792 172.621  1.00  0.00     0.013 C 
ATOM     11  C   UNL     1     179.138 172.493 172.458  1.00  0.00     0.012 C 
ATOM     12  C   UNL     1     177.337 173.324 174.027  1.00  0.00     0.012 C 
ENDBRANCH   5  10
TORSDOF 2
ENDMDL
MODEL 7
REMARK VINA RESULT:    -4.801      2.474      4.419
REMARK INTER + INTRA:          -5.342
REMARK INTER:                  -5.214
REMARK INTRA:                  -0.128
REMARK UNBOUND:                -0.121
REMARK SMILES Cc1ccc(C(C)C)cc1O
REMARK SMILES IDX 1 1 2 2 10 3 9 4 5 5 4 6 3 7 11 8 6 10 7 11 8 12
REMARK H PARENT 11 9
REMARK Flexibility Score: inf
ROOT
ATOM      1  C   UNL     1     174.048 168.317 171.483  1.00  0.00     0.048 C 
ATOM      2  C   UNL     1     174.996 169.456 171.740  1.00  0.00    -0.009 A 
ATOM      3  C   UNL     1     174.843 170.699 171.085  1.00  0.00     0.118 A 
ATOM      4  C   UNL     1     175.741 171.739 171.347  1.00  0.00     0.050 A 
ATOM      5  C   UNL     1     176.801 171.567 172.256  1.00  0.00    -0.042 A 
ATOM      6  C   UNL     1     176.947 170.330 172.902  1.00  0.00     0.004 A 
ATOM      7  C   UNL     1     176.054 169.286 172.647  1.00  0.00     0.007 A 
ENDROOT
BRANCH   3   8
ATOM      8  O   UNL     1     173.811 170.930 170.172  1.00  0.00    -0.508 OA
ATOM      9  H   UNL     1     173.316 171.811 170.110  1.00  0.00     0.293 HD
ENDBRANCH   3   8
BRANCH   5  10
ATOM     10  C   UNL     1     177.778 172.692 172.542  1.00  0.00     0.013 C 
ATOM     11  C   UNL     1     179.227 172.230 172.346  1.00  0.00     0.012 C 
ATOM     12  C   UNL     1     177.567 173.263 173.950  1.00  0.00     0.012 C 
ENDBRANCH   5  10
TORSDOF 2
ENDMDL
MODEL 8
REMARK VINA RESULT:    -4.787      1.453      2.061
REMARK INTER + INTRA:          -5.327
REMARK INTER:                  -5.200
REMARK INTRA:                  -0.128
REMARK UNBOUND:                -0.121
REMARK SMILES Cc1ccc(C(C)C)cc1O
REMARK SMILES IDX 1 1 2 2 10 3 9 4 5 5 4 6 3 7 11 8 6 10 7 11 8 12
REMARK H PARENT 11 9
REMARK Flexibility Score: inf
ROOT
ATOM      1  C   UNL     1     177.847 173.312 173.980  1.00  0.00     0.048 C 
ATOM      2  C   UNL     1     177.392 172.186 173.094  1.00  0.00    -0.009 A 
ATOM      3  C   UNL     1     176.096 171.637 173.214  1.00  0.00     0.118 A 
ATOM      4  C   UNL     1     175.703 170.589 172.373  1.00  0.00     0.050 A 
ATOM      5  C   UNL     1     176.583 170.070 171.406  1.00  0.00    -0.042 A 
ATOM      6  C   UNL     1     177.869 170.620 171.293  1.00  0.00     0.004 A 
ATOM      7  C   UNL     1     178.269 171.666 172.128  1.00  0.00     0.007 A 
ENDROOT
BRANCH   3   8
ATOM      8  O   UNL     1     175.178 172.110 174.154  1.00  0.00    -0.508 OA
ATOM      9  H   UNL     1     174.523 172.856 173.960  1.00  0.00     0.293 HD
ENDBRANCH   3   8
BRANCH   5  10
ATOM     10  C   UNL     1     176.161 168.934 170.493  1.00  0.00     0.013 C 
ATOM     11  C   UNL     1     177.266 168.595 169.485  1.00  0.00     0.012 C 
ATOM     12  C   UNL     1     174.844 169.259 169.778  1.00  0.00     0.012 C 
ENDBRANCH   5  10
TORSDOF 2
ENDMDL
MODEL 9
REMARK VINA RESULT:    -4.672      0.996      1.164
REMARK INTER + INTRA:          -5.202
REMARK INTER:                  -5.082
REMARK INTRA:                  -0.120
REMARK UNBOUND:                -0.121
REMARK SMILES Cc1ccc(C(C)C)cc1O
REMARK SMILES IDX 1 1 2 2 10 3 9 4 5 5 4 6 3 7 11 8 6 10 7 11 8 12
REMARK H PARENT 11 9
REMARK Flexibility Score: inf
ROOT
ATOM      1  C   UNL     1     178.526 173.291 173.606  1.00  0.00     0.048 C 
ATOM      2  C   UNL     1     177.607 172.257 173.015  1.00  0.00    -0.009 A 
ATOM      3  C   UNL     1     178.049 171.377 172.002  1.00  0.00     0.118 A 
ATOM      4  C   UNL     1     177.170 170.425 171.474  1.00  0.00     0.050 A 
ATOM      5  C   UNL     1     175.845 170.330 171.937  1.00  0.00    -0.042 A 
ATOM      6  C   UNL     1     175.413 171.208 172.944  1.00  0.00     0.004 A 
ATOM      7  C   UNL     1     176.285 172.161 173.477  1.00  0.00     0.007 A 
ENDROOT
BRANCH   3   8
ATOM      8  O   UNL     1     179.353 171.423 171.502  1.00  0.00    -0.508 OA
ATOM      9  H   UNL     1     179.978 170.627 171.517  1.00  0.00     0.293 HD
ENDBRANCH   3   8
BRANCH   5  10
ATOM     10  C   UNL     1     174.888 169.300 171.368  1.00  0.00     0.013 C 
ATOM     11  C   UNL     1     175.539 168.512 170.224  1.00  0.00     0.012 C 
ATOM     12  C   UNL     1     173.578 169.955 170.911  1.00  0.00     0.012 C 
ENDBRANCH   5  10
TORSDOF 2
ENDMDL
