MODEL 1
REMARK VINA RESULT:    -4.728      0.000      0.000
REMARK INTER + INTRA:         -10.042
REMARK INTER:                  -8.598
REMARK INTRA:                  -1.444
REMARK UNBOUND:                -1.444
REMARK SMILES CCCCCC=CCC=CCCCCCCCC(=O)[O-]
REMARK SMILES IDX 11 1 12 2 13 3 14 4 15 5 16 6 17 7 18 8 19 9 20 10 10 11
REMARK SMILES IDX 9 12 8 13 7 14 6 15 5 16 4 17 3 18 2 19 1 20
REMARK H PARENT
REMARK Flexibility Score: inf
ROOT
ATOM      1  C   UNL     1      12.627  11.242  13.541  1.00  0.00     0.027 C 
ENDROOT
BRANCH   1   2
ATOM      2  C   UNL     1      12.523  11.101  12.014  1.00  0.00     0.004 C 
BRANCH   2   3
ATOM      3  C   UNL     1      11.310  10.259  11.561  1.00  0.00     0.000 C 
BRANCH   3   4
ATOM      4  C   UNL     1      10.309  11.038  10.690  1.00  0.00     0.000 C 
BRANCH   4   5
ATOM      5  C   UNL     1       9.610  12.174  11.454  1.00  0.00     0.000 C 
BRANCH   5   6
ATOM      6  C   UNL     1       9.750  13.534  10.752  1.00  0.00     0.006 C 
BRANCH   6   7
ATOM      7  C   UNL     1      10.763  14.453  11.445  1.00  0.00     0.053 C 
BRANCH   7   8
ATOM      8  C   UNL     1      11.836  14.866  10.489  1.00  0.00     0.041 C 
ATOM      9  O   UNL     1      12.924  14.234  10.445  1.00  0.00    -0.550 OA
ATOM     10  O   UNL     1      11.625  15.930   9.623  1.00  0.00    -0.550 OA
ENDBRANCH   7   8
ENDBRANCH   6   7
ENDBRANCH   5   6
ENDBRANCH   4   5
ENDBRANCH   3   4
ENDBRANCH   2   3
ENDBRANCH   1   2
BRANCH   1  11
ATOM     11  C   UNL     1      13.972  11.759  13.972  1.00  0.00    -0.031 C 
ATOM     12  C   UNL     1      14.506  11.427  15.158  1.00  0.00    -0.027 C 
BRANCH  12  13
ATOM     13  C   UNL     1      15.839  11.961  15.601  1.00  0.00     0.054 C 
BRANCH  13  14
ATOM     14  C   UNL     1      16.850  11.955  14.481  1.00  0.00    -0.027 C 
ATOM     15  C   UNL     1      18.157  12.247  14.620  1.00  0.00    -0.031 C 
BRANCH  15  16
ATOM     16  C   UNL     1      18.812  12.699  15.903  1.00  0.00     0.027 C 
BRANCH  16  17
ATOM     17  C   UNL     1      19.409  11.520  16.685  1.00  0.00     0.004 C 
BRANCH  17  18
ATOM     18  C   UNL     1      19.179  11.645  18.201  1.00  0.00     0.000 C 
BRANCH  18  19
ATOM     19  C   UNL     1      18.010  12.583  18.543  1.00  0.00    -0.003 C 
ATOM     20  C   UNL     1      16.848  11.853  19.218  1.00  0.00     0.004 C 
ENDBRANCH  18  19
ENDBRANCH  17  18
ENDBRANCH  16  17
ENDBRANCH  15  16
ENDBRANCH  13  14
ENDBRANCH  12  13
ENDBRANCH   1  11
TORSDOF 14
ENDMDL
MODEL 2
REMARK VINA RESULT:    -4.700      0.964      2.511
REMARK INTER + INTRA:          -9.991
REMARK INTER:                  -8.457
REMARK INTRA:                  -1.534
REMARK UNBOUND:                -1.444
REMARK SMILES CCCCCC=CCC=CCCCCCCCC(=O)[O-]
REMARK SMILES IDX 11 1 12 2 13 3 14 4 15 5 16 6 17 7 18 8 19 9 20 10 10 11
REMARK SMILES IDX 9 12 8 13 7 14 6 15 5 16 4 17 3 18 2 19 1 20
REMARK H PARENT
REMARK Flexibility Score: inf
ROOT
ATOM      1  C   UNL     1      14.150  10.881  14.371  1.00  0.00     0.027 C 
ENDROOT
BRANCH   1   2
ATOM      2  C   UNL     1      12.988  11.609  13.675  1.00  0.00     0.004 C 
BRANCH   2   3
ATOM      3  C   UNL     1      12.362  10.794  12.522  1.00  0.00     0.000 C 
BRANCH   3   4
ATOM      4  C   UNL     1      10.980  11.307  12.084  1.00  0.00     0.000 C 
BRANCH   4   5
ATOM      5  C   UNL     1      10.555  12.586  12.824  1.00  0.00     0.000 C 
BRANCH   5   6
ATOM      6  C   UNL     1      10.062  13.687  11.871  1.00  0.00     0.006 C 
BRANCH   6   7
ATOM      7  C   UNL     1      11.008  14.893  11.826  1.00  0.00     0.053 C 
BRANCH   7   8
ATOM      8  C   UNL     1      11.802  14.890  10.558  1.00  0.00     0.041 C 
ATOM      9  O   UNL     1      11.676  15.828   9.728  1.00  0.00    -0.550 OA
ATOM     10  O   UNL     1      12.706  13.866  10.306  1.00  0.00    -0.550 OA
ENDBRANCH   7   8
ENDBRANCH   6   7
ENDBRANCH   5   6
ENDBRANCH   4   5
ENDBRANCH   3   4
ENDBRANCH   2   3
ENDBRANCH   1   2
BRANCH   1  11
ATOM     11  C   UNL     1      14.863  11.766  15.357  1.00  0.00    -0.031 C 
ATOM     12  C   UNL     1      14.487  11.831  16.644  1.00  0.00    -0.027 C 
BRANCH  12  13
ATOM     13  C   UNL     1      15.183  12.732  17.625  1.00  0.00     0.054 C 
BRANCH  13  14
ATOM     14  C   UNL     1      15.838  11.954  18.740  1.00  0.00    -0.027 C 
ATOM     15  C   UNL     1      17.159  11.940  18.998  1.00  0.00    -0.031 C 
BRANCH  15  16
ATOM     16  C   UNL     1      18.210  12.642  18.171  1.00  0.00     0.027 C 
BRANCH  16  17
ATOM     17  C   UNL     1      19.329  11.683  17.737  1.00  0.00     0.004 C 
BRANCH  17  18
ATOM     18  C   UNL     1      19.404  11.523  16.209  1.00  0.00     0.000 C 
BRANCH  18  19
ATOM     19  C   UNL     1      18.466  12.491  15.469  1.00  0.00    -0.003 C 
ATOM     20  C   UNL     1      18.343  12.166  13.980  1.00  0.00     0.004 C 
ENDBRANCH  18  19
ENDBRANCH  17  18
ENDBRANCH  16  17
ENDBRANCH  15  16
ENDBRANCH  13  14
ENDBRANCH  12  13
ENDBRANCH   1  11
TORSDOF 14
ENDMDL
MODEL 3
REMARK VINA RESULT:    -4.686      3.338      8.902
REMARK INTER + INTRA:          -9.965
REMARK INTER:                  -8.740
REMARK INTRA:                  -1.225
REMARK UNBOUND:                -1.444
REMARK SMILES CCCCCC=CCC=CCCCCCCCC(=O)[O-]
REMARK SMILES IDX 11 1 12 2 13 3 14 4 15 5 16 6 17 7 18 8 19 9 20 10 10 11
REMARK SMILES IDX 9 12 8 13 7 14 6 15 5 16 4 17 3 18 2 19 1 20
REMARK H PARENT
REMARK Flexibility Score: inf
ROOT
ATOM      1  C   UNL     1      14.510  10.958  14.739  1.00  0.00     0.027 C 
ENDROOT
BRANCH   1   2
ATOM      2  C   UNL     1      15.602  11.964  15.137  1.00  0.00     0.004 C 
BRANCH   2   3
ATOM      3  C   UNL     1      16.983  11.638  14.527  1.00  0.00     0.000 C 
BRANCH   3   4
ATOM      4  C   UNL     1      18.063  12.685  14.849  1.00  0.00     0.000 C 
BRANCH   4   5
ATOM      5  C   UNL     1      19.045  12.216  15.935  1.00  0.00     0.000 C 
BRANCH   5   6
ATOM      6  C   UNL     1      18.715  12.792  17.321  1.00  0.00     0.006 C 
BRANCH   6   7
ATOM      7  C   UNL     1      18.487  11.701  18.374  1.00  0.00     0.053 C 
BRANCH   7   8
ATOM      8  C   UNL     1      17.225  11.960  19.133  1.00  0.00     0.041 C 
ATOM      9  O   UNL     1      17.247  12.051  20.388  1.00  0.00    -0.550 OA
ATOM     10  O   UNL     1      16.027  12.135  18.452  1.00  0.00    -0.550 OA
ENDBRANCH   7   8
ENDBRANCH   6   7
ENDBRANCH   5   6
ENDBRANCH   4   5
ENDBRANCH   3   4
ENDBRANCH   2   3
ENDBRANCH   1   2
BRANCH   1  11
ATOM     11  C   UNL     1      13.385  11.612  13.983  1.00  0.00    -0.031 C 
ATOM     12  C   UNL     1      12.548  10.900  13.213  1.00  0.00    -0.027 C 
BRANCH  12  13
ATOM     13  C   UNL     1      11.438  11.554  12.439  1.00  0.00     0.054 C 
BRANCH  13  14
ATOM     14  C   UNL     1      10.395  12.157  13.348  1.00  0.00    -0.027 C 
ATOM     15  C   UNL     1       9.618  13.212  13.037  1.00  0.00    -0.031 C 
BRANCH  15  16
ATOM     16  C   UNL     1       9.711  14.009  11.758  1.00  0.00     0.027 C 
BRANCH  16  17
ATOM     17  C   UNL     1      10.850  15.039  11.810  1.00  0.00     0.004 C 
BRANCH  17  18
ATOM     18  C   UNL     1      11.522  15.239  10.441  1.00  0.00     0.000 C 
BRANCH  18  19
ATOM     19  C   UNL     1      11.351  14.021   9.517  1.00  0.00    -0.003 C 
ATOM     20  C   UNL     1      12.589  13.125   9.492  1.00  0.00     0.004 C 
ENDBRANCH  18  19
ENDBRANCH  17  18
ENDBRANCH  16  17
ENDBRANCH  15  16
ENDBRANCH  13  14
ENDBRANCH  12  13
ENDBRANCH   1  11
TORSDOF 14
ENDMDL
MODEL 4
REMARK VINA RESULT:    -4.676      1.247      3.396
REMARK INTER + INTRA:          -9.948
REMARK INTER:                  -8.500
REMARK INTRA:                  -1.447
REMARK UNBOUND:                -1.444
REMARK SMILES CCCCCC=CCC=CCCCCCCCC(=O)[O-]
REMARK SMILES IDX 11 1 12 2 13 3 14 4 15 5 16 6 17 7 18 8 19 9 20 10 10 11
REMARK SMILES IDX 9 12 8 13 7 14 6 15 5 16 4 17 3 18 2 19 1 20
REMARK H PARENT
REMARK Flexibility Score: inf
ROOT
ATOM      1  C   UNL     1      14.503  11.991  16.406  1.00  0.00     0.027 C 
ENDROOT
BRANCH   1   2
ATOM      2  C   UNL     1      14.735  11.648  14.926  1.00  0.00     0.004 C 
BRANCH   2   3
ATOM      3  C   UNL     1      13.478  11.086  14.225  1.00  0.00     0.000 C 
BRANCH   3   4
ATOM      4  C   UNL     1      12.918  12.009  13.129  1.00  0.00     0.000 C 
BRANCH   4   5
ATOM      5  C   UNL     1      12.245  11.236  11.984  1.00  0.00     0.000 C 
BRANCH   5   6
ATOM      6  C   UNL     1      11.444  12.150  11.042  1.00  0.00     0.006 C 
BRANCH   6   7
ATOM      7  C   UNL     1      10.544  13.132  11.801  1.00  0.00     0.053 C 
BRANCH   7   8
ATOM      8  C   UNL     1      10.816  14.537  11.365  1.00  0.00     0.041 C 
ATOM      9  O   UNL     1      10.778  15.479  12.199  1.00  0.00    -0.550 OA
ATOM     10  O   UNL     1      11.144  14.803  10.041  1.00  0.00    -0.550 OA
ENDBRANCH   7   8
ENDBRANCH   6   7
ENDBRANCH   5   6
ENDBRANCH   4   5
ENDBRANCH   3   4
ENDBRANCH   2   3
ENDBRANCH   1   2
BRANCH   1  11
ATOM     11  C   UNL     1      15.795  12.177  17.154  1.00  0.00    -0.031 C 
ATOM     12  C   UNL     1      15.820  12.319  18.489  1.00  0.00    -0.027 C 
BRANCH  12  13
ATOM     13  C   UNL     1      17.107  12.529  19.236  1.00  0.00     0.054 C 
BRANCH  13  14
ATOM     14  C   UNL     1      18.164  11.530  18.832  1.00  0.00    -0.027 C 
ATOM     15  C   UNL     1      19.214  11.798  18.034  1.00  0.00    -0.031 C 
BRANCH  15  16
ATOM     16  C   UNL     1      19.468  13.122  17.352  1.00  0.00     0.027 C 
BRANCH  16  17
ATOM     17  C   UNL     1      19.037  13.096  15.878  1.00  0.00     0.004 C 
BRANCH  17  18
ATOM     18  C   UNL     1      18.953  11.667  15.317  1.00  0.00     0.000 C 
BRANCH  18  19
ATOM     19  C   UNL     1      18.158  11.596  14.002  1.00  0.00    -0.003 C 
ATOM     20  C   UNL     1      18.160  12.922  13.242  1.00  0.00     0.004 C 
ENDBRANCH  18  19
ENDBRANCH  17  18
ENDBRANCH  16  17
ENDBRANCH  15  16
ENDBRANCH  13  14
ENDBRANCH  12  13
ENDBRANCH   1  11
TORSDOF 14
ENDMDL
MODEL 5
REMARK VINA RESULT:    -4.673      1.624      2.178
REMARK INTER + INTRA:          -9.941
REMARK INTER:                  -8.547
REMARK INTRA:                  -1.394
REMARK UNBOUND:                -1.444
REMARK SMILES CCCCCC=CCC=CCCCCCCCC(=O)[O-]
REMARK SMILES IDX 11 1 12 2 13 3 14 4 15 5 16 6 17 7 18 8 19 9 20 10 10 11
REMARK SMILES IDX 9 12 8 13 7 14 6 15 5 16 4 17 3 18 2 19 1 20
REMARK H PARENT
REMARK Flexibility Score: inf
ROOT
ATOM      1  C   UNL     1      12.691  11.281  13.580  1.00  0.00     0.027 C 
ENDROOT
BRANCH   1   2
ATOM      2  C   UNL     1      12.325  11.825  12.190  1.00  0.00     0.004 C 
BRANCH   2   3
ATOM      3  C   UNL     1      13.142  13.074  11.790  1.00  0.00     0.000 C 
BRANCH   3   4
ATOM      4  C   UNL     1      12.913  13.520  10.336  1.00  0.00     0.000 C 
BRANCH   4   5
ATOM      5  C   UNL     1      12.265  14.910  10.232  1.00  0.00     0.000 C 
BRANCH   5   6
ATOM      6  C   UNL     1      10.847  14.860   9.640  1.00  0.00     0.006 C 
BRANCH   6   7
ATOM      7  C   UNL     1       9.821  14.277  10.619  1.00  0.00     0.053 C 
BRANCH   7   8
ATOM      8  C   UNL     1       9.235  13.013  10.075  1.00  0.00     0.041 C 
ATOM      9  O   UNL     1       9.029  12.030  10.834  1.00  0.00    -0.550 OA
ATOM     10  O   UNL     1       8.886  12.930   8.733  1.00  0.00    -0.550 OA
ENDBRANCH   7   8
ENDBRANCH   6   7
ENDBRANCH   5   6
ENDBRANCH   4   5
ENDBRANCH   3   4
ENDBRANCH   2   3
ENDBRANCH   1   2
BRANCH   1  11
ATOM     11  C   UNL     1      14.074  11.694  14.004  1.00  0.00    -0.031 C 
ATOM     12  C   UNL     1      14.509  11.509  15.260  1.00  0.00    -0.027 C 
BRANCH  12  13
ATOM     13  C   UNL     1      15.882  11.942  15.692  1.00  0.00     0.054 C 
BRANCH  13  14
ATOM     14  C   UNL     1      16.865  11.929  14.547  1.00  0.00    -0.027 C 
ATOM     15  C   UNL     1      18.168  12.252  14.646  1.00  0.00    -0.031 C 
BRANCH  15  16
ATOM     16  C   UNL     1      18.844  12.751  15.901  1.00  0.00     0.027 C 
BRANCH  16  17
ATOM     17  C   UNL     1      19.575  11.622  16.642  1.00  0.00     0.004 C 
BRANCH  17  18
ATOM     18  C   UNL     1      19.118  11.491  18.105  1.00  0.00     0.000 C 
BRANCH  18  19
ATOM     19  C   UNL     1      18.026  12.507  18.475  1.00  0.00    -0.003 C 
ATOM     20  C   UNL     1      16.933  11.901  19.356  1.00  0.00     0.004 C 
ENDBRANCH  18  19
ENDBRANCH  17  18
ENDBRANCH  16  17
ENDBRANCH  15  16
ENDBRANCH  13  14
ENDBRANCH  12  13
ENDBRANCH   1  11
TORSDOF 14
ENDMDL
MODEL 6
REMARK VINA RESULT:    -4.625      1.544      2.633
REMARK INTER + INTRA:          -9.854
REMARK INTER:                  -8.437
REMARK INTRA:                  -1.416
REMARK UNBOUND:                -1.444
REMARK SMILES CCCCCC=CCC=CCCCCCCCC(=O)[O-]
REMARK SMILES IDX 11 1 12 2 13 3 14 4 15 5 16 6 17 7 18 8 19 9 20 10 10 11
REMARK SMILES IDX 9 12 8 13 7 14 6 15 5 16 4 17 3 18 2 19 1 20
REMARK H PARENT
REMARK Flexibility Score: inf
ROOT
ATOM      1  C   UNL     1      14.849  11.955  15.454  1.00  0.00     0.027 C 
ENDROOT
BRANCH   1   2
ATOM      2  C   UNL     1      14.294  10.965  14.416  1.00  0.00     0.004 C 
BRANCH   2   3
ATOM      3  C   UNL     1      12.874  11.326  13.928  1.00  0.00     0.000 C 
BRANCH   3   4
ATOM      4  C   UNL     1      12.801  11.641  12.424  1.00  0.00     0.000 C 
BRANCH   4   5
ATOM      5  C   UNL     1      13.258  13.070  12.091  1.00  0.00     0.000 C 
BRANCH   5   6
ATOM      6  C   UNL     1      12.101  13.971  11.629  1.00  0.00     0.006 C 
BRANCH   6   7
ATOM      7  C   UNL     1      12.345  14.579  10.243  1.00  0.00     0.053 C 
BRANCH   7   8
ATOM      8  C   UNL     1      11.578  13.831   9.200  1.00  0.00     0.041 C 
ATOM      9  O   UNL     1      10.587  14.365   8.636  1.00  0.00    -0.550 OA
ATOM     10  O   UNL     1      11.977  12.554   8.825  1.00  0.00    -0.550 OA
ENDBRANCH   7   8
ENDBRANCH   6   7
ENDBRANCH   5   6
ENDBRANCH   4   5
ENDBRANCH   3   4
ENDBRANCH   2   3
ENDBRANCH   1   2
BRANCH   1  11
ATOM     11  C   UNL     1      16.350  11.908  15.535  1.00  0.00    -0.031 C 
ATOM     12  C   UNL     1      17.115  11.933  14.433  1.00  0.00    -0.027 C 
BRANCH  12  13
ATOM     13  C   UNL     1      18.614  11.863  14.510  1.00  0.00     0.054 C 
BRANCH  13  14
ATOM     14  C   UNL     1      19.188  12.966  15.365  1.00  0.00    -0.027 C 
ATOM     15  C   UNL     1      19.754  12.791  16.574  1.00  0.00    -0.031 C 
BRANCH  15  16
ATOM     16  C   UNL     1      19.843  11.472  17.305  1.00  0.00     0.027 C 
BRANCH  16  17
ATOM     17  C   UNL     1      18.838  11.394  18.464  1.00  0.00     0.004 C 
BRANCH  17  18
ATOM     18  C   UNL     1      18.016  12.685  18.616  1.00  0.00     0.000 C 
BRANCH  18  19
ATOM     19  C   UNL     1      16.709  12.463  19.394  1.00  0.00    -0.003 C 
ATOM     20  C   UNL     1      16.774  11.246  20.317  1.00  0.00     0.004 C 
ENDBRANCH  18  19
ENDBRANCH  17  18
ENDBRANCH  16  17
ENDBRANCH  15  16
ENDBRANCH  13  14
ENDBRANCH  12  13
ENDBRANCH   1  11
TORSDOF 14
ENDMDL
MODEL 7
REMARK VINA RESULT:    -4.602      4.975      8.604
REMARK INTER + INTRA:          -9.812
REMARK INTER:                  -8.511
REMARK INTRA:                  -1.301
REMARK UNBOUND:                -1.444
REMARK SMILES CCCCCC=CCC=CCCCCCCCC(=O)[O-]
REMARK SMILES IDX 11 1 12 2 13 3 14 4 15 5 16 6 17 7 18 8 19 9 20 10 10 11
REMARK SMILES IDX 9 12 8 13 7 14 6 15 5 16 4 17 3 18 2 19 1 20
REMARK H PARENT
REMARK Flexibility Score: inf
ROOT
ATOM      1  C   UNL     1      15.366  12.288  17.537  1.00  0.00     0.027 C 
ENDROOT
BRANCH   1   2
ATOM      2  C   UNL     1      15.772  12.119  19.010  1.00  0.00     0.004 C 
BRANCH   2   3
ATOM      3  C   UNL     1      17.229  11.636  19.188  1.00  0.00     0.000 C 
BRANCH   3   4
ATOM      4  C   UNL     1      18.253  12.456  18.384  1.00  0.00     0.000 C 
BRANCH   4   5
ATOM      5  C   UNL     1      19.423  11.605  17.864  1.00  0.00     0.000 C 
BRANCH   5   6
ATOM      6  C   UNL     1      19.382  11.411  16.340  1.00  0.00     0.006 C 
BRANCH   6   7
ATOM      7  C   UNL     1      18.898  12.663  15.600  1.00  0.00     0.053 C 
BRANCH   7   8
ATOM      8  C   UNL     1      18.076  12.284  14.409  1.00  0.00     0.041 C 
ATOM      9  O   UNL     1      18.593  12.259  13.262  1.00  0.00    -0.550 OA
ATOM     10  O   UNL     1      16.743  11.926  14.570  1.00  0.00    -0.550 OA
ENDBRANCH   7   8
ENDBRANCH   6   7
ENDBRANCH   5   6
ENDBRANCH   4   5
ENDBRANCH   3   4
ENDBRANCH   2   3
ENDBRANCH   1   2
BRANCH   1  11
ATOM     11  C   UNL     1      13.873  12.374  17.367  1.00  0.00    -0.031 C 
ATOM     12  C   UNL     1      13.032  11.892  18.295  1.00  0.00    -0.027 C 
BRANCH  12  13
ATOM     13  C   UNL     1      11.541  11.955  18.118  1.00  0.00     0.054 C 
BRANCH  13  14
ATOM     14  C   UNL     1      10.928  13.097  18.891  1.00  0.00    -0.027 C 
ATOM     15  C   UNL     1       9.890  12.984  19.741  1.00  0.00    -0.031 C 
BRANCH  15  16
ATOM     16  C   UNL     1       9.121  11.711  20.005  1.00  0.00     0.027 C 
BRANCH  16  17
ATOM     17  C   UNL     1       9.548  11.050  21.324  1.00  0.00     0.004 C 
BRANCH  17  18
ATOM     18  C   UNL     1      10.753  10.111  21.146  1.00  0.00     0.000 C 
BRANCH  18  19
ATOM     19  C   UNL     1      10.334   8.643  20.966  1.00  0.00    -0.003 C 
ATOM     20  C   UNL     1      10.074   8.282  19.503  1.00  0.00     0.004 C 
ENDBRANCH  18  19
ENDBRANCH  17  18
ENDBRANCH  16  17
ENDBRANCH  15  16
ENDBRANCH  13  14
ENDBRANCH  12  13
ENDBRANCH   1  11
TORSDOF 14
ENDMDL
MODEL 8
REMARK VINA RESULT:    -4.599      1.160      1.664
REMARK INTER + INTRA:          -9.807
REMARK INTER:                  -8.571
REMARK INTRA:                  -1.236
REMARK UNBOUND:                -1.444
REMARK SMILES CCCCCC=CCC=CCCCCCCCC(=O)[O-]
REMARK SMILES IDX 11 1 12 2 13 3 14 4 15 5 16 6 17 7 18 8 19 9 20 10 10 11
REMARK SMILES IDX 9 12 8 13 7 14 6 15 5 16 4 17 3 18 2 19 1 20
REMARK H PARENT
REMARK Flexibility Score: inf
ROOT
ATOM      1  C   UNL     1      12.327  11.008  13.191  1.00  0.00     0.027 C 
ENDROOT
BRANCH   1   2
ATOM      2  C   UNL     1      11.076  11.592  13.866  1.00  0.00     0.004 C 
BRANCH   2   3
ATOM      3  C   UNL     1       9.986  12.023  12.859  1.00  0.00     0.000 C 
BRANCH   3   4
ATOM      4  C   UNL     1       9.477  13.458  13.078  1.00  0.00     0.000 C 
BRANCH   4   5
ATOM      5  C   UNL     1       9.642  14.346  11.833  1.00  0.00     0.000 C 
BRANCH   5   6
ATOM      6  C   UNL     1      11.007  15.051  11.785  1.00  0.00     0.006 C 
BRANCH   6   7
ATOM      7  C   UNL     1      11.554  15.177  10.358  1.00  0.00     0.053 C 
BRANCH   7   8
ATOM      8  C   UNL     1      12.178  13.889   9.921  1.00  0.00     0.041 C 
ATOM      9  O   UNL     1      11.758  13.298   8.892  1.00  0.00    -0.550 OA
ATOM     10  O   UNL     1      13.247  13.358  10.631  1.00  0.00    -0.550 OA
ENDBRANCH   7   8
ENDBRANCH   6   7
ENDBRANCH   5   6
ENDBRANCH   4   5
ENDBRANCH   3   4
ENDBRANCH   2   3
ENDBRANCH   1   2
BRANCH   1  11
ATOM     11  C   UNL     1      13.591  11.664  13.677  1.00  0.00    -0.031 C 
ATOM     12  C   UNL     1      14.205  11.261  14.800  1.00  0.00    -0.027 C 
BRANCH  12  13
ATOM     13  C   UNL     1      15.454  11.930  15.301  1.00  0.00     0.054 C 
BRANCH  13  14
ATOM     14  C   UNL     1      16.623  11.711  14.372  1.00  0.00    -0.027 C 
ATOM     15  C   UNL     1      17.896  12.060  14.638  1.00  0.00    -0.031 C 
BRANCH  15  16
ATOM     16  C   UNL     1      18.351  12.793  15.877  1.00  0.00     0.027 C 
BRANCH  16  17
ATOM     17  C   UNL     1      19.440  12.016  16.632  1.00  0.00     0.004 C 
BRANCH  17  18
ATOM     18  C   UNL     1      18.982  11.575  18.032  1.00  0.00     0.000 C 
BRANCH  18  19
ATOM     19  C   UNL     1      17.752  12.357  18.523  1.00  0.00    -0.003 C 
ATOM     20  C   UNL     1      17.159  11.775  19.806  1.00  0.00     0.004 C 
ENDBRANCH  18  19
ENDBRANCH  17  18
ENDBRANCH  16  17
ENDBRANCH  15  16
ENDBRANCH  13  14
ENDBRANCH  12  13
ENDBRANCH   1  11
TORSDOF 14
ENDMDL
MODEL 9
REMARK VINA RESULT:    -4.463      3.604      8.842
REMARK INTER + INTRA:          -9.559
REMARK INTER:                  -8.332
REMARK INTRA:                  -1.227
REMARK UNBOUND:                -1.444
REMARK SMILES CCCCCC=CCC=CCCCCCCCC(=O)[O-]
REMARK SMILES IDX 11 1 12 2 13 3 14 4 15 5 16 6 17 7 18 8 19 9 20 10 10 11
REMARK SMILES IDX 9 12 8 13 7 14 6 15 5 16 4 17 3 18 2 19 1 20
REMARK H PARENT
REMARK Flexibility Score: inf
ROOT
ATOM      1  C   UNL     1      12.696  11.279  13.801  1.00  0.00     0.027 C 
ENDROOT
BRANCH   1   2
ATOM      2  C   UNL     1      14.101  11.878  13.970  1.00  0.00     0.004 C 
BRANCH   2   3
ATOM      3  C   UNL     1      14.903  11.234  15.123  1.00  0.00     0.000 C 
BRANCH   3   4
ATOM      4  C   UNL     1      16.178  12.010  15.496  1.00  0.00     0.000 C 
BRANCH   4   5
ATOM      5  C   UNL     1      17.202  12.060  14.350  1.00  0.00     0.000 C 
BRANCH   5   6
ATOM      6  C   UNL     1      18.631  11.738  14.818  1.00  0.00     0.006 C 
BRANCH   6   7
ATOM      7  C   UNL     1      19.085  12.632  15.979  1.00  0.00     0.053 C 
BRANCH   7   8
ATOM      8  C   UNL     1      19.227  11.830  17.233  1.00  0.00     0.041 C 
ATOM      9  O   UNL     1      20.150  10.982  17.344  1.00  0.00    -0.550 OA
ATOM     10  O   UNL     1      18.358  12.043  18.296  1.00  0.00    -0.550 OA
ENDBRANCH   7   8
ENDBRANCH   6   7
ENDBRANCH   5   6
ENDBRANCH   4   5
ENDBRANCH   3   4
ENDBRANCH   2   3
ENDBRANCH   1   2
BRANCH   1  11
ATOM     11  C   UNL     1      12.166  11.463  12.404  1.00  0.00    -0.031 C 
ATOM     12  C   UNL     1      12.242  10.485  11.489  1.00  0.00    -0.027 C 
BRANCH  12  13
ATOM     13  C   UNL     1      11.736  10.674  10.087  1.00  0.00     0.054 C 
BRANCH  13  14
ATOM     14  C   UNL     1      12.651  11.553   9.270  1.00  0.00    -0.027 C 
ATOM     15  C   UNL     1      12.244  12.442   8.344  1.00  0.00    -0.031 C 
BRANCH  15  16
ATOM     16  C   UNL     1      10.810  12.653   7.920  1.00  0.00     0.027 C 
BRANCH  16  17
ATOM     17  C   UNL     1      10.320  14.071   8.251  1.00  0.00     0.004 C 
BRANCH  17  18
ATOM     18  C   UNL     1      10.949  14.621   9.542  1.00  0.00     0.000 C 
BRANCH  18  19
ATOM     19  C   UNL     1      10.106  14.306  10.789  1.00  0.00    -0.003 C 
ATOM     20  C   UNL     1      10.647  14.981  12.050  1.00  0.00     0.004 C 
ENDBRANCH  18  19
ENDBRANCH  17  18
ENDBRANCH  16  17
ENDBRANCH  15  16
ENDBRANCH  13  14
ENDBRANCH  12  13
ENDBRANCH   1  11
TORSDOF 14
ENDMDL
