MODEL 1
REMARK VINA RESULT:    -3.432      0.000      0.000
REMARK INTER + INTRA:          -3.899
REMARK INTER:                  -3.834
REMARK INTRA:                  -0.065
REMARK UNBOUND:                -0.065
REMARK SMILES CCCC(=O)[O-]
REMARK SMILES IDX 3 1 4 2 5 3 6 4 2 5 1 6
REMARK H PARENT
REMARK Flexibility Score: inf
ROOT
ATOM      1  C   UNL     1      10.257  13.524  20.195  1.00  0.00     0.052 C 
ENDROOT
BRANCH   1   2
ATOM      2  C   UNL     1      10.116  14.855  19.522  1.00  0.00     0.041 C 
ATOM      3  O   UNL     1      10.982  15.242  18.695  1.00  0.00    -0.550 OA
ATOM      4  O   UNL     1       9.009  15.654  19.785  1.00  0.00    -0.550 OA
ENDBRANCH   1   2
BRANCH   1   5
ATOM      5  C   UNL     1      10.227  13.652  21.723  1.00  0.00     0.003 C 
ATOM      6  C   UNL     1      11.295  14.612  22.248  1.00  0.00     0.004 C 
ENDBRANCH   1   5
TORSDOF 2
ENDMDL
MODEL 2
REMARK VINA RESULT:    -3.409      1.429      1.695
REMARK INTER + INTRA:          -3.873
REMARK INTER:                  -3.809
REMARK INTRA:                  -0.064
REMARK UNBOUND:                -0.065
REMARK SMILES CCCC(=O)[O-]
REMARK SMILES IDX 3 1 4 2 5 3 6 4 2 5 1 6
REMARK H PARENT
REMARK Flexibility Score: inf
ROOT
ATOM      1  C   UNL     1       9.738  15.162  20.369  1.00  0.00     0.052 C 
ENDROOT
BRANCH   1   2
ATOM      2  C   UNL     1      10.673  14.758  19.270  1.00  0.00     0.041 C 
ATOM      3  O   UNL     1      11.291  15.634  18.610  1.00  0.00    -0.550 OA
ATOM      4  O   UNL     1      10.887  13.412  18.998  1.00  0.00    -0.550 OA
ENDBRANCH   1   2
BRANCH   1   5
ATOM      5  C   UNL     1      10.493  15.734  21.577  1.00  0.00     0.003 C 
ATOM      6  C   UNL     1      11.259  14.658  22.346  1.00  0.00     0.004 C 
ENDBRANCH   1   5
TORSDOF 2
ENDMDL
MODEL 3
REMARK VINA RESULT:    -3.366      1.372      1.657
REMARK INTER + INTRA:          -3.825
REMARK INTER:                  -3.788
REMARK INTRA:                  -0.037
REMARK UNBOUND:                -0.065
REMARK SMILES CCCC(=O)[O-]
REMARK SMILES IDX 3 1 4 2 5 3 6 4 2 5 1 6
REMARK H PARENT
REMARK Flexibility Score: inf
ROOT
ATOM      1  C   UNL     1      10.099  14.984  20.693  1.00  0.00     0.052 C 
ENDROOT
BRANCH   1   2
ATOM      2  C   UNL     1      10.757  14.638  19.392  1.00  0.00     0.041 C 
ATOM      3  O   UNL     1      10.819  13.440  19.012  1.00  0.00    -0.550 OA
ATOM      4  O   UNL     1      11.273  15.645  18.584  1.00  0.00    -0.550 OA
ENDBRANCH   1   2
BRANCH   1   5
ATOM      5  C   UNL     1      11.097  14.966  21.858  1.00  0.00     0.003 C 
ATOM      6  C   UNL     1      10.959  13.712  22.722  1.00  0.00     0.004 C 
ENDBRANCH   1   5
TORSDOF 2
ENDMDL
MODEL 4
REMARK VINA RESULT:    -2.974     13.494     14.058
REMARK INTER + INTRA:          -3.387
REMARK INTER:                  -3.347
REMARK INTRA:                  -0.041
REMARK UNBOUND:                -0.065
REMARK SMILES CCCC(=O)[O-]
REMARK SMILES IDX 3 1 4 2 5 3 6 4 2 5 1 6
REMARK H PARENT
REMARK Flexibility Score: inf
ROOT
ATOM      1  C   UNL     1      23.391  19.299  25.050  1.00  0.00     0.052 C 
ENDROOT
BRANCH   1   2
ATOM      2  C   UNL     1      23.336  19.633  23.590  1.00  0.00     0.041 C 
ATOM      3  O   UNL     1      23.110  20.815  23.219  1.00  0.00    -0.550 OA
ATOM      4  O   UNL     1      23.567  18.645  22.641  1.00  0.00    -0.550 OA
ENDBRANCH   1   2
BRANCH   1   5
ATOM      5  C   UNL     1      22.112  18.594  25.521  1.00  0.00     0.003 C 
ATOM      6  C   UNL     1      21.064  19.576  26.042  1.00  0.00     0.004 C 
ENDBRANCH   1   5
TORSDOF 2
ENDMDL
MODEL 5
REMARK VINA RESULT:    -2.825     16.854     17.605
REMARK INTER + INTRA:          -3.221
REMARK INTER:                  -3.194
REMARK INTRA:                  -0.027
REMARK UNBOUND:                -0.065
REMARK SMILES CCCC(=O)[O-]
REMARK SMILES IDX 3 1 4 2 5 3 6 4 2 5 1 6
REMARK H PARENT
REMARK Flexibility Score: inf
ROOT
ATOM      1  C   UNL     1      23.089   5.905  27.332  1.00  0.00     0.052 C 
ENDROOT
BRANCH   1   2
ATOM      2  C   UNL     1      23.990   6.605  26.361  1.00  0.00     0.041 C 
ATOM      3  O   UNL     1      23.921   6.344  25.131  1.00  0.00    -0.550 OA
ATOM      4  O   UNL     1      24.882   7.570  26.811  1.00  0.00    -0.550 OA
ENDBRANCH   1   2
BRANCH   1   5
ATOM      5  C   UNL     1      23.664   4.551  27.768  1.00  0.00     0.003 C 
ATOM      6  C   UNL     1      24.865   4.703  28.701  1.00  0.00     0.004 C 
ENDBRANCH   1   5
TORSDOF 2
ENDMDL
MODEL 6
REMARK VINA RESULT:    -2.801      2.773      3.418
REMARK INTER + INTRA:          -3.193
REMARK INTER:                  -3.171
REMARK INTRA:                  -0.023
REMARK UNBOUND:                -0.065
REMARK SMILES CCCC(=O)[O-]
REMARK SMILES IDX 3 1 4 2 5 3 6 4 2 5 1 6
REMARK H PARENT
REMARK Flexibility Score: inf
ROOT
ATOM      1  C   UNL     1       9.969  14.372  21.616  1.00  0.00     0.052 C 
ENDROOT
BRANCH   1   2
ATOM      2  C   UNL     1      10.270  13.178  22.470  1.00  0.00     0.041 C 
ATOM      3  O   UNL     1      10.489  12.058  21.939  1.00  0.00    -0.550 OA
ATOM      4  O   UNL     1      10.341  13.311  23.852  1.00  0.00    -0.550 OA
ENDBRANCH   1   2
BRANCH   1   5
ATOM      5  C   UNL     1      10.154  14.065  20.124  1.00  0.00     0.003 C 
ATOM      6  C   UNL     1      11.026  15.105  19.421  1.00  0.00     0.004 C 
ENDBRANCH   1   5
TORSDOF 2
ENDMDL
MODEL 7
REMARK VINA RESULT:    -2.795     16.314     17.175
REMARK INTER + INTRA:          -3.187
REMARK INTER:                  -3.116
REMARK INTRA:                  -0.072
REMARK UNBOUND:                -0.065
REMARK SMILES CCCC(=O)[O-]
REMARK SMILES IDX 3 1 4 2 5 3 6 4 2 5 1 6
REMARK H PARENT
REMARK Flexibility Score: inf
ROOT
ATOM      1  C   UNL     1      24.189   7.508  27.152  1.00  0.00     0.052 C 
ENDROOT
BRANCH   1   2
ATOM      2  C   UNL     1      23.484   6.681  26.121  1.00  0.00     0.041 C 
ATOM      3  O   UNL     1      22.257   6.428  26.242  1.00  0.00    -0.550 OA
ATOM      4  O   UNL     1      24.176   6.219  25.008  1.00  0.00    -0.550 OA
ENDBRANCH   1   2
BRANCH   1   5
ATOM      5  C   UNL     1      24.166   6.837  28.532  1.00  0.00     0.003 C 
ATOM      6  C   UNL     1      24.855   5.472  28.527  1.00  0.00     0.004 C 
ENDBRANCH   1   5
TORSDOF 2
ENDMDL
MODEL 8
REMARK VINA RESULT:    -2.740      2.127      2.862
REMARK INTER + INTRA:          -3.126
REMARK INTER:                  -3.078
REMARK INTRA:                  -0.048
REMARK UNBOUND:                -0.065
REMARK SMILES CCCC(=O)[O-]
REMARK SMILES IDX 3 1 4 2 5 3 6 4 2 5 1 6
REMARK H PARENT
REMARK Flexibility Score: inf
ROOT
ATOM      1  C   UNL     1      10.860  15.361  21.603  1.00  0.00     0.052 C 
ENDROOT
BRANCH   1   2
ATOM      2  C   UNL     1       9.584  16.106  21.854  1.00  0.00     0.041 C 
ATOM      3  O   UNL     1       9.497  17.328  21.566  1.00  0.00    -0.550 OA
ATOM      4  O   UNL     1       8.481  15.440  22.374  1.00  0.00    -0.550 OA
ENDBRANCH   1   2
BRANCH   1   5
ATOM      5  C   UNL     1      11.132  15.188  20.103  1.00  0.00     0.003 C 
ATOM      6  C   UNL     1      10.468  13.935  19.532  1.00  0.00     0.004 C 
ENDBRANCH   1   5
TORSDOF 2
ENDMDL
MODEL 9
REMARK VINA RESULT:    -2.739     14.598     15.582
REMARK INTER + INTRA:          -3.124
REMARK INTER:                  -3.064
REMARK INTRA:                  -0.060
REMARK UNBOUND:                -0.065
REMARK SMILES CCCC(=O)[O-]
REMARK SMILES IDX 3 1 4 2 5 3 6 4 2 5 1 6
REMARK H PARENT
REMARK Flexibility Score: inf
ROOT
ATOM      1  C   UNL     1      24.697  19.477  24.459  1.00  0.00     0.052 C 
ENDROOT
BRANCH   1   2
ATOM      2  C   UNL     1      23.758  19.624  23.300  1.00  0.00     0.041 C 
ATOM      3  O   UNL     1      23.524  18.644  22.546  1.00  0.00    -0.550 OA
ATOM      4  O   UNL     1      23.115  20.835  23.075  1.00  0.00    -0.550 OA
ENDBRANCH   1   2
BRANCH   1   5
ATOM      5  C   UNL     1      26.019  18.819  24.040  1.00  0.00     0.003 C 
ATOM      6  C   UNL     1      26.873  19.737  23.166  1.00  0.00     0.004 C 
ENDBRANCH   1   5
TORSDOF 2
ENDMDL
