MODEL 1
REMARK VINA RESULT:    -4.070      0.000      0.000
REMARK INTER + INTRA:          -5.132
REMARK INTER:                  -5.022
REMARK INTRA:                  -0.110
REMARK UNBOUND:                -0.110
REMARK SMILES CCCCCC(=O)[O-]
REMARK SMILES IDX 4 1 5 2 6 3 7 4 8 5 3 6 2 7 1 8
REMARK H PARENT
REMARK Flexibility Score: inf
ROOT
ATOM      1  C   UNL     1       7.903  55.764  20.296  1.00  0.00     0.006 C 
ENDROOT
BRANCH   1   2
ATOM      2  C   UNL     1       8.225  54.289  20.556  1.00  0.00     0.053 C 
BRANCH   2   3
ATOM      3  C   UNL     1       9.328  54.163  21.558  1.00  0.00     0.041 C 
ATOM      4  O   UNL     1      10.380  53.534  21.269  1.00  0.00    -0.550 OA
ATOM      5  O   UNL     1       9.175  54.700  22.830  1.00  0.00    -0.550 OA
ENDBRANCH   2   3
ENDBRANCH   1   2
BRANCH   1   6
ATOM      6  C   UNL     1       7.214  55.946  18.938  1.00  0.00     0.000 C 
BRANCH   6   7
ATOM      7  C   UNL     1       7.264  54.651  18.119  1.00  0.00    -0.003 C 
ATOM      8  C   UNL     1       6.630  54.843  16.745  1.00  0.00     0.004 C 
ENDBRANCH   6   7
ENDBRANCH   1   6
TORSDOF 4
ENDMDL
MODEL 2
REMARK VINA RESULT:    -4.045      1.984      2.563
REMARK INTER + INTRA:          -5.101
REMARK INTER:                  -4.939
REMARK INTRA:                  -0.162
REMARK UNBOUND:                -0.110
REMARK SMILES CCCCCC(=O)[O-]
REMARK SMILES IDX 4 1 5 2 6 3 7 4 8 5 3 6 2 7 1 8
REMARK H PARENT
REMARK Flexibility Score: inf
ROOT
ATOM      1  C   UNL     1       7.509  55.836  19.387  1.00  0.00     0.006 C 
ENDROOT
BRANCH   1   2
ATOM      2  C   UNL     1       7.576  55.960  20.913  1.00  0.00     0.053 C 
BRANCH   2   3
ATOM      3  C   UNL     1       6.502  55.138  21.552  1.00  0.00     0.041 C 
ATOM      4  O   UNL     1       5.292  55.457  21.416  1.00  0.00    -0.550 OA
ATOM      5  O   UNL     1       6.841  54.043  22.338  1.00  0.00    -0.550 OA
ENDBRANCH   2   3
ENDBRANCH   1   2
BRANCH   1   6
ATOM      6  C   UNL     1       7.603  54.369  18.951  1.00  0.00     0.000 C 
BRANCH   6   7
ATOM      7  C   UNL     1       6.585  54.057  17.848  1.00  0.00    -0.003 C 
ATOM      8  C   UNL     1       6.743  55.009  16.666  1.00  0.00     0.004 C 
ENDBRANCH   6   7
ENDBRANCH   1   6
TORSDOF 4
ENDMDL
MODEL 3
REMARK VINA RESULT:    -4.013      1.351      2.274
REMARK INTER + INTRA:          -5.061
REMARK INTER:                  -4.939
REMARK INTRA:                  -0.122
REMARK UNBOUND:                -0.110
REMARK SMILES CCCCCC(=O)[O-]
REMARK SMILES IDX 4 1 5 2 6 3 7 4 8 5 3 6 2 7 1 8
REMARK H PARENT
REMARK Flexibility Score: inf
ROOT
ATOM      1  C   UNL     1       8.256  54.000  21.045  1.00  0.00     0.006 C 
ENDROOT
BRANCH   1   2
ATOM      2  C   UNL     1       9.766  53.870  21.268  1.00  0.00     0.053 C 
BRANCH   2   3
ATOM      3  C   UNL     1      10.046  53.043  22.483  1.00  0.00     0.041 C 
ATOM      4  O   UNL     1      10.192  53.594  23.606  1.00  0.00    -0.550 OA
ATOM      5  O   UNL     1      10.192  51.667  22.368  1.00  0.00    -0.550 OA
ENDBRANCH   2   3
ENDBRANCH   1   2
BRANCH   1   6
ATOM      6  C   UNL     1       7.798  55.453  21.219  1.00  0.00     0.000 C 
BRANCH   6   7
ATOM      7  C   UNL     1       7.704  56.166  19.865  1.00  0.00    -0.003 C 
ATOM      8  C   UNL     1       7.302  55.197  18.758  1.00  0.00     0.004 C 
ENDBRANCH   6   7
ENDBRANCH   1   6
TORSDOF 4
ENDMDL
MODEL 4
REMARK VINA RESULT:    -4.011      2.016      2.897
REMARK INTER + INTRA:          -5.058
REMARK INTER:                  -4.916
REMARK INTRA:                  -0.142
REMARK UNBOUND:                -0.110
REMARK SMILES CCCCCC(=O)[O-]
REMARK SMILES IDX 4 1 5 2 6 3 7 4 8 5 3 6 2 7 1 8
REMARK H PARENT
REMARK Flexibility Score: inf
ROOT
ATOM      1  C   UNL     1       9.882  53.942  21.339  1.00  0.00     0.006 C 
ENDROOT
BRANCH   1   2
ATOM      2  C   UNL     1      10.026  53.054  22.579  1.00  0.00     0.053 C 
BRANCH   2   3
ATOM      3  C   UNL     1       9.966  53.881  23.824  1.00  0.00     0.041 C 
ATOM      4  O   UNL     1      11.013  54.400  24.292  1.00  0.00    -0.550 OA
ATOM      5  O   UNL     1       8.760  54.039  24.496  1.00  0.00    -0.550 OA
ENDBRANCH   2   3
ENDBRANCH   1   2
BRANCH   1   6
ATOM      6  C   UNL     1       8.412  54.063  20.917  1.00  0.00     0.000 C 
BRANCH   6   7
ATOM      7  C   UNL     1       7.905  55.498  21.097  1.00  0.00    -0.003 C 
ATOM      8  C   UNL     1       7.625  56.157  19.750  1.00  0.00     0.004 C 
ENDBRANCH   6   7
ENDBRANCH   1   6
TORSDOF 4
ENDMDL
MODEL 5
REMARK VINA RESULT:    -4.005      2.510      4.294
REMARK INTER + INTRA:          -5.052
REMARK INTER:                  -4.905
REMARK INTRA:                  -0.147
REMARK UNBOUND:                -0.110
REMARK SMILES CCCCCC(=O)[O-]
REMARK SMILES IDX 4 1 5 2 6 3 7 4 8 5 3 6 2 7 1 8
REMARK H PARENT
REMARK Flexibility Score: inf
ROOT
ATOM      1  C   UNL     1       8.184  55.033  21.643  1.00  0.00     0.006 C 
ENDROOT
BRANCH   1   2
ATOM      2  C   UNL     1       7.814  54.382  20.306  1.00  0.00     0.053 C 
BRANCH   2   3
ATOM      3  C   UNL     1       7.550  55.429  19.271  1.00  0.00     0.041 C 
ATOM      4  O   UNL     1       7.618  56.650  19.571  1.00  0.00    -0.550 OA
ATOM      5  O   UNL     1       7.182  55.057  17.984  1.00  0.00    -0.550 OA
ENDBRANCH   2   3
ENDBRANCH   1   2
BRANCH   1   6
ATOM      6  C   UNL     1       9.366  54.308  22.298  1.00  0.00     0.000 C 
BRANCH   6   7
ATOM      7  C   UNL     1       9.971  53.270  21.347  1.00  0.00    -0.003 C 
ATOM      8  C   UNL     1      10.125  51.916  22.034  1.00  0.00     0.004 C 
ENDBRANCH   6   7
ENDBRANCH   1   6
TORSDOF 4
ENDMDL
MODEL 6
REMARK VINA RESULT:    -3.990      2.831      4.686
REMARK INTER + INTRA:          -5.033
REMARK INTER:                  -4.901
REMARK INTRA:                  -0.132
REMARK UNBOUND:                -0.110
REMARK SMILES CCCCCC(=O)[O-]
REMARK SMILES IDX 4 1 5 2 6 3 7 4 8 5 3 6 2 7 1 8
REMARK H PARENT
REMARK Flexibility Score: inf
ROOT
ATOM      1  C   UNL     1       8.741  54.349  20.843  1.00  0.00     0.006 C 
ENDROOT
BRANCH   1   2
ATOM      2  C   UNL     1       7.553  55.082  21.475  1.00  0.00     0.053 C 
BRANCH   2   3
ATOM      3  C   UNL     1       7.103  56.205  20.595  1.00  0.00     0.041 C 
ATOM      4  O   UNL     1       7.817  56.578  19.627  1.00  0.00    -0.550 OA
ATOM      5  O   UNL     1       5.917  56.873  20.872  1.00  0.00    -0.550 OA
ENDBRANCH   2   3
ENDBRANCH   1   2
BRANCH   1   6
ATOM      6  C   UNL     1       9.749  53.912  21.913  1.00  0.00     0.000 C 
BRANCH   6   7
ATOM      7  C   UNL     1       9.518  54.666  23.227  1.00  0.00    -0.003 C 
ATOM      8  C   UNL     1      10.578  54.306  24.263  1.00  0.00     0.004 C 
ENDBRANCH   6   7
ENDBRANCH   1   6
TORSDOF 4
ENDMDL
MODEL 7
REMARK VINA RESULT:    -3.976      2.583      4.586
REMARK INTER + INTRA:          -5.016
REMARK INTER:                  -4.917
REMARK INTRA:                  -0.098
REMARK UNBOUND:                -0.110
REMARK SMILES CCCCCC(=O)[O-]
REMARK SMILES IDX 4 1 5 2 6 3 7 4 8 5 3 6 2 7 1 8
REMARK H PARENT
REMARK Flexibility Score: inf
ROOT
ATOM      1  C   UNL     1       8.531  54.720  21.121  1.00  0.00     0.006 C 
ENDROOT
BRANCH   1   2
ATOM      2  C   UNL     1       7.451  54.373  20.091  1.00  0.00     0.053 C 
BRANCH   2   3
ATOM      3  C   UNL     1       7.366  55.439  19.044  1.00  0.00     0.041 C 
ATOM      4  O   UNL     1       7.571  56.644  19.347  1.00  0.00    -0.550 OA
ATOM      5  O   UNL     1       7.012  55.108  17.742  1.00  0.00    -0.550 OA
ENDBRANCH   2   3
ENDBRANCH   1   2
BRANCH   1   6
ATOM      6  C   UNL     1       9.551  53.582  21.253  1.00  0.00     0.000 C 
BRANCH   6   7
ATOM      7  C   UNL     1      10.251  53.627  22.615  1.00  0.00    -0.003 C 
ATOM      8  C   UNL     1       9.686  54.742  23.490  1.00  0.00     0.004 C 
ENDBRANCH   6   7
ENDBRANCH   1   6
TORSDOF 4
ENDMDL
MODEL 8
REMARK VINA RESULT:    -3.971      1.301      1.893
REMARK INTER + INTRA:          -5.010
REMARK INTER:                  -4.914
REMARK INTRA:                  -0.096
REMARK UNBOUND:                -0.110
REMARK SMILES CCCCCC(=O)[O-]
REMARK SMILES IDX 4 1 5 2 6 3 7 4 8 5 3 6 2 7 1 8
REMARK H PARENT
REMARK Flexibility Score: inf
ROOT
ATOM      1  C   UNL     1       8.251  54.057  21.128  1.00  0.00     0.006 C 
ENDROOT
BRANCH   1   2
ATOM      2  C   UNL     1       9.770  53.888  21.246  1.00  0.00     0.053 C 
BRANCH   2   3
ATOM      3  C   UNL     1      10.109  53.002  22.402  1.00  0.00     0.041 C 
ATOM      4  O   UNL     1      10.204  51.757  22.240  1.00  0.00    -0.550 OA
ATOM      5  O   UNL     1      10.275  53.546  23.669  1.00  0.00    -0.550 OA
ENDBRANCH   2   3
ENDBRANCH   1   2
BRANCH   1   6
ATOM      6  C   UNL     1       7.877  55.528  20.908  1.00  0.00     0.000 C 
BRANCH   6   7
ATOM      7  C   UNL     1       7.583  55.805  19.430  1.00  0.00    -0.003 C 
ATOM      8  C   UNL     1       7.167  54.531  18.702  1.00  0.00     0.004 C 
ENDBRANCH   6   7
ENDBRANCH   1   6
TORSDOF 4
ENDMDL
MODEL 9
REMARK VINA RESULT:    -3.800      2.789      5.049
REMARK INTER + INTRA:          -4.799
REMARK INTER:                  -4.651
REMARK INTRA:                  -0.148
REMARK UNBOUND:                -0.110
REMARK SMILES CCCCCC(=O)[O-]
REMARK SMILES IDX 4 1 5 2 6 3 7 4 8 5 3 6 2 7 1 8
REMARK H PARENT
REMARK Flexibility Score: inf
ROOT
ATOM      1  C   UNL     1       8.041  53.199  23.150  1.00  0.00     0.006 C 
ENDROOT
BRANCH   1   2
ATOM      2  C   UNL     1       6.945  53.958  22.396  1.00  0.00     0.053 C 
BRANCH   2   3
ATOM      3  C   UNL     1       7.337  54.159  20.967  1.00  0.00     0.041 C 
ATOM      4  O   UNL     1       6.528  53.884  20.042  1.00  0.00    -0.550 OA
ATOM      5  O   UNL     1       8.615  54.606  20.653  1.00  0.00    -0.550 OA
ENDBRANCH   2   3
ENDBRANCH   1   2
BRANCH   1   6
ATOM      6  C   UNL     1       8.010  53.531  24.647  1.00  0.00     0.000 C 
BRANCH   6   7
ATOM      7  C   UNL     1       9.325  54.178  25.095  1.00  0.00    -0.003 C 
ATOM      8  C   UNL     1      10.335  54.223  23.952  1.00  0.00     0.004 C 
ENDBRANCH   6   7
ENDBRANCH   1   6
TORSDOF 4
ENDMDL
