MODEL 1
REMARK VINA RESULT:    -4.438      0.000      0.000
REMARK INTER + INTRA:          -8.478
REMARK INTER:                  -7.552
REMARK INTRA:                  -0.926
REMARK UNBOUND:                -0.926
REMARK SMILES CCCCCCCCCCCCCC(=O)[O-]
REMARK SMILES IDX 8 1 9 2 10 3 11 4 12 5 13 6 14 7 15 8 16 9 7 10 6 11 5 12
REMARK SMILES IDX 4 13 3 14 2 15 1 16
REMARK H PARENT
REMARK Flexibility Score: inf
ROOT
ATOM      1  C   UNL     1      18.097  11.369 -14.116  1.00  0.00     0.000 C 
ENDROOT
BRANCH   1   2
ATOM      2  C   UNL     1      17.629  12.444 -15.111  1.00  0.00     0.000 C 
BRANCH   2   3
ATOM      3  C   UNL     1      16.100  12.589 -15.150  1.00  0.00     0.000 C 
BRANCH   3   4
ATOM      4  C   UNL     1      15.483  12.248 -13.784  1.00  0.00     0.000 C 
BRANCH   4   5
ATOM      5  C   UNL     1      14.389  11.168 -13.876  1.00  0.00     0.006 C 
BRANCH   5   6
ATOM      6  C   UNL     1      14.422  10.338 -15.169  1.00  0.00     0.053 C 
BRANCH   6   7
ATOM      7  C   UNL     1      15.220   9.080 -15.009  1.00  0.00     0.041 C 
ATOM      8  O   UNL     1      15.045   8.343 -14.003  1.00  0.00    -0.550 OA
ATOM      9  O   UNL     1      16.180   8.739 -15.954  1.00  0.00    -0.550 OA
ENDBRANCH   6   7
ENDBRANCH   5   6
ENDBRANCH   4   5
ENDBRANCH   3   4
ENDBRANCH   2   3
ENDBRANCH   1   2
BRANCH   1  10
ATOM     10  C   UNL     1      19.254  11.853 -13.224  1.00  0.00     0.000 C 
BRANCH  10  11
ATOM     11  C   UNL     1      20.133  12.906 -13.918  1.00  0.00    -0.000 C 
BRANCH  11  12
ATOM     12  C   UNL     1      21.537  13.012 -13.298  1.00  0.00    -0.000 C 
BRANCH  12  13
ATOM     13  C   UNL     1      22.269  14.301 -13.733  1.00  0.00    -0.000 C 
BRANCH  13  14
ATOM     14  C   UNL     1      21.618  15.003 -14.936  1.00  0.00    -0.000 C 
BRANCH  14  15
ATOM     15  C   UNL     1      22.270  16.353 -15.264  1.00  0.00    -0.003 C 
ATOM     16  C   UNL     1      22.948  16.949 -14.034  1.00  0.00     0.004 C 
ENDBRANCH  14  15
ENDBRANCH  13  14
ENDBRANCH  12  13
ENDBRANCH  11  12
ENDBRANCH  10  11
ENDBRANCH   1  10
TORSDOF 12
ENDMDL
MODEL 2
REMARK VINA RESULT:    -4.415      3.163      6.780
REMARK INTER + INTRA:          -8.439
REMARK INTER:                  -6.750
REMARK INTRA:                  -1.688
REMARK UNBOUND:                -0.926
REMARK SMILES CCCCCCCCCCCCCC(=O)[O-]
REMARK SMILES IDX 8 1 9 2 10 3 11 4 12 5 13 6 14 7 15 8 16 9 7 10 6 11 5 12
REMARK SMILES IDX 4 13 3 14 2 15 1 16
REMARK H PARENT
REMARK Flexibility Score: inf
ROOT
ATOM      1  C   UNL     1      18.662  10.050 -14.979  1.00  0.00     0.000 C 
ENDROOT
BRANCH   1   2
ATOM      2  C   UNL     1      18.514  10.538 -13.528  1.00  0.00     0.000 C 
BRANCH   2   3
ATOM      3  C   UNL     1      19.164  11.911 -13.296  1.00  0.00     0.000 C 
BRANCH   3   4
ATOM      4  C   UNL     1      19.319  12.675 -14.620  1.00  0.00     0.000 C 
BRANCH   4   5
ATOM      5  C   UNL     1      20.412  13.758 -14.560  1.00  0.00     0.006 C 
BRANCH   5   6
ATOM      6  C   UNL     1      21.793  13.295 -15.051  1.00  0.00     0.053 C 
BRANCH   6   7
ATOM      7  C   UNL     1      22.474  12.408 -14.054  1.00  0.00     0.041 C 
ATOM      8  O   UNL     1      22.785  11.228 -14.365  1.00  0.00    -0.550 OA
ATOM      9  O   UNL     1      22.737  12.875 -12.772  1.00  0.00    -0.550 OA
ENDBRANCH   6   7
ENDBRANCH   5   6
ENDBRANCH   4   5
ENDBRANCH   3   4
ENDBRANCH   2   3
ENDBRANCH   1   2
BRANCH   1  10
ATOM     10  C   UNL     1      17.502   9.140 -15.417  1.00  0.00     0.000 C 
BRANCH  10  11
ATOM     11  C   UNL     1      16.445   8.960 -14.316  1.00  0.00    -0.000 C 
BRANCH  11  12
ATOM     12  C   UNL     1      15.010   8.913 -14.869  1.00  0.00    -0.000 C 
BRANCH  12  13
ATOM     13  C   UNL     1      14.384  10.320 -14.984  1.00  0.00    -0.000 C 
BRANCH  13  14
ATOM     14  C   UNL     1      14.648  11.214 -13.761  1.00  0.00    -0.000 C 
BRANCH  14  15
ATOM     15  C   UNL     1      15.456  12.472 -14.104  1.00  0.00    -0.003 C 
ATOM     16  C   UNL     1      15.721  12.563 -15.604  1.00  0.00     0.004 C 
ENDBRANCH  14  15
ENDBRANCH  13  14
ENDBRANCH  12  13
ENDBRANCH  11  12
ENDBRANCH  10  11
ENDBRANCH   1  10
TORSDOF 12
ENDMDL
MODEL 3
REMARK VINA RESULT:    -4.390      2.645      6.522
REMARK INTER + INTRA:          -8.395
REMARK INTER:                  -6.672
REMARK INTRA:                  -1.723
REMARK UNBOUND:                -0.926
REMARK SMILES CCCCCCCCCCCCCC(=O)[O-]
REMARK SMILES IDX 8 1 9 2 10 3 11 4 12 5 13 6 14 7 15 8 16 9 7 10 6 11 5 12
REMARK SMILES IDX 4 13 3 14 2 15 1 16
REMARK H PARENT
REMARK Flexibility Score: inf
ROOT
ATOM      1  C   UNL     1      15.564  12.756 -15.567  1.00  0.00     0.000 C 
ENDROOT
BRANCH   1   2
ATOM      2  C   UNL     1      16.997  12.781 -16.125  1.00  0.00     0.000 C 
BRANCH   2   3
ATOM      3  C   UNL     1      18.062  12.835 -15.019  1.00  0.00     0.000 C 
BRANCH   3   4
ATOM      4  C   UNL     1      19.323  13.563 -15.509  1.00  0.00     0.000 C 
BRANCH   4   5
ATOM      5  C   UNL     1      20.410  13.673 -14.424  1.00  0.00     0.006 C 
BRANCH   5   6
ATOM      6  C   UNL     1      20.680  12.368 -13.660  1.00  0.00     0.053 C 
BRANCH   6   7
ATOM      7  C   UNL     1      21.505  11.408 -14.462  1.00  0.00     0.041 C 
ATOM      8  O   UNL     1      22.759  11.399 -14.344  1.00  0.00    -0.550 OA
ATOM      9  O   UNL     1      20.892  10.547 -15.362  1.00  0.00    -0.550 OA
ENDBRANCH   6   7
ENDBRANCH   5   6
ENDBRANCH   4   5
ENDBRANCH   3   4
ENDBRANCH   2   3
ENDBRANCH   1   2
BRANCH   1  10
ATOM     10  C   UNL     1      15.522  12.457 -14.059  1.00  0.00     0.000 C 
BRANCH  10  11
ATOM     11  C   UNL     1      14.479  11.387 -13.699  1.00  0.00    -0.000 C 
BRANCH  11  12
ATOM     12  C   UNL     1      14.268  10.357 -14.823  1.00  0.00    -0.000 C 
BRANCH  12  13
ATOM     13  C   UNL     1      15.169   9.115 -14.651  1.00  0.00    -0.000 C 
BRANCH  13  14
ATOM     14  C   UNL     1      16.105   8.861 -15.845  1.00  0.00    -0.000 C 
BRANCH  14  15
ATOM     15  C   UNL     1      17.587   9.041 -15.491  1.00  0.00    -0.003 C 
ATOM     16  C   UNL     1      17.756   9.471 -14.036  1.00  0.00     0.004 C 
ENDBRANCH  14  15
ENDBRANCH  13  14
ENDBRANCH  12  13
ENDBRANCH  11  12
ENDBRANCH  10  11
ENDBRANCH   1  10
TORSDOF 12
ENDMDL
MODEL 4
REMARK VINA RESULT:    -4.342      2.048      3.105
REMARK INTER + INTRA:          -8.314
REMARK INTER:                  -6.684
REMARK INTRA:                  -1.630
REMARK UNBOUND:                -0.926
REMARK SMILES CCCCCCCCCCCCCC(=O)[O-]
REMARK SMILES IDX 8 1 9 2 10 3 11 4 12 5 13 6 14 7 15 8 16 9 7 10 6 11 5 12
REMARK SMILES IDX 4 13 3 14 2 15 1 16
REMARK H PARENT
REMARK Flexibility Score: inf
ROOT
ATOM      1  C   UNL     1      18.530  10.215 -13.706  1.00  0.00     0.000 C 
ENDROOT
BRANCH   1   2
ATOM      2  C   UNL     1      18.497   9.597 -15.114  1.00  0.00     0.000 C 
BRANCH   2   3
ATOM      3  C   UNL     1      17.106   9.074 -15.500  1.00  0.00     0.000 C 
BRANCH   3   4
ATOM      4  C   UNL     1      16.174   9.043 -14.279  1.00  0.00     0.000 C 
BRANCH   4   5
ATOM      5  C   UNL     1      14.893   9.871 -14.484  1.00  0.00     0.006 C 
BRANCH   5   6
ATOM      6  C   UNL     1      14.994  10.937 -15.586  1.00  0.00     0.053 C 
BRANCH   6   7
ATOM      7  C   UNL     1      15.357  12.282 -15.035  1.00  0.00     0.041 C 
ATOM      8  O   UNL     1      15.719  13.207 -15.808  1.00  0.00    -0.550 OA
ATOM      9  O   UNL     1      15.328  12.504 -13.664  1.00  0.00    -0.550 OA
ENDBRANCH   6   7
ENDBRANCH   5   6
ENDBRANCH   4   5
ENDBRANCH   3   4
ENDBRANCH   2   3
ENDBRANCH   1   2
BRANCH   1  10
ATOM     10  C   UNL     1      18.783  11.732 -13.732  1.00  0.00     0.000 C 
BRANCH  10  11
ATOM     11  C   UNL     1      19.072  12.257 -15.147  1.00  0.00    -0.000 C 
BRANCH  11  12
ATOM     12  C   UNL     1      19.543  13.723 -15.154  1.00  0.00    -0.000 C 
BRANCH  12  13
ATOM     13  C   UNL     1      21.078  13.840 -15.272  1.00  0.00    -0.000 C 
BRANCH  13  14
ATOM     14  C   UNL     1      21.765  14.273 -13.966  1.00  0.00    -0.000 C 
BRANCH  14  15
ATOM     15  C   UNL     1      22.212  13.085 -13.103  1.00  0.00    -0.003 C 
ATOM     16  C   UNL     1      22.552  11.875 -13.969  1.00  0.00     0.004 C 
ENDBRANCH  14  15
ENDBRANCH  13  14
ENDBRANCH  12  13
ENDBRANCH  11  12
ENDBRANCH  10  11
ENDBRANCH   1  10
TORSDOF 12
ENDMDL
MODEL 5
REMARK VINA RESULT:    -4.330      4.332      8.289
REMARK INTER + INTRA:          -8.294
REMARK INTER:                  -7.686
REMARK INTRA:                  -0.608
REMARK UNBOUND:                -0.926
REMARK SMILES CCCCCCCCCCCCCC(=O)[O-]
REMARK SMILES IDX 8 1 9 2 10 3 11 4 12 5 13 6 14 7 15 8 16 9 7 10 6 11 5 12
REMARK SMILES IDX 4 13 3 14 2 15 1 16
REMARK H PARENT
REMARK Flexibility Score: inf
ROOT
ATOM      1  C   UNL     1      19.915  12.901 -14.177  1.00  0.00     0.000 C 
ENDROOT
BRANCH   1   2
ATOM      2  C   UNL     1      21.253  13.154 -13.463  1.00  0.00     0.000 C 
BRANCH   2   3
ATOM      3  C   UNL     1      22.014  14.359 -14.038  1.00  0.00     0.000 C 
BRANCH   3   4
ATOM      4  C   UNL     1      21.213  15.023 -15.168  1.00  0.00     0.000 C 
BRANCH   4   5
ATOM      5  C   UNL     1      21.969  16.190 -15.830  1.00  0.00     0.006 C 
BRANCH   5   6
ATOM      6  C   UNL     1      21.281  17.557 -15.685  1.00  0.00     0.053 C 
BRANCH   6   7
ATOM      7  C   UNL     1      22.043  18.476 -14.781  1.00  0.00     0.041 C 
ATOM      8  O   UNL     1      22.720  18.009 -13.828  1.00  0.00    -0.550 OA
ATOM      9  O   UNL     1      21.980  19.851 -14.971  1.00  0.00    -0.550 OA
ENDBRANCH   6   7
ENDBRANCH   5   6
ENDBRANCH   4   5
ENDBRANCH   3   4
ENDBRANCH   2   3
ENDBRANCH   1   2
BRANCH   1  10
ATOM     10  C   UNL     1      18.999  11.944 -13.395  1.00  0.00     0.000 C 
BRANCH  10  11
ATOM     11  C   UNL     1      17.971  11.244 -14.297  1.00  0.00    -0.000 C 
BRANCH  11  12
ATOM     12  C   UNL     1      16.802  12.163 -14.694  1.00  0.00    -0.000 C 
BRANCH  12  13
ATOM     13  C   UNL     1      15.746  12.279 -13.573  1.00  0.00    -0.000 C 
BRANCH  13  14
ATOM     14  C   UNL     1      14.486  11.433 -13.823  1.00  0.00    -0.000 C 
BRANCH  14  15
ATOM     15  C   UNL     1      14.634  10.479 -15.016  1.00  0.00    -0.003 C 
ATOM     16  C   UNL     1      14.921   9.055 -14.548  1.00  0.00     0.004 C 
ENDBRANCH  14  15
ENDBRANCH  13  14
ENDBRANCH  12  13
ENDBRANCH  11  12
ENDBRANCH  10  11
ENDBRANCH   1  10
TORSDOF 12
ENDMDL
MODEL 6
REMARK VINA RESULT:    -4.308      1.750      2.579
REMARK INTER + INTRA:          -8.256
REMARK INTER:                  -7.376
REMARK INTRA:                  -0.880
REMARK UNBOUND:                -0.926
REMARK SMILES CCCCCCCCCCCCCC(=O)[O-]
REMARK SMILES IDX 8 1 9 2 10 3 11 4 12 5 13 6 14 7 15 8 16 9 7 10 6 11 5 12
REMARK SMILES IDX 4 13 3 14 2 15 1 16
REMARK H PARENT
REMARK Flexibility Score: inf
ROOT
ATOM      1  C   UNL     1      18.926  12.550 -14.598  1.00  0.00     0.000 C 
ENDROOT
BRANCH   1   2
ATOM      2  C   UNL     1      18.839  11.644 -13.358  1.00  0.00     0.000 C 
BRANCH   2   3
ATOM      3  C   UNL     1      18.444  10.201 -13.704  1.00  0.00     0.000 C 
BRANCH   3   4
ATOM      4  C   UNL     1      17.770  10.134 -15.084  1.00  0.00     0.000 C 
BRANCH   4   5
ATOM      5  C   UNL     1      16.404   9.425 -15.047  1.00  0.00     0.006 C 
BRANCH   5   6
ATOM      6  C   UNL     1      15.331  10.154 -14.224  1.00  0.00     0.053 C 
BRANCH   6   7
ATOM      7  C   UNL     1      15.228  11.602 -14.593  1.00  0.00     0.041 C 
ATOM      8  O   UNL     1      15.013  11.939 -15.787  1.00  0.00    -0.550 OA
ATOM      9  O   UNL     1      15.403  12.582 -13.623  1.00  0.00    -0.550 OA
ENDBRANCH   6   7
ENDBRANCH   5   6
ENDBRANCH   4   5
ENDBRANCH   3   4
ENDBRANCH   2   3
ENDBRANCH   1   2
BRANCH   1  10
ATOM     10  C   UNL     1      20.114  13.525 -14.536  1.00  0.00     0.000 C 
BRANCH  10  11
ATOM     11  C   UNL     1      21.142  13.135 -13.461  1.00  0.00    -0.000 C 
BRANCH  11  12
ATOM     12  C   UNL     1      22.355  14.082 -13.424  1.00  0.00    -0.000 C 
BRANCH  12  13
ATOM     13  C   UNL     1      22.303  15.138 -14.549  1.00  0.00    -0.000 C 
BRANCH  13  14
ATOM     14  C   UNL     1      22.925  16.489 -14.156  1.00  0.00    -0.000 C 
BRANCH  14  15
ATOM     15  C   UNL     1      22.652  17.594 -15.185  1.00  0.00    -0.003 C 
ATOM     16  C   UNL     1      21.935  18.779 -14.542  1.00  0.00     0.004 C 
ENDBRANCH  14  15
ENDBRANCH  13  14
ENDBRANCH  12  13
ENDBRANCH  11  12
ENDBRANCH  10  11
ENDBRANCH   1  10
TORSDOF 12
ENDMDL
MODEL 7
REMARK VINA RESULT:    -4.304      3.453      7.534
REMARK INTER + INTRA:          -8.250
REMARK INTER:                  -7.052
REMARK INTRA:                  -1.197
REMARK UNBOUND:                -0.926
REMARK SMILES CCCCCCCCCCCCCC(=O)[O-]
REMARK SMILES IDX 8 1 9 2 10 3 11 4 12 5 13 6 14 7 15 8 16 9 7 10 6 11 5 12
REMARK SMILES IDX 4 13 3 14 2 15 1 16
REMARK H PARENT
REMARK Flexibility Score: inf
ROOT
ATOM      1  C   UNL     1      18.125  11.999 -13.814  1.00  0.00     0.000 C 
ENDROOT
BRANCH   1   2
ATOM      2  C   UNL     1      19.292  11.001 -13.879  1.00  0.00     0.000 C 
BRANCH   2   3
ATOM      3  C   UNL     1      20.633  11.676 -14.206  1.00  0.00     0.000 C 
BRANCH   3   4
ATOM      4  C   UNL     1      20.784  12.995 -13.433  1.00  0.00     0.000 C 
BRANCH   4   5
ATOM      5  C   UNL     1      22.239  13.279 -13.017  1.00  0.00     0.006 C 
BRANCH   5   6
ATOM      6  C   UNL     1      22.753  14.672 -13.411  1.00  0.00     0.053 C 
BRANCH   6   7
ATOM      7  C   UNL     1      22.497  14.977 -14.856  1.00  0.00     0.041 C 
ATOM      8  O   UNL     1      21.739  15.929 -15.178  1.00  0.00    -0.550 OA
ATOM      9  O   UNL     1      23.070  14.188 -15.846  1.00  0.00    -0.550 OA
ENDBRANCH   6   7
ENDBRANCH   5   6
ENDBRANCH   4   5
ENDBRANCH   3   4
ENDBRANCH   2   3
ENDBRANCH   1   2
BRANCH   1  10
ATOM     10  C   UNL     1      17.627  12.419 -15.208  1.00  0.00     0.000 C 
BRANCH  10  11
ATOM     11  C   UNL     1      16.095  12.502 -15.287  1.00  0.00    -0.000 C 
BRANCH  11  12
ATOM     12  C   UNL     1      15.426  12.521 -13.900  1.00  0.00    -0.000 C 
BRANCH  12  13
ATOM     13  C   UNL     1      14.489  11.312 -13.690  1.00  0.00    -0.000 C 
BRANCH  13  14
ATOM     14  C   UNL     1      14.436  10.356 -14.894  1.00  0.00    -0.000 C 
BRANCH  14  15
ATOM     15  C   UNL     1      14.957   8.951 -14.564  1.00  0.00    -0.003 C 
ATOM     16  C   UNL     1      16.443   8.826 -14.889  1.00  0.00     0.004 C 
ENDBRANCH  14  15
ENDBRANCH  13  14
ENDBRANCH  12  13
ENDBRANCH  11  12
ENDBRANCH  10  11
ENDBRANCH   1  10
TORSDOF 12
ENDMDL
MODEL 8
REMARK VINA RESULT:    -4.261      1.542      2.634
REMARK INTER + INTRA:          -8.175
REMARK INTER:                  -7.245
REMARK INTRA:                  -0.931
REMARK UNBOUND:                -0.926
REMARK SMILES CCCCCCCCCCCCCC(=O)[O-]
REMARK SMILES IDX 8 1 9 2 10 3 11 4 12 5 13 6 14 7 15 8 16 9 7 10 6 11 5 12
REMARK SMILES IDX 4 13 3 14 2 15 1 16
REMARK H PARENT
REMARK Flexibility Score: inf
ROOT
ATOM      1  C   UNL     1      15.829  12.776 -15.305  1.00  0.00     0.000 C 
ENDROOT
BRANCH   1   2
ATOM      2  C   UNL     1      15.490  12.355 -13.865  1.00  0.00     0.000 C 
BRANCH   2   3
ATOM      3  C   UNL     1      14.381  11.294 -13.803  1.00  0.00     0.000 C 
BRANCH   3   4
ATOM      4  C   UNL     1      14.097  10.717 -15.198  1.00  0.00     0.000 C 
BRANCH   4   5
ATOM      5  C   UNL     1      14.405   9.211 -15.296  1.00  0.00     0.006 C 
BRANCH   5   6
ATOM      6  C   UNL     1      15.416   8.700 -14.257  1.00  0.00     0.053 C 
BRANCH   6   7
ATOM      7  C   UNL     1      16.831   8.897 -14.707  1.00  0.00     0.041 C 
ATOM      8  O   UNL     1      17.148   8.697 -15.909  1.00  0.00    -0.550 OA
ATOM      9  O   UNL     1      17.807   9.271 -13.792  1.00  0.00    -0.550 OA
ENDBRANCH   6   7
ENDBRANCH   5   6
ENDBRANCH   4   5
ENDBRANCH   3   4
ENDBRANCH   2   3
ENDBRANCH   1   2
BRANCH   1  10
ATOM     10  C   UNL     1      17.329  12.648 -15.621  1.00  0.00     0.000 C 
BRANCH  10  11
ATOM     11  C   UNL     1      18.176  12.385 -14.366  1.00  0.00    -0.000 C 
BRANCH  11  12
ATOM     12  C   UNL     1      19.674  12.226 -14.679  1.00  0.00    -0.000 C 
BRANCH  12  13
ATOM     13  C   UNL     1      20.567  12.745 -13.532  1.00  0.00    -0.000 C 
BRANCH  13  14
ATOM     14  C   UNL     1      21.492  13.903 -13.945  1.00  0.00    -0.000 C 
BRANCH  14  15
ATOM     15  C   UNL     1      22.958  13.662 -13.563  1.00  0.00    -0.003 C 
ATOM     16  C   UNL     1      23.105  13.446 -12.059  1.00  0.00     0.004 C 
ENDBRANCH  14  15
ENDBRANCH  13  14
ENDBRANCH  12  13
ENDBRANCH  11  12
ENDBRANCH  10  11
ENDBRANCH   1  10
TORSDOF 12
ENDMDL
