MODEL 1
REMARK VINA RESULT:    -6.213      0.000      0.000
REMARK INTER + INTRA:          -7.750
REMARK INTER:                  -7.484
REMARK INTRA:                  -0.266
REMARK UNBOUND:                -0.266
REMARK SMILES O=c1c(O)c(-c2ccc(O)c(O)c2)oc2cc(O)cc(O)c12
REMARK SMILES IDX 5 1 3 2 2 3 1 4 22 5 20 6 19 7 17 8 16 9 15 10 14 11 6 12
REMARK SMILES IDX 7 13 8 14 9 15 13 16 11 17 10 18 12 20 4 22 21 24 18 26
REMARK H PARENT 10 19 12 21 4 23 21 25 18 27
REMARK Flexibility Score: inf
ROOT
ATOM      1  C   UNL     1      39.644  20.709  -5.997  1.00  0.00     0.180 A 
ATOM      2  C   UNL     1      40.297  19.476  -6.174  1.00  0.00     0.208 A 
ATOM      3  C   UNL     1      41.112  18.984  -5.142  1.00  0.00     0.238 A 
ATOM      4  O   UNL     1      41.651  17.856  -5.284  1.00  0.00    -0.285 OA
ATOM      5  C   UNL     1      41.277  19.735  -3.953  1.00  0.00     0.111 A 
ATOM      6  C   UNL     1      42.109  19.351  -2.860  1.00  0.00     0.134 A 
ATOM      7  C   UNL     1      42.093  20.107  -1.681  1.00  0.00     0.093 A 
ATOM      8  C   UNL     1      41.325  21.270  -1.581  1.00  0.00     0.123 A 
ATOM      9  C   UNL     1      40.555  21.685  -2.664  1.00  0.00     0.094 A 
ATOM     10  C   UNL     1      40.522  20.932  -3.840  1.00  0.00     0.146 A 
ATOM     11  O   UNL     1      39.765  21.358  -4.845  1.00  0.00    -0.452 OA
ENDROOT
BRANCH   1  12
ATOM     12  C   UNL     1      38.789  21.305  -7.048  1.00  0.00     0.025 A 
ATOM     13  C   UNL     1      39.385  21.884  -8.179  1.00  0.00     0.016 A 
ATOM     14  C   UNL     1      38.596  22.434  -9.192  1.00  0.00     0.051 A 
ATOM     15  C   UNL     1      37.202  22.400  -9.100  1.00  0.00     0.157 A 
ATOM     16  C   UNL     1      37.385  21.254  -6.966  1.00  0.00     0.062 A 
ATOM     17  C   UNL     1      36.592  21.805  -7.984  1.00  0.00     0.158 A 
BRANCH  15  18
ATOM     18  O   UNL     1      36.440  22.960 -10.125  1.00  0.00    -0.504 OA
ATOM     19  H   UNL     1      35.448  23.135 -10.025  1.00  0.00     0.293 HD
ENDBRANCH  15  18
BRANCH  17  20
ATOM     20  O   UNL     1      35.201  21.755  -7.891  1.00  0.00    -0.504 OA
ATOM     21  H   UNL     1      34.735  21.163  -7.213  1.00  0.00     0.293 HD
ENDBRANCH  17  20
ENDBRANCH   1  12
BRANCH   2  22
ATOM     22  O   UNL     1      40.105  18.741  -7.346  1.00  0.00    -0.502 OA
ATOM     23  H   UNL     1      39.547  17.896  -7.372  1.00  0.00     0.293 HD
ENDBRANCH   2  22
BRANCH   6  24
ATOM     24  O   UNL     1      42.984  18.261  -2.890  1.00  0.00    -0.507 OA
ATOM     25  H   UNL     1      43.980  18.329  -3.039  1.00  0.00     0.293 HD
ENDBRANCH   6  24
BRANCH   8  26
ATOM     26  O   UNL     1      41.328  22.025  -0.409  1.00  0.00    -0.508 OA
ATOM     27  H   UNL     1      40.798  21.739   0.405  1.00  0.00     0.293 HD
ENDBRANCH   8  26
TORSDOF 6
ENDMDL
MODEL 2
REMARK VINA RESULT:    -5.743      2.710      5.552
REMARK INTER + INTRA:          -7.184
REMARK INTER:                  -6.871
REMARK INTRA:                  -0.313
REMARK UNBOUND:                -0.266
REMARK SMILES O=c1c(O)c(-c2ccc(O)c(O)c2)oc2cc(O)cc(O)c12
REMARK SMILES IDX 5 1 3 2 2 3 1 4 22 5 20 6 19 7 17 8 16 9 15 10 14 11 6 12
REMARK SMILES IDX 7 13 8 14 9 15 13 16 11 17 10 18 12 20 4 22 21 24 18 26
REMARK H PARENT 10 19 12 21 4 23 21 25 18 27
REMARK Flexibility Score: inf
ROOT
ATOM      1  C   UNL     1      41.364  18.415  -5.216  1.00  0.00     0.180 A 
ATOM      2  C   UNL     1      42.066  18.564  -4.007  1.00  0.00     0.208 A 
ATOM      3  C   UNL     1      41.688  19.587  -3.123  1.00  0.00     0.238 A 
ATOM      4  O   UNL     1      42.285  19.682  -2.019  1.00  0.00    -0.285 OA
ATOM      5  C   UNL     1      40.624  20.458  -3.463  1.00  0.00     0.111 A 
ATOM      6  C   UNL     1      40.183  21.552  -2.660  1.00  0.00     0.134 A 
ATOM      7  C   UNL     1      39.038  22.265  -3.034  1.00  0.00     0.093 A 
ATOM      8  C   UNL     1      38.356  21.965  -4.216  1.00  0.00     0.123 A 
ATOM      9  C   UNL     1      38.813  20.937  -5.036  1.00  0.00     0.094 A 
ATOM     10  C   UNL     1      39.932  20.184  -4.671  1.00  0.00     0.146 A 
ATOM     11  O   UNL     1      40.328  19.205  -5.477  1.00  0.00    -0.452 OA
ENDROOT
BRANCH   1  12
ATOM     12  C   UNL     1      41.718  17.378  -6.211  1.00  0.00     0.025 A 
ATOM     13  C   UNL     1      42.758  17.620  -7.122  1.00  0.00     0.016 A 
ATOM     14  C   UNL     1      43.122  16.646  -8.055  1.00  0.00     0.051 A 
ATOM     15  C   UNL     1      42.466  15.412  -8.082  1.00  0.00     0.157 A 
ATOM     16  C   UNL     1      41.072  16.128  -6.226  1.00  0.00     0.062 A 
ATOM     17  C   UNL     1      41.438  15.148  -7.162  1.00  0.00     0.158 A 
BRANCH  15  18
ATOM     18  O   UNL     1      42.849  14.460  -9.027  1.00  0.00    -0.504 OA
ATOM     19  H   UNL     1      42.183  13.834  -9.461  1.00  0.00     0.293 HD
ENDBRANCH  15  18
BRANCH  17  20
ATOM     20  O   UNL     1      40.788  13.915  -7.174  1.00  0.00    -0.504 OA
ATOM     21  H   UNL     1      41.298  13.044  -7.078  1.00  0.00     0.293 HD
ENDBRANCH  17  20
ENDBRANCH   1  12
BRANCH   2  22
ATOM     22  O   UNL     1      43.098  17.682  -3.681  1.00  0.00    -0.502 OA
ATOM     23  H   UNL     1      44.075  17.924  -3.789  1.00  0.00     0.293 HD
ENDBRANCH   2  22
BRANCH   6  24
ATOM     24  O   UNL     1      40.846  21.994  -1.511  1.00  0.00    -0.507 OA
ATOM     25  H   UNL     1      40.964  21.448  -0.671  1.00  0.00     0.293 HD
ENDBRANCH   6  24
BRANCH   8  26
ATOM     26  O   UNL     1      37.225  22.690  -4.588  1.00  0.00    -0.508 OA
ATOM     27  H   UNL     1      36.794  23.357  -3.960  1.00  0.00     0.293 HD
ENDBRANCH   8  26
TORSDOF 6
ENDMDL
MODEL 3
REMARK VINA RESULT:    -5.598      2.314      7.573
REMARK INTER + INTRA:          -7.009
REMARK INTER:                  -7.207
REMARK INTRA:                   0.198
REMARK UNBOUND:                -0.266
REMARK SMILES O=c1c(O)c(-c2ccc(O)c(O)c2)oc2cc(O)cc(O)c12
REMARK SMILES IDX 5 1 3 2 2 3 1 4 22 5 20 6 19 7 17 8 16 9 15 10 14 11 6 12
REMARK SMILES IDX 7 13 8 14 9 15 13 16 11 17 10 18 12 20 4 22 21 24 18 26
REMARK H PARENT 10 19 12 21 4 23 21 25 18 27
REMARK Flexibility Score: inf
ROOT
ATOM      1  C   UNL     1      41.286  20.567  -1.520  1.00  0.00     0.180 A 
ATOM      2  C   UNL     1      41.971  19.603  -2.280  1.00  0.00     0.208 A 
ATOM      3  C   UNL     1      41.499  19.288  -3.564  1.00  0.00     0.238 A 
ATOM      4  O   UNL     1      42.148  18.465  -4.260  1.00  0.00    -0.285 OA
ATOM      5  C   UNL     1      40.340  19.928  -4.067  1.00  0.00     0.111 A 
ATOM      6  C   UNL     1      39.752  19.657  -5.338  1.00  0.00     0.134 A 
ATOM      7  C   UNL     1      38.683  20.443  -5.785  1.00  0.00     0.093 A 
ATOM      8  C   UNL     1      38.139  21.446  -4.979  1.00  0.00     0.123 A 
ATOM      9  C   UNL     1      38.670  21.679  -3.713  1.00  0.00     0.094 A 
ATOM     10  C   UNL     1      39.759  20.936  -3.254  1.00  0.00     0.146 A 
ATOM     11  O   UNL     1      40.241  21.197  -2.044  1.00  0.00    -0.452 OA
ENDROOT
BRANCH   1  12
ATOM     12  C   UNL     1      41.707  20.934  -0.148  1.00  0.00     0.025 A 
ATOM     13  C   UNL     1      42.200  19.942   0.713  1.00  0.00     0.016 A 
ATOM     14  C   UNL     1      42.622  20.271   2.003  1.00  0.00     0.051 A 
ATOM     15  C   UNL     1      42.573  21.596   2.447  1.00  0.00     0.157 A 
ATOM     16  C   UNL     1      41.676  22.270   0.293  1.00  0.00     0.062 A 
ATOM     17  C   UNL     1      42.102  22.602   1.588  1.00  0.00     0.158 A 
BRANCH  15  18
ATOM     18  O   UNL     1      42.998  21.894   3.741  1.00  0.00    -0.504 OA
ATOM     19  H   UNL     1      43.621  22.668   3.939  1.00  0.00     0.293 HD
ENDBRANCH  15  18
BRANCH  17  20
ATOM     20  O   UNL     1      42.062  23.928   2.019  1.00  0.00    -0.504 OA
ATOM     21  H   UNL     1      42.546  24.228   2.857  1.00  0.00     0.293 HD
ENDBRANCH  17  20
ENDBRANCH   1  12
BRANCH   2  22
ATOM     22  O   UNL     1      43.125  18.999  -1.774  1.00  0.00    -0.502 OA
ATOM     23  H   UNL     1      43.683  19.421  -1.041  1.00  0.00     0.293 HD
ENDBRANCH   2  22
BRANCH   6  24
ATOM     24  O   UNL     1      40.157  18.618  -6.181  1.00  0.00    -0.507 OA
ATOM     25  H   UNL     1      41.117  18.391  -6.393  1.00  0.00     0.293 HD
ENDBRANCH   6  24
BRANCH   8  26
ATOM     26  O   UNL     1      37.065  22.213  -5.427  1.00  0.00    -0.508 OA
ATOM     27  H   UNL     1      36.399  22.619  -4.780  1.00  0.00     0.293 HD
ENDBRANCH   8  26
TORSDOF 6
ENDMDL
MODEL 4
REMARK VINA RESULT:    -5.572      7.258     12.752
REMARK INTER + INTRA:          -6.977
REMARK INTER:                  -6.933
REMARK INTRA:                  -0.044
REMARK UNBOUND:                -0.266
REMARK SMILES O=c1c(O)c(-c2ccc(O)c(O)c2)oc2cc(O)cc(O)c12
REMARK SMILES IDX 5 1 3 2 2 3 1 4 22 5 20 6 19 7 17 8 16 9 15 10 14 11 6 12
REMARK SMILES IDX 7 13 8 14 9 15 13 16 11 17 10 18 12 20 4 22 21 24 18 26
REMARK H PARENT 10 19 12 21 4 23 21 25 18 27
REMARK Flexibility Score: inf
ROOT
ATOM      1  C   UNL     1      42.193  20.255   5.429  1.00  0.00     0.180 A 
ATOM      2  C   UNL     1      42.300  21.639   5.654  1.00  0.00     0.208 A 
ATOM      3  C   UNL     1      42.357  22.504   4.549  1.00  0.00     0.238 A 
ATOM      4  O   UNL     1      42.397  23.744   4.756  1.00  0.00    -0.285 OA
ATOM      5  C   UNL     1      42.323  21.976   3.236  1.00  0.00     0.111 A 
ATOM      6  C   UNL     1      42.414  22.757   2.046  1.00  0.00     0.134 A 
ATOM      7  C   UNL     1      42.239  22.141   0.801  1.00  0.00     0.093 A 
ATOM      8  C   UNL     1      42.040  20.762   0.701  1.00  0.00     0.123 A 
ATOM      9  C   UNL     1      42.008  19.983   1.854  1.00  0.00     0.094 A 
ATOM     10  C   UNL     1      42.144  20.573   3.112  1.00  0.00     0.146 A 
ATOM     11  O   UNL     1      42.097  19.794   4.187  1.00  0.00    -0.452 OA
ENDROOT
BRANCH   1  12
ATOM     12  C   UNL     1      42.153  19.277   6.541  1.00  0.00     0.025 A 
ATOM     13  C   UNL     1      43.120  18.262   6.605  1.00  0.00     0.016 A 
ATOM     14  C   UNL     1      43.112  17.342   7.656  1.00  0.00     0.051 A 
ATOM     15  C   UNL     1      42.150  17.431   8.666  1.00  0.00     0.157 A 
ATOM     16  C   UNL     1      41.198  19.378   7.569  1.00  0.00     0.062 A 
ATOM     17  C   UNL     1      41.190  18.455   8.626  1.00  0.00     0.158 A 
BRANCH  15  18
ATOM     18  O   UNL     1      42.165  16.497   9.702  1.00  0.00    -0.504 OA
ATOM     19  H   UNL     1      42.917  16.455  10.378  1.00  0.00     0.293 HD
ENDBRANCH  15  18
BRANCH  17  20
ATOM     20  O   UNL     1      40.235  18.559   9.638  1.00  0.00    -0.504 OA
ATOM     21  H   UNL     1      39.608  17.794   9.857  1.00  0.00     0.293 HD
ENDBRANCH  17  20
ENDBRANCH   1  12
BRANCH   2  22
ATOM     22  O   UNL     1      42.310  22.141   6.957  1.00  0.00    -0.502 OA
ATOM     23  H   UNL     1      41.743  21.745   7.697  1.00  0.00     0.293 HD
ENDBRANCH   2  22
BRANCH   6  24
ATOM     24  O   UNL     1      42.703  24.125   2.029  1.00  0.00    -0.507 OA
ATOM     25  H   UNL     1      42.191  24.826   2.544  1.00  0.00     0.293 HD
ENDBRANCH   6  24
BRANCH   8  26
ATOM     26  O   UNL     1      41.881  20.155  -0.544  1.00  0.00    -0.508 OA
ATOM     27  H   UNL     1      41.383  19.279  -0.646  1.00  0.00     0.293 HD
ENDBRANCH   8  26
TORSDOF 6
ENDMDL
MODEL 5
REMARK VINA RESULT:    -5.535      1.690      3.612
REMARK INTER + INTRA:          -6.933
REMARK INTER:                  -6.653
REMARK INTRA:                  -0.280
REMARK UNBOUND:                -0.266
REMARK SMILES O=c1c(O)c(-c2ccc(O)c(O)c2)oc2cc(O)cc(O)c12
REMARK SMILES IDX 5 1 3 2 2 3 1 4 22 5 20 6 19 7 17 8 16 9 15 10 14 11 6 12
REMARK SMILES IDX 7 13 8 14 9 15 13 16 11 17 10 18 12 20 4 22 21 24 18 26
REMARK H PARENT 10 19 12 21 4 23 21 25 18 27
REMARK Flexibility Score: inf
ROOT
ATOM      1  C   UNL     1      39.567  20.316  -6.670  1.00  0.00     0.180 A 
ATOM      2  C   UNL     1      39.974  20.634  -5.363  1.00  0.00     0.208 A 
ATOM      3  C   UNL     1      40.901  19.800  -4.717  1.00  0.00     0.238 A 
ATOM      4  O   UNL     1      41.302  20.119  -3.568  1.00  0.00    -0.285 OA
ATOM      5  C   UNL     1      41.397  18.651  -5.379  1.00  0.00     0.111 A 
ATOM      6  C   UNL     1      42.309  17.715  -4.805  1.00  0.00     0.134 A 
ATOM      7  C   UNL     1      42.833  16.687  -5.599  1.00  0.00     0.093 A 
ATOM      8  C   UNL     1      42.429  16.523  -6.925  1.00  0.00     0.123 A 
ATOM      9  C   UNL     1      41.496  17.397  -7.477  1.00  0.00     0.094 A 
ATOM     10  C   UNL     1      40.982  18.453  -6.722  1.00  0.00     0.146 A 
ATOM     11  O   UNL     1      40.101  19.270  -7.290  1.00  0.00    -0.452 OA
ENDROOT
BRANCH   1  12
ATOM     12  C   UNL     1      38.576  21.133  -7.408  1.00  0.00     0.025 A 
ATOM     13  C   UNL     1      39.002  21.943  -8.471  1.00  0.00     0.016 A 
ATOM     14  C   UNL     1      38.080  22.705  -9.193  1.00  0.00     0.051 A 
ATOM     15  C   UNL     1      36.719  22.658  -8.875  1.00  0.00     0.157 A 
ATOM     16  C   UNL     1      37.205  21.070  -7.101  1.00  0.00     0.062 A 
ATOM     17  C   UNL     1      36.277  21.834  -7.827  1.00  0.00     0.158 A 
BRANCH  15  18
ATOM     18  O   UNL     1      35.823  23.431  -9.611  1.00  0.00    -0.504 OA
ATOM     19  H   UNL     1      35.327  23.064 -10.413  1.00  0.00     0.293 HD
ENDBRANCH  15  18
BRANCH  17  20
ATOM     20  O   UNL     1      34.920  21.771  -7.512  1.00  0.00    -0.504 OA
ATOM     21  H   UNL     1      34.536  22.263  -6.714  1.00  0.00     0.293 HD
ENDBRANCH  17  20
ENDBRANCH   1  12
BRANCH   2  22
ATOM     22  O   UNL     1      39.488  21.783  -4.735  1.00  0.00    -0.502 OA
ATOM     23  H   UNL     1      39.213  21.796  -3.761  1.00  0.00     0.293 HD
ENDBRANCH   2  22
BRANCH   6  24
ATOM     24  O   UNL     1      42.706  17.733  -3.465  1.00  0.00    -0.507 OA
ATOM     25  H   UNL     1      42.732  16.923  -2.863  1.00  0.00     0.293 HD
ENDBRANCH   6  24
BRANCH   8  26
ATOM     26  O   UNL     1      42.945  15.488  -7.703  1.00  0.00    -0.508 OA
ATOM     27  H   UNL     1      43.666  14.870  -7.350  1.00  0.00     0.293 HD
ENDBRANCH   8  26
TORSDOF 6
ENDMDL
MODEL 6
REMARK VINA RESULT:    -5.475      1.893      6.918
REMARK INTER + INTRA:          -6.860
REMARK INTER:                  -6.686
REMARK INTRA:                  -0.174
REMARK UNBOUND:                -0.266
REMARK SMILES O=c1c(O)c(-c2ccc(O)c(O)c2)oc2cc(O)cc(O)c12
REMARK SMILES IDX 5 1 3 2 2 3 1 4 22 5 20 6 19 7 17 8 16 9 15 10 14 11 6 12
REMARK SMILES IDX 7 13 8 14 9 15 13 16 11 17 10 18 12 20 4 22 21 24 18 26
REMARK H PARENT 10 19 12 21 4 23 21 25 18 27
REMARK Flexibility Score: inf
ROOT
ATOM      1  C   UNL     1      40.890  21.040  -4.346  1.00  0.00     0.180 A 
ATOM      2  C   UNL     1      41.750  21.322  -5.422  1.00  0.00     0.208 A 
ATOM      3  C   UNL     1      41.200  21.516  -6.699  1.00  0.00     0.238 A 
ATOM      4  O   UNL     1      41.969  21.821  -7.647  1.00  0.00    -0.285 OA
ATOM      5  C   UNL     1      39.801  21.410  -6.889  1.00  0.00     0.111 A 
ATOM      6  C   UNL     1      39.140  21.548  -8.146  1.00  0.00     0.134 A 
ATOM      7  C   UNL     1      37.741  21.554  -8.194  1.00  0.00     0.093 A 
ATOM      8  C   UNL     1      36.980  21.361  -7.038  1.00  0.00     0.123 A 
ATOM      9  C   UNL     1      37.616  21.166  -5.816  1.00  0.00     0.094 A 
ATOM     10  C   UNL     1      39.010  21.192  -5.730  1.00  0.00     0.146 A 
ATOM     11  O   UNL     1      39.577  21.013  -4.542  1.00  0.00    -0.452 OA
ENDROOT
BRANCH   1  12
ATOM     12  C   UNL     1      41.396  20.799  -2.975  1.00  0.00     0.025 A 
ATOM     13  C   UNL     1      42.198  19.676  -2.721  1.00  0.00     0.016 A 
ATOM     14  C   UNL     1      42.702  19.441  -1.440  1.00  0.00     0.051 A 
ATOM     15  C   UNL     1      42.427  20.331  -0.397  1.00  0.00     0.157 A 
ATOM     16  C   UNL     1      41.136  21.704  -1.930  1.00  0.00     0.062 A 
ATOM     17  C   UNL     1      41.644  21.471  -0.643  1.00  0.00     0.158 A 
BRANCH  15  18
ATOM     18  O   UNL     1      42.942  20.070   0.872  1.00  0.00    -0.504 OA
ATOM     19  H   UNL     1      43.792  19.537   1.009  1.00  0.00     0.293 HD
ENDBRANCH  15  18
BRANCH  17  20
ATOM     20  O   UNL     1      41.377  22.371   0.389  1.00  0.00    -0.504 OA
ATOM     21  H   UNL     1      41.106  22.055   1.313  1.00  0.00     0.293 HD
ENDBRANCH  17  20
ENDBRANCH   1  12
BRANCH   2  22
ATOM     22  O   UNL     1      43.125  21.443  -5.209  1.00  0.00    -0.502 OA
ATOM     23  H   UNL     1      43.564  21.195  -4.331  1.00  0.00     0.293 HD
ENDBRANCH   2  22
BRANCH   6  24
ATOM     24  O   UNL     1      39.807  21.652  -9.371  1.00  0.00    -0.507 OA
ATOM     25  H   UNL     1      40.762  21.957  -9.480  1.00  0.00     0.293 HD
ENDBRANCH   6  24
BRANCH   8  26
ATOM     26  O   UNL     1      35.587  21.352  -7.098  1.00  0.00    -0.508 OA
ATOM     27  H   UNL     1      35.048  22.203  -6.989  1.00  0.00     0.293 HD
ENDBRANCH   8  26
TORSDOF 6
ENDMDL
MODEL 7
REMARK VINA RESULT:    -5.470      3.492      8.502
REMARK INTER + INTRA:          -6.854
REMARK INTER:                  -7.110
REMARK INTRA:                   0.256
REMARK UNBOUND:                -0.266
REMARK SMILES O=c1c(O)c(-c2ccc(O)c(O)c2)oc2cc(O)cc(O)c12
REMARK SMILES IDX 5 1 3 2 2 3 1 4 22 5 20 6 19 7 17 8 16 9 15 10 14 11 6 12
REMARK SMILES IDX 7 13 8 14 9 15 13 16 11 17 10 18 12 20 4 22 21 24 18 26
REMARK H PARENT 10 19 12 21 4 23 21 25 18 27
REMARK Flexibility Score: inf
ROOT
ATOM      1  C   UNL     1      41.736  21.461  -0.548  1.00  0.00     0.180 A 
ATOM      2  C   UNL     1      41.232  22.551  -1.280  1.00  0.00     0.208 A 
ATOM      3  C   UNL     1      41.056  22.416  -2.666  1.00  0.00     0.238 A 
ATOM      4  O   UNL     1      40.554  23.375  -3.307  1.00  0.00    -0.285 OA
ATOM      5  C   UNL     1      41.401  21.201  -3.306  1.00  0.00     0.111 A 
ATOM      6  C   UNL     1      41.301  20.968  -4.711  1.00  0.00     0.134 A 
ATOM      7  C   UNL     1      41.546  19.685  -5.216  1.00  0.00     0.093 A 
ATOM      8  C   UNL     1      41.950  18.645  -4.377  1.00  0.00     0.123 A 
ATOM      9  C   UNL     1      42.107  18.877  -3.013  1.00  0.00     0.094 A 
ATOM     10  C   UNL     1      41.835  20.137  -2.473  1.00  0.00     0.146 A 
ATOM     11  O   UNL     1      41.987  20.313  -1.166  1.00  0.00    -0.452 OA
ENDROOT
BRANCH   1  12
ATOM     12  C   UNL     1      41.972  21.534   0.912  1.00  0.00     0.025 A 
ATOM     13  C   UNL     1      41.933  20.359   1.679  1.00  0.00     0.016 A 
ATOM     14  C   UNL     1      42.174  20.403   3.054  1.00  0.00     0.051 A 
ATOM     15  C   UNL     1      42.472  21.616   3.682  1.00  0.00     0.157 A 
ATOM     16  C   UNL     1      42.292  22.751   1.542  1.00  0.00     0.062 A 
ATOM     17  C   UNL     1      42.535  22.796   2.923  1.00  0.00     0.158 A 
BRANCH  15  18
ATOM     18  O   UNL     1      42.704  21.630   5.056  1.00  0.00    -0.504 OA
ATOM     19  H   UNL     1      43.594  21.912   5.450  1.00  0.00     0.293 HD
ENDBRANCH  15  18
BRANCH  17  20
ATOM     20  O   UNL     1      42.845  24.008   3.539  1.00  0.00    -0.504 OA
ATOM     21  H   UNL     1      43.308  24.043   4.440  1.00  0.00     0.293 HD
ENDBRANCH  17  20
ENDBRANCH   1  12
BRANCH   2  22
ATOM     22  O   UNL     1      40.878  23.733  -0.626  1.00  0.00    -0.502 OA
ATOM     23  H   UNL     1      40.471  24.523  -1.112  1.00  0.00     0.293 HD
ENDBRANCH   2  22
BRANCH   6  24
ATOM     24  O   UNL     1      40.996  21.960  -5.647  1.00  0.00    -0.507 OA
ATOM     25  H   UNL     1      40.605  21.786  -6.561  1.00  0.00     0.293 HD
ENDBRANCH   6  24
BRANCH   8  26
ATOM     26  O   UNL     1      42.206  17.375  -4.891  1.00  0.00    -0.508 OA
ATOM     27  H   UNL     1      42.026  16.538  -4.350  1.00  0.00     0.293 HD
ENDBRANCH   8  26
TORSDOF 6
ENDMDL
MODEL 8
REMARK VINA RESULT:    -5.413      2.800      5.220
REMARK INTER + INTRA:          -6.786
REMARK INTER:                  -6.456
REMARK INTRA:                  -0.330
REMARK UNBOUND:                -0.266
REMARK SMILES O=c1c(O)c(-c2ccc(O)c(O)c2)oc2cc(O)cc(O)c12
REMARK SMILES IDX 5 1 3 2 2 3 1 4 22 5 20 6 19 7 17 8 16 9 15 10 14 11 6 12
REMARK SMILES IDX 7 13 8 14 9 15 13 16 11 17 10 18 12 20 4 22 21 24 18 26
REMARK H PARENT 10 19 12 21 4 23 21 25 18 27
REMARK Flexibility Score: inf
ROOT
ATOM      1  C   UNL     1      41.334  18.671  -5.516  1.00  0.00     0.180 A 
ATOM      2  C   UNL     1      40.312  19.586  -5.827  1.00  0.00     0.208 A 
ATOM      3  C   UNL     1      39.993  20.590  -4.898  1.00  0.00     0.238 A 
ATOM      4  O   UNL     1      39.115  21.438  -5.204  1.00  0.00    -0.285 OA
ATOM      5  C   UNL     1      40.686  20.657  -3.665  1.00  0.00     0.111 A 
ATOM      6  C   UNL     1      40.417  21.608  -2.636  1.00  0.00     0.134 A 
ATOM      7  C   UNL     1      41.253  21.664  -1.513  1.00  0.00     0.093 A 
ATOM      8  C   UNL     1      42.307  20.761  -1.354  1.00  0.00     0.123 A 
ATOM      9  C   UNL     1      42.540  19.792  -2.326  1.00  0.00     0.094 A 
ATOM     10  C   UNL     1      41.747  19.734  -3.474  1.00  0.00     0.146 A 
ATOM     11  O   UNL     1      42.011  18.801  -4.381  1.00  0.00    -0.452 OA
ENDROOT
BRANCH   1  12
ATOM     12  C   UNL     1      41.711  17.571  -6.432  1.00  0.00     0.025 A 
ATOM     13  C   UNL     1      42.737  17.772  -7.369  1.00  0.00     0.016 A 
ATOM     14  C   UNL     1      43.123  16.741  -8.229  1.00  0.00     0.051 A 
ATOM     15  C   UNL     1      42.503  15.490  -8.156  1.00  0.00     0.157 A 
ATOM     16  C   UNL     1      41.102  16.306  -6.347  1.00  0.00     0.062 A 
ATOM     17  C   UNL     1      41.490  15.269  -7.208  1.00  0.00     0.158 A 
BRANCH  15  18
ATOM     18  O   UNL     1      42.907  14.481  -9.028  1.00  0.00    -0.504 OA
ATOM     19  H   UNL     1      42.984  14.631 -10.027  1.00  0.00     0.293 HD
ENDBRANCH  15  18
BRANCH  17  20
ATOM     20  O   UNL     1      40.876  14.019  -7.120  1.00  0.00    -0.504 OA
ATOM     21  H   UNL     1      39.936  13.865  -7.462  1.00  0.00     0.293 HD
ENDBRANCH  17  20
ENDBRANCH   1  12
BRANCH   2  22
ATOM     22  O   UNL     1      39.655  19.515  -7.057  1.00  0.00    -0.502 OA
ATOM     23  H   UNL     1      38.994  18.781  -7.279  1.00  0.00     0.293 HD
ENDBRANCH   2  22
BRANCH   6  24
ATOM     24  O   UNL     1      39.335  22.492  -2.652  1.00  0.00    -0.507 OA
ATOM     25  H   UNL     1      38.486  22.351  -3.179  1.00  0.00     0.293 HD
ENDBRANCH   6  24
BRANCH   8  26
ATOM     26  O   UNL     1      43.124  20.815  -0.226  1.00  0.00    -0.508 OA
ATOM     27  H   UNL     1      43.427  19.973   0.248  1.00  0.00     0.293 HD
ENDBRANCH   8  26
TORSDOF 6
ENDMDL
MODEL 9
REMARK VINA RESULT:    -5.375      2.567      6.572
REMARK INTER + INTRA:          -6.740
REMARK INTER:                  -7.065
REMARK INTRA:                   0.325
REMARK UNBOUND:                -0.266
REMARK SMILES O=c1c(O)c(-c2ccc(O)c(O)c2)oc2cc(O)cc(O)c12
REMARK SMILES IDX 5 1 3 2 2 3 1 4 22 5 20 6 19 7 17 8 16 9 15 10 14 11 6 12
REMARK SMILES IDX 7 13 8 14 9 15 13 16 11 17 10 18 12 20 4 22 21 24 18 26
REMARK H PARENT 10 19 12 21 4 23 21 25 18 27
REMARK Flexibility Score: inf
ROOT
ATOM      1  C   UNL     1      40.969  19.630  -5.271  1.00  0.00     0.180 A 
ATOM      2  C   UNL     1      40.438  20.254  -6.414  1.00  0.00     0.208 A 
ATOM      3  C   UNL     1      40.381  19.534  -7.618  1.00  0.00     0.238 A 
ATOM      4  O   UNL     1      39.855  20.079  -8.622  1.00  0.00    -0.285 OA
ATOM      5  C   UNL     1      40.870  18.206  -7.670  1.00  0.00     0.111 A 
ATOM      6  C   UNL     1      40.897  17.398  -8.846  1.00  0.00     0.134 A 
ATOM      7  C   UNL     1      41.282  16.055  -8.751  1.00  0.00     0.093 A 
ATOM      8  C   UNL     1      41.702  15.510  -7.536  1.00  0.00     0.123 A 
ATOM      9  C   UNL     1      41.734  16.307  -6.395  1.00  0.00     0.094 A 
ATOM     10  C   UNL     1      41.322  17.640  -6.450  1.00  0.00     0.146 A 
ATOM     11  O   UNL     1      41.358  18.362  -5.335  1.00  0.00    -0.452 OA
ENDROOT
BRANCH   1  12
ATOM     12  C   UNL     1      41.086  20.332  -3.973  1.00  0.00     0.025 A 
ATOM     13  C   UNL     1      41.237  21.727  -3.951  1.00  0.00     0.016 A 
ATOM     14  C   UNL     1      41.328  22.410  -2.736  1.00  0.00     0.051 A 
ATOM     15  C   UNL     1      41.253  21.714  -1.526  1.00  0.00     0.157 A 
ATOM     16  C   UNL     1      40.991  19.635  -2.754  1.00  0.00     0.062 A 
ATOM     17  C   UNL     1      41.080  20.321  -1.533  1.00  0.00     0.158 A 
BRANCH  15  18
ATOM     18  O   UNL     1      41.350  22.423  -0.329  1.00  0.00    -0.504 OA
ATOM     19  H   UNL     1      40.933  22.087   0.531  1.00  0.00     0.293 HD
ENDBRANCH  15  18
BRANCH  17  20
ATOM     20  O   UNL     1      40.990  19.621  -0.330  1.00  0.00    -0.504 OA
ATOM     21  H   UNL     1      40.811  20.094   0.548  1.00  0.00     0.293 HD
ENDBRANCH  17  20
ENDBRANCH   1  12
BRANCH   2  22
ATOM     22  O   UNL     1      39.941  21.558  -6.336  1.00  0.00    -0.502 OA
ATOM     23  H   UNL     1      38.984  21.790  -6.569  1.00  0.00     0.293 HD
ENDBRANCH   2  22
BRANCH   6  24
ATOM     24  O   UNL     1      40.588  17.870 -10.125  1.00  0.00    -0.507 OA
ATOM     25  H   UNL     1      41.263  18.227 -10.784  1.00  0.00     0.293 HD
ENDBRANCH   6  24
BRANCH   8  26
ATOM     26  O   UNL     1      42.098  14.176  -7.454  1.00  0.00    -0.508 OA
ATOM     27  H   UNL     1      42.801  13.872  -6.791  1.00  0.00     0.293 HD
ENDBRANCH   8  26
TORSDOF 6
ENDMDL
