MODEL 1
REMARK VINA RESULT:    -2.586      0.000      0.000
REMARK INTER + INTRA:          -4.305
REMARK INTER:                  -3.946
REMARK INTRA:                  -0.359
REMARK UNBOUND:                -0.359
REMARK SMILES CC1=CCC[C@@H](C)C(=O)C[C@H](C(C)C)C(=O)C1
REMARK SMILES IDX 8 1 9 2 6 3 7 4 5 5 4 6 3 7 2 8 1 9 10 11 11 12 15 13 16 14
REMARK SMILES IDX 17 15 12 17 13 18 14 19
REMARK H PARENT
REMARK Flexibility Score: 70.00
ROOT
ATOM      1  C   UNL     1      59.120   4.043   6.883  1.00  0.00     0.136 C 
ATOM      2  O   UNL     1      59.542   2.946   7.224  1.00  0.00    -0.299 OA
ENDROOT
BRANCH   1   3
ATOM      3  C   UNL     1      59.329   5.236   7.795  1.00  0.00     0.053 C 
ATOM      4  C   UNL     1      60.824   5.431   8.084  1.00  0.00     0.016 C 
BRANCH   3   5
ATOM      5  C   UNL     1      58.533   5.058   9.109  1.00  0.00     0.015 C 
BRANCH   5   6
ATOM      6  C   UNL     1      57.163   5.761   9.041  1.00  0.00     0.028 C 
BRANCH   6   7
ATOM      7  C   UNL     1      57.214   7.110   8.365  1.00  0.00    -0.028 C 
ATOM      8  C   UNL     1      56.636   7.423   7.178  1.00  0.00    -0.070 CG0
ATOM      9  C   UNL     1      56.892   8.800   6.619  1.00  0.00     0.039 C 
ATOM     10  G   UNL     1      55.711   6.484   6.413  1.00  0.00     0.000 G0
ENDBRANCH   6   7
ENDBRANCH   5   6
ENDBRANCH   3   5
ENDBRANCH   1   3
BRANCH   1  11
ATOM     11  C   UNL     1      58.426   4.176   5.545  1.00  0.00     0.087 C 
BRANCH  11  12
ATOM     12  C   UNL     1      56.882   4.251   5.697  1.00  0.00     0.066 C 
BRANCH  12  13
ATOM     13  C   UNL     1      56.407   5.654   5.345  1.00  0.00     0.140 C 
ATOM     14  O   UNL     1      56.557   6.083   4.208  1.00  0.00    -0.299 OA
BRANCH  13  15
ATOM     15  C   UNL     1      55.706   6.498   6.380  1.00  0.00     0.106 CG0
ATOM     16  G   UNL     1      56.634   7.416   7.166  1.00  0.00     0.000 G0
ENDBRANCH  13  15
ENDBRANCH  12  13
BRANCH  12  17
ATOM     17  C   UNL     1      56.127   3.170   4.855  1.00  0.00    -0.006 C 
ATOM     18  C   UNL     1      56.570   1.736   5.201  1.00  0.00     0.008 C 
ATOM     19  C   UNL     1      54.603   3.276   5.060  1.00  0.00     0.008 C 
ENDBRANCH  12  17
ENDBRANCH  11  12
ENDBRANCH   1  11
TORSDOF 1
ENDMDL
MODEL 2
REMARK VINA RESULT:    -2.520     10.297     12.152
REMARK INTER + INTRA:          -4.204
REMARK INTER:                  -3.906
REMARK INTRA:                  -0.298
REMARK UNBOUND:                -0.359
REMARK SMILES CC1=CCC[C@@H](C)C(=O)C[C@H](C(C)C)C(=O)C1
REMARK SMILES IDX 8 1 9 2 6 3 7 4 5 5 4 6 3 7 2 8 1 9 10 11 11 12 15 13 16 14
REMARK SMILES IDX 17 15 12 17 13 18 14 19
REMARK H PARENT
REMARK Flexibility Score: 70.00
ROOT
ATOM      1  C   UNL     1      62.589  13.742  -1.685  1.00  0.00     0.136 C 
ATOM      2  O   UNL     1      63.496  12.930  -1.552  1.00  0.00    -0.299 OA
ENDROOT
BRANCH   1   3
ATOM      3  C   UNL     1      62.926  15.184  -2.012  1.00  0.00     0.053 C 
ATOM      4  C   UNL     1      63.491  15.289  -3.436  1.00  0.00     0.016 C 
BRANCH   3   5
ATOM      5  C   UNL     1      63.925  15.754  -0.979  1.00  0.00     0.015 C 
BRANCH   5   6
ATOM      6  C   UNL     1      63.378  15.646   0.458  1.00  0.00     0.028 C 
BRANCH   6   7
ATOM      7  C   UNL     1      62.078  16.383   0.662  1.00  0.00    -0.028 C 
ATOM      8  C   UNL     1      60.926  15.842   1.133  1.00  0.00    -0.070 CG0
ATOM      9  C   UNL     1      59.702  16.724   1.165  1.00  0.00     0.039 C 
ATOM     10  G   UNL     1      60.817  14.422   1.674  1.00  0.00     0.000 G0
ENDBRANCH   6   7
ENDBRANCH   5   6
ENDBRANCH   3   5
ENDBRANCH   1   3
BRANCH   1  11
ATOM     11  C   UNL     1      61.159  13.270  -1.541  1.00  0.00     0.087 C 
BRANCH  11  12
ATOM     12  C   UNL     1      60.919  12.544  -0.189  1.00  0.00     0.066 C 
BRANCH  12  13
ATOM     13  C   UNL     1      60.101  13.440   0.729  1.00  0.00     0.140 C 
ATOM     14  O   UNL     1      58.880  13.360   0.733  1.00  0.00    -0.299 OA
BRANCH  13  15
ATOM     15  C   UNL     1      60.795  14.394   1.670  1.00  0.00     0.106 CG0
ATOM     16  G   UNL     1      60.922  15.815   1.133  1.00  0.00     0.000 G0
ENDBRANCH  13  15
ENDBRANCH  12  13
BRANCH  12  17
ATOM     17  C   UNL     1      60.248  11.140  -0.355  1.00  0.00    -0.006 C 
ATOM     18  C   UNL     1      59.755  10.887  -1.792  1.00  0.00     0.008 C 
ATOM     19  C   UNL     1      61.223  10.013   0.035  1.00  0.00     0.008 C 
ENDBRANCH  12  17
ENDBRANCH  11  12
ENDBRANCH   1  11
TORSDOF 1
ENDMDL
MODEL 3
REMARK VINA RESULT:    -2.365      2.279      5.490
REMARK INTER + INTRA:          -3.968
REMARK INTER:                  -3.528
REMARK INTRA:                  -0.441
REMARK UNBOUND:                -0.359
REMARK SMILES CC1=CCC[C@@H](C)C(=O)C[C@H](C(C)C)C(=O)C1
REMARK SMILES IDX 8 1 9 2 6 3 7 4 5 5 4 6 3 7 2 8 1 9 10 11 11 12 15 13 16 14
REMARK SMILES IDX 17 15 12 17 13 18 14 19
REMARK H PARENT
REMARK Flexibility Score: 70.00
ROOT
ATOM      1  C   UNL     1      54.975   5.725   4.998  1.00  0.00     0.136 C 
ATOM      2  O   UNL     1      54.116   6.105   5.783  1.00  0.00    -0.299 OA
ENDROOT
BRANCH   1   3
ATOM      3  C   UNL     1      54.586   4.795   3.865  1.00  0.00     0.053 C 
ATOM      4  C   UNL     1      53.553   5.470   2.952  1.00  0.00     0.016 C 
BRANCH   3   5
ATOM      5  C   UNL     1      54.039   3.461   4.423  1.00  0.00     0.015 C 
BRANCH   5   6
ATOM      6  C   UNL     1      55.177   2.535   4.895  1.00  0.00     0.028 C 
BRANCH   6   7
ATOM      7  C   UNL     1      56.260   2.341   3.862  1.00  0.00    -0.028 C 
ATOM      8  C   UNL     1      57.572   2.649   4.023  1.00  0.00    -0.070 CG0
ATOM      9  C   UNL     1      58.480   2.479   2.831  1.00  0.00     0.039 C 
ATOM     10  G   UNL     1      58.178   3.104   5.345  1.00  0.00     0.000 G0
ENDBRANCH   6   7
ENDBRANCH   5   6
ENDBRANCH   3   5
ENDBRANCH   1   3
BRANCH   1  11
ATOM     11  C   UNL     1      56.394   6.219   5.171  1.00  0.00     0.087 C 
BRANCH  11  12
ATOM     12  C   UNL     1      57.185   5.366   6.200  1.00  0.00     0.066 C 
BRANCH  12  13
ATOM     13  C   UNL     1      58.297   4.613   5.485  1.00  0.00     0.140 C 
ATOM     14  O   UNL     1      59.275   5.219   5.066  1.00  0.00    -0.299 OA
BRANCH  13  15
ATOM     15  C   UNL     1      58.221   3.114   5.333  1.00  0.00     0.106 CG0
ATOM     16  G   UNL     1      57.593   2.653   4.023  1.00  0.00     0.000 G0
ENDBRANCH  13  15
ENDBRANCH  12  13
BRANCH  12  17
ATOM     17  C   UNL     1      57.747   6.206   7.394  1.00  0.00    -0.006 C 
ATOM     18  C   UNL     1      56.770   7.303   7.857  1.00  0.00     0.008 C 
ATOM     19  C   UNL     1      58.077   5.303   8.598  1.00  0.00     0.008 C 
ENDBRANCH  12  17
ENDBRANCH  11  12
ENDBRANCH   1  11
TORSDOF 1
ENDMDL
MODEL 4
REMARK VINA RESULT:    -2.330     10.810     12.607
REMARK INTER + INTRA:          -3.914
REMARK INTER:                  -3.723
REMARK INTRA:                  -0.192
REMARK UNBOUND:                -0.359
REMARK SMILES CC1=CCC[C@@H](C)C(=O)C[C@H](C(C)C)C(=O)C1
REMARK SMILES IDX 8 1 9 2 6 3 7 4 5 5 4 6 3 7 2 8 1 9 10 11 11 12 15 13 16 14
REMARK SMILES IDX 17 15 12 17 13 18 14 19
REMARK H PARENT
REMARK Flexibility Score: 70.00
ROOT
ATOM      1  C   UNL     1      61.320  16.880   0.249  1.00  0.00     0.136 C 
ATOM      2  O   UNL     1      62.386  16.905   0.851  1.00  0.00    -0.299 OA
ENDROOT
BRANCH   1   3
ATOM      3  C   UNL     1      60.203  17.812   0.677  1.00  0.00     0.053 C 
ATOM      4  C   UNL     1      60.438  19.221   0.114  1.00  0.00     0.016 C 
BRANCH   3   5
ATOM      5  C   UNL     1      60.089  17.847   2.219  1.00  0.00     0.015 C 
BRANCH   5   6
ATOM      6  C   UNL     1      59.662  16.479   2.787  1.00  0.00     0.028 C 
BRANCH   6   7
ATOM      7  C   UNL     1      58.343  15.989   2.241  1.00  0.00    -0.028 C 
ATOM      8  C   UNL     1      58.167  14.888   1.467  1.00  0.00    -0.070 CG0
ATOM      9  C   UNL     1      56.781  14.625   0.932  1.00  0.00     0.039 C 
ATOM     10  G   UNL     1      59.272  13.887   1.155  1.00  0.00     0.000 G0
ENDBRANCH   6   7
ENDBRANCH   5   6
ENDBRANCH   3   5
ENDBRANCH   1   3
BRANCH   1  11
ATOM     11  C   UNL     1      61.164  15.936  -0.923  1.00  0.00     0.087 C 
BRANCH  11  12
ATOM     12  C   UNL     1      61.243  14.448  -0.484  1.00  0.00     0.066 C 
BRANCH  12  13
ATOM     13  C   UNL     1      59.838  13.921  -0.231  1.00  0.00     0.140 C 
ATOM     14  O   UNL     1      59.164  13.501  -1.163  1.00  0.00    -0.299 OA
BRANCH  13  15
ATOM     15  C   UNL     1      59.291  13.869   1.174  1.00  0.00     0.106 CG0
ATOM     16  G   UNL     1      58.194  14.890   1.453  1.00  0.00     0.000 G0
ENDBRANCH  13  15
ENDBRANCH  12  13
BRANCH  12  17
ATOM     17  C   UNL     1      62.011  13.544  -1.505  1.00  0.00    -0.006 C 
ATOM     18  C   UNL     1      63.124  14.307  -2.247  1.00  0.00     0.008 C 
ATOM     19  C   UNL     1      62.636  12.325  -0.801  1.00  0.00     0.008 C 
ENDBRANCH  12  17
ENDBRANCH  11  12
ENDBRANCH   1  11
TORSDOF 1
ENDMDL
MODEL 5
REMARK VINA RESULT:    -2.325     13.203     14.635
REMARK INTER + INTRA:          -3.907
REMARK INTER:                  -3.522
REMARK INTRA:                  -0.385
REMARK UNBOUND:                -0.359
REMARK SMILES CC1=CCC[C@@H](C)C(=O)C[C@H](C(C)C)C(=O)C1
REMARK SMILES IDX 8 1 9 2 6 3 7 4 5 5 4 6 3 7 2 8 1 9 10 11 11 12 15 13 16 14
REMARK SMILES IDX 17 15 12 17 13 18 14 19
REMARK H PARENT
REMARK Flexibility Score: 70.00
ROOT
ATOM      1  C   UNL     1      59.944  18.573   0.752  1.00  0.00     0.136 C 
ATOM      2  O   UNL     1      60.174  19.106  -0.326  1.00  0.00    -0.299 OA
ENDROOT
BRANCH   1   3
ATOM      3  C   UNL     1      59.216  19.355   1.827  1.00  0.00     0.053 C 
ATOM      4  C   UNL     1      57.747  19.565   1.432  1.00  0.00     0.016 C 
BRANCH   3   5
ATOM      5  C   UNL     1      59.917  20.711   2.079  1.00  0.00     0.015 C 
BRANCH   5   6
ATOM      6  C   UNL     1      61.248  20.528   2.835  1.00  0.00     0.028 C 
BRANCH   6   7
ATOM      7  C   UNL     1      61.110  19.726   4.106  1.00  0.00    -0.028 C 
ATOM      8  C   UNL     1      61.715  18.538   4.362  1.00  0.00    -0.070 CG0
ATOM      9  C   UNL     1      61.366  17.841   5.653  1.00  0.00     0.039 C 
ATOM     10  G   UNL     1      62.756  17.905   3.448  1.00  0.00     0.000 G0
ENDBRANCH   6   7
ENDBRANCH   5   6
ENDBRANCH   3   5
ENDBRANCH   1   3
BRANCH   1  11
ATOM     11  C   UNL     1      60.374  17.138   0.965  1.00  0.00     0.087 C 
BRANCH  11  12
ATOM     12  C   UNL     1      61.914  17.011   1.125  1.00  0.00     0.066 C 
BRANCH  12  13
ATOM     13  C   UNL     1      62.251  16.761   2.588  1.00  0.00     0.140 C 
ATOM     14  O   UNL     1      62.135  15.637   3.059  1.00  0.00    -0.299 OA
BRANCH  13  15
ATOM     15  C   UNL     1      62.774  17.885   3.447  1.00  0.00     0.106 CG0
ATOM     16  G   UNL     1      61.729  18.503   4.367  1.00  0.00     0.000 G0
ENDBRANCH  13  15
ENDBRANCH  12  13
BRANCH  12  17
ATOM     17  C   UNL     1      62.540  15.912   0.204  1.00  0.00    -0.006 C 
ATOM     18  C   UNL     1      61.624  15.536  -0.975  1.00  0.00     0.008 C 
ATOM     19  C   UNL     1      63.899  16.372  -0.358  1.00  0.00     0.008 C 
ENDBRANCH  12  17
ENDBRANCH  11  12
ENDBRANCH   1  11
TORSDOF 1
ENDMDL
MODEL 6
REMARK VINA RESULT:    -2.271     12.679     14.081
REMARK INTER + INTRA:          -3.825
REMARK INTER:                  -3.955
REMARK INTRA:                   0.130
REMARK UNBOUND:                -0.359
REMARK SMILES CC1=CCC[C@@H](C)C(=O)C[C@H](C(C)C)C(=O)C1
REMARK SMILES IDX 8 1 9 2 6 3 7 4 5 5 4 6 3 7 2 8 1 9 10 11 11 12 15 13 16 14
REMARK SMILES IDX 17 15 12 17 13 18 14 19
REMARK H PARENT
REMARK Flexibility Score: 70.00
ROOT
ATOM      1  C   UNL     1      63.574  16.604   2.458  1.00  0.00     0.136 C 
ATOM      2  O   UNL     1      64.144  17.343   3.251  1.00  0.00    -0.299 OA
ENDROOT
BRANCH   1   3
ATOM      3  C   UNL     1      64.397  15.697   1.564  1.00  0.00     0.053 C 
ATOM      4  C   UNL     1      65.380  14.870   2.404  1.00  0.00     0.016 C 
BRANCH   3   5
ATOM      5  C   UNL     1      65.147  16.526   0.496  1.00  0.00     0.015 C 
BRANCH   5   6
ATOM      6  C   UNL     1      64.466  16.424  -0.883  1.00  0.00     0.028 C 
BRANCH   6   7
ATOM      7  C   UNL     1      63.832  15.079  -1.139  1.00  0.00    -0.028 C 
ATOM      8  C   UNL     1      62.499  14.828  -1.190  1.00  0.00    -0.070 CG0
ATOM      9  C   UNL     1      62.064  13.393  -1.354  1.00  0.00     0.039 C 
ATOM     10  G   UNL     1      61.431  15.914  -1.143  1.00  0.00     0.000 G0
ENDBRANCH   6   7
ENDBRANCH   5   6
ENDBRANCH   3   5
ENDBRANCH   1   3
BRANCH   1  11
ATOM     11  C   UNL     1      62.062  16.605   2.417  1.00  0.00     0.087 C 
BRANCH  11  12
ATOM     12  C   UNL     1      61.516  17.261   1.119  1.00  0.00     0.066 C 
BRANCH  12  13
ATOM     13  C   UNL     1      60.867  16.196   0.248  1.00  0.00     0.140 C 
ATOM     14  O   UNL     1      59.882  15.592   0.651  1.00  0.00    -0.299 OA
BRANCH  13  15
ATOM     15  C   UNL     1      61.406  15.916  -1.133  1.00  0.00     0.106 CG0
ATOM     16  G   UNL     1      62.480  14.836  -1.175  1.00  0.00     0.000 G0
ENDBRANCH  13  15
ENDBRANCH  12  13
BRANCH  12  17
ATOM     17  C   UNL     1      60.530  18.445   1.395  1.00  0.00    -0.006 C 
ATOM     18  C   UNL     1      60.046  19.125   0.100  1.00  0.00     0.008 C 
ATOM     19  C   UNL     1      59.300  17.964   2.187  1.00  0.00     0.008 C 
ENDBRANCH  12  17
ENDBRANCH  11  12
ENDBRANCH   1  11
TORSDOF 1
ENDMDL
MODEL 7
REMARK VINA RESULT:    -2.221      4.152      5.928
REMARK INTER + INTRA:          -3.749
REMARK INTER:                  -3.450
REMARK INTRA:                  -0.299
REMARK UNBOUND:                -0.359
REMARK SMILES CC1=CCC[C@@H](C)C(=O)C[C@H](C(C)C)C(=O)C1
REMARK SMILES IDX 8 1 9 2 6 3 7 4 5 5 4 6 3 7 2 8 1 9 10 11 11 12 15 13 16 14
REMARK SMILES IDX 17 15 12 17 13 18 14 19
REMARK H PARENT
REMARK Flexibility Score: 70.00
ROOT
ATOM      1  C   UNL     1      54.149   3.643   4.258  1.00  0.00     0.136 C 
ATOM      2  O   UNL     1      53.682   3.126   5.264  1.00  0.00    -0.299 OA
ENDROOT
BRANCH   1   3
ATOM      3  C   UNL     1      54.766   5.025   4.351  1.00  0.00     0.053 C 
ATOM      4  C   UNL     1      55.849   5.053   5.440  1.00  0.00     0.016 C 
BRANCH   3   5
ATOM      5  C   UNL     1      53.677   6.087   4.631  1.00  0.00     0.015 C 
BRANCH   5   6
ATOM      6  C   UNL     1      53.449   7.000   3.411  1.00  0.00     0.028 C 
BRANCH   6   7
ATOM      7  C   UNL     1      54.651   7.100   2.504  1.00  0.00    -0.028 C 
ATOM      8  C   UNL     1      54.805   6.456   1.319  1.00  0.00    -0.070 CG0
ATOM      9  C   UNL     1      56.128   6.605   0.610  1.00  0.00     0.039 C 
ATOM     10  G   UNL     1      53.704   5.642   0.649  1.00  0.00     0.000 G0
ENDBRANCH   6   7
ENDBRANCH   5   6
ENDBRANCH   3   5
ENDBRANCH   1   3
BRANCH   1  11
ATOM     11  C   UNL     1      54.116   2.872   2.957  1.00  0.00     0.087 C 
BRANCH  11  12
ATOM     12  C   UNL     1      53.082   3.461   1.959  1.00  0.00     0.066 C 
BRANCH  12  13
ATOM     13  C   UNL     1      53.816   4.145   0.814  1.00  0.00     0.140 C 
ATOM     14  O   UNL     1      54.467   3.479   0.020  1.00  0.00    -0.299 OA
BRANCH  13  15
ATOM     15  C   UNL     1      53.703   5.637   0.628  1.00  0.00     0.106 CG0
ATOM     16  G   UNL     1      54.803   6.436   1.317  1.00  0.00     0.000 G0
ENDBRANCH  13  15
ENDBRANCH  12  13
BRANCH  12  17
ATOM     17  C   UNL     1      52.068   2.396   1.424  1.00  0.00    -0.006 C 
ATOM     18  C   UNL     1      51.706   1.339   2.485  1.00  0.00     0.008 C 
ATOM     19  C   UNL     1      50.769   3.066   0.937  1.00  0.00     0.008 C 
ENDBRANCH  12  17
ENDBRANCH  11  12
ENDBRANCH   1  11
TORSDOF 1
ENDMDL
MODEL 8
REMARK VINA RESULT:    -2.169      3.237      6.268
REMARK INTER + INTRA:          -3.669
REMARK INTER:                  -3.654
REMARK INTRA:                  -0.015
REMARK UNBOUND:                -0.359
REMARK SMILES CC1=CCC[C@@H](C)C(=O)C[C@H](C(C)C)C(=O)C1
REMARK SMILES IDX 8 1 9 2 6 3 7 4 5 5 4 6 3 7 2 8 1 9 10 11 11 12 15 13 16 14
REMARK SMILES IDX 17 15 12 17 13 18 14 19
REMARK H PARENT
REMARK Flexibility Score: 70.00
ROOT
ATOM      1  C   UNL     1      54.506   6.508   4.265  1.00  0.00     0.136 C 
ATOM      2  O   UNL     1      54.122   6.797   5.391  1.00  0.00    -0.299 OA
ENDROOT
BRANCH   1   3
ATOM      3  C   UNL     1      53.817   7.126   3.064  1.00  0.00     0.053 C 
ATOM      4  C   UNL     1      53.256   8.509   3.425  1.00  0.00     0.016 C 
BRANCH   3   5
ATOM      5  C   UNL     1      52.696   6.196   2.545  1.00  0.00     0.015 C 
BRANCH   5   6
ATOM      6  C   UNL     1      53.255   5.101   1.615  1.00  0.00     0.028 C 
BRANCH   6   7
ATOM      7  C   UNL     1      52.859   3.704   2.028  1.00  0.00    -0.028 C 
ATOM      8  C   UNL     1      53.687   2.774   2.568  1.00  0.00    -0.070 CG0
ATOM      9  C   UNL     1      53.122   1.397   2.816  1.00  0.00     0.039 C 
ATOM     10  G   UNL     1      55.126   3.059   2.981  1.00  0.00     0.000 G0
ENDBRANCH   6   7
ENDBRANCH   5   6
ENDBRANCH   3   5
ENDBRANCH   1   3
BRANCH   1  11
ATOM     11  C   UNL     1      55.675   5.561   4.112  1.00  0.00     0.087 C 
BRANCH  11  12
ATOM     12  C   UNL     1      55.650   4.429   5.176  1.00  0.00     0.066 C 
BRANCH  12  13
ATOM     13  C   UNL     1      55.347   3.102   4.496  1.00  0.00     0.140 C 
ATOM     14  O   UNL     1      55.235   2.083   5.165  1.00  0.00    -0.299 OA
BRANCH  13  15
ATOM     15  C   UNL     1      55.137   3.048   3.003  1.00  0.00     0.106 CG0
ATOM     16  G   UNL     1      53.697   2.773   2.588  1.00  0.00     0.000 G0
ENDBRANCH  13  15
ENDBRANCH  12  13
BRANCH  12  17
ATOM     17  C   UNL     1      56.967   4.347   6.018  1.00  0.00    -0.006 C 
ATOM     18  C   UNL     1      58.141   3.746   5.222  1.00  0.00     0.008 C 
ATOM     19  C   UNL     1      57.382   5.739   6.530  1.00  0.00     0.008 C 
ENDBRANCH  12  17
ENDBRANCH  11  12
ENDBRANCH   1  11
TORSDOF 1
ENDMDL
MODEL 9
REMARK VINA RESULT:    -2.108     11.348     12.859
REMARK INTER + INTRA:          -3.576
REMARK INTER:                  -3.170
REMARK INTRA:                  -0.406
REMARK UNBOUND:                -0.359
REMARK SMILES CC1=CCC[C@@H](C)C(=O)C[C@H](C(C)C)C(=O)C1
REMARK SMILES IDX 8 1 9 2 6 3 7 4 5 5 4 6 3 7 2 8 1 9 10 11 11 12 15 13 16 14
REMARK SMILES IDX 17 15 12 17 13 18 14 19
REMARK H PARENT
REMARK Flexibility Score: 70.00
ROOT
ATOM      1  C   UNL     1      59.269  14.537   0.520  1.00  0.00     0.136 C 
ATOM      2  O   UNL     1      58.572  14.275  -0.452  1.00  0.00    -0.299 OA
ENDROOT
BRANCH   1   3
ATOM      3  C   UNL     1      58.816  15.611   1.491  1.00  0.00     0.053 C 
ATOM      4  C   UNL     1      57.459  15.237   2.103  1.00  0.00     0.016 C 
BRANCH   3   5
ATOM      5  C   UNL     1      58.742  16.984   0.783  1.00  0.00     0.015 C 
BRANCH   5   6
ATOM      6  C   UNL     1      60.133  17.639   0.670  1.00  0.00     0.028 C 
BRANCH   6   7
ATOM      7  C   UNL     1      60.922  17.596   1.956  1.00  0.00    -0.028 C 
ATOM      8  C   UNL     1      62.125  16.992   2.127  1.00  0.00    -0.070 CG0
ATOM      9  C   UNL     1      62.704  16.970   3.519  1.00  0.00     0.039 C 
ATOM     10  G   UNL     1      62.937  16.386   0.988  1.00  0.00     0.000 G0
ENDBRANCH   6   7
ENDBRANCH   5   6
ENDBRANCH   3   5
ENDBRANCH   1   3
BRANCH   1  11
ATOM     11  C   UNL     1      60.549  13.760   0.733  1.00  0.00     0.087 C 
BRANCH  11  12
ATOM     12  C   UNL     1      61.727  14.343  -0.096  1.00  0.00     0.066 C 
BRANCH  12  13
ATOM     13  C   UNL     1      62.787  14.892   0.848  1.00  0.00     0.140 C 
ATOM     14  O   UNL     1      63.529  14.125   1.448  1.00  0.00    -0.299 OA
BRANCH  13  15
ATOM     15  C   UNL     1      62.957  16.382   1.010  1.00  0.00     0.106 CG0
ATOM     16  G   UNL     1      62.115  16.987   2.127  1.00  0.00     0.000 G0
ENDBRANCH  13  15
ENDBRANCH  12  13
BRANCH  12  17
ATOM     17  C   UNL     1      62.343  13.312  -1.100  1.00  0.00    -0.006 C 
ATOM     18  C   UNL     1      61.268  12.512  -1.859  1.00  0.00     0.008 C 
ATOM     19  C   UNL     1      63.248  14.017  -2.128  1.00  0.00     0.008 C 
ENDBRANCH  12  17
ENDBRANCH  11  12
ENDBRANCH   1  11
TORSDOF 1
ENDMDL
