MODEL 1
REMARK VINA RESULT:    -6.335      0.000      0.000
REMARK INTER + INTRA:          -7.937
REMARK INTER:                  -7.631
REMARK INTRA:                  -0.306
REMARK UNBOUND:                -0.306
REMARK SMILES O=c1c(O)c(-c2ccc(O)c(O)c2)oc2cc(O)cc(O)c12
REMARK SMILES IDX 5 1 3 2 2 3 1 4 22 5 20 6 19 7 17 8 16 9 15 10 14 11 6 12
REMARK SMILES IDX 7 13 8 14 9 15 13 16 11 17 10 18 12 20 4 22 21 24 18 26
REMARK H PARENT 10 19 12 21 4 23 21 25 18 27
REMARK Flexibility Score: inf
ROOT
ATOM      1  C   UNL     1      -5.756 -22.111  34.991  1.00  0.00     0.180 A 
ATOM      2  C   UNL     1      -6.698 -21.191  35.480  1.00  0.00     0.208 A 
ATOM      3  C   UNL     1      -6.481 -19.819  35.276  1.00  0.00     0.238 A 
ATOM      4  O   UNL     1      -7.365 -19.005  35.650  1.00  0.00    -0.285 OA
ATOM      5  C   UNL     1      -5.297 -19.380  34.635  1.00  0.00     0.111 A 
ATOM      6  C   UNL     1      -4.950 -18.012  34.414  1.00  0.00     0.134 A 
ATOM      7  C   UNL     1      -3.802 -17.701  33.675  1.00  0.00     0.093 A 
ATOM      8  C   UNL     1      -2.956 -18.703  33.203  1.00  0.00     0.123 A 
ATOM      9  C   UNL     1      -3.255 -20.041  33.460  1.00  0.00     0.094 A 
ATOM     10  C   UNL     1      -4.412 -20.385  34.162  1.00  0.00     0.146 A 
ATOM     11  O   UNL     1      -4.671 -21.671  34.365  1.00  0.00    -0.452 OA
ENDROOT
BRANCH   1  12
ATOM     12  C   UNL     1      -5.922 -23.573  35.154  1.00  0.00     0.025 A 
ATOM     13  C   UNL     1      -5.583 -24.218  36.357  1.00  0.00     0.016 A 
ATOM     14  C   UNL     1      -5.772 -25.596  36.496  1.00  0.00     0.051 A 
ATOM     15  C   UNL     1      -6.313 -26.346  35.442  1.00  0.00     0.157 A 
ATOM     16  C   UNL     1      -6.484 -24.325  34.110  1.00  0.00     0.062 A 
ATOM     17  C   UNL     1      -6.673 -25.705  34.245  1.00  0.00     0.158 A 
BRANCH  15  18
ATOM     18  O   UNL     1      -6.499 -27.720  35.584  1.00  0.00    -0.504 OA
ATOM     19  H   UNL     1      -5.742 -28.376  35.429  1.00  0.00     0.293 HD
ENDBRANCH  15  18
BRANCH  17  20
ATOM     20  O   UNL     1      -7.222 -26.421  33.181  1.00  0.00    -0.504 OA
ATOM     21  H   UNL     1      -8.140 -26.845  33.235  1.00  0.00     0.293 HD
ENDBRANCH  17  20
ENDBRANCH   1  12
BRANCH   2  22
ATOM     22  O   UNL     1      -7.824 -21.640  36.177  1.00  0.00    -0.502 OA
ATOM     23  H   UNL     1      -8.030 -22.624  36.300  1.00  0.00     0.293 HD
ENDBRANCH   2  22
BRANCH   6  24
ATOM     24  O   UNL     1      -5.678 -16.930  34.917  1.00  0.00    -0.507 OA
ATOM     25  H   UNL     1      -5.297 -16.016  35.110  1.00  0.00     0.293 HD
ENDBRANCH   6  24
BRANCH   8  26
ATOM     26  O   UNL     1      -1.812 -18.355  32.486  1.00  0.00    -0.508 OA
ATOM     27  H   UNL     1      -1.485 -18.914  31.707  1.00  0.00     0.293 HD
ENDBRANCH   8  26
TORSDOF 6
ENDMDL
MODEL 2
REMARK VINA RESULT:    -6.224      2.247      2.836
REMARK INTER + INTRA:          -7.803
REMARK INTER:                  -7.519
REMARK INTRA:                  -0.285
REMARK UNBOUND:                -0.306
REMARK SMILES O=c1c(O)c(-c2ccc(O)c(O)c2)oc2cc(O)cc(O)c12
REMARK SMILES IDX 5 1 3 2 2 3 1 4 22 5 20 6 19 7 17 8 16 9 15 10 14 11 6 12
REMARK SMILES IDX 7 13 8 14 9 15 13 16 11 17 10 18 12 20 4 22 21 24 18 26
REMARK H PARENT 10 19 12 21 4 23 21 25 18 27
REMARK Flexibility Score: inf
ROOT
ATOM      1  C   UNL     1      -6.935 -23.608  35.577  1.00  0.00     0.180 A 
ATOM      2  C   UNL     1      -7.561 -22.461  35.062  1.00  0.00     0.208 A 
ATOM      3  C   UNL     1      -6.859 -21.245  35.056  1.00  0.00     0.238 A 
ATOM      4  O   UNL     1      -7.398 -20.239  34.525  1.00  0.00    -0.285 OA
ATOM      5  C   UNL     1      -5.561 -21.178  35.617  1.00  0.00     0.111 A 
ATOM      6  C   UNL     1      -4.774 -19.990  35.706  1.00  0.00     0.134 A 
ATOM      7  C   UNL     1      -3.460 -20.065  36.186  1.00  0.00     0.093 A 
ATOM      8  C   UNL     1      -2.927 -21.271  36.638  1.00  0.00     0.123 A 
ATOM      9  C   UNL     1      -3.705 -22.429  36.607  1.00  0.00     0.094 A 
ATOM     10  C   UNL     1      -5.005 -22.393  36.099  1.00  0.00     0.146 A 
ATOM     11  O   UNL     1      -5.704 -23.521  36.067  1.00  0.00    -0.452 OA
ENDROOT
BRANCH   1  12
ATOM     12  C   UNL     1      -7.605 -24.928  35.604  1.00  0.00     0.025 A 
ATOM     13  C   UNL     1      -8.574 -25.237  36.575  1.00  0.00     0.016 A 
ATOM     14  C   UNL     1      -9.210 -26.481  36.566  1.00  0.00     0.051 A 
ATOM     15  C   UNL     1      -8.898 -27.428  35.580  1.00  0.00     0.157 A 
ATOM     16  C   UNL     1      -7.312 -25.872  34.607  1.00  0.00     0.062 A 
ATOM     17  C   UNL     1      -7.945 -27.119  34.595  1.00  0.00     0.158 A 
BRANCH  15  18
ATOM     18  O   UNL     1      -9.533 -28.669  35.575  1.00  0.00    -0.504 OA
ATOM     19  H   UNL     1     -10.378 -28.835  36.109  1.00  0.00     0.293 HD
ENDBRANCH  15  18
BRANCH  17  20
ATOM     20  O   UNL     1      -7.618 -28.037  33.597  1.00  0.00    -0.504 OA
ATOM     21  H   UNL     1      -8.276 -28.303  32.875  1.00  0.00     0.293 HD
ENDBRANCH  17  20
ENDBRANCH   1  12
BRANCH   2  22
ATOM     22  O   UNL     1      -8.872 -22.531  34.582  1.00  0.00    -0.502 OA
ATOM     23  H   UNL     1      -9.397 -21.707  34.310  1.00  0.00     0.293 HD
ENDBRANCH   2  22
BRANCH   6  24
ATOM     24  O   UNL     1      -5.238 -18.716  35.364  1.00  0.00    -0.507 OA
ATOM     25  H   UNL     1      -4.882 -17.851  35.740  1.00  0.00     0.293 HD
ENDBRANCH   6  24
BRANCH   8  26
ATOM     26  O   UNL     1      -1.621 -21.305  37.125  1.00  0.00    -0.508 OA
ATOM     27  H   UNL     1      -1.395 -21.758  38.003  1.00  0.00     0.293 HD
ENDBRANCH   8  26
TORSDOF 6
ENDMDL
MODEL 3
REMARK VINA RESULT:    -6.191      2.352      2.974
REMARK INTER + INTRA:          -7.764
REMARK INTER:                  -7.457
REMARK INTRA:                  -0.307
REMARK UNBOUND:                -0.306
REMARK SMILES O=c1c(O)c(-c2ccc(O)c(O)c2)oc2cc(O)cc(O)c12
REMARK SMILES IDX 5 1 3 2 2 3 1 4 22 5 20 6 19 7 17 8 16 9 15 10 14 11 6 12
REMARK SMILES IDX 7 13 8 14 9 15 13 16 11 17 10 18 12 20 4 22 21 24 18 26
REMARK H PARENT 10 19 12 21 4 23 21 25 18 27
REMARK Flexibility Score: inf
ROOT
ATOM      1  C   UNL     1      -6.502 -23.565  35.024  1.00  0.00     0.180 A 
ATOM      2  C   UNL     1      -6.971 -22.529  34.198  1.00  0.00     0.208 A 
ATOM      3  C   UNL     1      -6.229 -21.340  34.108  1.00  0.00     0.238 A 
ATOM      4  O   UNL     1      -6.615 -20.447  33.310  1.00  0.00    -0.285 OA
ATOM      5  C   UNL     1      -5.058 -21.179  34.888  1.00  0.00     0.111 A 
ATOM      6  C   UNL     1      -4.252 -20.000  34.910  1.00  0.00     0.134 A 
ATOM      7  C   UNL     1      -3.056 -19.995  35.640  1.00  0.00     0.093 A 
ATOM      8  C   UNL     1      -2.670 -21.099  36.397  1.00  0.00     0.123 A 
ATOM      9  C   UNL     1      -3.477 -22.237  36.427  1.00  0.00     0.094 A 
ATOM     10  C   UNL     1      -4.655 -22.287  35.680  1.00  0.00     0.146 A 
ATOM     11  O   UNL     1      -5.383 -23.397  35.718  1.00  0.00    -0.452 OA
ENDROOT
BRANCH   1  12
ATOM     12  C   UNL     1      -7.220 -24.852  35.160  1.00  0.00     0.025 A 
ATOM     13  C   UNL     1      -6.814 -25.996  34.449  1.00  0.00     0.016 A 
ATOM     14  C   UNL     1      -7.493 -27.206  34.612  1.00  0.00     0.051 A 
ATOM     15  C   UNL     1      -8.578 -27.295  35.495  1.00  0.00     0.157 A 
ATOM     16  C   UNL     1      -8.294 -24.953  36.060  1.00  0.00     0.062 A 
ATOM     17  C   UNL     1      -8.977 -26.163  36.224  1.00  0.00     0.158 A 
BRANCH  15  18
ATOM     18  O   UNL     1      -9.254 -28.504  35.654  1.00  0.00    -0.504 OA
ATOM     19  H   UNL     1      -8.915 -29.361  35.232  1.00  0.00     0.293 HD
ENDBRANCH  15  18
BRANCH  17  20
ATOM     20  O   UNL     1     -10.047 -26.221  37.117  1.00  0.00    -0.504 OA
ATOM     21  H   UNL     1     -10.510 -27.093  37.345  1.00  0.00     0.293 HD
ENDBRANCH  17  20
ENDBRANCH   1  12
BRANCH   2  22
ATOM     22  O   UNL     1      -8.170 -22.678  33.495  1.00  0.00    -0.502 OA
ATOM     23  H   UNL     1      -9.074 -22.512  33.920  1.00  0.00     0.293 HD
ENDBRANCH   2  22
BRANCH   6  24
ATOM     24  O   UNL     1      -4.589 -18.809  34.261  1.00  0.00    -0.507 OA
ATOM     25  H   UNL     1      -3.927 -18.134  33.912  1.00  0.00     0.293 HD
ENDBRANCH   6  24
BRANCH   8  26
ATOM     26  O   UNL     1      -1.482 -21.051  37.125  1.00  0.00    -0.508 OA
ATOM     27  H   UNL     1      -1.131 -21.863  37.620  1.00  0.00     0.293 HD
ENDBRANCH   8  26
TORSDOF 6
ENDMDL
MODEL 4
REMARK VINA RESULT:    -5.894      2.362      3.764
REMARK INTER + INTRA:          -7.405
REMARK INTER:                  -7.287
REMARK INTRA:                  -0.118
REMARK UNBOUND:                -0.306
REMARK SMILES O=c1c(O)c(-c2ccc(O)c(O)c2)oc2cc(O)cc(O)c12
REMARK SMILES IDX 5 1 3 2 2 3 1 4 22 5 20 6 19 7 17 8 16 9 15 10 14 11 6 12
REMARK SMILES IDX 7 13 8 14 9 15 13 16 11 17 10 18 12 20 4 22 21 24 18 26
REMARK H PARENT 10 19 12 21 4 23 21 25 18 27
REMARK Flexibility Score: inf
ROOT
ATOM      1  C   UNL     1      -6.841 -23.807  36.081  1.00  0.00     0.180 A 
ATOM      2  C   UNL     1      -5.457 -23.836  36.321  1.00  0.00     0.208 A 
ATOM      3  C   UNL     1      -4.771 -22.625  36.508  1.00  0.00     0.238 A 
ATOM      4  O   UNL     1      -3.547 -22.663  36.796  1.00  0.00    -0.285 OA
ATOM      5  C   UNL     1      -5.467 -21.397  36.397  1.00  0.00     0.111 A 
ATOM      6  C   UNL     1      -4.865 -20.107  36.523  1.00  0.00     0.134 A 
ATOM      7  C   UNL     1      -5.673 -18.963  36.499  1.00  0.00     0.093 A 
ATOM      8  C   UNL     1      -7.048 -19.056  36.292  1.00  0.00     0.123 A 
ATOM      9  C   UNL     1      -7.639 -20.307  36.112  1.00  0.00     0.094 A 
ATOM     10  C   UNL     1      -6.867 -21.469  36.168  1.00  0.00     0.146 A 
ATOM     11  O   UNL     1      -7.472 -22.641  36.015  1.00  0.00    -0.452 OA
ENDROOT
BRANCH   1  12
ATOM     12  C   UNL     1      -7.635 -25.041  35.889  1.00  0.00     0.025 A 
ATOM     13  C   UNL     1      -8.709 -25.361  36.739  1.00  0.00     0.016 A 
ATOM     14  C   UNL     1      -9.459 -26.520  36.523  1.00  0.00     0.051 A 
ATOM     15  C   UNL     1      -9.156 -27.368  35.449  1.00  0.00     0.157 A 
ATOM     16  C   UNL     1      -7.350 -25.884  34.802  1.00  0.00     0.062 A 
ATOM     17  C   UNL     1      -8.098 -27.045  34.584  1.00  0.00     0.158 A 
BRANCH  15  18
ATOM     18  O   UNL     1      -9.906 -28.525  35.238  1.00  0.00    -0.504 OA
ATOM     19  H   UNL     1      -9.640 -29.412  35.649  1.00  0.00     0.293 HD
ENDBRANCH  15  18
BRANCH  17  20
ATOM     20  O   UNL     1      -7.777 -27.865  33.502  1.00  0.00    -0.504 OA
ATOM     21  H   UNL     1      -7.713 -28.872  33.590  1.00  0.00     0.293 HD
ENDBRANCH  17  20
ENDBRANCH   1  12
BRANCH   2  22
ATOM     22  O   UNL     1      -4.774 -25.055  36.352  1.00  0.00    -0.502 OA
ATOM     23  H   UNL     1      -5.126 -25.888  35.893  1.00  0.00     0.293 HD
ENDBRANCH   2  22
BRANCH   6  24
ATOM     24  O   UNL     1      -3.489 -19.894  36.646  1.00  0.00    -0.507 OA
ATOM     25  H   UNL     1      -3.009 -19.700  37.511  1.00  0.00     0.293 HD
ENDBRANCH   6  24
BRANCH   8  26
ATOM     26  O   UNL     1      -7.818 -17.895  36.256  1.00  0.00    -0.508 OA
ATOM     27  H   UNL     1      -8.793 -17.913  35.982  1.00  0.00     0.293 HD
ENDBRANCH   8  26
TORSDOF 6
ENDMDL
MODEL 5
REMARK VINA RESULT:    -5.801      1.554      6.579
REMARK INTER + INTRA:          -7.294
REMARK INTER:                  -6.963
REMARK INTRA:                  -0.331
REMARK UNBOUND:                -0.306
REMARK SMILES O=c1c(O)c(-c2ccc(O)c(O)c2)oc2cc(O)cc(O)c12
REMARK SMILES IDX 5 1 3 2 2 3 1 4 22 5 20 6 19 7 17 8 16 9 15 10 14 11 6 12
REMARK SMILES IDX 7 13 8 14 9 15 13 16 11 17 10 18 12 20 4 22 21 24 18 26
REMARK H PARENT 10 19 12 21 4 23 21 25 18 27
REMARK Flexibility Score: inf
ROOT
ATOM      1  C   UNL     1      -4.913 -20.783  35.079  1.00  0.00     0.180 A 
ATOM      2  C   UNL     1      -6.259 -20.384  35.144  1.00  0.00     0.208 A 
ATOM      3  C   UNL     1      -7.255 -21.365  35.270  1.00  0.00     0.238 A 
ATOM      4  O   UNL     1      -8.452 -20.996  35.403  1.00  0.00    -0.285 OA
ATOM      5  C   UNL     1      -6.899 -22.735  35.274  1.00  0.00     0.111 A 
ATOM      6  C   UNL     1      -7.830 -23.817  35.352  1.00  0.00     0.134 A 
ATOM      7  C   UNL     1      -7.354 -25.131  35.455  1.00  0.00     0.093 A 
ATOM      8  C   UNL     1      -5.989 -25.407  35.419  1.00  0.00     0.123 A 
ATOM      9  C   UNL     1      -5.073 -24.363  35.287  1.00  0.00     0.094 A 
ATOM     10  C   UNL     1      -5.514 -23.040  35.220  1.00  0.00     0.146 A 
ATOM     11  O   UNL     1      -4.608 -22.075  35.118  1.00  0.00    -0.452 OA
ENDROOT
BRANCH   1  12
ATOM     12  C   UNL     1      -3.806 -19.808  34.961  1.00  0.00     0.025 A 
ATOM     13  C   UNL     1      -3.187 -19.260  36.099  1.00  0.00     0.016 A 
ATOM     14  C   UNL     1      -2.127 -18.360  35.961  1.00  0.00     0.051 A 
ATOM     15  C   UNL     1      -1.662 -18.004  34.688  1.00  0.00     0.157 A 
ATOM     16  C   UNL     1      -3.321 -19.465  33.688  1.00  0.00     0.062 A 
ATOM     17  C   UNL     1      -2.261 -18.563  33.547  1.00  0.00     0.158 A 
BRANCH  15  18
ATOM     18  O   UNL     1      -0.605 -17.104  34.555  1.00  0.00    -0.504 OA
ATOM     19  H   UNL     1      -0.426 -16.390  35.251  1.00  0.00     0.293 HD
ENDBRANCH  15  18
BRANCH  17  20
ATOM     20  O   UNL     1      -1.816 -18.235  32.266  1.00  0.00    -0.504 OA
ATOM     21  H   UNL     1      -2.238 -17.490  31.724  1.00  0.00     0.293 HD
ENDBRANCH  17  20
ENDBRANCH   1  12
BRANCH   2  22
ATOM     22  O   UNL     1      -6.595 -19.030  35.062  1.00  0.00    -0.502 OA
ATOM     23  H   UNL     1      -6.088 -18.378  34.475  1.00  0.00     0.293 HD
ENDBRANCH   2  22
BRANCH   6  24
ATOM     24  O   UNL     1      -9.218 -23.660  35.307  1.00  0.00    -0.507 OA
ATOM     25  H   UNL     1      -9.888 -24.356  35.594  1.00  0.00     0.293 HD
ENDBRANCH   6  24
BRANCH   8  26
ATOM     26  O   UNL     1      -5.553 -26.728  35.505  1.00  0.00    -0.508 OA
ATOM     27  H   UNL     1      -4.647 -27.012  35.150  1.00  0.00     0.293 HD
ENDBRANCH   8  26
TORSDOF 6
ENDMDL
MODEL 6
REMARK VINA RESULT:    -5.774      1.959      7.098
REMARK INTER + INTRA:          -7.261
REMARK INTER:                  -6.930
REMARK INTRA:                  -0.331
REMARK UNBOUND:                -0.306
REMARK SMILES O=c1c(O)c(-c2ccc(O)c(O)c2)oc2cc(O)cc(O)c12
REMARK SMILES IDX 5 1 3 2 2 3 1 4 22 5 20 6 19 7 17 8 16 9 15 10 14 11 6 12
REMARK SMILES IDX 7 13 8 14 9 15 13 16 11 17 10 18 12 20 4 22 21 24 18 26
REMARK H PARENT 10 19 12 21 4 23 21 25 18 27
REMARK Flexibility Score: inf
ROOT
ATOM      1  C   UNL     1      -6.464 -22.142  34.899  1.00  0.00     0.180 A 
ATOM      2  C   UNL     1      -6.751 -22.395  33.547  1.00  0.00     0.208 A 
ATOM      3  C   UNL     1      -7.020 -23.712  33.142  1.00  0.00     0.238 A 
ATOM      4  O   UNL     1      -7.350 -23.920  31.945  1.00  0.00    -0.285 OA
ATOM      5  C   UNL     1      -6.942 -24.769  34.081  1.00  0.00     0.111 A 
ATOM      6  C   UNL     1      -7.151 -26.148  33.773  1.00  0.00     0.134 A 
ATOM      7  C   UNL     1      -7.152 -27.094  34.807  1.00  0.00     0.093 A 
ATOM      8  C   UNL     1      -6.892 -26.722  36.124  1.00  0.00     0.123 A 
ATOM      9  C   UNL     1      -6.632 -25.385  36.429  1.00  0.00     0.094 A 
ATOM     10  C   UNL     1      -6.660 -24.413  35.427  1.00  0.00     0.146 A 
ATOM     11  O   UNL     1      -6.430 -23.149  35.763  1.00  0.00    -0.452 OA
ENDROOT
BRANCH   1  12
ATOM     12  C   UNL     1      -6.185 -20.780  35.405  1.00  0.00     0.025 A 
ATOM     13  C   UNL     1      -7.220 -19.937  35.849  1.00  0.00     0.016 A 
ATOM     14  C   UNL     1      -6.929 -18.664  36.346  1.00  0.00     0.051 A 
ATOM     15  C   UNL     1      -5.602 -18.218  36.417  1.00  0.00     0.157 A 
ATOM     16  C   UNL     1      -4.856 -20.336  35.499  1.00  0.00     0.062 A 
ATOM     17  C   UNL     1      -4.561 -19.061  35.994  1.00  0.00     0.158 A 
BRANCH  15  18
ATOM     18  O   UNL     1      -5.316 -16.946  36.911  1.00  0.00    -0.504 OA
ATOM     19  H   UNL     1      -6.046 -16.338  37.265  1.00  0.00     0.293 HD
ENDBRANCH  15  18
BRANCH  17  20
ATOM     20  O   UNL     1      -3.230 -18.650  36.059  1.00  0.00    -0.504 OA
ATOM     21  H   UNL     1      -2.787 -18.398  36.935  1.00  0.00     0.293 HD
ENDBRANCH  17  20
ENDBRANCH   1  12
BRANCH   2  22
ATOM     22  O   UNL     1      -6.749 -21.349  32.620  1.00  0.00    -0.502 OA
ATOM     23  H   UNL     1      -6.092 -20.578  32.672  1.00  0.00     0.293 HD
ENDBRANCH   2  22
BRANCH   6  24
ATOM     24  O   UNL     1      -7.333 -26.642  32.478  1.00  0.00    -0.507 OA
ATOM     25  H   UNL     1      -7.926 -27.419  32.234  1.00  0.00     0.293 HD
ENDBRANCH   6  24
BRANCH   8  26
ATOM     26  O   UNL     1      -6.884 -27.693  37.123  1.00  0.00    -0.508 OA
ATOM     27  H   UNL     1      -6.179 -27.699  37.852  1.00  0.00     0.293 HD
ENDBRANCH   8  26
TORSDOF 6
ENDMDL
MODEL 7
REMARK VINA RESULT:    -5.446      2.272      3.032
REMARK INTER + INTRA:          -6.866
REMARK INTER:                  -6.586
REMARK INTRA:                  -0.280
REMARK UNBOUND:                -0.306
REMARK SMILES O=c1c(O)c(-c2ccc(O)c(O)c2)oc2cc(O)cc(O)c12
REMARK SMILES IDX 5 1 3 2 2 3 1 4 22 5 20 6 19 7 17 8 16 9 15 10 14 11 6 12
REMARK SMILES IDX 7 13 8 14 9 15 13 16 11 17 10 18 12 20 4 22 21 24 18 26
REMARK H PARENT 10 19 12 21 4 23 21 25 18 27
REMARK Flexibility Score: inf
ROOT
ATOM      1  C   UNL     1      -4.608 -21.077  34.866  1.00  0.00     0.180 A 
ATOM      2  C   UNL     1      -4.799 -20.163  33.815  1.00  0.00     0.208 A 
ATOM      3  C   UNL     1      -3.850 -19.148  33.614  1.00  0.00     0.238 A 
ATOM      4  O   UNL     1      -3.989 -18.379  32.627  1.00  0.00    -0.285 OA
ATOM      5  C   UNL     1      -2.752 -19.024  34.499  1.00  0.00     0.111 A 
ATOM      6  C   UNL     1      -1.753 -18.007  34.417  1.00  0.00     0.134 A 
ATOM      7  C   UNL     1      -0.653 -18.047  35.284  1.00  0.00     0.093 A 
ATOM      8  C   UNL     1      -0.548 -19.028  36.268  1.00  0.00     0.123 A 
ATOM      9  C   UNL     1      -1.546 -19.995  36.393  1.00  0.00     0.094 A 
ATOM     10  C   UNL     1      -2.635 -20.004  35.520  1.00  0.00     0.146 A 
ATOM     11  O   UNL     1      -3.551 -20.955  35.659  1.00  0.00    -0.452 OA
ENDROOT
BRANCH   1  12
ATOM     12  C   UNL     1      -5.556 -22.182  35.132  1.00  0.00     0.025 A 
ATOM     13  C   UNL     1      -6.524 -22.087  36.148  1.00  0.00     0.016 A 
ATOM     14  C   UNL     1      -7.425 -23.134  36.364  1.00  0.00     0.051 A 
ATOM     15  C   UNL     1      -7.380 -24.283  35.563  1.00  0.00     0.157 A 
ATOM     16  C   UNL     1      -5.531 -23.326  34.318  1.00  0.00     0.062 A 
ATOM     17  C   UNL     1      -6.429 -24.377  34.533  1.00  0.00     0.158 A 
BRANCH  15  18
ATOM     18  O   UNL     1      -8.279 -25.326  35.783  1.00  0.00    -0.504 OA
ATOM     19  H   UNL     1      -8.864 -25.688  35.040  1.00  0.00     0.293 HD
ENDBRANCH  15  18
BRANCH  17  20
ATOM     20  O   UNL     1      -6.364 -25.503  33.713  1.00  0.00    -0.504 OA
ATOM     21  H   UNL     1      -5.488 -25.969  33.508  1.00  0.00     0.293 HD
ENDBRANCH  17  20
ENDBRANCH   1  12
BRANCH   2  22
ATOM     22  O   UNL     1      -5.931 -20.255  33.000  1.00  0.00    -0.502 OA
ATOM     23  H   UNL     1      -5.939 -19.923  32.042  1.00  0.00     0.293 HD
ENDBRANCH   2  22
BRANCH   6  24
ATOM     24  O   UNL     1      -1.804 -16.928  33.529  1.00  0.00    -0.507 OA
ATOM     25  H   UNL     1      -1.108 -16.202  33.460  1.00  0.00     0.293 HD
ENDBRANCH   6  24
BRANCH   8  26
ATOM     26  O   UNL     1       0.552 -19.027  37.125  1.00  0.00    -0.508 OA
ATOM     27  H   UNL     1       0.533 -18.534  38.010  1.00  0.00     0.293 HD
ENDBRANCH   8  26
TORSDOF 6
ENDMDL
MODEL 8
REMARK VINA RESULT:    -5.292      2.993      4.555
REMARK INTER + INTRA:          -6.680
REMARK INTER:                  -6.430
REMARK INTRA:                  -0.250
REMARK UNBOUND:                -0.306
REMARK SMILES O=c1c(O)c(-c2ccc(O)c(O)c2)oc2cc(O)cc(O)c12
REMARK SMILES IDX 5 1 3 2 2 3 1 4 22 5 20 6 19 7 17 8 16 9 15 10 14 11 6 12
REMARK SMILES IDX 7 13 8 14 9 15 13 16 11 17 10 18 12 20 4 22 21 24 18 26
REMARK H PARENT 10 19 12 21 4 23 21 25 18 27
REMARK Flexibility Score: inf
ROOT
ATOM      1  C   UNL     1      -4.106 -19.792  34.913  1.00  0.00     0.180 A 
ATOM      2  C   UNL     1      -3.864 -18.533  34.337  1.00  0.00     0.208 A 
ATOM      3  C   UNL     1      -2.579 -17.976  34.432  1.00  0.00     0.238 A 
ATOM      4  O   UNL     1      -2.350 -16.883  33.850  1.00  0.00    -0.285 OA
ATOM      5  C   UNL     1      -1.565 -18.658  35.148  1.00  0.00     0.111 A 
ATOM      6  C   UNL     1      -0.239 -18.167  35.347  1.00  0.00     0.134 A 
ATOM      7  C   UNL     1       0.710 -18.978  35.982  1.00  0.00     0.093 A 
ATOM      8  C   UNL     1       0.366 -20.233  36.482  1.00  0.00     0.123 A 
ATOM      9  C   UNL     1      -0.942 -20.700  36.343  1.00  0.00     0.094 A 
ATOM     10  C   UNL     1      -1.900 -19.931  35.681  1.00  0.00     0.146 A 
ATOM     11  O   UNL     1      -3.127 -20.423  35.550  1.00  0.00    -0.452 OA
ENDROOT
BRANCH   1  12
ATOM     12  C   UNL     1      -5.430 -20.450  34.842  1.00  0.00     0.025 A 
ATOM     13  C   UNL     1      -6.289 -20.487  35.955  1.00  0.00     0.016 A 
ATOM     14  C   UNL     1      -7.545 -21.093  35.857  1.00  0.00     0.051 A 
ATOM     15  C   UNL     1      -7.965 -21.659  34.645  1.00  0.00     0.157 A 
ATOM     16  C   UNL     1      -5.865 -21.000  33.625  1.00  0.00     0.062 A 
ATOM     17  C   UNL     1      -7.120 -21.609  33.524  1.00  0.00     0.158 A 
BRANCH  15  18
ATOM     18  O   UNL     1      -9.217 -22.265  34.552  1.00  0.00    -0.504 OA
ATOM     19  H   UNL     1      -9.412 -23.152  35.000  1.00  0.00     0.293 HD
ENDBRANCH  15  18
BRANCH  17  20
ATOM     20  O   UNL     1      -7.511 -22.156  32.302  1.00  0.00    -0.504 OA
ATOM     21  H   UNL     1      -6.839 -22.423  31.592  1.00  0.00     0.293 HD
ENDBRANCH  17  20
ENDBRANCH   1  12
BRANCH   2  22
ATOM     22  O   UNL     1      -4.898 -17.841  33.700  1.00  0.00    -0.502 OA
ATOM     23  H   UNL     1      -5.687 -18.313  33.274  1.00  0.00     0.293 HD
ENDBRANCH   2  22
BRANCH   6  24
ATOM     24  O   UNL     1       0.189 -16.892  34.965  1.00  0.00    -0.507 OA
ATOM     25  H   UNL     1       0.953 -16.388  35.388  1.00  0.00     0.293 HD
ENDBRANCH   6  24
BRANCH   8  26
ATOM     26  O   UNL     1       1.332 -21.005  37.125  1.00  0.00    -0.508 OA
ATOM     27  H   UNL     1       1.078 -21.714  37.803  1.00  0.00     0.293 HD
ENDBRANCH   8  26
TORSDOF 6
ENDMDL
