MODEL 1
REMARK VINA RESULT:    -3.198      0.000      0.000
REMARK INTER + INTRA:          -4.757
REMARK INTER:                  -4.413
REMARK INTRA:                  -0.343
REMARK UNBOUND:                -0.343
REMARK SMILES CCCCCCCCO
REMARK SMILES IDX 5 1 4 2 3 3 2 4 1 5 6 6 7 7 8 8 9 9
REMARK H PARENT 9 10
REMARK Flexibility Score: inf
ROOT
ATOM      1  C   UNL     1     107.536 107.118 102.739  1.00  0.00     0.000 C 
ENDROOT
BRANCH   1   2
ATOM      2  C   UNL     1     106.694 106.959 104.014  1.00  0.00    -0.000 C 
BRANCH   2   3
ATOM      3  C   UNL     1     105.528 107.957 104.082  1.00  0.00    -0.000 C 
BRANCH   3   4
ATOM      4  C   UNL     1     104.617 107.888 102.848  1.00  0.00    -0.003 C 
ATOM      5  C   UNL     1     104.455 109.263 102.208  1.00  0.00     0.004 C 
ENDBRANCH   3   4
ENDBRANCH   2   3
ENDBRANCH   1   2
BRANCH   1   6
ATOM      6  C   UNL     1     107.766 105.762 102.059  1.00  0.00     0.002 C 
BRANCH   6   7
ATOM      7  C   UNL     1     107.176 104.620 102.896  1.00  0.00     0.028 C 
BRANCH   7   8
ATOM      8  C   UNL     1     107.363 103.259 102.220  1.00  0.00     0.156 C 
BRANCH   8   9
ATOM      9  O   UNL     1     108.127 102.402 103.027  1.00  0.00    -0.396 OA
ATOM     10  H   UNL     1     109.069 102.709 102.962  1.00  0.00     0.210 HD
ENDBRANCH   8   9
ENDBRANCH   7   8
ENDBRANCH   6   7
ENDBRANCH   1   6
TORSDOF 7
ENDMDL
MODEL 2
REMARK VINA RESULT:    -3.174      1.503      2.362
REMARK INTER + INTRA:          -4.723
REMARK INTER:                  -4.319
REMARK INTRA:                  -0.404
REMARK UNBOUND:                -0.343
REMARK SMILES CCCCCCCCO
REMARK SMILES IDX 5 1 4 2 3 3 2 4 1 5 6 6 7 7 8 8 9 9
REMARK H PARENT 9 10
REMARK Flexibility Score: inf
ROOT
ATOM      1  C   UNL     1     104.777 104.505 102.609  1.00  0.00     0.000 C 
ENDROOT
BRANCH   1   2
ATOM      2  C   UNL     1     104.035 105.808 102.275  1.00  0.00    -0.000 C 
BRANCH   2   3
ATOM      3  C   UNL     1     104.990 106.984 102.016  1.00  0.00    -0.000 C 
BRANCH   3   4
ATOM      4  C   UNL     1     104.536 108.278 102.705  1.00  0.00    -0.003 C 
ATOM      5  C   UNL     1     104.976 108.306 104.166  1.00  0.00     0.004 C 
ENDBRANCH   3   4
ENDBRANCH   2   3
ENDBRANCH   1   2
BRANCH   1   6
ATOM      6  C   UNL     1     105.410 104.574 104.004  1.00  0.00     0.002 C 
BRANCH   6   7
ATOM      7  C   UNL     1     106.800 103.926 104.011  1.00  0.00     0.028 C 
BRANCH   7   8
ATOM      8  C   UNL     1     107.418 103.881 102.611  1.00  0.00     0.156 C 
BRANCH   8   9
ATOM      9  O   UNL     1     108.283 102.784 102.483  1.00  0.00    -0.396 OA
ATOM     10  H   UNL     1     107.950 102.081 103.100  1.00  0.00     0.210 HD
ENDBRANCH   8   9
ENDBRANCH   7   8
ENDBRANCH   6   7
ENDBRANCH   1   6
TORSDOF 7
ENDMDL
MODEL 3
REMARK VINA RESULT:    -3.168      2.708      3.803
REMARK INTER + INTRA:          -4.714
REMARK INTER:                  -4.301
REMARK INTRA:                  -0.414
REMARK UNBOUND:                -0.343
REMARK SMILES CCCCCCCCO
REMARK SMILES IDX 5 1 4 2 3 3 2 4 1 5 6 6 7 7 8 8 9 9
REMARK H PARENT 9 10
REMARK Flexibility Score: inf
ROOT
ATOM      1  C   UNL     1     104.534 107.428 102.597  1.00  0.00     0.000 C 
ENDROOT
BRANCH   1   2
ATOM      2  C   UNL     1     105.870 108.166 102.419  1.00  0.00    -0.000 C 
BRANCH   2   3
ATOM      3  C   UNL     1     106.983 107.254 101.881  1.00  0.00    -0.000 C 
BRANCH   3   4
ATOM      4  C   UNL     1     108.326 107.478 102.591  1.00  0.00    -0.003 C 
ATOM      5  C   UNL     1     108.261 107.018 104.045  1.00  0.00     0.004 C 
ENDBRANCH   3   4
ENDBRANCH   2   3
ENDBRANCH   1   2
BRANCH   1   6
ATOM      6  C   UNL     1     104.522 106.619 103.900  1.00  0.00     0.002 C 
BRANCH   6   7
ATOM      7  C   UNL     1     104.411 105.116 103.613  1.00  0.00     0.028 C 
BRANCH   7   8
ATOM      8  C   UNL     1     103.485 104.825 102.430  1.00  0.00     0.156 C 
BRANCH   8   9
ATOM      9  O   UNL     1     102.683 103.703 102.690  1.00  0.00    -0.396 OA
ATOM     10  H   UNL     1     102.298 103.827 103.596  1.00  0.00     0.210 HD
ENDBRANCH   8   9
ENDBRANCH   7   8
ENDBRANCH   6   7
ENDBRANCH   1   6
TORSDOF 7
ENDMDL
MODEL 4
REMARK VINA RESULT:    -3.164      2.938      4.692
REMARK INTER + INTRA:          -4.709
REMARK INTER:                  -4.187
REMARK INTRA:                  -0.522
REMARK UNBOUND:                -0.343
REMARK SMILES CCCCCCCCO
REMARK SMILES IDX 5 1 4 2 3 3 2 4 1 5 6 6 7 7 8 8 9 9
REMARK H PARENT 9 10
REMARK Flexibility Score: inf
ROOT
ATOM      1  C   UNL     1     104.668 106.106 103.083  1.00  0.00     0.000 C 
ENDROOT
BRANCH   1   2
ATOM      2  C   UNL     1     105.675 105.140 102.439  1.00  0.00    -0.000 C 
BRANCH   2   3
ATOM      3  C   UNL     1     107.080 105.255 103.050  1.00  0.00    -0.000 C 
BRANCH   3   4
ATOM      4  C   UNL     1     108.031 106.099 102.189  1.00  0.00    -0.003 C 
ATOM      5  C   UNL     1     108.349 107.429 102.865  1.00  0.00     0.004 C 
ENDBRANCH   3   4
ENDBRANCH   2   3
ENDBRANCH   1   2
BRANCH   1   6
ATOM      6  C   UNL     1     104.542 107.395 102.262  1.00  0.00     0.002 C 
BRANCH   6   7
ATOM      7  C   UNL     1     104.616 108.633 103.167  1.00  0.00     0.028 C 
BRANCH   7   8
ATOM      8  C   UNL     1     105.078 108.280 104.583  1.00  0.00     0.156 C 
BRANCH   8   9
ATOM      9  O   UNL     1     104.778 109.319 105.477  1.00  0.00    -0.396 OA
ATOM     10  H   UNL     1     105.633 109.782 105.678  1.00  0.00     0.210 HD
ENDBRANCH   8   9
ENDBRANCH   7   8
ENDBRANCH   6   7
ENDBRANCH   1   6
TORSDOF 7
ENDMDL
MODEL 5
REMARK VINA RESULT:    -3.164      2.705      4.043
REMARK INTER + INTRA:          -4.709
REMARK INTER:                  -4.319
REMARK INTRA:                  -0.390
REMARK UNBOUND:                -0.343
REMARK SMILES CCCCCCCCO
REMARK SMILES IDX 5 1 4 2 3 3 2 4 1 5 6 6 7 7 8 8 9 9
REMARK H PARENT 9 10
REMARK Flexibility Score: inf
ROOT
ATOM      1  C   UNL     1     106.078 104.281 102.335  1.00  0.00     0.000 C 
ENDROOT
BRANCH   1   2
ATOM      2  C   UNL     1     107.498 104.774 102.655  1.00  0.00    -0.000 C 
BRANCH   2   3
ATOM      3  C   UNL     1     107.849 106.081 101.928  1.00  0.00    -0.000 C 
BRANCH   3   4
ATOM      4  C   UNL     1     108.369 107.167 102.881  1.00  0.00    -0.003 C 
ATOM      5  C   UNL     1     108.214 106.740 104.337  1.00  0.00     0.004 C 
ENDBRANCH   3   4
ENDBRANCH   2   3
ENDBRANCH   1   2
BRANCH   1   6
ATOM      6  C   UNL     1     105.029 105.091 103.108  1.00  0.00     0.002 C 
BRANCH   6   7
ATOM      7  C   UNL     1     103.995 105.703 102.154  1.00  0.00     0.028 C 
BRANCH   7   8
ATOM      8  C   UNL     1     102.833 104.746 101.876  1.00  0.00     0.156 C 
BRANCH   8   9
ATOM      9  O   UNL     1     102.617 103.895 102.970  1.00  0.00    -0.396 OA
ATOM     10  H   UNL     1     102.282 103.034 102.604  1.00  0.00     0.210 HD
ENDBRANCH   8   9
ENDBRANCH   7   8
ENDBRANCH   6   7
ENDBRANCH   1   6
TORSDOF 7
ENDMDL
MODEL 6
REMARK VINA RESULT:    -3.148      2.815      4.222
REMARK INTER + INTRA:          -4.687
REMARK INTER:                  -4.149
REMARK INTRA:                  -0.538
REMARK UNBOUND:                -0.343
REMARK SMILES CCCCCCCCO
REMARK SMILES IDX 5 1 4 2 3 3 2 4 1 5 6 6 7 7 8 8 9 9
REMARK H PARENT 9 10
REMARK Flexibility Score: inf
ROOT
ATOM      1  C   UNL     1     104.625 108.030 103.015  1.00  0.00     0.000 C 
ENDROOT
BRANCH   1   2
ATOM      2  C   UNL     1     105.788 108.318 102.055  1.00  0.00    -0.000 C 
BRANCH   2   3
ATOM      3  C   UNL     1     106.831 107.190 102.032  1.00  0.00    -0.000 C 
BRANCH   3   4
ATOM      4  C   UNL     1     108.183 107.622 102.619  1.00  0.00    -0.003 C 
ATOM      5  C   UNL     1     108.396 107.021 104.005  1.00  0.00     0.004 C 
ENDBRANCH   3   4
ENDBRANCH   2   3
ENDBRANCH   1   2
BRANCH   1   6
ATOM      6  C   UNL     1     104.958 108.496 104.438  1.00  0.00     0.002 C 
BRANCH   6   7
ATOM      7  C   UNL     1     104.889 107.328 105.430  1.00  0.00     0.028 C 
BRANCH   7   8
ATOM      8  C   UNL     1     104.416 106.035 104.761  1.00  0.00     0.156 C 
BRANCH   8   9
ATOM      9  O   UNL     1     103.310 105.499 105.438  1.00  0.00    -0.396 OA
ATOM     10  H   UNL     1     102.498 105.852 104.988  1.00  0.00     0.210 HD
ENDBRANCH   8   9
ENDBRANCH   7   8
ENDBRANCH   6   7
ENDBRANCH   1   6
TORSDOF 7
ENDMDL
MODEL 7
REMARK VINA RESULT:    -3.138      2.636      3.449
REMARK INTER + INTRA:          -4.673
REMARK INTER:                  -4.298
REMARK INTRA:                  -0.376
REMARK UNBOUND:                -0.343
REMARK SMILES CCCCCCCCO
REMARK SMILES IDX 5 1 4 2 3 3 2 4 1 5 6 6 7 7 8 8 9 9
REMARK H PARENT 9 10
REMARK Flexibility Score: inf
ROOT
ATOM      1  C   UNL     1     105.934 107.883 102.579  1.00  0.00     0.000 C 
ENDROOT
BRANCH   1   2
ATOM      2  C   UNL     1     104.565 107.325 102.995  1.00  0.00    -0.000 C 
BRANCH   2   3
ATOM      3  C   UNL     1     104.638 106.457 104.261  1.00  0.00    -0.000 C 
BRANCH   3   4
ATOM      4  C   UNL     1     103.767 105.196 104.165  1.00  0.00    -0.003 C 
ATOM      5  C   UNL     1     103.839 104.584 102.770  1.00  0.00     0.004 C 
ENDBRANCH   3   4
ENDBRANCH   2   3
ENDBRANCH   1   2
BRANCH   1   6
ATOM      6  C   UNL     1     107.008 106.788 102.612  1.00  0.00     0.002 C 
BRANCH   6   7
ATOM      7  C   UNL     1     108.282 107.288 103.304  1.00  0.00     0.028 C 
BRANCH   7   8
ATOM      8  C   UNL     1     108.338 106.867 104.775  1.00  0.00     0.156 C 
BRANCH   8   9
ATOM      9  O   UNL     1     109.510 107.340 105.385  1.00  0.00    -0.396 OA
ATOM     10  H   UNL     1     110.253 107.174 104.748  1.00  0.00     0.210 HD
ENDBRANCH   8   9
ENDBRANCH   7   8
ENDBRANCH   6   7
ENDBRANCH   1   6
TORSDOF 7
ENDMDL
MODEL 8
REMARK VINA RESULT:    -3.125      1.981      2.395
REMARK INTER + INTRA:          -4.655
REMARK INTER:                  -4.103
REMARK INTRA:                  -0.552
REMARK UNBOUND:                -0.343
REMARK SMILES CCCCCCCCO
REMARK SMILES IDX 5 1 4 2 3 3 2 4 1 5 6 6 7 7 8 8 9 9
REMARK H PARENT 9 10
REMARK Flexibility Score: inf
ROOT
ATOM      1  C   UNL     1     107.225 106.009 103.447  1.00  0.00     0.000 C 
ENDROOT
BRANCH   1   2
ATOM      2  C   UNL     1     106.155 106.939 102.853  1.00  0.00    -0.000 C 
BRANCH   2   3
ATOM      3  C   UNL     1     104.744 106.626 103.374  1.00  0.00    -0.000 C 
BRANCH   3   4
ATOM      4  C   UNL     1     103.891 105.864 102.350  1.00  0.00    -0.003 C 
ATOM      5  C   UNL     1     103.478 104.497 102.888  1.00  0.00     0.004 C 
ENDBRANCH   3   4
ENDBRANCH   2   3
ENDBRANCH   1   2
BRANCH   1   6
ATOM      6  C   UNL     1     107.479 104.807 102.529  1.00  0.00     0.002 C 
BRANCH   6   7
ATOM      7  C   UNL     1     107.130 103.491 103.237  1.00  0.00     0.028 C 
BRANCH   7   8
ATOM      8  C   UNL     1     106.778 103.709 104.711  1.00  0.00     0.156 C 
BRANCH   8   9
ATOM      9  O   UNL     1     107.261 102.655 105.500  1.00  0.00    -0.396 OA
ATOM     10  H   UNL     1     108.152 102.934 105.838  1.00  0.00     0.210 HD
ENDBRANCH   8   9
ENDBRANCH   7   8
ENDBRANCH   6   7
ENDBRANCH   1   6
TORSDOF 7
ENDMDL
MODEL 9
REMARK VINA RESULT:    -1.950      2.600      3.510
REMARK INTER + INTRA:          -3.034
REMARK INTER:                  -2.713
REMARK INTRA:                  -0.320
REMARK UNBOUND:                -0.343
REMARK SMILES CCCCCCCCO
REMARK SMILES IDX 5 1 4 2 3 3 2 4 1 5 6 6 7 7 8 8 9 9
REMARK H PARENT 9 10
REMARK Flexibility Score: inf
ROOT
ATOM      1  C   UNL     1     107.482 104.701 103.016  1.00  0.00     0.000 C 
ENDROOT
BRANCH   1   2
ATOM      2  C   UNL     1     106.162 104.143 102.463  1.00  0.00    -0.000 C 
BRANCH   2   3
ATOM      3  C   UNL     1     104.931 104.684 103.208  1.00  0.00    -0.000 C 
BRANCH   3   4
ATOM      4  C   UNL     1     104.054 105.583 102.326  1.00  0.00    -0.003 C 
ATOM      5  C   UNL     1     102.795 104.849 101.875  1.00  0.00     0.004 C 
ENDBRANCH   3   4
ENDBRANCH   2   3
ENDBRANCH   1   2
BRANCH   1   6
ATOM      6  C   UNL     1     107.968 105.892 102.181  1.00  0.00     0.002 C 
BRANCH   6   7
ATOM      7  C   UNL     1     108.164 107.135 103.058  1.00  0.00     0.028 C 
BRANCH   7   8
ATOM      8  C   UNL     1     108.030 106.812 104.549  1.00  0.00     0.156 C 
BRANCH   8   9
ATOM      9  O   UNL     1     109.212 107.127 105.235  1.00  0.00    -0.396 OA
ATOM     10  H   UNL     1     109.702 106.274 105.371  1.00  0.00     0.210 HD
ENDBRANCH   8   9
ENDBRANCH   7   8
ENDBRANCH   6   7
ENDBRANCH   1   6
TORSDOF 7
ENDMDL
