MODEL 1
REMARK VINA RESULT:     6.692      0.000      0.000
REMARK INTER + INTRA:           6.692
REMARK INTER:                   6.692
REMARK INTRA:                   0.000
REMARK UNBOUND:                 0.000
REMARK SMILES CC1=CC(=O)[C@@H]2C[C@H]1C2(C)C
REMARK SMILES IDX 1 1 2 2 3 3 4 4 5 5 6 6 7 7 8 8 9 9 10 10 11 11
REMARK H PARENT
REMARK Flexibility Score: inf
ROOT
ATOM      1  C   UNL     1      31.833  19.816  27.702  1.00  0.00     0.040 C 
ATOM      2  C   UNL     1      31.640  21.297  27.776  1.00  0.00    -0.066 C 
ATOM      3  C   UNL     1      30.398  21.854  27.716  1.00  0.00     0.047 C 
ATOM      4  C   UNL     1      30.334  23.347  27.833  1.00  0.00     0.159 C 
ATOM      5  O   UNL     1      29.244  23.975  27.831  1.00  0.00    -0.295 OA
ATOM      6  C   UNL     1      31.686  24.052  27.958  1.00  0.00     0.067 C 
ATOM      7  C   UNL     1      32.561  23.384  26.875  1.00  0.00     0.021 C 
ATOM      8  C   UNL     1      32.834  22.267  27.908  1.00  0.00     0.022 C 
ATOM      9  C   UNL     1      32.536  23.307  29.026  1.00  0.00    -0.019 C 
ATOM     10  C   UNL     1      33.797  24.108  29.438  1.00  0.00     0.012 C 
ATOM     11  C   UNL     1      31.829  22.812  30.321  1.00  0.00     0.012 C 
ENDROOT
TORSDOF 0
ENDMDL
