MODEL 1
REMARK VINA RESULT:    -3.300      0.000      0.000
REMARK INTER + INTRA:          -8.662
REMARK INTER:                  -6.387
REMARK INTRA:                  -2.275
REMARK UNBOUND:                -2.275
REMARK SMILES CCCCCCCCCCCCCCCCCC(=O)[O-]
REMARK SMILES IDX 10 1 11 2 12 3 13 4 14 5 15 6 16 7 17 8 18 9 19 10 20 11
REMARK SMILES IDX 9 12 8 13 7 14 6 15 5 16 4 17 3 18 2 19 1 20
REMARK H PARENT
REMARK Flexibility Score: inf
ROOT
ATOM      1  C   UNL     1      61.428  33.668  14.737  1.00  0.00     0.000 C 
ENDROOT
BRANCH   1   2
ATOM      2  C   UNL     1      60.158  34.244  15.395  1.00  0.00     0.000 C 
BRANCH   2   3
ATOM      3  C   UNL     1      59.152  33.194  15.895  1.00  0.00     0.000 C 
BRANCH   3   4
ATOM      4  C   UNL     1      58.060  33.792  16.795  1.00  0.00     0.000 C 
BRANCH   4   5
ATOM      5  C   UNL     1      58.384  35.249  17.160  1.00  0.00     0.000 C 
BRANCH   5   6
ATOM      6  C   UNL     1      57.143  36.015  17.662  1.00  0.00     0.000 C 
BRANCH   6   7
ATOM      7  C   UNL     1      55.937  35.927  16.711  1.00  0.00     0.006 C 
BRANCH   7   8
ATOM      8  C   UNL     1      55.687  37.229  15.942  1.00  0.00     0.053 C 
BRANCH   8   9
ATOM      9  C   UNL     1      54.597  38.020  16.596  1.00  0.00     0.041 C 
ATOM     10  O   UNL     1      54.802  38.588  17.701  1.00  0.00    -0.550 OA
ATOM     11  O   UNL     1      53.341  38.090  16.008  1.00  0.00    -0.550 OA
ENDBRANCH   8   9
ENDBRANCH   7   8
ENDBRANCH   6   7
ENDBRANCH   5   6
ENDBRANCH   4   5
ENDBRANCH   3   4
ENDBRANCH   2   3
ENDBRANCH   1   2
BRANCH   1  12
ATOM     12  C   UNL     1      61.686  34.142  13.293  1.00  0.00     0.000 C 
BRANCH  12  13
ATOM     13  C   UNL     1      60.419  34.438  12.466  1.00  0.00    -0.000 C 
BRANCH  13  14
ATOM     14  C   UNL     1      59.659  33.192  11.978  1.00  0.00    -0.000 C 
BRANCH  14  15
ATOM     15  C   UNL     1      58.188  33.485  11.640  1.00  0.00    -0.000 C 
BRANCH  15  16
ATOM     16  C   UNL     1      57.292  33.514  12.888  1.00  0.00    -0.000 C 
BRANCH  16  17
ATOM     17  C   UNL     1      56.923  34.944  13.316  1.00  0.00    -0.000 C 
BRANCH  17  18
ATOM     18  C   UNL     1      56.450  35.816  12.140  1.00  0.00    -0.000 C 
BRANCH  18  19
ATOM     19  C   UNL     1      55.108  36.530  12.402  1.00  0.00    -0.003 C 
ATOM     20  C   UNL     1      54.022  35.571  12.892  1.00  0.00     0.004 C 
ENDBRANCH  18  19
ENDBRANCH  17  18
ENDBRANCH  16  17
ENDBRANCH  15  16
ENDBRANCH  14  15
ENDBRANCH  13  14
ENDBRANCH  12  13
ENDBRANCH   1  12
TORSDOF 16
ENDMDL
MODEL 2
REMARK VINA RESULT:    -3.163      2.314      4.469
REMARK INTER + INTRA:          -8.396
REMARK INTER:                  -5.822
REMARK INTRA:                  -2.574
REMARK UNBOUND:                -2.275
REMARK SMILES CCCCCCCCCCCCCCCCCC(=O)[O-]
REMARK SMILES IDX 10 1 11 2 12 3 13 4 14 5 15 6 16 7 17 8 18 9 19 10 20 11
REMARK SMILES IDX 9 12 8 13 7 14 6 15 5 16 4 17 3 18 2 19 1 20
REMARK H PARENT
REMARK Flexibility Score: inf
ROOT
ATOM      1  C   UNL     1      57.776  31.526  12.013  1.00  0.00     0.000 C 
ENDROOT
BRANCH   1   2
ATOM      2  C   UNL     1      58.820  32.386  11.274  1.00  0.00     0.000 C 
BRANCH   2   3
ATOM      3  C   UNL     1      60.107  32.669  12.067  1.00  0.00     0.000 C 
BRANCH   3   4
ATOM      4  C   UNL     1      60.395  34.170  12.224  1.00  0.00     0.000 C 
BRANCH   4   5
ATOM      5  C   UNL     1      60.870  34.494  13.649  1.00  0.00     0.000 C 
BRANCH   5   6
ATOM      6  C   UNL     1      60.192  33.599  14.707  1.00  0.00     0.000 C 
BRANCH   6   7
ATOM      7  C   UNL     1      59.882  34.330  16.025  1.00  0.00     0.006 C 
BRANCH   7   8
ATOM      8  C   UNL     1      59.625  33.371  17.193  1.00  0.00     0.053 C 
BRANCH   8   9
ATOM      9  C   UNL     1      58.292  33.649  17.813  1.00  0.00     0.041 C 
ATOM     10  O   UNL     1      57.466  34.400  17.230  1.00  0.00    -0.550 OA
ATOM     11  O   UNL     1      57.980  33.118  19.058  1.00  0.00    -0.550 OA
ENDBRANCH   8   9
ENDBRANCH   7   8
ENDBRANCH   6   7
ENDBRANCH   5   6
ENDBRANCH   4   5
ENDBRANCH   3   4
ENDBRANCH   2   3
ENDBRANCH   1   2
BRANCH   1  12
ATOM     12  C   UNL     1      56.307  31.858  11.685  1.00  0.00     0.000 C 
BRANCH  12  13
ATOM     13  C   UNL     1      55.643  32.882  12.628  1.00  0.00    -0.000 C 
BRANCH  13  14
ATOM     14  C   UNL     1      56.505  33.309  13.830  1.00  0.00    -0.000 C 
BRANCH  14  15
ATOM     15  C   UNL     1      56.911  34.792  13.776  1.00  0.00    -0.000 C 
BRANCH  15  16
ATOM     16  C   UNL     1      56.857  35.365  12.351  1.00  0.00    -0.000 C 
BRANCH  16  17
ATOM     17  C   UNL     1      55.824  36.495  12.210  1.00  0.00    -0.000 C 
BRANCH  17  18
ATOM     18  C   UNL     1      55.145  36.853  13.542  1.00  0.00    -0.000 C 
BRANCH  18  19
ATOM     19  C   UNL     1      53.604  36.866  13.467  1.00  0.00    -0.003 C 
ATOM     20  C   UNL     1      53.018  35.469  13.265  1.00  0.00     0.004 C 
ENDBRANCH  18  19
ENDBRANCH  17  18
ENDBRANCH  16  17
ENDBRANCH  15  16
ENDBRANCH  14  15
ENDBRANCH  13  14
ENDBRANCH  12  13
ENDBRANCH   1  12
TORSDOF 16
ENDMDL
MODEL 3
REMARK VINA RESULT:    -3.148      9.498     13.035
REMARK INTER + INTRA:          -8.367
REMARK INTER:                  -5.462
REMARK INTRA:                  -2.906
REMARK UNBOUND:                -2.275
REMARK SMILES CCCCCCCCCCCCCCCCCC(=O)[O-]
REMARK SMILES IDX 10 1 11 2 12 3 13 4 14 5 15 6 16 7 17 8 18 9 19 10 20 11
REMARK SMILES IDX 9 12 8 13 7 14 6 15 5 16 4 17 3 18 2 19 1 20
REMARK H PARENT
REMARK Flexibility Score: inf
ROOT
ATOM      1  C   UNL     1      54.016  48.780  15.492  1.00  0.00     0.000 C 
ENDROOT
BRANCH   1   2
ATOM      2  C   UNL     1      54.404  49.709  14.325  1.00  0.00     0.000 C 
BRANCH   2   3
ATOM      3  C   UNL     1      53.231  50.169  13.442  1.00  0.00     0.000 C 
BRANCH   3   4
ATOM      4  C   UNL     1      53.089  49.338  12.157  1.00  0.00     0.000 C 
BRANCH   4   5
ATOM      5  C   UNL     1      52.059  48.213  12.339  1.00  0.00     0.000 C 
BRANCH   5   6
ATOM      6  C   UNL     1      50.861  48.654  13.206  1.00  0.00     0.000 C 
BRANCH   6   7
ATOM      7  C   UNL     1      50.564  47.701  14.378  1.00  0.00     0.006 C 
BRANCH   7   8
ATOM      8  C   UNL     1      51.153  46.301  14.171  1.00  0.00     0.053 C 
BRANCH   8   9
ATOM      9  C   UNL     1      51.220  45.566  15.473  1.00  0.00     0.041 C 
ATOM     10  O   UNL     1      51.415  46.195  16.547  1.00  0.00    -0.550 OA
ATOM     11  O   UNL     1      51.114  44.181  15.495  1.00  0.00    -0.550 OA
ENDBRANCH   8   9
ENDBRANCH   7   8
ENDBRANCH   6   7
ENDBRANCH   5   6
ENDBRANCH   4   5
ENDBRANCH   3   4
ENDBRANCH   2   3
ENDBRANCH   1   2
BRANCH   1  12
ATOM     12  C   UNL     1      54.521  47.329  15.366  1.00  0.00     0.000 C 
BRANCH  12  13
ATOM     13  C   UNL     1      55.191  46.985  14.021  1.00  0.00    -0.000 C 
BRANCH  13  14
ATOM     14  C   UNL     1      56.696  46.674  14.109  1.00  0.00    -0.000 C 
BRANCH  14  15
ATOM     15  C   UNL     1      57.318  47.116  15.444  1.00  0.00    -0.000 C 
BRANCH  15  16
ATOM     16  C   UNL     1      57.872  45.934  16.255  1.00  0.00    -0.000 C 
BRANCH  16  17
ATOM     17  C   UNL     1      57.633  44.582  15.563  1.00  0.00    -0.000 C 
BRANCH  17  18
ATOM     18  C   UNL     1      56.739  43.639  16.388  1.00  0.00    -0.000 C 
BRANCH  18  19
ATOM     19  C   UNL     1      55.249  43.700  15.994  1.00  0.00    -0.003 C 
ATOM     20  C   UNL     1      54.352  44.098  17.167  1.00  0.00     0.004 C 
ENDBRANCH  18  19
ENDBRANCH  17  18
ENDBRANCH  16  17
ENDBRANCH  15  16
ENDBRANCH  14  15
ENDBRANCH  13  14
ENDBRANCH  12  13
ENDBRANCH   1  12
TORSDOF 16
ENDMDL
MODEL 4
REMARK VINA RESULT:    -3.116      1.437      1.912
REMARK INTER + INTRA:          -8.306
REMARK INTER:                  -5.686
REMARK INTRA:                  -2.619
REMARK UNBOUND:                -2.275
REMARK SMILES CCCCCCCCCCCCCCCCCC(=O)[O-]
REMARK SMILES IDX 10 1 11 2 12 3 13 4 14 5 15 6 16 7 17 8 18 9 19 10 20 11
REMARK SMILES IDX 9 12 8 13 7 14 6 15 5 16 4 17 3 18 2 19 1 20
REMARK H PARENT
REMARK Flexibility Score: inf
ROOT
ATOM      1  C   UNL     1      61.169  33.653  15.022  1.00  0.00     0.000 C 
ENDROOT
BRANCH   1   2
ATOM      2  C   UNL     1      59.791  34.178  15.471  1.00  0.00     0.000 C 
BRANCH   2   3
ATOM      3  C   UNL     1      58.708  33.098  15.639  1.00  0.00     0.000 C 
BRANCH   3   4
ATOM      4  C   UNL     1      57.419  33.639  16.275  1.00  0.00     0.000 C 
BRANCH   4   5
ATOM      5  C   UNL     1      57.423  35.175  16.309  1.00  0.00     0.000 C 
BRANCH   5   6
ATOM      6  C   UNL     1      55.999  35.761  16.404  1.00  0.00     0.000 C 
BRANCH   6   7
ATOM      7  C   UNL     1      55.774  36.986  15.500  1.00  0.00     0.006 C 
BRANCH   7   8
ATOM      8  C   UNL     1      54.815  36.701  14.339  1.00  0.00     0.053 C 
BRANCH   8   9
ATOM      9  C   UNL     1      53.533  37.450  14.525  1.00  0.00     0.041 C 
ATOM     10  O   UNL     1      53.307  38.060  15.603  1.00  0.00    -0.550 OA
ATOM     11  O   UNL     1      52.567  37.434  13.527  1.00  0.00    -0.550 OA
ENDBRANCH   8   9
ENDBRANCH   7   8
ENDBRANCH   6   7
ENDBRANCH   5   6
ENDBRANCH   4   5
ENDBRANCH   3   4
ENDBRANCH   2   3
ENDBRANCH   1   2
BRANCH   1  12
ATOM     12  C   UNL     1      61.655  34.180  13.658  1.00  0.00     0.000 C 
BRANCH  12  13
ATOM     13  C   UNL     1      60.539  34.475  12.636  1.00  0.00    -0.000 C 
BRANCH  13  14
ATOM     14  C   UNL     1      59.988  33.239  11.904  1.00  0.00    -0.000 C 
BRANCH  14  15
ATOM     15  C   UNL     1      58.454  33.152  11.952  1.00  0.00    -0.000 C 
BRANCH  15  16
ATOM     16  C   UNL     1      57.799  34.494  12.315  1.00  0.00    -0.000 C 
BRANCH  16  17
ATOM     17  C   UNL     1      56.314  34.345  12.683  1.00  0.00    -0.000 C 
BRANCH  17  18
ATOM     18  C   UNL     1      55.781  32.921  12.449  1.00  0.00    -0.000 C 
BRANCH  18  19
ATOM     19  C   UNL     1      55.265  32.236  13.732  1.00  0.00    -0.003 C 
ATOM     20  C   UNL     1      54.169  33.046  14.425  1.00  0.00     0.004 C 
ENDBRANCH  18  19
ENDBRANCH  17  18
ENDBRANCH  16  17
ENDBRANCH  15  16
ENDBRANCH  14  15
ENDBRANCH  13  14
ENDBRANCH  12  13
ENDBRANCH   1  12
TORSDOF 16
ENDMDL
MODEL 5
REMARK VINA RESULT:    -3.092     12.179     14.274
REMARK INTER + INTRA:          -8.258
REMARK INTER:                  -6.169
REMARK INTRA:                  -2.089
REMARK UNBOUND:                -2.275
REMARK SMILES CCCCCCCCCCCCCCCCCC(=O)[O-]
REMARK SMILES IDX 10 1 11 2 12 3 13 4 14 5 15 6 16 7 17 8 18 9 19 10 20 11
REMARK SMILES IDX 9 12 8 13 7 14 6 15 5 16 4 17 3 18 2 19 1 20
REMARK H PARENT
REMARK Flexibility Score: inf
ROOT
ATOM      1  C   UNL     1      50.906  46.183  16.515  1.00  0.00     0.000 C 
ENDROOT
BRANCH   1   2
ATOM      2  C   UNL     1      51.696  45.920  15.218  1.00  0.00     0.000 C 
BRANCH   2   3
ATOM      3  C   UNL     1      51.137  46.615  13.964  1.00  0.00     0.000 C 
BRANCH   3   4
ATOM      4  C   UNL     1      50.025  47.625  14.286  1.00  0.00     0.000 C 
BRANCH   4   5
ATOM      5  C   UNL     1      50.308  48.985  13.632  1.00  0.00     0.000 C 
BRANCH   5   6
ATOM      6  C   UNL     1      51.396  48.893  12.541  1.00  0.00     0.000 C 
BRANCH   6   7
ATOM      7  C   UNL     1      52.329  50.115  12.495  1.00  0.00     0.006 C 
BRANCH   7   8
ATOM      8  C   UNL     1      53.813  49.734  12.552  1.00  0.00     0.053 C 
BRANCH   8   9
ATOM      9  C   UNL     1      54.060  48.761  13.662  1.00  0.00     0.041 C 
ATOM     10  O   UNL     1      53.885  49.109  14.859  1.00  0.00    -0.550 OA
ATOM     11  O   UNL     1      54.529  47.486  13.376  1.00  0.00    -0.550 OA
ENDBRANCH   8   9
ENDBRANCH   7   8
ENDBRANCH   6   7
ENDBRANCH   5   6
ENDBRANCH   4   5
ENDBRANCH   3   4
ENDBRANCH   2   3
ENDBRANCH   1   2
BRANCH   1  12
ATOM     12  C   UNL     1      49.966  45.041  16.949  1.00  0.00     0.000 C 
BRANCH  12  13
ATOM     13  C   UNL     1      49.934  43.826  16.000  1.00  0.00    -0.000 C 
BRANCH  13  14
ATOM     14  C   UNL     1      48.607  43.629  15.246  1.00  0.00    -0.000 C 
BRANCH  14  15
ATOM     15  C   UNL     1      47.723  44.888  15.257  1.00  0.00    -0.000 C 
BRANCH  15  16
ATOM     16  C   UNL     1      46.258  44.575  15.597  1.00  0.00    -0.000 C 
BRANCH  16  17
ATOM     17  C   UNL     1      46.115  43.759  16.892  1.00  0.00    -0.000 C 
BRANCH  17  18
ATOM     18  C   UNL     1      45.234  42.511  16.717  1.00  0.00    -0.000 C 
BRANCH  18  19
ATOM     19  C   UNL     1      45.294  41.906  15.299  1.00  0.00    -0.003 C 
ATOM     20  C   UNL     1      46.242  40.709  15.215  1.00  0.00     0.004 C 
ENDBRANCH  18  19
ENDBRANCH  17  18
ENDBRANCH  16  17
ENDBRANCH  15  16
ENDBRANCH  14  15
ENDBRANCH  13  14
ENDBRANCH  12  13
ENDBRANCH   1  12
TORSDOF 16
ENDMDL
MODEL 6
REMARK VINA RESULT:    -3.077     12.589     14.618
REMARK INTER + INTRA:          -8.230
REMARK INTER:                  -5.541
REMARK INTRA:                  -2.688
REMARK UNBOUND:                -2.275
REMARK SMILES CCCCCCCCCCCCCCCCCC(=O)[O-]
REMARK SMILES IDX 10 1 11 2 12 3 13 4 14 5 15 6 16 7 17 8 18 9 19 10 20 11
REMARK SMILES IDX 9 12 8 13 7 14 6 15 5 16 4 17 3 18 2 19 1 20
REMARK H PARENT
REMARK Flexibility Score: inf
ROOT
ATOM      1  C   UNL     1      50.915  46.594  13.840  1.00  0.00     0.000 C 
ENDROOT
BRANCH   1   2
ATOM      2  C   UNL     1      50.728  46.621  15.370  1.00  0.00     0.000 C 
BRANCH   2   3
ATOM      3  C   UNL     1      49.349  47.110  15.847  1.00  0.00     0.000 C 
BRANCH   3   4
ATOM      4  C   UNL     1      48.493  45.987  16.451  1.00  0.00     0.000 C 
BRANCH   4   5
ATOM      5  C   UNL     1      49.363  44.784  16.848  1.00  0.00     0.000 C 
BRANCH   5   6
ATOM      6  C   UNL     1      48.878  43.473  16.194  1.00  0.00     0.000 C 
BRANCH   6   7
ATOM      7  C   UNL     1      48.260  43.670  14.799  1.00  0.00     0.006 C 
BRANCH   7   8
ATOM      8  C   UNL     1      47.043  42.770  14.554  1.00  0.00     0.053 C 
BRANCH   8   9
ATOM      9  C   UNL     1      45.927  43.138  15.481  1.00  0.00     0.041 C 
ATOM     10  O   UNL     1      45.483  44.316  15.502  1.00  0.00    -0.550 OA
ATOM     11  O   UNL     1      45.409  42.191  16.354  1.00  0.00    -0.550 OA
ENDBRANCH   8   9
ENDBRANCH   7   8
ENDBRANCH   6   7
ENDBRANCH   5   6
ENDBRANCH   4   5
ENDBRANCH   3   4
ENDBRANCH   2   3
ENDBRANCH   1   2
BRANCH   1  12
ATOM     12  C   UNL     1      52.298  47.061  13.343  1.00  0.00     0.000 C 
BRANCH  12  13
ATOM     13  C   UNL     1      53.152  47.801  14.392  1.00  0.00    -0.000 C 
BRANCH  13  14
ATOM     14  C   UNL     1      53.809  49.100  13.891  1.00  0.00    -0.000 C 
BRANCH  14  15
ATOM     15  C   UNL     1      53.229  50.357  14.560  1.00  0.00    -0.000 C 
BRANCH  15  16
ATOM     16  C   UNL     1      52.319  50.023  15.752  1.00  0.00    -0.000 C 
BRANCH  16  17
ATOM     17  C   UNL     1      50.857  50.431  15.509  1.00  0.00    -0.000 C 
BRANCH  17  18
ATOM     18  C   UNL     1      50.631  51.041  14.115  1.00  0.00    -0.000 C 
BRANCH  18  19
ATOM     19  C   UNL     1      49.810  50.138  13.172  1.00  0.00    -0.003 C 
ATOM     20  C   UNL     1      50.517  49.890  11.839  1.00  0.00     0.004 C 
ENDBRANCH  18  19
ENDBRANCH  17  18
ENDBRANCH  16  17
ENDBRANCH  15  16
ENDBRANCH  14  15
ENDBRANCH  13  14
ENDBRANCH  12  13
ENDBRANCH   1  12
TORSDOF 16
ENDMDL
MODEL 7
REMARK VINA RESULT:    -3.063     11.894     14.443
REMARK INTER + INTRA:          -8.202
REMARK INTER:                  -6.549
REMARK INTRA:                  -1.653
REMARK UNBOUND:                -2.275
REMARK SMILES CCCCCCCCCCCCCCCCCC(=O)[O-]
REMARK SMILES IDX 10 1 11 2 12 3 13 4 14 5 15 6 16 7 17 8 18 9 19 10 20 11
REMARK SMILES IDX 9 12 8 13 7 14 6 15 5 16 4 17 3 18 2 19 1 20
REMARK H PARENT
REMARK Flexibility Score: inf
ROOT
ATOM      1  C   UNL     1      50.767  45.475  15.233  1.00  0.00     0.000 C 
ENDROOT
BRANCH   1   2
ATOM      2  C   UNL     1      51.083  46.372  14.020  1.00  0.00     0.000 C 
BRANCH   2   3
ATOM      3  C   UNL     1      50.525  47.803  14.107  1.00  0.00     0.000 C 
BRANCH   3   4
ATOM      4  C   UNL     1      51.126  48.744  13.052  1.00  0.00     0.000 C 
BRANCH   4   5
ATOM      5  C   UNL     1      52.425  48.165  12.472  1.00  0.00     0.000 C 
BRANCH   5   6
ATOM      6  C   UNL     1      53.598  49.164  12.554  1.00  0.00     0.000 C 
BRANCH   6   7
ATOM      7  C   UNL     1      54.613  48.835  13.662  1.00  0.00     0.006 C 
BRANCH   7   8
ATOM      8  C   UNL     1      54.504  47.390  14.160  1.00  0.00     0.053 C 
BRANCH   8   9
ATOM      9  C   UNL     1      55.824  46.694  14.038  1.00  0.00     0.041 C 
ATOM     10  O   UNL     1      56.682  47.105  13.213  1.00  0.00    -0.550 OA
ATOM     11  O   UNL     1      56.087  45.564  14.800  1.00  0.00    -0.550 OA
ENDBRANCH   8   9
ENDBRANCH   7   8
ENDBRANCH   6   7
ENDBRANCH   5   6
ENDBRANCH   4   5
ENDBRANCH   3   4
ENDBRANCH   2   3
ENDBRANCH   1   2
BRANCH   1  12
ATOM     12  C   UNL     1      49.534  44.565  15.068  1.00  0.00     0.000 C 
BRANCH  12  13
ATOM     13  C   UNL     1      48.174  45.282  15.183  1.00  0.00    -0.000 C 
BRANCH  13  14
ATOM     14  C   UNL     1      47.730  45.600  16.622  1.00  0.00    -0.000 C 
BRANCH  14  15
ATOM     15  C   UNL     1      46.325  46.223  16.688  1.00  0.00    -0.000 C 
BRANCH  15  16
ATOM     16  C   UNL     1      45.212  45.189  16.455  1.00  0.00    -0.000 C 
BRANCH  16  17
ATOM     17  C   UNL     1      45.295  44.004  17.431  1.00  0.00    -0.000 C 
BRANCH  17  18
ATOM     18  C   UNL     1      45.180  42.641  16.727  1.00  0.00    -0.000 C 
BRANCH  18  19
ATOM     19  C   UNL     1      45.362  42.719  15.196  1.00  0.00    -0.003 C 
ATOM     20  C   UNL     1      46.627  42.004  14.722  1.00  0.00     0.004 C 
ENDBRANCH  18  19
ENDBRANCH  17  18
ENDBRANCH  16  17
ENDBRANCH  15  16
ENDBRANCH  14  15
ENDBRANCH  13  14
ENDBRANCH  12  13
ENDBRANCH   1  12
TORSDOF 16
ENDMDL
MODEL 8
REMARK VINA RESULT:    -3.055     12.934     15.024
REMARK INTER + INTRA:          -8.186
REMARK INTER:                  -6.267
REMARK INTRA:                  -1.919
REMARK UNBOUND:                -2.275
REMARK SMILES CCCCCCCCCCCCCCCCCC(=O)[O-]
REMARK SMILES IDX 10 1 11 2 12 3 13 4 14 5 15 6 16 7 17 8 18 9 19 10 20 11
REMARK SMILES IDX 9 12 8 13 7 14 6 15 5 16 4 17 3 18 2 19 1 20
REMARK H PARENT
REMARK Flexibility Score: inf
ROOT
ATOM      1  C   UNL     1      49.734  48.823  13.698  1.00  0.00     0.000 C 
ENDROOT
BRANCH   1   2
ATOM      2  C   UNL     1      50.331  50.078  13.031  1.00  0.00     0.000 C 
BRANCH   2   3
ATOM      3  C   UNL     1      50.534  49.971  11.510  1.00  0.00     0.000 C 
BRANCH   3   4
ATOM      4  C   UNL     1      51.887  49.351  11.130  1.00  0.00     0.000 C 
BRANCH   4   5
ATOM      5  C   UNL     1      53.030  49.990  11.932  1.00  0.00     0.000 C 
BRANCH   5   6
ATOM      6  C   UNL     1      53.882  48.938  12.673  1.00  0.00     0.000 C 
BRANCH   6   7
ATOM      7  C   UNL     1      54.367  49.401  14.058  1.00  0.00     0.006 C 
BRANCH   7   8
ATOM      8  C   UNL     1      53.599  50.620  14.582  1.00  0.00     0.053 C 
BRANCH   8   9
ATOM      9  C   UNL     1      53.270  50.447  16.031  1.00  0.00     0.041 C 
ATOM     10  O   UNL     1      53.941  49.654  16.743  1.00  0.00    -0.550 OA
ATOM     11  O   UNL     1      52.192  51.125  16.585  1.00  0.00    -0.550 OA
ENDBRANCH   8   9
ENDBRANCH   7   8
ENDBRANCH   6   7
ENDBRANCH   5   6
ENDBRANCH   4   5
ENDBRANCH   3   4
ENDBRANCH   2   3
ENDBRANCH   1   2
BRANCH   1  12
ATOM     12  C   UNL     1      50.525  48.291  14.910  1.00  0.00     0.000 C 
BRANCH  12  13
ATOM     13  C   UNL     1      51.420  47.069  14.621  1.00  0.00    -0.000 C 
BRANCH  13  14
ATOM     14  C   UNL     1      50.670  45.823  14.117  1.00  0.00    -0.000 C 
BRANCH  14  15
ATOM     15  C   UNL     1      50.058  44.993  15.258  1.00  0.00    -0.000 C 
BRANCH  15  16
ATOM     16  C   UNL     1      48.549  44.768  15.077  1.00  0.00    -0.000 C 
BRANCH  16  17
ATOM     17  C   UNL     1      48.135  43.312  15.347  1.00  0.00    -0.000 C 
BRANCH  17  18
ATOM     18  C   UNL     1      46.950  42.857  14.477  1.00  0.00    -0.000 C 
BRANCH  18  19
ATOM     19  C   UNL     1      45.699  42.470  15.292  1.00  0.00    -0.003 C 
ATOM     20  C   UNL     1      45.801  42.898  16.757  1.00  0.00     0.004 C 
ENDBRANCH  18  19
ENDBRANCH  17  18
ENDBRANCH  16  17
ENDBRANCH  15  16
ENDBRANCH  14  15
ENDBRANCH  13  14
ENDBRANCH  12  13
ENDBRANCH   1  12
TORSDOF 16
ENDMDL
MODEL 9
REMARK VINA RESULT:    -3.032     10.265     14.072
REMARK INTER + INTRA:          -8.143
REMARK INTER:                  -6.113
REMARK INTRA:                  -2.030
REMARK UNBOUND:                -2.275
REMARK SMILES CCCCCCCCCCCCCCCCCC(=O)[O-]
REMARK SMILES IDX 10 1 11 2 12 3 13 4 14 5 15 6 16 7 17 8 18 9 19 10 20 11
REMARK SMILES IDX 9 12 8 13 7 14 6 15 5 16 4 17 3 18 2 19 1 20
REMARK H PARENT
REMARK Flexibility Score: inf
ROOT
ATOM      1  C   UNL     1      52.258  50.111  11.423  1.00  0.00     0.000 C 
ENDROOT
BRANCH   1   2
ATOM      2  C   UNL     1      52.790  51.005  12.561  1.00  0.00     0.000 C 
BRANCH   2   3
ATOM      3  C   UNL     1      53.861  50.353  13.452  1.00  0.00     0.000 C 
BRANCH   3   4
ATOM      4  C   UNL     1      54.288  48.964  12.955  1.00  0.00     0.000 C 
BRANCH   4   5
ATOM      5  C   UNL     1      55.407  48.384  13.833  1.00  0.00     0.000 C 
BRANCH   5   6
ATOM      6  C   UNL     1      55.433  46.842  13.803  1.00  0.00     0.000 C 
BRANCH   6   7
ATOM      7  C   UNL     1      56.218  46.215  14.968  1.00  0.00     0.006 C 
BRANCH   7   8
ATOM      8  C   UNL     1      55.336  45.368  15.893  1.00  0.00     0.053 C 
BRANCH   8   9
ATOM      9  C   UNL     1      55.870  43.973  15.990  1.00  0.00     0.041 C 
ATOM     10  O   UNL     1      56.883  43.635  15.323  1.00  0.00    -0.550 OA
ATOM     11  O   UNL     1      55.221  43.034  16.780  1.00  0.00    -0.550 OA
ENDBRANCH   8   9
ENDBRANCH   7   8
ENDBRANCH   6   7
ENDBRANCH   5   6
ENDBRANCH   4   5
ENDBRANCH   3   4
ENDBRANCH   2   3
ENDBRANCH   1   2
BRANCH   1  12
ATOM     12  C   UNL     1      50.737  49.858  11.449  1.00  0.00     0.000 C 
BRANCH  12  13
ATOM     13  C   UNL     1      50.050  50.147  12.799  1.00  0.00    -0.000 C 
BRANCH  13  14
ATOM     14  C   UNL     1      49.680  48.897  13.617  1.00  0.00    -0.000 C 
BRANCH  14  15
ATOM     15  C   UNL     1      50.886  48.289  14.353  1.00  0.00    -0.000 C 
BRANCH  15  16
ATOM     16  C   UNL     1      51.313  46.935  13.765  1.00  0.00    -0.000 C 
BRANCH  16  17
ATOM     17  C   UNL     1      51.884  45.984  14.830  1.00  0.00    -0.000 C 
BRANCH  17  18
ATOM     18  C   UNL     1      50.790  45.282  15.652  1.00  0.00    -0.000 C 
BRANCH  18  19
ATOM     19  C   UNL     1      49.581  44.825  14.808  1.00  0.00    -0.003 C 
ATOM     20  C   UNL     1      48.767  43.731  15.500  1.00  0.00     0.004 C 
ENDBRANCH  18  19
ENDBRANCH  17  18
ENDBRANCH  16  17
ENDBRANCH  15  16
ENDBRANCH  14  15
ENDBRANCH  13  14
ENDBRANCH  12  13
ENDBRANCH   1  12
TORSDOF 16
ENDMDL
