MODEL 1
REMARK VINA RESULT:    -5.060      0.000      0.000
REMARK INTER + INTRA:         -11.805
REMARK INTER:                  -9.202
REMARK INTRA:                  -2.603
REMARK UNBOUND:                -2.603
REMARK SMILES CCCCCCCCCCCCCC[C@@H](C)C(=O)[O-]
REMARK SMILES IDX 9 1 10 2 11 3 12 4 13 5 14 6 15 7 16 8 17 9 18 10 19 11 8 12
REMARK SMILES IDX 7 13 6 14 5 15 4 16 3 17 2 18 1 19
REMARK H PARENT
REMARK Flexibility Score: inf
ROOT
ATOM      1  C   UNL     1      10.364  16.024  67.271  1.00  0.00     0.000 C 
ENDROOT
BRANCH   1   2
ATOM      2  C   UNL     1      11.449  17.035  67.684  1.00  0.00     0.000 C 
BRANCH   2   3
ATOM      3  C   UNL     1      10.878  18.285  68.387  1.00  0.00     0.000 C 
BRANCH   3   4
ATOM      4  C   UNL     1      11.312  18.375  69.858  1.00  0.00     0.000 C 
BRANCH   4   5
ATOM      5  C   UNL     1      12.362  17.304  70.186  1.00  0.00     0.001 C 
BRANCH   5   6
ATOM      6  C   UNL     1      12.176  16.704  71.598  1.00  0.00     0.009 C 
BRANCH   6   7
ATOM      7  C   UNL     1      10.928  15.808  71.769  1.00  0.00     0.032 C 
ATOM      8  C   UNL     1      11.287  14.362  72.149  1.00  0.00     0.014 C 
BRANCH   7   9
ATOM      9  C   UNL     1       9.924  16.400  72.727  1.00  0.00     0.044 C 
ATOM     10  O   UNL     1       9.780  15.920  73.888  1.00  0.00    -0.550 OA
ATOM     11  O   UNL     1       9.194  17.523  72.354  1.00  0.00    -0.550 OA
ENDBRANCH   7   9
ENDBRANCH   6   7
ENDBRANCH   5   6
ENDBRANCH   4   5
ENDBRANCH   3   4
ENDBRANCH   2   3
ENDBRANCH   1   2
BRANCH   1  12
ATOM     12  C   UNL     1       9.521  15.479  68.438  1.00  0.00     0.000 C 
BRANCH  12  13
ATOM     13  C   UNL     1       9.807  14.014  68.820  1.00  0.00    -0.000 C 
BRANCH  13  14
ATOM     14  C   UNL     1      10.898  13.376  67.950  1.00  0.00    -0.000 C 
BRANCH  14  15
ATOM     15  C   UNL     1      12.112  12.965  68.789  1.00  0.00    -0.000 C 
BRANCH  15  16
ATOM     16  C   UNL     1      13.161  14.087  68.808  1.00  0.00    -0.000 C 
BRANCH  16  17
ATOM     17  C   UNL     1      14.215  13.898  69.908  1.00  0.00    -0.000 C 
BRANCH  17  18
ATOM     18  C   UNL     1      15.261  15.022  69.926  1.00  0.00    -0.003 C 
ATOM     19  C   UNL     1      16.676  14.461  69.862  1.00  0.00     0.004 C 
ENDBRANCH  17  18
ENDBRANCH  16  17
ENDBRANCH  15  16
ENDBRANCH  14  15
ENDBRANCH  13  14
ENDBRANCH  12  13
ENDBRANCH   1  12
TORSDOF 14
ENDMDL
MODEL 2
REMARK VINA RESULT:    -4.993      2.545      4.152
REMARK INTER + INTRA:         -11.683
REMARK INTER:                  -9.239
REMARK INTRA:                  -2.443
REMARK UNBOUND:                -2.603
REMARK SMILES CCCCCCCCCCCCCC[C@@H](C)C(=O)[O-]
REMARK SMILES IDX 9 1 10 2 11 3 12 4 13 5 14 6 15 7 16 8 17 9 18 10 19 11 8 12
REMARK SMILES IDX 7 13 6 14 5 15 4 16 3 17 2 18 1 19
REMARK H PARENT
REMARK Flexibility Score: inf
ROOT
ATOM      1  C   UNL     1      11.296  13.268  71.226  1.00  0.00     0.000 C 
ENDROOT
BRANCH   1   2
ATOM      2  C   UNL     1      10.886  14.540  71.990  1.00  0.00     0.000 C 
BRANCH   2   3
ATOM      3  C   UNL     1      12.074  15.481  72.284  1.00  0.00     0.000 C 
BRANCH   3   4
ATOM      4  C   UNL     1      11.857  16.889  71.710  1.00  0.00     0.000 C 
BRANCH   4   5
ATOM      5  C   UNL     1      10.720  16.892  70.678  1.00  0.00     0.001 C 
BRANCH   5   6
ATOM      6  C   UNL     1      11.118  17.591  69.359  1.00  0.00     0.009 C 
BRANCH   6   7
ATOM      7  C   UNL     1      11.073  16.691  68.102  1.00  0.00     0.032 C 
ATOM      8  C   UNL     1       9.651  16.210  67.771  1.00  0.00     0.014 C 
BRANCH   7   9
ATOM      9  C   UNL     1      11.732  17.340  66.909  1.00  0.00     0.044 C 
ATOM     10  O   UNL     1      11.486  18.545  66.614  1.00  0.00    -0.550 OA
ATOM     11  O   UNL     1      12.664  16.627  66.165  1.00  0.00    -0.550 OA
ENDBRANCH   7   9
ENDBRANCH   6   7
ENDBRANCH   5   6
ENDBRANCH   4   5
ENDBRANCH   3   4
ENDBRANCH   2   3
ENDBRANCH   1   2
BRANCH   1  12
ATOM     12  C   UNL     1      10.856  13.239  69.751  1.00  0.00     0.000 C 
BRANCH  12  13
ATOM     13  C   UNL     1      12.007  13.211  68.729  1.00  0.00    -0.000 C 
BRANCH  13  14
ATOM     14  C   UNL     1      13.373  13.500  69.365  1.00  0.00    -0.000 C 
BRANCH  14  15
ATOM     15  C   UNL     1      13.893  14.885  68.967  1.00  0.00    -0.000 C 
BRANCH  15  16
ATOM     16  C   UNL     1      14.880  15.414  70.019  1.00  0.00    -0.000 C 
BRANCH  16  17
ATOM     17  C   UNL     1      16.043  14.449  70.283  1.00  0.00    -0.000 C 
BRANCH  17  18
ATOM     18  C   UNL     1      17.088  14.457  69.158  1.00  0.00    -0.003 C 
ATOM     19  C   UNL     1      18.504  14.512  69.719  1.00  0.00     0.004 C 
ENDBRANCH  17  18
ENDBRANCH  16  17
ENDBRANCH  15  16
ENDBRANCH  14  15
ENDBRANCH  13  14
ENDBRANCH  12  13
ENDBRANCH   1  12
TORSDOF 14
ENDMDL
MODEL 3
REMARK VINA RESULT:    -4.838      2.732      4.666
REMARK INTER + INTRA:         -11.401
REMARK INTER:                  -8.987
REMARK INTRA:                  -2.414
REMARK UNBOUND:                -2.603
REMARK SMILES CCCCCCCCCCCCCC[C@@H](C)C(=O)[O-]
REMARK SMILES IDX 9 1 10 2 11 3 12 4 13 5 14 6 15 7 16 8 17 9 18 10 19 11 8 12
REMARK SMILES IDX 7 13 6 14 5 15 4 16 3 17 2 18 1 19
REMARK H PARENT
REMARK Flexibility Score: inf
ROOT
ATOM      1  C   UNL     1      10.191  17.664  69.077  1.00  0.00     0.000 C 
ENDROOT
BRANCH   1   2
ATOM      2  C   UNL     1      11.149  18.413  68.133  1.00  0.00     0.000 C 
BRANCH   2   3
ATOM      3  C   UNL     1      11.598  17.566  66.924  1.00  0.00     0.000 C 
BRANCH   3   4
ATOM      4  C   UNL     1      11.630  16.064  67.246  1.00  0.00     0.000 C 
BRANCH   4   5
ATOM      5  C   UNL     1      13.074  15.545  67.302  1.00  0.00     0.001 C 
BRANCH   5   6
ATOM      6  C   UNL     1      13.417  14.895  68.661  1.00  0.00     0.009 C 
BRANCH   6   7
ATOM      7  C   UNL     1      14.478  15.647  69.497  1.00  0.00     0.032 C 
ATOM      8  C   UNL     1      13.852  16.533  70.587  1.00  0.00     0.014 C 
BRANCH   7   9
ATOM      9  C   UNL     1      15.521  14.718  70.070  1.00  0.00     0.044 C 
ATOM     10  O   UNL     1      16.663  14.623  69.534  1.00  0.00    -0.550 OA
ATOM     11  O   UNL     1      15.248  14.008  71.233  1.00  0.00    -0.550 OA
ENDBRANCH   7   9
ENDBRANCH   6   7
ENDBRANCH   5   6
ENDBRANCH   4   5
ENDBRANCH   3   4
ENDBRANCH   2   3
ENDBRANCH   1   2
BRANCH   1  12
ATOM     12  C   UNL     1      10.366  18.005  70.568  1.00  0.00     0.000 C 
BRANCH  12  13
ATOM     13  C   UNL     1      10.424  16.789  71.511  1.00  0.00    -0.000 C 
BRANCH  13  14
ATOM     14  C   UNL     1      10.268  15.455  70.770  1.00  0.00    -0.000 C 
BRANCH  14  15
ATOM     15  C   UNL     1      11.161  14.370  71.381  1.00  0.00    -0.000 C 
BRANCH  15  16
ATOM     16  C   UNL     1      11.074  13.074  70.560  1.00  0.00    -0.000 C 
BRANCH  16  17
ATOM     17  C   UNL     1      10.258  13.240  69.270  1.00  0.00    -0.000 C 
BRANCH  17  18
ATOM     18  C   UNL     1      10.496  12.102  68.267  1.00  0.00    -0.003 C 
ATOM     19  C   UNL     1       9.511  10.960  68.483  1.00  0.00     0.004 C 
ENDBRANCH  17  18
ENDBRANCH  16  17
ENDBRANCH  15  16
ENDBRANCH  14  15
ENDBRANCH  13  14
ENDBRANCH  12  13
ENDBRANCH   1  12
TORSDOF 14
ENDMDL
MODEL 4
REMARK VINA RESULT:    -4.812      1.615      3.358
REMARK INTER + INTRA:         -11.354
REMARK INTER:                  -8.916
REMARK INTRA:                  -2.438
REMARK UNBOUND:                -2.603
REMARK SMILES CCCCCCCCCCCCCC[C@@H](C)C(=O)[O-]
REMARK SMILES IDX 9 1 10 2 11 3 12 4 13 5 14 6 15 7 16 8 17 9 18 10 19 11 8 12
REMARK SMILES IDX 7 13 6 14 5 15 4 16 3 17 2 18 1 19
REMARK H PARENT
REMARK Flexibility Score: inf
ROOT
ATOM      1  C   UNL     1      10.805  16.366  67.246  1.00  0.00     0.000 C 
ENDROOT
BRANCH   1   2
ATOM      2  C   UNL     1      10.200  17.015  68.503  1.00  0.00     0.000 C 
BRANCH   2   3
ATOM      3  C   UNL     1      11.225  17.828  69.321  1.00  0.00     0.000 C 
BRANCH   3   4
ATOM      4  C   UNL     1      11.408  17.273  70.742  1.00  0.00     0.000 C 
BRANCH   4   5
ATOM      5  C   UNL     1      10.148  16.527  71.205  1.00  0.00     0.001 C 
BRANCH   5   6
ATOM      6  C   UNL     1       9.850  16.742  72.705  1.00  0.00     0.009 C 
BRANCH   6   7
ATOM      7  C   UNL     1       8.706  17.736  73.009  1.00  0.00     0.032 C 
ATOM      8  C   UNL     1       7.839  18.034  71.775  1.00  0.00     0.014 C 
BRANCH   7   9
ATOM      9  C   UNL     1       7.865  17.301  74.185  1.00  0.00     0.044 C 
ATOM     10  O   UNL     1       6.919  18.028  74.604  1.00  0.00    -0.550 OA
ATOM     11  O   UNL     1       8.092  16.063  74.774  1.00  0.00    -0.550 OA
ENDBRANCH   7   9
ENDBRANCH   6   7
ENDBRANCH   5   6
ENDBRANCH   4   5
ENDBRANCH   3   4
ENDBRANCH   2   3
ENDBRANCH   1   2
BRANCH   1  12
ATOM     12  C   UNL     1      12.340  16.446  67.161  1.00  0.00     0.000 C 
BRANCH  12  13
ATOM     13  C   UNL     1      13.081  15.157  67.562  1.00  0.00    -0.000 C 
BRANCH  13  14
ATOM     14  C   UNL     1      13.878  15.310  68.865  1.00  0.00    -0.000 C 
BRANCH  14  15
ATOM     15  C   UNL     1      13.829  14.029  69.704  1.00  0.00    -0.000 C 
BRANCH  15  16
ATOM     16  C   UNL     1      12.656  13.141  69.264  1.00  0.00    -0.000 C 
BRANCH  16  17
ATOM     17  C   UNL     1      11.382  13.386  70.085  1.00  0.00    -0.000 C 
BRANCH  17  18
ATOM     18  C   UNL     1      10.108  13.342  69.230  1.00  0.00    -0.003 C 
ATOM     19  C   UNL     1      10.302  12.476  67.991  1.00  0.00     0.004 C 
ENDBRANCH  17  18
ENDBRANCH  16  17
ENDBRANCH  15  16
ENDBRANCH  14  15
ENDBRANCH  13  14
ENDBRANCH  12  13
ENDBRANCH   1  12
TORSDOF 14
ENDMDL
MODEL 5
REMARK VINA RESULT:    -4.809      1.605      4.021
REMARK INTER + INTRA:         -11.348
REMARK INTER:                  -9.073
REMARK INTRA:                  -2.276
REMARK UNBOUND:                -2.603
REMARK SMILES CCCCCCCCCCCCCC[C@@H](C)C(=O)[O-]
REMARK SMILES IDX 9 1 10 2 11 3 12 4 13 5 14 6 15 7 16 8 17 9 18 10 19 11 8 12
REMARK SMILES IDX 7 13 6 14 5 15 4 16 3 17 2 18 1 19
REMARK H PARENT
REMARK Flexibility Score: inf
ROOT
ATOM      1  C   UNL     1      13.390  14.428  70.549  1.00  0.00     0.000 C 
ENDROOT
BRANCH   1   2
ATOM      2  C   UNL     1      13.611  15.922  70.251  1.00  0.00     0.000 C 
BRANCH   2   3
ATOM      3  C   UNL     1      12.762  16.853  71.142  1.00  0.00     0.000 C 
BRANCH   3   4
ATOM      4  C   UNL     1      11.940  16.073  72.180  1.00  0.00     0.000 C 
BRANCH   4   5
ATOM      5  C   UNL     1      10.460  16.479  72.125  1.00  0.00     0.001 C 
BRANCH   5   6
ATOM      6  C   UNL     1       9.743  16.288  73.480  1.00  0.00     0.009 C 
BRANCH   6   7
ATOM      7  C   UNL     1       8.530  17.218  73.716  1.00  0.00     0.032 C 
ATOM      8  C   UNL     1       8.059  17.911  72.427  1.00  0.00     0.014 C 
BRANCH   7   9
ATOM      9  C   UNL     1       7.393  16.512  74.413  1.00  0.00     0.044 C 
ATOM     10  O   UNL     1       6.209  16.617  73.983  1.00  0.00    -0.550 OA
ATOM     11  O   UNL     1       7.657  15.688  75.501  1.00  0.00    -0.550 OA
ENDBRANCH   7   9
ENDBRANCH   6   7
ENDBRANCH   5   6
ENDBRANCH   4   5
ENDBRANCH   3   4
ENDBRANCH   2   3
ENDBRANCH   1   2
BRANCH   1  12
ATOM     12  C   UNL     1      13.195  13.549  69.300  1.00  0.00     0.000 C 
BRANCH  12  13
ATOM     13  C   UNL     1      11.764  13.019  69.095  1.00  0.00    -0.000 C 
BRANCH  13  14
ATOM     14  C   UNL     1      10.935  13.898  68.149  1.00  0.00    -0.000 C 
BRANCH  14  15
ATOM     15  C   UNL     1       9.733  14.516  68.870  1.00  0.00    -0.000 C 
BRANCH  15  16
ATOM     16  C   UNL     1       9.604  16.007  68.524  1.00  0.00    -0.000 C 
BRANCH  16  17
ATOM     17  C   UNL     1      10.683  16.486  67.542  1.00  0.00    -0.000 C 
BRANCH  17  18
ATOM     18  C   UNL     1      11.176  17.907  67.850  1.00  0.00    -0.003 C 
ATOM     19  C   UNL     1      10.448  18.497  69.052  1.00  0.00     0.004 C 
ENDBRANCH  17  18
ENDBRANCH  16  17
ENDBRANCH  15  16
ENDBRANCH  14  15
ENDBRANCH  13  14
ENDBRANCH  12  13
ENDBRANCH   1  12
TORSDOF 14
ENDMDL
MODEL 6
REMARK VINA RESULT:    -4.804      2.498      4.836
REMARK INTER + INTRA:         -11.339
REMARK INTER:                  -9.012
REMARK INTRA:                  -2.327
REMARK UNBOUND:                -2.603
REMARK SMILES CCCCCCCCCCCCCC[C@@H](C)C(=O)[O-]
REMARK SMILES IDX 9 1 10 2 11 3 12 4 13 5 14 6 15 7 16 8 17 9 18 10 19 11 8 12
REMARK SMILES IDX 7 13 6 14 5 15 4 16 3 17 2 18 1 19
REMARK H PARENT
REMARK Flexibility Score: inf
ROOT
ATOM      1  C   UNL     1      13.125  16.907  71.256  1.00  0.00     0.000 C 
ENDROOT
BRANCH   1   2
ATOM      2  C   UNL     1      12.289  16.010  72.186  1.00  0.00     0.000 C 
BRANCH   2   3
ATOM      3  C   UNL     1      10.813  15.888  71.749  1.00  0.00     0.000 C 
BRANCH   3   4
ATOM      4  C   UNL     1      10.080  17.237  71.796  1.00  0.00     0.000 C 
BRANCH   4   5
ATOM      5  C   UNL     1       9.381  17.528  70.460  1.00  0.00     0.001 C 
BRANCH   5   6
ATOM      6  C   UNL     1      10.370  17.971  69.358  1.00  0.00     0.009 C 
BRANCH   6   7
ATOM      7  C   UNL     1      10.769  16.865  68.354  1.00  0.00     0.032 C 
ATOM      8  C   UNL     1       9.567  16.024  67.895  1.00  0.00     0.014 C 
BRANCH   7   9
ATOM      9  C   UNL     1      11.546  17.409  67.181  1.00  0.00     0.044 C 
ATOM     10  O   UNL     1      11.444  18.625  66.848  1.00  0.00    -0.550 OA
ATOM     11  O   UNL     1      12.431  16.584  66.497  1.00  0.00    -0.550 OA
ENDBRANCH   7   9
ENDBRANCH   6   7
ENDBRANCH   5   6
ENDBRANCH   4   5
ENDBRANCH   3   4
ENDBRANCH   2   3
ENDBRANCH   1   2
BRANCH   1  12
ATOM     12  C   UNL     1      13.936  16.144  70.193  1.00  0.00     0.000 C 
BRANCH  12  13
ATOM     13  C   UNL     1      14.557  14.819  70.674  1.00  0.00    -0.000 C 
BRANCH  13  14
ATOM     14  C   UNL     1      14.079  13.609  69.862  1.00  0.00    -0.000 C 
BRANCH  14  15
ATOM     15  C   UNL     1      13.127  14.031  68.739  1.00  0.00    -0.000 C 
BRANCH  15  16
ATOM     16  C   UNL     1      12.005  12.996  68.564  1.00  0.00    -0.000 C 
BRANCH  16  17
ATOM     17  C   UNL     1      10.874  13.165  69.588  1.00  0.00    -0.000 C 
BRANCH  17  18
ATOM     18  C   UNL     1       9.551  12.543  69.119  1.00  0.00    -0.003 C 
ATOM     19  C   UNL     1       9.796  11.345  68.210  1.00  0.00     0.004 C 
ENDBRANCH  17  18
ENDBRANCH  16  17
ENDBRANCH  15  16
ENDBRANCH  14  15
ENDBRANCH  13  14
ENDBRANCH  12  13
ENDBRANCH   1  12
TORSDOF 14
ENDMDL
MODEL 7
REMARK VINA RESULT:    -4.779      1.766      2.934
REMARK INTER + INTRA:         -11.294
REMARK INTER:                  -9.004
REMARK INTRA:                  -2.290
REMARK UNBOUND:                -2.603
REMARK SMILES CCCCCCCCCCCCCC[C@@H](C)C(=O)[O-]
REMARK SMILES IDX 9 1 10 2 11 3 12 4 13 5 14 6 15 7 16 8 17 9 18 10 19 11 8 12
REMARK SMILES IDX 7 13 6 14 5 15 4 16 3 17 2 18 1 19
REMARK H PARENT
REMARK Flexibility Score: inf
ROOT
ATOM      1  C   UNL     1      11.101  17.535  68.277  1.00  0.00     0.000 C 
ENDROOT
BRANCH   1   2
ATOM      2  C   UNL     1      10.813  17.781  69.769  1.00  0.00     0.000 C 
BRANCH   2   3
ATOM      3  C   UNL     1      11.916  17.233  70.699  1.00  0.00     0.000 C 
BRANCH   3   4
ATOM      4  C   UNL     1      11.337  16.476  71.905  1.00  0.00     0.000 C 
BRANCH   4   5
ATOM      5  C   UNL     1       9.864  16.845  72.128  1.00  0.00     0.001 C 
BRANCH   5   6
ATOM      6  C   UNL     1       9.368  16.475  73.544  1.00  0.00     0.009 C 
BRANCH   6   7
ATOM      7  C   UNL     1       8.214  17.351  74.083  1.00  0.00     0.032 C 
ATOM      8  C   UNL     1       7.688  18.345  73.035  1.00  0.00     0.014 C 
BRANCH   7   9
ATOM      9  C   UNL     1       7.097  16.527  74.676  1.00  0.00     0.044 C 
ATOM     10  O   UNL     1       6.057  16.273  74.004  1.00  0.00    -0.550 OA
ATOM     11  O   UNL     1       7.239  15.989  75.950  1.00  0.00    -0.550 OA
ENDBRANCH   7   9
ENDBRANCH   6   7
ENDBRANCH   5   6
ENDBRANCH   4   5
ENDBRANCH   3   4
ENDBRANCH   2   3
ENDBRANCH   1   2
BRANCH   1  12
ATOM     12  C   UNL     1      10.444  16.268  67.700  1.00  0.00     0.000 C 
BRANCH  12  13
ATOM     13  C   UNL     1       9.442  15.570  68.638  1.00  0.00    -0.000 C 
BRANCH  13  14
ATOM     14  C   UNL     1       9.917  14.182  69.087  1.00  0.00    -0.000 C 
BRANCH  14  15
ATOM     15  C   UNL     1      10.753  13.499  68.000  1.00  0.00    -0.000 C 
BRANCH  15  16
ATOM     16  C   UNL     1      12.061  12.950  68.590  1.00  0.00    -0.000 C 
BRANCH  16  17
ATOM     17  C   UNL     1      12.369  13.515  69.984  1.00  0.00    -0.000 C 
BRANCH  17  18
ATOM     18  C   UNL     1      13.780  14.111  70.083  1.00  0.00    -0.003 C 
ATOM     19  C   UNL     1      14.055  15.076  68.936  1.00  0.00     0.004 C 
ENDBRANCH  17  18
ENDBRANCH  16  17
ENDBRANCH  15  16
ENDBRANCH  14  15
ENDBRANCH  13  14
ENDBRANCH  12  13
ENDBRANCH   1  12
TORSDOF 14
ENDMDL
MODEL 8
REMARK VINA RESULT:    -4.768      2.636      4.890
REMARK INTER + INTRA:         -11.273
REMARK INTER:                  -8.663
REMARK INTRA:                  -2.610
REMARK UNBOUND:                -2.603
REMARK SMILES CCCCCCCCCCCCCC[C@@H](C)C(=O)[O-]
REMARK SMILES IDX 9 1 10 2 11 3 12 4 13 5 14 6 15 7 16 8 17 9 18 10 19 11 8 12
REMARK SMILES IDX 7 13 6 14 5 15 4 16 3 17 2 18 1 19
REMARK H PARENT
REMARK Flexibility Score: inf
ROOT
ATOM      1  C   UNL     1       9.749  18.049  70.857  1.00  0.00     0.000 C 
ENDROOT
BRANCH   1   2
ATOM      2  C   UNL     1       9.773  17.020  72.001  1.00  0.00     0.000 C 
BRANCH   2   3
ATOM      3  C   UNL     1      11.137  16.315  72.156  1.00  0.00     0.000 C 
BRANCH   3   4
ATOM      4  C   UNL     1      10.999  14.786  72.208  1.00  0.00     0.000 C 
BRANCH   4   5
ATOM      5  C   UNL     1      12.059  14.109  71.326  1.00  0.00     0.001 C 
BRANCH   5   6
ATOM      6  C   UNL     1      12.990  15.128  70.632  1.00  0.00     0.009 C 
BRANCH   6   7
ATOM      7  C   UNL     1      13.994  14.518  69.626  1.00  0.00     0.032 C 
ATOM      8  C   UNL     1      13.941  15.202  68.251  1.00  0.00     0.014 C 
BRANCH   7   9
ATOM      9  C   UNL     1      15.400  14.478  70.172  1.00  0.00     0.044 C 
ATOM     10  O   UNL     1      15.652  13.887  71.261  1.00  0.00    -0.550 OA
ATOM     11  O   UNL     1      16.439  15.041  69.441  1.00  0.00    -0.550 OA
ENDBRANCH   7   9
ENDBRANCH   6   7
ENDBRANCH   5   6
ENDBRANCH   4   5
ENDBRANCH   3   4
ENDBRANCH   2   3
ENDBRANCH   1   2
BRANCH   1  12
ATOM     12  C   UNL     1      10.983  18.011  69.937  1.00  0.00     0.000 C 
BRANCH  12  13
ATOM     13  C   UNL     1      10.669  17.946  68.430  1.00  0.00    -0.000 C 
BRANCH  13  14
ATOM     14  C   UNL     1      10.625  16.509  67.894  1.00  0.00    -0.000 C 
BRANCH  14  15
ATOM     15  C   UNL     1       9.332  15.799  68.305  1.00  0.00    -0.000 C 
BRANCH  15  16
ATOM     16  C   UNL     1       9.627  14.362  68.762  1.00  0.00    -0.000 C 
BRANCH  16  17
ATOM     17  C   UNL     1      10.770  13.709  67.973  1.00  0.00    -0.000 C 
BRANCH  17  18
ATOM     18  C   UNL     1      10.853  12.192  68.194  1.00  0.00    -0.003 C 
ATOM     19  C   UNL     1       9.540  11.640  68.736  1.00  0.00     0.004 C 
ENDBRANCH  17  18
ENDBRANCH  16  17
ENDBRANCH  15  16
ENDBRANCH  14  15
ENDBRANCH  13  14
ENDBRANCH  12  13
ENDBRANCH   1  12
TORSDOF 14
ENDMDL
MODEL 9
REMARK VINA RESULT:    -4.752      2.249      5.382
REMARK INTER + INTRA:         -11.245
REMARK INTER:                  -8.747
REMARK INTRA:                  -2.498
REMARK UNBOUND:                -2.603
REMARK SMILES CCCCCCCCCCCCCC[C@@H](C)C(=O)[O-]
REMARK SMILES IDX 9 1 10 2 11 3 12 4 13 5 14 6 15 7 16 8 17 9 18 10 19 11 8 12
REMARK SMILES IDX 7 13 6 14 5 15 4 16 3 17 2 18 1 19
REMARK H PARENT
REMARK Flexibility Score: inf
ROOT
ATOM      1  C   UNL     1      12.671  13.472  68.807  1.00  0.00     0.000 C 
ENDROOT
BRANCH   1   2
ATOM      2  C   UNL     1      11.253  13.063  69.245  1.00  0.00     0.000 C 
BRANCH   2   3
ATOM      3  C   UNL     1      10.144  13.681  68.367  1.00  0.00     0.000 C 
BRANCH   3   4
ATOM      4  C   UNL     1       9.285  14.692  69.142  1.00  0.00     0.000 C 
BRANCH   4   5
ATOM      5  C   UNL     1       9.307  16.067  68.459  1.00  0.00     0.001 C 
BRANCH   5   6
ATOM      6  C   UNL     1      10.235  16.101  67.224  1.00  0.00     0.009 C 
BRANCH   6   7
ATOM      7  C   UNL     1      11.580  16.833  67.437  1.00  0.00     0.032 C 
ATOM      8  C   UNL     1      12.715  16.242  66.584  1.00  0.00     0.014 C 
BRANCH   7   9
ATOM      9  C   UNL     1      11.459  18.324  67.241  1.00  0.00     0.044 C 
ATOM     10  O   UNL     1      11.050  19.066  68.180  1.00  0.00    -0.550 OA
ATOM     11  O   UNL     1      11.860  18.897  66.040  1.00  0.00    -0.550 OA
ENDBRANCH   7   9
ENDBRANCH   6   7
ENDBRANCH   5   6
ENDBRANCH   4   5
ENDBRANCH   3   4
ENDBRANCH   2   3
ENDBRANCH   1   2
BRANCH   1  12
ATOM     12  C   UNL     1      13.574  13.968  69.951  1.00  0.00     0.000 C 
BRANCH  12  13
ATOM     13  C   UNL     1      14.319  15.285  69.667  1.00  0.00    -0.000 C 
BRANCH  13  14
ATOM     14  C   UNL     1      13.914  16.415  70.622  1.00  0.00    -0.000 C 
BRANCH  14  15
ATOM     15  C   UNL     1      12.391  16.574  70.685  1.00  0.00    -0.000 C 
BRANCH  15  16
ATOM     16  C   UNL     1      11.884  16.353  72.118  1.00  0.00    -0.000 C 
BRANCH  16  17
ATOM     17  C   UNL     1      10.360  16.492  72.238  1.00  0.00    -0.000 C 
BRANCH  17  18
ATOM     18  C   UNL     1       9.816  17.722  71.497  1.00  0.00    -0.003 C 
ATOM     19  C   UNL     1       8.317  17.881  71.716  1.00  0.00     0.004 C 
ENDBRANCH  17  18
ENDBRANCH  16  17
ENDBRANCH  15  16
ENDBRANCH  14  15
ENDBRANCH  13  14
ENDBRANCH  12  13
ENDBRANCH   1  12
TORSDOF 14
ENDMDL
