MODEL 1
REMARK VINA RESULT:    -4.355      0.000      0.000
REMARK INTER + INTRA:          -7.289
REMARK INTER:                  -6.647
REMARK INTRA:                  -0.642
REMARK UNBOUND:                -0.642
REMARK SMILES CCCCCCCCCC=CC(=O)[O-]
REMARK SMILES IDX 7 1 8 2 9 3 10 4 11 5 12 6 13 7 14 8 6 9 5 10 4 11 3 12 2 13
REMARK SMILES IDX 1 14
REMARK H PARENT
REMARK Flexibility Score: inf
ROOT
ATOM      1  C   UNL     1      33.683 170.503 155.662  1.00  0.00     0.000 C 
ENDROOT
BRANCH   1   2
ATOM      2  C   UNL     1      35.112 170.071 156.046  1.00  0.00     0.004 C 
BRANCH   2   3
ATOM      3  C   UNL     1      35.188 169.207 157.318  1.00  0.00     0.027 C 
BRANCH   3   4
ATOM      4  C   UNL     1      34.121 168.140 157.338  1.00  0.00    -0.025 C 
ATOM      5  C   UNL     1      33.162 167.985 158.265  1.00  0.00     0.020 C 
BRANCH   5   6
ATOM      6  C   UNL     1      32.846 168.907 159.373  1.00  0.00     0.064 C 
ATOM      7  O   UNL     1      33.075 168.541 160.555  1.00  0.00    -0.545 OA
ATOM      8  O   UNL     1      32.220 170.128 159.158  1.00  0.00    -0.545 OA
ENDBRANCH   5   6
ENDBRANCH   3   4
ENDBRANCH   2   3
ENDBRANCH   1   2
BRANCH   1   9
ATOM      9  C   UNL     1      33.219 170.070 154.260  1.00  0.00     0.000 C 
BRANCH   9  10
ATOM     10  C   UNL     1      31.688 170.027 154.119  1.00  0.00     0.000 C 
BRANCH  10  11
ATOM     11  C   UNL     1      31.008 171.273 154.711  1.00  0.00    -0.000 C 
BRANCH  11  12
ATOM     12  C   UNL     1      31.277 172.540 153.880  1.00  0.00    -0.000 C 
BRANCH  12  13
ATOM     13  C   UNL     1      30.273 173.664 154.178  1.00  0.00    -0.003 C 
ATOM     14  C   UNL     1      30.889 175.058 154.053  1.00  0.00     0.004 C 
ENDBRANCH  12  13
ENDBRANCH  11  12
ENDBRANCH  10  11
ENDBRANCH   9  10
ENDBRANCH   1   9
TORSDOF 9
ENDMDL
MODEL 2
REMARK VINA RESULT:    -4.040      1.910      2.572
REMARK INTER + INTRA:          -6.807
REMARK INTER:                  -5.410
REMARK INTRA:                  -1.398
REMARK UNBOUND:                -0.642
REMARK SMILES CCCCCCCCCC=CC(=O)[O-]
REMARK SMILES IDX 7 1 8 2 9 3 10 4 11 5 12 6 13 7 14 8 6 9 5 10 4 11 3 12 2 13
REMARK SMILES IDX 1 14
REMARK H PARENT
REMARK Flexibility Score: inf
ROOT
ATOM      1  C   UNL     1      33.459 170.648 155.926  1.00  0.00     0.000 C 
ENDROOT
BRANCH   1   2
ATOM      2  C   UNL     1      34.922 170.219 156.150  1.00  0.00     0.004 C 
BRANCH   2   3
ATOM      3  C   UNL     1      35.109 169.168 157.259  1.00  0.00     0.027 C 
BRANCH   3   4
ATOM      4  C   UNL     1      33.956 168.196 157.312  1.00  0.00    -0.025 C 
ATOM      5  C   UNL     1      33.026 168.109 158.277  1.00  0.00     0.020 C 
BRANCH   5   6
ATOM      6  C   UNL     1      32.834 169.038 159.407  1.00  0.00     0.064 C 
ATOM      7  O   UNL     1      32.243 170.130 159.204  1.00  0.00    -0.545 OA
ATOM      8  O   UNL     1      33.364 168.786 160.665  1.00  0.00    -0.545 OA
ENDBRANCH   5   6
ENDBRANCH   3   4
ENDBRANCH   2   3
ENDBRANCH   1   2
BRANCH   1   9
ATOM      9  C   UNL     1      33.021 170.752 154.454  1.00  0.00     0.000 C 
BRANCH   9  10
ATOM     10  C   UNL     1      32.530 169.414 153.876  1.00  0.00     0.000 C 
BRANCH  10  11
ATOM     11  C   UNL     1      31.025 169.195 154.096  1.00  0.00    -0.000 C 
BRANCH  11  12
ATOM     12  C   UNL     1      30.735 168.242 155.269  1.00  0.00    -0.000 C 
BRANCH  12  13
ATOM     13  C   UNL     1      29.989 168.935 156.420  1.00  0.00    -0.003 C 
ATOM     14  C   UNL     1      29.705 170.411 156.140  1.00  0.00     0.004 C 
ENDBRANCH  12  13
ENDBRANCH  11  12
ENDBRANCH  10  11
ENDBRANCH   9  10
ENDBRANCH   1   9
TORSDOF 9
ENDMDL
MODEL 3
REMARK VINA RESULT:    -3.980      2.212      3.293
REMARK INTER + INTRA:          -6.717
REMARK INTER:                  -5.350
REMARK INTRA:                  -1.367
REMARK UNBOUND:                -0.642
REMARK SMILES CCCCCCCCCC=CC(=O)[O-]
REMARK SMILES IDX 7 1 8 2 9 3 10 4 11 5 12 6 13 7 14 8 6 9 5 10 4 11 3 12 2 13
REMARK SMILES IDX 1 14
REMARK H PARENT
REMARK Flexibility Score: inf
ROOT
ATOM      1  C   UNL     1      35.002 169.415 157.217  1.00  0.00     0.000 C 
ENDROOT
BRANCH   1   2
ATOM      2  C   UNL     1      34.223 168.089 157.312  1.00  0.00     0.004 C 
BRANCH   2   3
ATOM      3  C   UNL     1      33.228 168.025 158.485  1.00  0.00     0.027 C 
BRANCH   3   4
ATOM      4  C   UNL     1      32.609 169.371 158.771  1.00  0.00    -0.025 C 
ATOM      5  C   UNL     1      32.000 169.747 159.907  1.00  0.00     0.020 C 
BRANCH   5   6
ATOM      6  C   UNL     1      31.941 168.988 161.172  1.00  0.00     0.064 C 
ATOM      7  O   UNL     1      32.952 168.970 161.919  1.00  0.00    -0.545 OA
ATOM      8  O   UNL     1      30.836 168.221 161.518  1.00  0.00    -0.545 OA
ENDBRANCH   5   6
ENDBRANCH   3   4
ENDBRANCH   2   3
ENDBRANCH   1   2
BRANCH   1   9
ATOM      9  C   UNL     1      34.923 170.130 155.857  1.00  0.00     0.000 C 
BRANCH   9  10
ATOM     10  C   UNL     1      33.546 170.759 155.586  1.00  0.00     0.000 C 
BRANCH  10  11
ATOM     11  C   UNL     1      33.042 170.480 154.162  1.00  0.00    -0.000 C 
BRANCH  11  12
ATOM     12  C   UNL     1      32.056 169.299 154.109  1.00  0.00    -0.000 C 
BRANCH  12  13
ATOM     13  C   UNL     1      31.087 169.287 155.302  1.00  0.00    -0.003 C 
ATOM     14  C   UNL     1      30.669 167.875 155.712  1.00  0.00     0.004 C 
ENDBRANCH  12  13
ENDBRANCH  11  12
ENDBRANCH  10  11
ENDBRANCH   9  10
ENDBRANCH   1   9
TORSDOF 9
ENDMDL
MODEL 4
REMARK VINA RESULT:    -3.975      2.381      5.618
REMARK INTER + INTRA:          -6.709
REMARK INTER:                  -5.870
REMARK INTRA:                  -0.838
REMARK UNBOUND:                -0.642
REMARK SMILES CCCCCCCCCC=CC(=O)[O-]
REMARK SMILES IDX 7 1 8 2 9 3 10 4 11 5 12 6 13 7 14 8 6 9 5 10 4 11 3 12 2 13
REMARK SMILES IDX 1 14
REMARK H PARENT
REMARK Flexibility Score: inf
ROOT
ATOM      1  C   UNL     1      33.684 170.572 155.996  1.00  0.00     0.000 C 
ENDROOT
BRANCH   1   2
ATOM      2  C   UNL     1      33.408 170.153 154.539  1.00  0.00     0.004 C 
BRANCH   2   3
ATOM      3  C   UNL     1      31.987 170.483 154.047  1.00  0.00     0.027 C 
BRANCH   3   4
ATOM      4  C   UNL     1      31.722 171.969 154.051  1.00  0.00    -0.025 C 
ATOM      5  C   UNL     1      30.542 172.570 154.274  1.00  0.00     0.020 C 
BRANCH   5   6
ATOM      6  C   UNL     1      29.290 171.925 154.715  1.00  0.00     0.064 C 
ATOM      7  O   UNL     1      28.228 172.164 154.085  1.00  0.00    -0.545 OA
ATOM      8  O   UNL     1      29.231 171.135 155.856  1.00  0.00    -0.545 OA
ENDBRANCH   5   6
ENDBRANCH   3   4
ENDBRANCH   2   3
ENDBRANCH   1   2
BRANCH   1   9
ATOM      9  C   UNL     1      34.972 170.000 156.613  1.00  0.00     0.000 C 
BRANCH   9  10
ATOM     10  C   UNL     1      34.791 168.580 157.177  1.00  0.00     0.000 C 
BRANCH  10  11
ATOM     11  C   UNL     1      33.387 168.354 157.758  1.00  0.00    -0.000 C 
BRANCH  11  12
ATOM     12  C   UNL     1      33.289 168.769 159.237  1.00  0.00    -0.000 C 
BRANCH  12  13
ATOM     13  C   UNL     1      32.100 169.703 159.509  1.00  0.00    -0.003 C 
ATOM     14  C   UNL     1      31.024 169.625 158.426  1.00  0.00     0.004 C 
ENDBRANCH  12  13
ENDBRANCH  11  12
ENDBRANCH  10  11
ENDBRANCH   9  10
ENDBRANCH   1   9
TORSDOF 9
ENDMDL
MODEL 5
REMARK VINA RESULT:    -3.935      1.357      2.382
REMARK INTER + INTRA:          -6.647
REMARK INTER:                  -5.928
REMARK INTRA:                  -0.719
REMARK UNBOUND:                -0.642
REMARK SMILES CCCCCCCCCC=CC(=O)[O-]
REMARK SMILES IDX 7 1 8 2 9 3 10 4 11 5 12 6 13 7 14 8 6 9 5 10 4 11 3 12 2 13
REMARK SMILES IDX 1 14
REMARK H PARENT
REMARK Flexibility Score: inf
ROOT
ATOM      1  C   UNL     1      35.180 168.992 157.052  1.00  0.00     0.000 C 
ENDROOT
BRANCH   1   2
ATOM      2  C   UNL     1      33.991 168.024 157.209  1.00  0.00     0.004 C 
BRANCH   2   3
ATOM      3  C   UNL     1      33.343 168.043 158.606  1.00  0.00     0.027 C 
BRANCH   3   4
ATOM      4  C   UNL     1      32.644 169.351 158.884  1.00  0.00    -0.025 C 
ATOM      5  C   UNL     1      31.979 169.680 160.003  1.00  0.00     0.020 C 
BRANCH   5   6
ATOM      6  C   UNL     1      31.919 168.905 161.257  1.00  0.00     0.064 C 
ATOM      7  O   UNL     1      30.854 168.304 161.551  1.00  0.00    -0.545 OA
ATOM      8  O   UNL     1      32.970 168.891 162.164  1.00  0.00    -0.545 OA
ENDBRANCH   5   6
ENDBRANCH   3   4
ENDBRANCH   2   3
ENDBRANCH   1   2
BRANCH   1   9
ATOM      9  C   UNL     1      34.944 170.174 156.095  1.00  0.00     0.000 C 
BRANCH   9  10
ATOM     10  C   UNL     1      33.716 169.980 155.189  1.00  0.00     0.000 C 
BRANCH  10  11
ATOM     11  C   UNL     1      32.638 171.051 155.423  1.00  0.00    -0.000 C 
BRANCH  11  12
ATOM     12  C   UNL     1      31.897 171.431 154.129  1.00  0.00    -0.000 C 
BRANCH  12  13
ATOM     13  C   UNL     1      31.246 172.821 154.209  1.00  0.00    -0.003 C 
ATOM     14  C   UNL     1      29.729 172.755 154.382  1.00  0.00     0.004 C 
ENDBRANCH  12  13
ENDBRANCH  11  12
ENDBRANCH  10  11
ENDBRANCH   9  10
ENDBRANCH   1   9
TORSDOF 9
ENDMDL
MODEL 6
REMARK VINA RESULT:    -3.889      3.936      5.553
REMARK INTER + INTRA:          -6.577
REMARK INTER:                  -6.069
REMARK INTRA:                  -0.508
REMARK UNBOUND:                -0.642
REMARK SMILES CCCCCCCCCC=CC(=O)[O-]
REMARK SMILES IDX 7 1 8 2 9 3 10 4 11 5 12 6 13 7 14 8 6 9 5 10 4 11 3 12 2 13
REMARK SMILES IDX 1 14
REMARK H PARENT
REMARK Flexibility Score: inf
ROOT
ATOM      1  C   UNL     1      31.888 169.782 158.922  1.00  0.00     0.000 C 
ENDROOT
BRANCH   1   2
ATOM      2  C   UNL     1      33.196 168.983 159.081  1.00  0.00     0.004 C 
BRANCH   2   3
ATOM      3  C   UNL     1      33.753 168.416 157.763  1.00  0.00     0.027 C 
BRANCH   3   4
ATOM      4  C   UNL     1      34.858 169.277 157.203  1.00  0.00    -0.025 C 
ATOM      5  C   UNL     1      34.787 170.066 156.118  1.00  0.00     0.020 C 
BRANCH   5   6
ATOM      6  C   UNL     1      33.578 170.383 155.334  1.00  0.00     0.064 C 
ATOM      7  O   UNL     1      32.750 171.209 155.798  1.00  0.00    -0.545 OA
ATOM      8  O   UNL     1      33.282 169.733 154.143  1.00  0.00    -0.545 OA
ENDBRANCH   5   6
ENDBRANCH   3   4
ENDBRANCH   2   3
ENDBRANCH   1   2
BRANCH   1   9
ATOM      9  C   UNL     1      31.168 170.135 160.235  1.00  0.00     0.000 C 
BRANCH   9  10
ATOM     10  C   UNL     1      29.836 170.871 160.013  1.00  0.00     0.000 C 
BRANCH  10  11
ATOM     11  C   UNL     1      29.368 171.631 161.264  1.00  0.00    -0.000 C 
BRANCH  11  12
ATOM     12  C   UNL     1      30.072 172.991 161.423  1.00  0.00    -0.000 C 
BRANCH  12  13
ATOM     13  C   UNL     1      29.186 174.034 162.121  1.00  0.00    -0.003 C 
ATOM     14  C   UNL     1      27.845 174.241 161.417  1.00  0.00     0.004 C 
ENDBRANCH  12  13
ENDBRANCH  11  12
ENDBRANCH  10  11
ENDBRANCH   9  10
ENDBRANCH   1   9
TORSDOF 9
ENDMDL
MODEL 7
REMARK VINA RESULT:    -3.848      2.357      3.745
REMARK INTER + INTRA:          -6.515
REMARK INTER:                  -5.428
REMARK INTRA:                  -1.087
REMARK UNBOUND:                -0.642
REMARK SMILES CCCCCCCCCC=CC(=O)[O-]
REMARK SMILES IDX 7 1 8 2 9 3 10 4 11 5 12 6 13 7 14 8 6 9 5 10 4 11 3 12 2 13
REMARK SMILES IDX 1 14
REMARK H PARENT
REMARK Flexibility Score: inf
ROOT
ATOM      1  C   UNL     1      34.067 168.045 157.323  1.00  0.00     0.000 C 
ENDROOT
BRANCH   1   2
ATOM      2  C   UNL     1      33.358 168.026 158.691  1.00  0.00     0.004 C 
BRANCH   2   3
ATOM      3  C   UNL     1      31.874 168.433 158.638  1.00  0.00     0.027 C 
BRANCH   3   4
ATOM      4  C   UNL     1      31.638 169.781 159.273  1.00  0.00    -0.025 C 
ATOM      5  C   UNL     1      31.458 170.031 160.580  1.00  0.00     0.020 C 
BRANCH   5   6
ATOM      6  C   UNL     1      31.606 169.071 161.692  1.00  0.00     0.064 C 
ATOM      7  O   UNL     1      30.626 168.347 162.006  1.00  0.00    -0.545 OA
ATOM      8  O   UNL     1      32.762 169.006 162.458  1.00  0.00    -0.545 OA
ENDBRANCH   5   6
ENDBRANCH   3   4
ENDBRANCH   2   3
ENDBRANCH   1   2
BRANCH   1   9
ATOM      9  C   UNL     1      35.240 169.033 157.203  1.00  0.00     0.000 C 
BRANCH   9  10
ATOM     10  C   UNL     1      35.002 170.126 156.146  1.00  0.00     0.000 C 
BRANCH  10  11
ATOM     11  C   UNL     1      33.508 170.366 155.876  1.00  0.00    -0.000 C 
BRANCH  11  12
ATOM     12  C   UNL     1      33.196 170.489 154.374  1.00  0.00    -0.000 C 
BRANCH  12  13
ATOM     13  C   UNL     1      32.229 169.401 153.882  1.00  0.00    -0.003 C 
ATOM     14  C   UNL     1      31.341 168.849 154.997  1.00  0.00     0.004 C 
ENDBRANCH  12  13
ENDBRANCH  11  12
ENDBRANCH  10  11
ENDBRANCH   9  10
ENDBRANCH   1   9
TORSDOF 9
ENDMDL
MODEL 8
REMARK VINA RESULT:    -3.844      2.719      5.084
REMARK INTER + INTRA:          -6.508
REMARK INTER:                  -5.532
REMARK INTRA:                  -0.977
REMARK UNBOUND:                -0.642
REMARK SMILES CCCCCCCCCC=CC(=O)[O-]
REMARK SMILES IDX 7 1 8 2 9 3 10 4 11 5 12 6 13 7 14 8 6 9 5 10 4 11 3 12 2 13
REMARK SMILES IDX 1 14
REMARK H PARENT
REMARK Flexibility Score: inf
ROOT
ATOM      1  C   UNL     1      35.144 169.728 156.280  1.00  0.00     0.000 C 
ENDROOT
BRANCH   1   2
ATOM      2  C   UNL     1      33.872 170.511 155.900  1.00  0.00     0.004 C 
BRANCH   2   3
ATOM      3  C   UNL     1      33.487 170.405 154.413  1.00  0.00     0.027 C 
BRANCH   3   4
ATOM      4  C   UNL     1      32.168 169.697 154.224  1.00  0.00    -0.025 C 
ATOM      5  C   UNL     1      30.945 170.247 154.304  1.00  0.00     0.020 C 
BRANCH   5   6
ATOM      6  C   UNL     1      30.628 171.683 154.437  1.00  0.00     0.064 C 
ATOM      7  O   UNL     1      29.559 172.020 155.006  1.00  0.00    -0.545 OA
ATOM      8  O   UNL     1      31.429 172.668 153.875  1.00  0.00    -0.545 OA
ENDBRANCH   5   6
ENDBRANCH   3   4
ENDBRANCH   2   3
ENDBRANCH   1   2
BRANCH   1   9
ATOM      9  C   UNL     1      34.927 168.547 157.243  1.00  0.00     0.000 C 
BRANCH   9  10
ATOM     10  C   UNL     1      33.446 168.315 157.586  1.00  0.00     0.000 C 
BRANCH  10  11
ATOM     11  C   UNL     1      33.122 168.656 159.050  1.00  0.00    -0.000 C 
BRANCH  11  12
ATOM     12  C   UNL     1      32.022 169.726 159.173  1.00  0.00    -0.000 C 
BRANCH  12  13
ATOM     13  C   UNL     1      31.099 169.766 157.946  1.00  0.00    -0.003 C 
ATOM     14  C   UNL     1      29.622 169.900 158.319  1.00  0.00     0.004 C 
ENDBRANCH  12  13
ENDBRANCH  11  12
ENDBRANCH  10  11
ENDBRANCH   9  10
ENDBRANCH   1   9
TORSDOF 9
ENDMDL
MODEL 9
REMARK VINA RESULT:    -3.818      2.939      4.824
REMARK INTER + INTRA:          -6.469
REMARK INTER:                  -5.405
REMARK INTRA:                  -1.064
REMARK UNBOUND:                -0.642
REMARK SMILES CCCCCCCCCC=CC(=O)[O-]
REMARK SMILES IDX 7 1 8 2 9 3 10 4 11 5 12 6 13 7 14 8 6 9 5 10 4 11 3 12 2 13
REMARK SMILES IDX 1 14
REMARK H PARENT
REMARK Flexibility Score: inf
ROOT
ATOM      1  C   UNL     1      34.969 168.714 157.248  1.00  0.00     0.000 C 
ENDROOT
BRANCH   1   2
ATOM      2  C   UNL     1      35.086 169.773 156.135  1.00  0.00     0.004 C 
BRANCH   2   3
ATOM      3  C   UNL     1      33.775 170.525 155.840  1.00  0.00     0.027 C 
BRANCH   3   4
ATOM      4  C   UNL     1      33.386 170.427 154.385  1.00  0.00    -0.025 C 
ATOM      5  C   UNL     1      32.342 169.749 153.880  1.00  0.00     0.020 C 
BRANCH   5   6
ATOM      6  C   UNL     1      31.265 169.087 154.642  1.00  0.00     0.064 C 
ATOM      7  O   UNL     1      31.396 167.875 154.952  1.00  0.00    -0.545 OA
ATOM      8  O   UNL     1      30.076 169.734 154.948  1.00  0.00    -0.545 OA
ENDBRANCH   5   6
ENDBRANCH   3   4
ENDBRANCH   2   3
ENDBRANCH   1   2
BRANCH   1   9
ATOM      9  C   UNL     1      33.534 168.376 157.688  1.00  0.00     0.000 C 
BRANCH   9  10
ATOM     10  C   UNL     1      33.291 168.616 159.188  1.00  0.00     0.000 C 
BRANCH  10  11
ATOM     11  C   UNL     1      32.229 169.697 159.446  1.00  0.00    -0.000 C 
BRANCH  11  12
ATOM     12  C   UNL     1      31.127 169.706 158.372  1.00  0.00    -0.000 C 
BRANCH  12  13
ATOM     13  C   UNL     1      29.770 170.168 158.925  1.00  0.00    -0.003 C 
ATOM     14  C   UNL     1      29.879 170.802 160.312  1.00  0.00     0.004 C 
ENDBRANCH  12  13
ENDBRANCH  11  12
ENDBRANCH  10  11
ENDBRANCH   9  10
ENDBRANCH   1   9
TORSDOF 9
ENDMDL
