MODEL 1
REMARK VINA RESULT:    -4.558      0.000      0.000
REMARK INTER + INTRA:          -7.613
REMARK INTER:                  -6.957
REMARK INTRA:                  -0.656
REMARK UNBOUND:                -0.656
REMARK SMILES CCCCCCCCCC=CC(=O)[O-]
REMARK SMILES IDX 7 1 8 2 9 3 10 4 11 5 12 6 13 7 14 8 6 9 5 10 4 11 3 12 2 13
REMARK SMILES IDX 1 14
REMARK H PARENT
REMARK Flexibility Score: inf
ROOT
ATOM      1  C   UNL     1     115.895 115.998 108.728  1.00  0.00     0.000 C 
ENDROOT
BRANCH   1   2
ATOM      2  C   UNL     1     114.495 116.575 108.471  1.00  0.00     0.004 C 
BRANCH   2   3
ATOM      3  C   UNL     1     114.558 117.756 107.495  1.00  0.00     0.027 C 
BRANCH   3   4
ATOM      4  C   UNL     1     114.029 119.011 108.124  1.00  0.00    -0.025 C 
ATOM      5  C   UNL     1     114.389 119.380 109.357  1.00  0.00     0.020 C 
BRANCH   5   6
ATOM      6  C   UNL     1     113.890 120.614 109.981  1.00  0.00     0.064 C 
ATOM      7  O   UNL     1     114.221 120.891 111.163  1.00  0.00    -0.545 OA
ATOM      8  O   UNL     1     113.055 121.482 109.285  1.00  0.00    -0.545 OA
ENDBRANCH   5   6
ENDBRANCH   3   4
ENDBRANCH   2   3
ENDBRANCH   1   2
BRANCH   1   9
ATOM      9  C   UNL     1     116.934 116.487 107.706  1.00  0.00     0.000 C 
BRANCH   9  10
ATOM     10  C   UNL     1     118.364 116.049 108.058  1.00  0.00     0.000 C 
BRANCH  10  11
ATOM     11  C   UNL     1     118.728 114.740 107.343  1.00  0.00    -0.000 C 
BRANCH  11  12
ATOM     12  C   UNL     1     119.305 113.683 108.297  1.00  0.00    -0.000 C 
BRANCH  12  13
ATOM     13  C   UNL     1     118.617 113.687 109.670  1.00  0.00    -0.003 C 
ATOM     14  C   UNL     1     119.010 112.458 110.484  1.00  0.00     0.004 C 
ENDBRANCH  12  13
ENDBRANCH  11  12
ENDBRANCH  10  11
ENDBRANCH   9  10
ENDBRANCH   1   9
TORSDOF 9
ENDMDL
MODEL 2
REMARK VINA RESULT:    -4.448      2.419      4.095
REMARK INTER + INTRA:          -7.445
REMARK INTER:                  -7.068
REMARK INTRA:                  -0.377
REMARK UNBOUND:                -0.656
REMARK SMILES CCCCCCCCCC=CC(=O)[O-]
REMARK SMILES IDX 7 1 8 2 9 3 10 4 11 5 12 6 13 7 14 8 6 9 5 10 4 11 3 12 2 13
REMARK SMILES IDX 1 14
REMARK H PARENT
REMARK Flexibility Score: inf
ROOT
ATOM      1  C   UNL     1     114.585 118.844 109.146  1.00  0.00     0.000 C 
ENDROOT
BRANCH   1   2
ATOM      2  C   UNL     1     113.925 120.137 109.645  1.00  0.00     0.004 C 
BRANCH   2   3
ATOM      3  C   UNL     1     114.326 120.434 111.096  1.00  0.00     0.027 C 
BRANCH   3   4
ATOM      4  C   UNL     1     113.128 120.767 111.935  1.00  0.00    -0.025 C 
ATOM      5  C   UNL     1     113.247 121.097 113.224  1.00  0.00     0.020 C 
BRANCH   5   6
ATOM      6  C   UNL     1     112.083 121.439 114.055  1.00  0.00     0.064 C 
ATOM      7  O   UNL     1     111.256 122.294 113.645  1.00  0.00    -0.545 OA
ATOM      8  O   UNL     1     111.880 120.830 115.289  1.00  0.00    -0.545 OA
ENDBRANCH   5   6
ENDBRANCH   3   4
ENDBRANCH   2   3
ENDBRANCH   1   2
BRANCH   1   9
ATOM      9  C   UNL     1     114.087 118.422 107.755  1.00  0.00     0.000 C 
BRANCH   9  10
ATOM     10  C   UNL     1     115.204 117.842 106.874  1.00  0.00     0.000 C 
BRANCH  10  11
ATOM     11  C   UNL     1     116.327 117.245 107.736  1.00  0.00    -0.000 C 
BRANCH  11  12
ATOM     12  C   UNL     1     116.939 115.979 107.117  1.00  0.00    -0.000 C 
BRANCH  12  13
ATOM     13  C   UNL     1     118.177 115.487 107.882  1.00  0.00    -0.003 C 
ATOM     14  C   UNL     1     118.704 116.565 108.825  1.00  0.00     0.004 C 
ENDBRANCH  12  13
ENDBRANCH  11  12
ENDBRANCH  10  11
ENDBRANCH   9  10
ENDBRANCH   1   9
TORSDOF 9
ENDMDL
MODEL 3
REMARK VINA RESULT:    -4.353      2.540      4.649
REMARK INTER + INTRA:          -7.300
REMARK INTER:                  -6.728
REMARK INTRA:                  -0.573
REMARK UNBOUND:                -0.656
REMARK SMILES CCCCCCCCCC=CC(=O)[O-]
REMARK SMILES IDX 7 1 8 2 9 3 10 4 11 5 12 6 13 7 14 8 6 9 5 10 4 11 3 12 2 13
REMARK SMILES IDX 1 14
REMARK H PARENT
REMARK Flexibility Score: inf
ROOT
ATOM      1  C   UNL     1     119.068 113.298 109.261  1.00  0.00     0.000 C 
ENDROOT
BRANCH   1   2
ATOM      2  C   UNL     1     118.153 114.530 109.233  1.00  0.00     0.004 C 
BRANCH   2   3
ATOM      3  C   UNL     1     118.317 115.307 107.921  1.00  0.00     0.027 C 
BRANCH   3   4
ATOM      4  C   UNL     1     117.014 115.901 107.472  1.00  0.00    -0.025 C 
ATOM      5  C   UNL     1     116.618 117.109 107.883  1.00  0.00     0.020 C 
BRANCH   5   6
ATOM      6  C   UNL     1     115.351 117.709 107.442  1.00  0.00     0.064 C 
ATOM      7  O   UNL     1     115.174 117.962 106.222  1.00  0.00    -0.545 OA
ATOM      8  O   UNL     1     114.342 118.003 108.352  1.00  0.00    -0.545 OA
ENDBRANCH   5   6
ENDBRANCH   3   4
ENDBRANCH   2   3
ENDBRANCH   1   2
BRANCH   1   9
ATOM      9  C   UNL     1     118.893 112.458 110.536  1.00  0.00     0.000 C 
BRANCH   9  10
ATOM     10  C   UNL     1     118.500 113.306 111.756  1.00  0.00     0.000 C 
BRANCH  10  11
ATOM     11  C   UNL     1     119.598 113.266 112.828  1.00  0.00    -0.000 C 
BRANCH  11  12
ATOM     12  C   UNL     1     119.905 111.839 113.310  1.00  0.00    -0.000 C 
BRANCH  12  13
ATOM     13  C   UNL     1     121.394 111.481 113.186  1.00  0.00    -0.003 C 
ATOM     14  C   UNL     1     122.148 112.539 112.385  1.00  0.00     0.004 C 
ENDBRANCH  12  13
ENDBRANCH  11  12
ENDBRANCH  10  11
ENDBRANCH   9  10
ENDBRANCH   1   9
TORSDOF 9
ENDMDL
MODEL 4
REMARK VINA RESULT:    -4.332     16.206     17.700
REMARK INTER + INTRA:          -7.267
REMARK INTER:                  -5.638
REMARK INTRA:                  -1.629
REMARK UNBOUND:                -0.656
REMARK SMILES CCCCCCCCCC=CC(=O)[O-]
REMARK SMILES IDX 7 1 8 2 9 3 10 4 11 5 12 6 13 7 14 8 6 9 5 10 4 11 3 12 2 13
REMARK SMILES IDX 1 14
REMARK H PARENT
REMARK Flexibility Score: inf
ROOT
ATOM      1  C   UNL     1     124.128 126.917 121.207  1.00  0.00     0.000 C 
ENDROOT
BRANCH   1   2
ATOM      2  C   UNL     1     122.610 127.125 121.108  1.00  0.00     0.004 C 
BRANCH   2   3
ATOM      3  C   UNL     1     121.907 125.837 120.661  1.00  0.00     0.027 C 
BRANCH   3   4
ATOM      4  C   UNL     1     120.768 125.493 121.575  1.00  0.00    -0.025 C 
ATOM      5  C   UNL     1     120.088 126.439 122.230  1.00  0.00     0.020 C 
BRANCH   5   6
ATOM      6  C   UNL     1     118.960 126.118 123.118  1.00  0.00     0.064 C 
ATOM      7  O   UNL     1     117.882 125.696 122.626  1.00  0.00    -0.545 OA
ATOM      8  O   UNL     1     119.067 126.274 124.495  1.00  0.00    -0.545 OA
ENDBRANCH   5   6
ENDBRANCH   3   4
ENDBRANCH   2   3
ENDBRANCH   1   2
BRANCH   1   9
ATOM      9  C   UNL     1     124.531 125.437 121.113  1.00  0.00     0.000 C 
BRANCH   9  10
ATOM     10  C   UNL     1     125.114 124.895 122.428  1.00  0.00     0.000 C 
BRANCH  10  11
ATOM     11  C   UNL     1     124.091 124.013 123.158  1.00  0.00    -0.000 C 
BRANCH  11  12
ATOM     12  C   UNL     1     123.869 124.443 124.616  1.00  0.00    -0.000 C 
BRANCH  12  13
ATOM     13  C   UNL     1     122.503 125.109 124.834  1.00  0.00    -0.003 C 
ATOM     14  C   UNL     1     122.625 126.630 124.828  1.00  0.00     0.004 C 
ENDBRANCH  12  13
ENDBRANCH  11  12
ENDBRANCH  10  11
ENDBRANCH   9  10
ENDBRANCH   1   9
TORSDOF 9
ENDMDL
MODEL 5
REMARK VINA RESULT:    -4.278      5.372      8.304
REMARK INTER + INTRA:          -7.185
REMARK INTER:                  -6.708
REMARK INTRA:                  -0.477
REMARK UNBOUND:                -0.656
REMARK SMILES CCCCCCCCCC=CC(=O)[O-]
REMARK SMILES IDX 7 1 8 2 9 3 10 4 11 5 12 6 13 7 14 8 6 9 5 10 4 11 3 12 2 13
REMARK SMILES IDX 1 14
REMARK H PARENT
REMARK Flexibility Score: inf
ROOT
ATOM      1  C   UNL     1     119.388 112.948 109.276  1.00  0.00     0.000 C 
ENDROOT
BRANCH   1   2
ATOM      2  C   UNL     1     118.862 112.061 110.414  1.00  0.00     0.004 C 
BRANCH   2   3
ATOM      3  C   UNL     1     118.783 112.846 111.730  1.00  0.00     0.027 C 
BRANCH   3   4
ATOM      4  C   UNL     1     119.650 112.226 112.786  1.00  0.00    -0.025 C 
ATOM      5  C   UNL     1     120.940 111.956 112.562  1.00  0.00     0.020 C 
BRANCH   5   6
ATOM      6  C   UNL     1     121.805 111.361 113.591  1.00  0.00     0.064 C 
ATOM      7  O   UNL     1     122.873 111.941 113.916  1.00  0.00    -0.545 OA
ATOM      8  O   UNL     1     121.461 110.166 114.213  1.00  0.00    -0.545 OA
ENDBRANCH   5   6
ENDBRANCH   3   4
ENDBRANCH   2   3
ENDBRANCH   1   2
BRANCH   1   9
ATOM      9  C   UNL     1     118.534 114.207 109.062  1.00  0.00     0.000 C 
BRANCH   9  10
ATOM     10  C   UNL     1     118.985 115.031 107.847  1.00  0.00     0.000 C 
BRANCH  10  11
ATOM     11  C   UNL     1     117.785 115.420 106.972  1.00  0.00    -0.000 C 
BRANCH  11  12
ATOM     12  C   UNL     1     116.582 115.906 107.796  1.00  0.00    -0.000 C 
BRANCH  12  13
ATOM     13  C   UNL     1     116.778 117.326 108.347  1.00  0.00    -0.003 C 
ATOM     14  C   UNL     1     115.540 117.796 109.105  1.00  0.00     0.004 C 
ENDBRANCH  12  13
ENDBRANCH  11  12
ENDBRANCH  10  11
ENDBRANCH   9  10
ENDBRANCH   1   9
TORSDOF 9
ENDMDL
MODEL 6
REMARK VINA RESULT:    -4.257      2.827      4.586
REMARK INTER + INTRA:          -7.153
REMARK INTER:                  -6.600
REMARK INTRA:                  -0.553
REMARK UNBOUND:                -0.656
REMARK SMILES CCCCCCCCCC=CC(=O)[O-]
REMARK SMILES IDX 7 1 8 2 9 3 10 4 11 5 12 6 13 7 14 8 6 9 5 10 4 11 3 12 2 13
REMARK SMILES IDX 1 14
REMARK H PARENT
REMARK Flexibility Score: inf
ROOT
ATOM      1  C   UNL     1     114.718 119.314 109.680  1.00  0.00     0.000 C 
ENDROOT
BRANCH   1   2
ATOM      2  C   UNL     1     114.063 120.591 110.226  1.00  0.00     0.004 C 
BRANCH   2   3
ATOM      3  C   UNL     1     113.972 120.549 111.757  1.00  0.00     0.027 C 
BRANCH   3   4
ATOM      4  C   UNL     1     114.774 119.413 112.319  1.00  0.00    -0.025 C 
ATOM      5  C   UNL     1     115.332 119.485 113.532  1.00  0.00     0.020 C 
BRANCH   5   6
ATOM      6  C   UNL     1     116.109 118.374 114.102  1.00  0.00     0.064 C 
ATOM      7  O   UNL     1     115.515 117.340 114.501  1.00  0.00    -0.545 OA
ATOM      8  O   UNL     1     117.494 118.450 114.207  1.00  0.00    -0.545 OA
ENDBRANCH   5   6
ENDBRANCH   3   4
ENDBRANCH   2   3
ENDBRANCH   1   2
BRANCH   1   9
ATOM      9  C   UNL     1     114.075 118.831 108.370  1.00  0.00     0.000 C 
BRANCH   9  10
ATOM     10  C   UNL     1     114.896 117.734 107.675  1.00  0.00     0.000 C 
BRANCH  10  11
ATOM     11  C   UNL     1     114.972 116.472 108.545  1.00  0.00    -0.000 C 
BRANCH  11  12
ATOM     12  C   UNL     1     116.368 115.829 108.538  1.00  0.00    -0.000 C 
BRANCH  12  13
ATOM     13  C   UNL     1     117.063 115.941 107.173  1.00  0.00    -0.003 C 
ATOM     14  C   UNL     1     118.176 114.906 107.037  1.00  0.00     0.004 C 
ENDBRANCH  12  13
ENDBRANCH  11  12
ENDBRANCH  10  11
ENDBRANCH   9  10
ENDBRANCH   1   9
TORSDOF 9
ENDMDL
MODEL 7
REMARK VINA RESULT:    -4.250     16.254     17.963
REMARK INTER + INTRA:          -7.142
REMARK INTER:                  -5.497
REMARK INTRA:                  -1.645
REMARK UNBOUND:                -0.656
REMARK SMILES CCCCCCCCCC=CC(=O)[O-]
REMARK SMILES IDX 7 1 8 2 9 3 10 4 11 5 12 6 13 7 14 8 6 9 5 10 4 11 3 12 2 13
REMARK SMILES IDX 1 14
REMARK H PARENT
REMARK Flexibility Score: inf
ROOT
ATOM      1  C   UNL     1     123.244 123.645 123.870  1.00  0.00     0.000 C 
ENDROOT
BRANCH   1   2
ATOM      2  C   UNL     1     123.825 124.715 124.806  1.00  0.00     0.004 C 
BRANCH   2   3
ATOM      3  C   UNL     1     122.804 125.829 125.068  1.00  0.00     0.027 C 
BRANCH   3   4
ATOM      4  C   UNL     1     121.576 125.651 124.223  1.00  0.00    -0.025 C 
ATOM      5  C   UNL     1     120.602 126.566 124.205  1.00  0.00     0.020 C 
BRANCH   5   6
ATOM      6  C   UNL     1     119.400 126.412 123.372  1.00  0.00     0.064 C 
ATOM      7  O   UNL     1     118.485 125.630 123.739  1.00  0.00    -0.545 OA
ATOM      8  O   UNL     1     119.258 127.118 122.183  1.00  0.00    -0.545 OA
ENDBRANCH   5   6
ENDBRANCH   3   4
ENDBRANCH   2   3
ENDBRANCH   1   2
BRANCH   1   9
ATOM      9  C   UNL     1     124.063 123.479 122.580  1.00  0.00     0.000 C 
BRANCH   9  10
ATOM     10  C   UNL     1     125.045 124.637 122.347  1.00  0.00     0.000 C 
BRANCH  10  11
ATOM     11  C   UNL     1     124.602 125.500 121.157  1.00  0.00    -0.000 C 
BRANCH  11  12
ATOM     12  C   UNL     1     123.971 126.832 121.592  1.00  0.00    -0.000 C 
BRANCH  12  13
ATOM     13  C   UNL     1     122.609 127.085 120.929  1.00  0.00    -0.003 C 
ATOM     14  C   UNL     1     121.985 125.781 120.440  1.00  0.00     0.004 C 
ENDBRANCH  12  13
ENDBRANCH  11  12
ENDBRANCH  10  11
ENDBRANCH   9  10
ENDBRANCH   1   9
TORSDOF 9
ENDMDL
MODEL 8
REMARK VINA RESULT:    -4.193      2.811      4.933
REMARK INTER + INTRA:          -7.055
REMARK INTER:                  -6.105
REMARK INTRA:                  -0.950
REMARK UNBOUND:                -0.656
REMARK SMILES CCCCCCCCCC=CC(=O)[O-]
REMARK SMILES IDX 7 1 8 2 9 3 10 4 11 5 12 6 13 7 14 8 6 9 5 10 4 11 3 12 2 13
REMARK SMILES IDX 1 14
REMARK H PARENT
REMARK Flexibility Score: inf
ROOT
ATOM      1  C   UNL     1     118.877 113.044 109.857  1.00  0.00     0.000 C 
ENDROOT
BRANCH   1   2
ATOM      2  C   UNL     1     118.144 114.373 109.620  1.00  0.00     0.004 C 
BRANCH   2   3
ATOM      3  C   UNL     1     118.512 114.967 108.255  1.00  0.00     0.027 C 
BRANCH   3   4
ATOM      4  C   UNL     1     117.729 116.216 107.976  1.00  0.00    -0.025 C 
ATOM      5  C   UNL     1     116.393 116.210 107.940  1.00  0.00     0.020 C 
BRANCH   5   6
ATOM      6  C   UNL     1     115.612 117.429 107.682  1.00  0.00     0.064 C 
ATOM      7  O   UNL     1     115.386 117.782 106.496  1.00  0.00    -0.545 OA
ATOM      8  O   UNL     1     115.117 118.198 108.729  1.00  0.00    -0.545 OA
ENDBRANCH   5   6
ENDBRANCH   3   4
ENDBRANCH   2   3
ENDBRANCH   1   2
BRANCH   1   9
ATOM      9  C   UNL     1     118.809 112.582 111.321  1.00  0.00     0.000 C 
BRANCH   9  10
ATOM     10  C   UNL     1     118.831 113.753 112.315  1.00  0.00     0.000 C 
BRANCH  10  11
ATOM     11  C   UNL     1     117.753 113.576 113.394  1.00  0.00    -0.000 C 
BRANCH  11  12
ATOM     12  C   UNL     1     116.972 114.871 113.670  1.00  0.00    -0.000 C 
BRANCH  12  13
ATOM     13  C   UNL     1     117.462 116.050 112.817  1.00  0.00    -0.003 C 
ATOM     14  C   UNL     1     116.316 116.662 112.016  1.00  0.00     0.004 C 
ENDBRANCH  12  13
ENDBRANCH  11  12
ENDBRANCH  10  11
ENDBRANCH   9  10
ENDBRANCH   1   9
TORSDOF 9
ENDMDL
MODEL 9
REMARK VINA RESULT:    -4.139     15.971     17.671
REMARK INTER + INTRA:          -6.973
REMARK INTER:                  -5.697
REMARK INTRA:                  -1.276
REMARK UNBOUND:                -0.656
REMARK SMILES CCCCCCCCCC=CC(=O)[O-]
REMARK SMILES IDX 7 1 8 2 9 3 10 4 11 5 12 6 13 7 14 8 6 9 5 10 4 11 3 12 2 13
REMARK SMILES IDX 1 14
REMARK H PARENT
REMARK Flexibility Score: inf
ROOT
ATOM      1  C   UNL     1     125.267 124.929 122.075  1.00  0.00     0.000 C 
ENDROOT
BRANCH   1   2
ATOM      2  C   UNL     1     125.017 125.669 120.753  1.00  0.00     0.004 C 
BRANCH   2   3
ATOM      3  C   UNL     1     124.184 126.937 120.982  1.00  0.00     0.027 C 
BRANCH   3   4
ATOM      4  C   UNL     1     122.735 126.606 121.189  1.00  0.00    -0.025 C 
ATOM      5  C   UNL     1     122.020 125.980 120.250  1.00  0.00     0.020 C 
BRANCH   5   6
ATOM      6  C   UNL     1     120.603 125.637 120.444  1.00  0.00     0.064 C 
ATOM      7  O   UNL     1     120.194 125.314 121.589  1.00  0.00    -0.545 OA
ATOM      8  O   UNL     1     119.707 125.666 119.382  1.00  0.00    -0.545 OA
ENDBRANCH   5   6
ENDBRANCH   3   4
ENDBRANCH   2   3
ENDBRANCH   1   2
BRANCH   1   9
ATOM      9  C   UNL     1     124.593 123.548 122.118  1.00  0.00     0.000 C 
BRANCH   9  10
ATOM     10  C   UNL     1     123.775 123.327 123.399  1.00  0.00     0.000 C 
BRANCH  10  11
ATOM     11  C   UNL     1     124.006 124.468 124.401  1.00  0.00    -0.000 C 
BRANCH  11  12
ATOM     12  C   UNL     1     122.696 125.028 124.975  1.00  0.00    -0.000 C 
BRANCH  12  13
ATOM     13  C   UNL     1     122.608 126.557 124.865  1.00  0.00    -0.003 C 
ATOM     14  C   UNL     1     121.197 127.001 124.491  1.00  0.00     0.004 C 
ENDBRANCH  12  13
ENDBRANCH  11  12
ENDBRANCH  10  11
ENDBRANCH   9  10
ENDBRANCH   1   9
TORSDOF 9
ENDMDL
