MODEL 1
REMARK VINA RESULT:    -3.953      0.000      0.000
REMARK INTER + INTRA:         -14.509
REMARK INTER:                 -10.425
REMARK INTRA:                  -4.084
REMARK UNBOUND:                -4.084
REMARK SMILES CCCCCCCCCCCCCCCCCCCCCCCCCCCCCC(=O)[O-]
REMARK SMILES IDX 16 1 17 2 18 3 19 4 20 5 21 6 22 7 23 8 24 9 25 10 26 11
REMARK SMILES IDX 27 12 28 13 29 14 30 15 31 16 32 17 15 18 14 19 13 20 12 21
REMARK SMILES IDX 11 22 10 23 9 24 8 25 7 26 6 27 5 28 4 29 3 30 2 31 1 32
REMARK H PARENT
REMARK Flexibility Score: inf
ROOT
ATOM      1  C   UNL     1      39.995  18.626  11.496  1.00  0.00     0.000 C 
ENDROOT
BRANCH   1   2
ATOM      2  C   UNL     1      40.761  17.878  10.391  1.00  0.00     0.000 C 
BRANCH   2   3
ATOM      3  C   UNL     1      42.204  17.490  10.774  1.00  0.00     0.000 C 
BRANCH   3   4
ATOM      4  C   UNL     1      42.480  17.649  12.282  1.00  0.00     0.000 C 
BRANCH   4   5
ATOM      5  C   UNL     1      43.937  18.036  12.595  1.00  0.00     0.000 C 
BRANCH   5   6
ATOM      6  C   UNL     1      44.259  19.549  12.528  1.00  0.00     0.000 C 
BRANCH   6   7
ATOM      7  C   UNL     1      43.439  20.367  11.511  1.00  0.00     0.000 C 
BRANCH   7   8
ATOM      8  C   UNL     1      43.495  21.895  11.737  1.00  0.00     0.000 C 
BRANCH   8   9
ATOM      9  C   UNL     1      42.228  22.462  12.401  1.00  0.00     0.000 C 
BRANCH   9  10
ATOM     10  C   UNL     1      42.381  22.785  13.899  1.00  0.00     0.000 C 
BRANCH  10  11
ATOM     11  C   UNL     1      41.989  21.640  14.854  1.00  0.00     0.000 C 
BRANCH  11  12
ATOM     12  C   UNL     1      41.169  20.504  14.216  1.00  0.00     0.000 C 
BRANCH  12  13
ATOM     13  C   UNL     1      40.163  19.839  15.179  1.00  0.00     0.006 C 
BRANCH  13  14
ATOM     14  C   UNL     1      39.841  20.715  16.397  1.00  0.00     0.053 C 
BRANCH  14  15
ATOM     15  C   UNL     1      38.520  20.343  16.997  1.00  0.00     0.041 C 
ATOM     16  O   UNL     1      37.860  19.379  16.526  1.00  0.00    -0.550 OA
ATOM     17  O   UNL     1      38.041  21.029  18.105  1.00  0.00    -0.550 OA
ENDBRANCH  14  15
ENDBRANCH  13  14
ENDBRANCH  12  13
ENDBRANCH  11  12
ENDBRANCH  10  11
ENDBRANCH   9  10
ENDBRANCH   8   9
ENDBRANCH   7   8
ENDBRANCH   6   7
ENDBRANCH   5   6
ENDBRANCH   4   5
ENDBRANCH   3   4
ENDBRANCH   2   3
ENDBRANCH   1   2
BRANCH   1  18
ATOM     18  C   UNL     1      39.104  19.780  11.010  1.00  0.00     0.000 C 
BRANCH  18  19
ATOM     19  C   UNL     1      39.380  20.191   9.548  1.00  0.00     0.000 C 
BRANCH  19  20
ATOM     20  C   UNL     1      40.446  21.301   9.438  1.00  0.00     0.000 C 
BRANCH  20  21
ATOM     21  C   UNL     1      41.558  20.988   8.417  1.00  0.00     0.000 C 
BRANCH  21  22
ATOM     22  C   UNL     1      42.689  22.029   8.359  1.00  0.00     0.000 C 
BRANCH  22  23
ATOM     23  C   UNL     1      43.892  21.560   7.526  1.00  0.00     0.000 C 
BRANCH  23  24
ATOM     24  C   UNL     1      44.537  22.753   6.803  1.00  0.00    -0.000 C 
BRANCH  24  25
ATOM     25  C   UNL     1      44.629  22.558   5.280  1.00  0.00    -0.000 C 
BRANCH  25  26
ATOM     26  C   UNL     1      44.740  21.093   4.810  1.00  0.00    -0.000 C 
BRANCH  26  27
ATOM     27  C   UNL     1      45.597  20.867   3.548  1.00  0.00    -0.000 C 
BRANCH  27  28
ATOM     28  C   UNL     1      46.623  21.976   3.251  1.00  0.00    -0.000 C 
BRANCH  28  29
ATOM     29  C   UNL     1      48.055  21.645   3.720  1.00  0.00    -0.000 C 
BRANCH  29  30
ATOM     30  C   UNL     1      48.339  22.151   5.146  1.00  0.00    -0.000 C 
BRANCH  30  31
ATOM     31  C   UNL     1      48.810  21.029   6.085  1.00  0.00    -0.003 C 
ATOM     32  C   UNL     1      47.670  20.422   6.906  1.00  0.00     0.004 C 
ENDBRANCH  30  31
ENDBRANCH  29  30
ENDBRANCH  28  29
ENDBRANCH  27  28
ENDBRANCH  26  27
ENDBRANCH  25  26
ENDBRANCH  24  25
ENDBRANCH  23  24
ENDBRANCH  22  23
ENDBRANCH  21  22
ENDBRANCH  20  21
ENDBRANCH  19  20
ENDBRANCH  18  19
ENDBRANCH   1  18
TORSDOF 28
ENDMDL
MODEL 2
REMARK VINA RESULT:    -3.729      3.846      9.670
REMARK INTER + INTRA:         -13.918
REMARK INTER:                 -10.439
REMARK INTRA:                  -3.480
REMARK UNBOUND:                -4.084
REMARK SMILES CCCCCCCCCCCCCCCCCCCCCCCCCCCCCC(=O)[O-]
REMARK SMILES IDX 16 1 17 2 18 3 19 4 20 5 21 6 22 7 23 8 24 9 25 10 26 11
REMARK SMILES IDX 27 12 28 13 29 14 30 15 31 16 32 17 15 18 14 19 13 20 12 21
REMARK SMILES IDX 11 22 10 23 9 24 8 25 7 26 6 27 5 28 4 29 3 30 2 31 1 32
REMARK H PARENT
REMARK Flexibility Score: inf
ROOT
ATOM      1  C   UNL     1      41.857  18.058  10.378  1.00  0.00     0.000 C 
ENDROOT
BRANCH   1   2
ATOM      2  C   UNL     1      41.978  17.558   8.928  1.00  0.00     0.000 C 
BRANCH   2   3
ATOM      3  C   UNL     1      41.937  18.677   7.867  1.00  0.00     0.000 C 
BRANCH   3   4
ATOM      4  C   UNL     1      41.014  19.843   8.272  1.00  0.00     0.000 C 
BRANCH   4   5
ATOM      5  C   UNL     1      41.673  21.225   8.105  1.00  0.00     0.000 C 
BRANCH   5   6
ATOM      6  C   UNL     1      43.153  21.213   7.652  1.00  0.00     0.000 C 
BRANCH   6   7
ATOM      7  C   UNL     1      43.893  22.563   7.736  1.00  0.00     0.000 C 
BRANCH   7   8
ATOM      8  C   UNL     1      45.065  22.704   6.737  1.00  0.00     0.000 C 
BRANCH   8   9
ATOM      9  C   UNL     1      44.612  22.766   5.268  1.00  0.00     0.000 C 
BRANCH   9  10
ATOM     10  C   UNL     1      44.933  21.504   4.446  1.00  0.00     0.000 C 
BRANCH  10  11
ATOM     11  C   UNL     1      46.260  21.559   3.662  1.00  0.00     0.000 C 
BRANCH  11  12
ATOM     12  C   UNL     1      46.977  22.922   3.681  1.00  0.00     0.000 C 
BRANCH  12  13
ATOM     13  C   UNL     1      48.365  22.891   4.355  1.00  0.00     0.006 C 
BRANCH  13  14
ATOM     14  C   UNL     1      48.719  21.508   4.918  1.00  0.00     0.053 C 
BRANCH  14  15
ATOM     15  C   UNL     1      48.550  21.471   6.405  1.00  0.00     0.041 C 
ATOM     16  O   UNL     1      48.414  20.368   6.999  1.00  0.00    -0.550 OA
ATOM     17  O   UNL     1      48.589  22.648   7.141  1.00  0.00    -0.550 OA
ENDBRANCH  14  15
ENDBRANCH  13  14
ENDBRANCH  12  13
ENDBRANCH  11  12
ENDBRANCH  10  11
ENDBRANCH   9  10
ENDBRANCH   8   9
ENDBRANCH   7   8
ENDBRANCH   6   7
ENDBRANCH   5   6
ENDBRANCH   4   5
ENDBRANCH   3   4
ENDBRANCH   2   3
ENDBRANCH   1   2
BRANCH   1  18
ATOM     18  C   UNL     1      43.063  17.753  11.280  1.00  0.00     0.000 C 
BRANCH  18  19
ATOM     19  C   UNL     1      43.625  19.004  11.990  1.00  0.00     0.000 C 
BRANCH  19  20
ATOM     20  C   UNL     1      43.593  20.257  11.090  1.00  0.00     0.000 C 
BRANCH  20  21
ATOM     21  C   UNL     1      42.489  21.263  11.475  1.00  0.00     0.000 C 
BRANCH  21  22
ATOM     22  C   UNL     1      43.005  22.620  11.983  1.00  0.00     0.000 C 
BRANCH  22  23
ATOM     23  C   UNL     1      42.731  22.843  13.478  1.00  0.00     0.000 C 
BRANCH  23  24
ATOM     24  C   UNL     1      42.595  21.495  14.202  1.00  0.00    -0.000 C 
BRANCH  24  25
ATOM     25  C   UNL     1      41.346  21.411  15.094  1.00  0.00    -0.000 C 
BRANCH  25  26
ATOM     26  C   UNL     1      40.474  20.155  14.888  1.00  0.00    -0.000 C 
BRANCH  26  27
ATOM     27  C   UNL     1      40.666  19.432  13.540  1.00  0.00    -0.000 C 
BRANCH  27  28
ATOM     28  C   UNL     1      39.365  18.973  12.857  1.00  0.00    -0.000 C 
BRANCH  28  29
ATOM     29  C   UNL     1      39.255  19.392  11.376  1.00  0.00    -0.000 C 
BRANCH  29  30
ATOM     30  C   UNL     1      37.867  19.093  10.781  1.00  0.00    -0.000 C 
BRANCH  30  31
ATOM     31  C   UNL     1      36.991  18.254  11.724  1.00  0.00    -0.003 C 
ATOM     32  C   UNL     1      35.573  18.810  11.873  1.00  0.00     0.004 C 
ENDBRANCH  30  31
ENDBRANCH  29  30
ENDBRANCH  28  29
ENDBRANCH  27  28
ENDBRANCH  26  27
ENDBRANCH  25  26
ENDBRANCH  24  25
ENDBRANCH  23  24
ENDBRANCH  22  23
ENDBRANCH  21  22
ENDBRANCH  20  21
ENDBRANCH  19  20
ENDBRANCH  18  19
ENDBRANCH   1  18
TORSDOF 28
ENDMDL
MODEL 3
REMARK VINA RESULT:    -3.408      3.808      9.034
REMARK INTER + INTRA:         -13.070
REMARK INTER:                 -10.209
REMARK INTRA:                  -2.861
REMARK UNBOUND:                -4.084
REMARK SMILES CCCCCCCCCCCCCCCCCCCCCCCCCCCCCC(=O)[O-]
REMARK SMILES IDX 16 1 17 2 18 3 19 4 20 5 21 6 22 7 23 8 24 9 25 10 26 11
REMARK SMILES IDX 27 12 28 13 29 14 30 15 31 16 32 17 15 18 14 19 13 20 12 21
REMARK SMILES IDX 11 22 10 23 9 24 8 25 7 26 6 27 5 28 4 29 3 30 2 31 1 32
REMARK H PARENT
REMARK Flexibility Score: inf
ROOT
ATOM      1  C   UNL     1      38.703  18.994  10.388  1.00  0.00     0.000 C 
ENDROOT
BRANCH   1   2
ATOM      2  C   UNL     1      39.445  20.218   9.826  1.00  0.00     0.000 C 
BRANCH   2   3
ATOM      3  C   UNL     1      40.549  19.875   8.805  1.00  0.00     0.000 C 
BRANCH   3   4
ATOM      4  C   UNL     1      41.289  21.125   8.290  1.00  0.00     0.000 C 
BRANCH   4   5
ATOM      5  C   UNL     1      42.681  20.810   7.711  1.00  0.00     0.000 C 
BRANCH   5   6
ATOM      6  C   UNL     1      43.758  21.901   7.919  1.00  0.00     0.000 C 
BRANCH   6   7
ATOM      7  C   UNL     1      44.821  22.018   6.808  1.00  0.00     0.000 C 
BRANCH   7   8
ATOM      8  C   UNL     1      44.260  21.847   5.378  1.00  0.00     0.000 C 
BRANCH   8   9
ATOM      9  C   UNL     1      44.865  20.651   4.623  1.00  0.00     0.000 C 
BRANCH   9  10
ATOM     10  C   UNL     1      45.826  21.035   3.482  1.00  0.00     0.000 C 
BRANCH  10  11
ATOM     11  C   UNL     1      46.486  22.421   3.626  1.00  0.00     0.000 C 
BRANCH  11  12
ATOM     12  C   UNL     1      47.934  22.516   3.111  1.00  0.00     0.000 C 
BRANCH  12  13
ATOM     13  C   UNL     1      48.995  22.569   4.229  1.00  0.00     0.006 C 
BRANCH  13  14
ATOM     14  C   UNL     1      49.125  21.241   4.986  1.00  0.00     0.053 C 
BRANCH  14  15
ATOM     15  C   UNL     1      48.601  21.362   6.384  1.00  0.00     0.041 C 
ATOM     16  O   UNL     1      48.867  22.382   7.074  1.00  0.00    -0.550 OA
ATOM     17  O   UNL     1      47.782  20.371   6.909  1.00  0.00    -0.550 OA
ENDBRANCH  14  15
ENDBRANCH  13  14
ENDBRANCH  12  13
ENDBRANCH  11  12
ENDBRANCH  10  11
ENDBRANCH   9  10
ENDBRANCH   8   9
ENDBRANCH   7   8
ENDBRANCH   6   7
ENDBRANCH   5   6
ENDBRANCH   4   5
ENDBRANCH   3   4
ENDBRANCH   2   3
ENDBRANCH   1   2
BRANCH   1  18
ATOM     18  C   UNL     1      38.962  18.693  11.873  1.00  0.00     0.000 C 
BRANCH  18  19
ATOM     19  C   UNL     1      40.265  19.329  12.405  1.00  0.00     0.000 C 
BRANCH  19  20
ATOM     20  C   UNL     1      40.174  19.693  13.902  1.00  0.00     0.000 C 
BRANCH  20  21
ATOM     21  C   UNL     1      41.520  20.136  14.510  1.00  0.00     0.000 C 
BRANCH  21  22
ATOM     22  C   UNL     1      41.625  21.642  14.810  1.00  0.00     0.000 C 
BRANCH  22  23
ATOM     23  C   UNL     1      42.824  22.309  14.119  1.00  0.00     0.000 C 
BRANCH  23  24
ATOM     24  C   UNL     1      42.388  22.941  12.788  1.00  0.00    -0.000 C 
BRANCH  24  25
ATOM     25  C   UNL     1      43.076  22.311  11.566  1.00  0.00    -0.000 C 
BRANCH  25  26
ATOM     26  C   UNL     1      42.923  20.781  11.442  1.00  0.00    -0.000 C 
BRANCH  26  27
ATOM     27  C   UNL     1      44.157  19.957  11.863  1.00  0.00    -0.000 C 
BRANCH  27  28
ATOM     28  C   UNL     1      43.846  18.688  12.675  1.00  0.00    -0.000 C 
BRANCH  28  29
ATOM     29  C   UNL     1      44.724  17.475  12.302  1.00  0.00    -0.000 C 
BRANCH  29  30
ATOM     30  C   UNL     1      43.891  16.263  11.849  1.00  0.00    -0.000 C 
BRANCH  30  31
ATOM     31  C   UNL     1      44.251  14.981  12.618  1.00  0.00    -0.003 C 
ATOM     32  C   UNL     1      45.590  14.382  12.182  1.00  0.00     0.004 C 
ENDBRANCH  30  31
ENDBRANCH  29  30
ENDBRANCH  28  29
ENDBRANCH  27  28
ENDBRANCH  26  27
ENDBRANCH  25  26
ENDBRANCH  24  25
ENDBRANCH  23  24
ENDBRANCH  22  23
ENDBRANCH  21  22
ENDBRANCH  20  21
ENDBRANCH  19  20
ENDBRANCH  18  19
ENDBRANCH   1  18
TORSDOF 28
ENDMDL
MODEL 4
REMARK VINA RESULT:    -3.369      2.086      3.935
REMARK INTER + INTRA:         -12.969
REMARK INTER:                  -9.325
REMARK INTRA:                  -3.644
REMARK UNBOUND:                -4.084
REMARK SMILES CCCCCCCCCCCCCCCCCCCCCCCCCCCCCC(=O)[O-]
REMARK SMILES IDX 16 1 17 2 18 3 19 4 20 5 21 6 22 7 23 8 24 9 25 10 26 11
REMARK SMILES IDX 27 12 28 13 29 14 30 15 31 16 32 17 15 18 14 19 13 20 12 21
REMARK SMILES IDX 11 22 10 23 9 24 8 25 7 26 6 27 5 28 4 29 3 30 2 31 1 32
REMARK H PARENT
REMARK Flexibility Score: inf
ROOT
ATOM      1  C   UNL     1      39.542  20.214   9.470  1.00  0.00     0.000 C 
ENDROOT
BRANCH   1   2
ATOM      2  C   UNL     1      38.756  19.799  10.725  1.00  0.00     0.000 C 
BRANCH   2   3
ATOM      3  C   UNL     1      38.826  18.292  11.046  1.00  0.00     0.000 C 
BRANCH   3   4
ATOM      4  C   UNL     1      40.221  17.854  11.533  1.00  0.00     0.000 C 
BRANCH   4   5
ATOM      5  C   UNL     1      41.260  17.768  10.398  1.00  0.00     0.000 C 
BRANCH   5   6
ATOM      6  C   UNL     1      42.719  17.508  10.842  1.00  0.00     0.000 C 
BRANCH   6   7
ATOM      7  C   UNL     1      42.918  17.159  12.331  1.00  0.00     0.000 C 
BRANCH   7   8
ATOM      8  C   UNL     1      43.877  18.113  13.081  1.00  0.00     0.000 C 
BRANCH   8   9
ATOM      9  C   UNL     1      43.982  19.505  12.436  1.00  0.00     0.000 C 
BRANCH   9  10
ATOM     10  C   UNL     1      43.975  20.675  13.438  1.00  0.00     0.000 C 
BRANCH  10  11
ATOM     11  C   UNL     1      42.574  21.159  13.862  1.00  0.00     0.000 C 
BRANCH  11  12
ATOM     12  C   UNL     1      41.397  20.355  13.280  1.00  0.00     0.000 C 
BRANCH  12  13
ATOM     13  C   UNL     1      40.455  19.761  14.347  1.00  0.00     0.006 C 
BRANCH  13  14
ATOM     14  C   UNL     1      40.463  20.561  15.656  1.00  0.00     0.053 C 
BRANCH  14  15
ATOM     15  C   UNL     1      39.289  20.205  16.515  1.00  0.00     0.041 C 
ATOM     16  O   UNL     1      38.610  21.110  17.068  1.00  0.00    -0.550 OA
ATOM     17  O   UNL     1      38.916  18.875  16.668  1.00  0.00    -0.550 OA
ENDBRANCH  14  15
ENDBRANCH  13  14
ENDBRANCH  12  13
ENDBRANCH  11  12
ENDBRANCH  10  11
ENDBRANCH   9  10
ENDBRANCH   8   9
ENDBRANCH   7   8
ENDBRANCH   6   7
ENDBRANCH   5   6
ENDBRANCH   4   5
ENDBRANCH   3   4
ENDBRANCH   2   3
ENDBRANCH   1   2
BRANCH   1  18
ATOM     18  C   UNL     1      40.263  21.569   9.566  1.00  0.00     0.000 C 
BRANCH  18  19
ATOM     19  C   UNL     1      41.765  21.438   9.901  1.00  0.00     0.000 C 
BRANCH  19  20
ATOM     20  C   UNL     1      42.468  22.808   9.999  1.00  0.00     0.000 C 
BRANCH  20  21
ATOM     21  C   UNL     1      43.850  22.839   9.316  1.00  0.00     0.000 C 
BRANCH  21  22
ATOM     22  C   UNL     1      43.807  22.967   7.783  1.00  0.00     0.000 C 
BRANCH  22  23
ATOM     23  C   UNL     1      45.197  22.891   7.136  1.00  0.00     0.000 C 
BRANCH  23  24
ATOM     24  C   UNL     1      45.365  21.559   6.387  1.00  0.00    -0.000 C 
BRANCH  24  25
ATOM     25  C   UNL     1      44.118  21.157   5.582  1.00  0.00    -0.000 C 
BRANCH  25  26
ATOM     26  C   UNL     1      43.547  19.762   5.907  1.00  0.00    -0.000 C 
BRANCH  26  27
ATOM     27  C   UNL     1      42.406  19.741   6.944  1.00  0.00    -0.000 C 
BRANCH  27  28
ATOM     28  C   UNL     1      42.024  18.342   7.463  1.00  0.00    -0.000 C 
BRANCH  28  29
ATOM     29  C   UNL     1      42.558  17.185   6.593  1.00  0.00    -0.000 C 
BRANCH  29  30
ATOM     30  C   UNL     1      42.354  15.810   7.254  1.00  0.00    -0.000 C 
BRANCH  30  31
ATOM     31  C   UNL     1      43.515  14.844   6.971  1.00  0.00    -0.003 C 
ATOM     32  C   UNL     1      43.687  14.539   5.481  1.00  0.00     0.004 C 
ENDBRANCH  30  31
ENDBRANCH  29  30
ENDBRANCH  28  29
ENDBRANCH  27  28
ENDBRANCH  26  27
ENDBRANCH  25  26
ENDBRANCH  24  25
ENDBRANCH  23  24
ENDBRANCH  22  23
ENDBRANCH  21  22
ENDBRANCH  20  21
ENDBRANCH  19  20
ENDBRANCH  18  19
ENDBRANCH   1  18
TORSDOF 28
ENDMDL
MODEL 5
REMARK VINA RESULT:    -3.314      3.732      8.209
REMARK INTER + INTRA:         -12.822
REMARK INTER:                 -10.135
REMARK INTRA:                  -2.686
REMARK UNBOUND:                -4.084
REMARK SMILES CCCCCCCCCCCCCCCCCCCCCCCCCCCCCC(=O)[O-]
REMARK SMILES IDX 16 1 17 2 18 3 19 4 20 5 21 6 22 7 23 8 24 9 25 10 26 11
REMARK SMILES IDX 27 12 28 13 29 14 30 15 31 16 32 17 15 18 14 19 13 20 12 21
REMARK SMILES IDX 11 22 10 23 9 24 8 25 7 26 6 27 5 28 4 29 3 30 2 31 1 32
REMARK H PARENT
REMARK Flexibility Score: inf
ROOT
ATOM      1  C   UNL     1      41.262  21.015  10.177  1.00  0.00     0.000 C 
ENDROOT
BRANCH   1   2
ATOM      2  C   UNL     1      41.831  22.136   9.290  1.00  0.00     0.000 C 
BRANCH   2   3
ATOM      3  C   UNL     1      43.367  22.112   9.149  1.00  0.00     0.000 C 
BRANCH   3   4
ATOM      4  C   UNL     1      43.878  23.089   8.072  1.00  0.00     0.000 C 
BRANCH   4   5
ATOM      5  C   UNL     1      45.157  22.599   7.367  1.00  0.00     0.000 C 
BRANCH   5   6
ATOM      6  C   UNL     1      45.374  23.125   5.927  1.00  0.00     0.000 C 
BRANCH   6   7
ATOM      7  C   UNL     1      44.984  22.156   4.792  1.00  0.00     0.000 C 
BRANCH   7   8
ATOM      8  C   UNL     1      45.156  20.662   5.150  1.00  0.00     0.000 C 
BRANCH   8   9
ATOM      9  C   UNL     1      43.828  19.889   5.203  1.00  0.00     0.000 C 
BRANCH   9  10
ATOM     10  C   UNL     1      43.009  20.112   6.489  1.00  0.00     0.000 C 
BRANCH  10  11
ATOM     11  C   UNL     1      42.053  18.960   6.858  1.00  0.00     0.000 C 
BRANCH  11  12
ATOM     12  C   UNL     1      42.359  18.255   8.193  1.00  0.00     0.000 C 
BRANCH  12  13
ATOM     13  C   UNL     1      42.274  16.716   8.122  1.00  0.00     0.006 C 
BRANCH  13  14
ATOM     14  C   UNL     1      42.442  16.178   6.695  1.00  0.00     0.053 C 
BRANCH  14  15
ATOM     15  C   UNL     1      43.240  14.911   6.685  1.00  0.00     0.041 C 
ATOM     16  O   UNL     1      43.958  14.622   5.691  1.00  0.00    -0.550 OA
ATOM     17  O   UNL     1      43.228  14.071   7.792  1.00  0.00    -0.550 OA
ENDBRANCH  14  15
ENDBRANCH  13  14
ENDBRANCH  12  13
ENDBRANCH  11  12
ENDBRANCH  10  11
ENDBRANCH   9  10
ENDBRANCH   8   9
ENDBRANCH   7   8
ENDBRANCH   6   7
ENDBRANCH   5   6
ENDBRANCH   4   5
ENDBRANCH   3   4
ENDBRANCH   2   3
ENDBRANCH   1   2
BRANCH   1  18
ATOM     18  C   UNL     1      40.091  20.227   9.568  1.00  0.00     0.000 C 
BRANCH  18  19
ATOM     19  C   UNL     1      38.942  19.972  10.567  1.00  0.00     0.000 C 
BRANCH  19  20
ATOM     20  C   UNL     1      38.968  18.541  11.144  1.00  0.00     0.000 C 
BRANCH  20  21
ATOM     21  C   UNL     1      40.384  17.935  11.220  1.00  0.00     0.000 C 
BRANCH  21  22
ATOM     22  C   UNL     1      41.193  18.348  12.463  1.00  0.00     0.000 C 
BRANCH  22  23
ATOM     23  C   UNL     1      40.422  19.297  13.391  1.00  0.00     0.000 C 
BRANCH  23  24
ATOM     24  C   UNL     1      41.395  20.233  14.125  1.00  0.00    -0.000 C 
BRANCH  24  25
ATOM     25  C   UNL     1      42.400  20.918  13.184  1.00  0.00    -0.000 C 
BRANCH  25  26
ATOM     26  C   UNL     1      43.859  20.437  13.316  1.00  0.00    -0.000 C 
BRANCH  26  27
ATOM     27  C   UNL     1      44.291  19.352  12.308  1.00  0.00    -0.000 C 
BRANCH  27  28
ATOM     28  C   UNL     1      44.248  17.910  12.846  1.00  0.00    -0.000 C 
BRANCH  28  29
ATOM     29  C   UNL     1      44.731  16.850  11.834  1.00  0.00    -0.000 C 
BRANCH  29  30
ATOM     30  C   UNL     1      43.971  15.519  11.970  1.00  0.00    -0.000 C 
BRANCH  30  31
ATOM     31  C   UNL     1      44.812  14.429  12.653  1.00  0.00    -0.003 C 
ATOM     32  C   UNL     1      46.186  14.243  12.005  1.00  0.00     0.004 C 
ENDBRANCH  30  31
ENDBRANCH  29  30
ENDBRANCH  28  29
ENDBRANCH  27  28
ENDBRANCH  26  27
ENDBRANCH  25  26
ENDBRANCH  24  25
ENDBRANCH  23  24
ENDBRANCH  22  23
ENDBRANCH  21  22
ENDBRANCH  20  21
ENDBRANCH  19  20
ENDBRANCH  18  19
ENDBRANCH   1  18
TORSDOF 28
ENDMDL
MODEL 6
REMARK VINA RESULT:    -3.114      2.597      4.730
REMARK INTER + INTRA:         -12.294
REMARK INTER:                  -9.763
REMARK INTRA:                  -2.531
REMARK UNBOUND:                -4.084
REMARK SMILES CCCCCCCCCCCCCCCCCCCCCCCCCCCCCC(=O)[O-]
REMARK SMILES IDX 16 1 17 2 18 3 19 4 20 5 21 6 22 7 23 8 24 9 25 10 26 11
REMARK SMILES IDX 27 12 28 13 29 14 30 15 31 16 32 17 15 18 14 19 13 20 12 21
REMARK SMILES IDX 11 22 10 23 9 24 8 25 7 26 6 27 5 28 4 29 3 30 2 31 1 32
REMARK H PARENT
REMARK Flexibility Score: inf
ROOT
ATOM      1  C   UNL     1      43.230  20.893  13.519  1.00  0.00     0.000 C 
ENDROOT
BRANCH   1   2
ATOM      2  C   UNL     1      41.891  21.229  14.197  1.00  0.00     0.000 C 
BRANCH   2   3
ATOM      3  C   UNL     1      40.945  20.021  14.359  1.00  0.00     0.000 C 
BRANCH   3   4
ATOM      4  C   UNL     1      40.595  19.357  13.013  1.00  0.00     0.000 C 
BRANCH   4   5
ATOM      5  C   UNL     1      39.129  18.892  12.929  1.00  0.00     0.000 C 
BRANCH   5   6
ATOM      6  C   UNL     1      38.606  18.570  11.509  1.00  0.00     0.000 C 
BRANCH   6   7
ATOM      7  C   UNL     1      37.998  19.755  10.732  1.00  0.00     0.000 C 
BRANCH   7   8
ATOM      8  C   UNL     1      39.017  20.535   9.870  1.00  0.00     0.000 C 
BRANCH   8   9
ATOM      9  C   UNL     1      40.425  19.914   9.875  1.00  0.00     0.000 C 
BRANCH   9  10
ATOM     10  C   UNL     1      41.056  19.748   8.480  1.00  0.00     0.000 C 
BRANCH  10  11
ATOM     11  C   UNL     1      41.891  18.467   8.292  1.00  0.00     0.000 C 
BRANCH  11  12
ATOM     12  C   UNL     1      41.888  17.499   9.490  1.00  0.00     0.000 C 
BRANCH  12  13
ATOM     13  C   UNL     1      42.602  18.048  10.742  1.00  0.00     0.006 C 
BRANCH  13  14
ATOM     14  C   UNL     1      42.770  16.990  11.841  1.00  0.00     0.053 C 
BRANCH  14  15
ATOM     15  C   UNL     1      44.211  16.823  12.215  1.00  0.00     0.041 C 
ATOM     16  O   UNL     1      44.685  15.673  12.410  1.00  0.00    -0.550 OA
ATOM     17  O   UNL     1      45.041  17.934  12.301  1.00  0.00    -0.550 OA
ENDBRANCH  14  15
ENDBRANCH  13  14
ENDBRANCH  12  13
ENDBRANCH  11  12
ENDBRANCH  10  11
ENDBRANCH   9  10
ENDBRANCH   8   9
ENDBRANCH   7   8
ENDBRANCH   6   7
ENDBRANCH   5   6
ENDBRANCH   4   5
ENDBRANCH   3   4
ENDBRANCH   2   3
ENDBRANCH   1   2
BRANCH   1  18
ATOM     18  C   UNL     1      43.422  21.486  12.114  1.00  0.00     0.000 C 
BRANCH  18  19
ATOM     19  C   UNL     1      42.706  22.840  11.920  1.00  0.00     0.000 C 
BRANCH  19  20
ATOM     20  C   UNL     1      42.313  23.094  10.449  1.00  0.00     0.000 C 
BRANCH  20  21
ATOM     21  C   UNL     1      43.517  23.117   9.487  1.00  0.00     0.000 C 
BRANCH  21  22
ATOM     22  C   UNL     1      43.519  21.994   8.434  1.00  0.00     0.000 C 
BRANCH  22  23
ATOM     23  C   UNL     1      44.490  22.263   7.275  1.00  0.00     0.000 C 
BRANCH  23  24
ATOM     24  C   UNL     1      43.997  21.569   5.995  1.00  0.00    -0.000 C 
BRANCH  24  25
ATOM     25  C   UNL     1      44.816  21.946   4.749  1.00  0.00    -0.000 C 
BRANCH  25  26
ATOM     26  C   UNL     1      45.396  20.755   3.959  1.00  0.00    -0.000 C 
BRANCH  26  27
ATOM     27  C   UNL     1      46.493  21.113   2.936  1.00  0.00    -0.000 C 
BRANCH  27  28
ATOM     28  C   UNL     1      47.017  22.558   3.021  1.00  0.00    -0.000 C 
BRANCH  28  29
ATOM     29  C   UNL     1      48.556  22.665   3.053  1.00  0.00    -0.000 C 
BRANCH  29  30
ATOM     30  C   UNL     1      49.125  22.540   4.478  1.00  0.00    -0.000 C 
BRANCH  30  31
ATOM     31  C   UNL     1      48.642  21.270   5.196  1.00  0.00    -0.003 C 
ATOM     32  C   UNL     1      48.296  21.513   6.667  1.00  0.00     0.004 C 
ENDBRANCH  30  31
ENDBRANCH  29  30
ENDBRANCH  28  29
ENDBRANCH  27  28
ENDBRANCH  26  27
ENDBRANCH  25  26
ENDBRANCH  24  25
ENDBRANCH  23  24
ENDBRANCH  22  23
ENDBRANCH  21  22
ENDBRANCH  20  21
ENDBRANCH  19  20
ENDBRANCH  18  19
ENDBRANCH   1  18
TORSDOF 28
ENDMDL
MODEL 7
REMARK VINA RESULT:    -3.088      3.781      9.310
REMARK INTER + INTRA:         -12.226
REMARK INTER:                  -8.414
REMARK INTRA:                  -3.811
REMARK UNBOUND:                -4.084
REMARK SMILES CCCCCCCCCCCCCCCCCCCCCCCCCCCCCC(=O)[O-]
REMARK SMILES IDX 16 1 17 2 18 3 19 4 20 5 21 6 22 7 23 8 24 9 25 10 26 11
REMARK SMILES IDX 27 12 28 13 29 14 30 15 31 16 32 17 15 18 14 19 13 20 12 21
REMARK SMILES IDX 11 22 10 23 9 24 8 25 7 26 6 27 5 28 4 29 3 30 2 31 1 32
REMARK H PARENT
REMARK Flexibility Score: inf
ROOT
ATOM      1  C   UNL     1      43.619  18.102  13.089  1.00  0.00     0.000 C 
ENDROOT
BRANCH   1   2
ATOM      2  C   UNL     1      43.941  19.460  12.442  1.00  0.00     0.000 C 
BRANCH   2   3
ATOM      3  C   UNL     1      43.818  20.662  13.401  1.00  0.00     0.000 C 
BRANCH   3   4
ATOM      4  C   UNL     1      43.135  21.877  12.743  1.00  0.00     0.000 C 
BRANCH   4   5
ATOM      5  C   UNL     1      43.090  21.789  11.206  1.00  0.00     0.000 C 
BRANCH   5   6
ATOM      6  C   UNL     1      42.735  23.102  10.467  1.00  0.00     0.000 C 
BRANCH   6   7
ATOM      7  C   UNL     1      42.808  23.048   8.927  1.00  0.00     0.000 C 
BRANCH   7   8
ATOM      8  C   UNL     1      44.181  22.602   8.375  1.00  0.00     0.000 C 
BRANCH   8   9
ATOM      9  C   UNL     1      44.111  21.325   7.521  1.00  0.00     0.000 C 
BRANCH   9  10
ATOM     10  C   UNL     1      43.656  21.552   6.067  1.00  0.00     0.000 C 
BRANCH  10  11
ATOM     11  C   UNL     1      44.658  22.323   5.185  1.00  0.00     0.000 C 
BRANCH  11  12
ATOM     12  C   UNL     1      45.808  21.478   4.605  1.00  0.00     0.000 C 
BRANCH  12  13
ATOM     13  C   UNL     1      47.111  22.270   4.371  1.00  0.00     0.006 C 
BRANCH  13  14
ATOM     14  C   UNL     1      48.355  21.530   4.880  1.00  0.00     0.053 C 
BRANCH  14  15
ATOM     15  C   UNL     1      48.307  21.351   6.366  1.00  0.00     0.041 C 
ATOM     16  O   UNL     1      48.009  20.231   6.860  1.00  0.00    -0.550 OA
ATOM     17  O   UNL     1      48.637  22.407   7.206  1.00  0.00    -0.550 OA
ENDBRANCH  14  15
ENDBRANCH  13  14
ENDBRANCH  12  13
ENDBRANCH  11  12
ENDBRANCH  10  11
ENDBRANCH   9  10
ENDBRANCH   8   9
ENDBRANCH   7   8
ENDBRANCH   6   7
ENDBRANCH   5   6
ENDBRANCH   4   5
ENDBRANCH   3   4
ENDBRANCH   2   3
ENDBRANCH   1   2
BRANCH   1  18
ATOM     18  C   UNL     1      42.812  17.131  12.212  1.00  0.00     0.000 C 
BRANCH  18  19
ATOM     19  C   UNL     1      43.192  17.200  10.717  1.00  0.00     0.000 C 
BRANCH  19  20
ATOM     20  C   UNL     1      41.974  17.485   9.812  1.00  0.00     0.000 C 
BRANCH  20  21
ATOM     21  C   UNL     1      42.040  18.854   9.106  1.00  0.00     0.000 C 
BRANCH  21  22
ATOM     22  C   UNL     1      40.721  19.305   8.454  1.00  0.00     0.000 C 
BRANCH  22  23
ATOM     23  C   UNL     1      40.343  20.752   8.805  1.00  0.00     0.000 C 
BRANCH  23  24
ATOM     24  C   UNL     1      39.476  20.785  10.073  1.00  0.00    -0.000 C 
BRANCH  24  25
ATOM     25  C   UNL     1      38.648  19.504  10.272  1.00  0.00    -0.000 C 
BRANCH  25  26
ATOM     26  C   UNL     1      39.178  18.540  11.353  1.00  0.00    -0.000 C 
BRANCH  26  27
ATOM     27  C   UNL     1      40.260  19.123  12.285  1.00  0.00    -0.000 C 
BRANCH  27  28
ATOM     28  C   UNL     1      39.741  19.640  13.639  1.00  0.00    -0.000 C 
BRANCH  28  29
ATOM     29  C   UNL     1      40.851  19.880  14.684  1.00  0.00    -0.000 C 
BRANCH  29  30
ATOM     30  C   UNL     1      40.342  20.645  15.918  1.00  0.00    -0.000 C 
BRANCH  30  31
ATOM     31  C   UNL     1      39.306  19.843  16.722  1.00  0.00    -0.003 C 
ATOM     32  C   UNL     1      38.183  20.717  17.286  1.00  0.00     0.004 C 
ENDBRANCH  30  31
ENDBRANCH  29  30
ENDBRANCH  28  29
ENDBRANCH  27  28
ENDBRANCH  26  27
ENDBRANCH  25  26
ENDBRANCH  24  25
ENDBRANCH  23  24
ENDBRANCH  22  23
ENDBRANCH  21  22
ENDBRANCH  20  21
ENDBRANCH  19  20
ENDBRANCH  18  19
ENDBRANCH   1  18
TORSDOF 28
ENDMDL
MODEL 8
REMARK VINA RESULT:    -3.018      2.835      4.392
REMARK INTER + INTRA:         -12.042
REMARK INTER:                  -9.082
REMARK INTRA:                  -2.959
REMARK UNBOUND:                -4.084
REMARK SMILES CCCCCCCCCCCCCCCCCCCCCCCCCCCCCC(=O)[O-]
REMARK SMILES IDX 16 1 17 2 18 3 19 4 20 5 21 6 22 7 23 8 24 9 25 10 26 11
REMARK SMILES IDX 27 12 28 13 29 14 30 15 31 16 32 17 15 18 14 19 13 20 12 21
REMARK SMILES IDX 11 22 10 23 9 24 8 25 7 26 6 27 5 28 4 29 3 30 2 31 1 32
REMARK H PARENT
REMARK Flexibility Score: inf
ROOT
ATOM      1  C   UNL     1      38.937  18.562  11.852  1.00  0.00     0.000 C 
ENDROOT
BRANCH   1   2
ATOM      2  C   UNL     1      39.961  19.529  12.469  1.00  0.00     0.000 C 
BRANCH   2   3
ATOM      3  C   UNL     1      40.125  19.387  13.997  1.00  0.00     0.000 C 
BRANCH   3   4
ATOM      4  C   UNL     1      41.433  20.017  14.513  1.00  0.00     0.000 C 
BRANCH   4   5
ATOM      5  C   UNL     1      41.289  21.508  14.871  1.00  0.00     0.000 C 
BRANCH   5   6
ATOM      6  C   UNL     1      42.389  22.443  14.313  1.00  0.00     0.000 C 
BRANCH   6   7
ATOM      7  C   UNL     1      42.967  22.054  12.937  1.00  0.00     0.000 C 
BRANCH   7   8
ATOM      8  C   UNL     1      43.854  20.788  12.960  1.00  0.00     0.000 C 
BRANCH   8   9
ATOM      9  C   UNL     1      43.992  20.114  11.584  1.00  0.00     0.000 C 
BRANCH   9  10
ATOM     10  C   UNL     1      42.734  19.363  11.110  1.00  0.00     0.000 C 
BRANCH  10  11
ATOM     11  C   UNL     1      42.838  17.826  11.157  1.00  0.00     0.000 C 
BRANCH  11  12
ATOM     12  C   UNL     1      42.630  17.196  12.546  1.00  0.00     0.000 C 
BRANCH  12  13
ATOM     13  C   UNL     1      43.915  16.608  13.167  1.00  0.00     0.006 C 
BRANCH  13  14
ATOM     14  C   UNL     1      44.909  16.109  12.110  1.00  0.00     0.053 C 
BRANCH  14  15
ATOM     15  C   UNL     1      45.148  14.637  12.246  1.00  0.00     0.041 C 
ATOM     16  O   UNL     1      46.297  14.161  12.047  1.00  0.00    -0.550 OA
ATOM     17  O   UNL     1      44.114  13.796  12.637  1.00  0.00    -0.550 OA
ENDBRANCH  14  15
ENDBRANCH  13  14
ENDBRANCH  12  13
ENDBRANCH  11  12
ENDBRANCH  10  11
ENDBRANCH   9  10
ENDBRANCH   8   9
ENDBRANCH   7   8
ENDBRANCH   6   7
ENDBRANCH   5   6
ENDBRANCH   4   5
ENDBRANCH   3   4
ENDBRANCH   2   3
ENDBRANCH   1   2
BRANCH   1  18
ATOM     18  C   UNL     1      38.697  18.734  10.344  1.00  0.00     0.000 C 
BRANCH  18  19
ATOM     19  C   UNL     1      39.429  19.955   9.745  1.00  0.00     0.000 C 
BRANCH  19  20
ATOM     20  C   UNL     1      40.513  19.549   8.724  1.00  0.00     0.000 C 
BRANCH  20  21
ATOM     21  C   UNL     1      41.143  20.749   7.988  1.00  0.00     0.000 C 
BRANCH  21  22
ATOM     22  C   UNL     1      42.600  20.535   7.541  1.00  0.00     0.000 C 
BRANCH  22  23
ATOM     23  C   UNL     1      43.528  21.689   7.950  1.00  0.00     0.000 C 
BRANCH  23  24
ATOM     24  C   UNL     1      44.413  22.107   6.766  1.00  0.00    -0.000 C 
BRANCH  24  25
ATOM     25  C   UNL     1      44.727  20.946   5.807  1.00  0.00    -0.000 C 
BRANCH  25  26
ATOM     26  C   UNL     1      45.269  21.364   4.425  1.00  0.00    -0.000 C 
BRANCH  26  27
ATOM     27  C   UNL     1      46.025  22.707   4.389  1.00  0.00    -0.000 C 
BRANCH  27  28
ATOM     28  C   UNL     1      47.212  22.760   3.412  1.00  0.00    -0.000 C 
BRANCH  28  29
ATOM     29  C   UNL     1      48.592  22.715   4.100  1.00  0.00    -0.000 C 
BRANCH  29  30
ATOM     30  C   UNL     1      48.955  21.305   4.599  1.00  0.00    -0.000 C 
BRANCH  30  31
ATOM     31  C   UNL     1      49.113  21.244   6.127  1.00  0.00    -0.003 C 
ATOM     32  C   UNL     1      48.693  22.542   6.821  1.00  0.00     0.004 C 
ENDBRANCH  30  31
ENDBRANCH  29  30
ENDBRANCH  28  29
ENDBRANCH  27  28
ENDBRANCH  26  27
ENDBRANCH  25  26
ENDBRANCH  24  25
ENDBRANCH  23  24
ENDBRANCH  22  23
ENDBRANCH  21  22
ENDBRANCH  20  21
ENDBRANCH  19  20
ENDBRANCH  18  19
ENDBRANCH   1  18
TORSDOF 28
ENDMDL
MODEL 9
REMARK VINA RESULT:    -1.940      2.735      3.893
REMARK INTER + INTRA:          -9.199
REMARK INTER:                  -5.576
REMARK INTRA:                  -3.623
REMARK UNBOUND:                -4.084
REMARK SMILES CCCCCCCCCCCCCCCCCCCCCCCCCCCCCC(=O)[O-]
REMARK SMILES IDX 16 1 17 2 18 3 19 4 20 5 21 6 22 7 23 8 24 9 25 10 26 11
REMARK SMILES IDX 27 12 28 13 29 14 30 15 31 16 32 17 15 18 14 19 13 20 12 21
REMARK SMILES IDX 11 22 10 23 9 24 8 25 7 26 6 27 5 28 4 29 3 30 2 31 1 32
REMARK H PARENT
REMARK Flexibility Score: inf
ROOT
ATOM      1  C   UNL     1      39.515  18.617   9.897  1.00  0.00     0.000 C 
ENDROOT
BRANCH   1   2
ATOM      2  C   UNL     1      39.116  19.726  10.885  1.00  0.00     0.000 C 
BRANCH   2   3
ATOM      3  C   UNL     1      39.246  21.155  10.318  1.00  0.00     0.000 C 
BRANCH   3   4
ATOM      4  C   UNL     1      40.290  21.252   9.189  1.00  0.00     0.000 C 
BRANCH   4   5
ATOM      5  C   UNL     1      41.316  22.380   9.408  1.00  0.00     0.000 C 
BRANCH   5   6
ATOM      6  C   UNL     1      42.752  21.923   9.759  1.00  0.00     0.000 C 
BRANCH   6   7
ATOM      7  C   UNL     1      43.065  21.785  11.263  1.00  0.00     0.000 C 
BRANCH   7   8
ATOM      8  C   UNL     1      43.053  23.125  12.036  1.00  0.00     0.000 C 
BRANCH   8   9
ATOM      9  C   UNL     1      42.774  22.960  13.540  1.00  0.00     0.000 C 
BRANCH   9  10
ATOM     10  C   UNL     1      42.736  21.500  14.027  1.00  0.00     0.000 C 
BRANCH  10  11
ATOM     11  C   UNL     1      41.378  20.791  13.852  1.00  0.00     0.000 C 
BRANCH  11  12
ATOM     12  C   UNL     1      41.454  19.267  13.648  1.00  0.00     0.000 C 
BRANCH  12  13
ATOM     13  C   UNL     1      42.656  18.807  12.797  1.00  0.00     0.006 C 
BRANCH  13  14
ATOM     14  C   UNL     1      43.191  17.433  13.220  1.00  0.00     0.053 C 
BRANCH  14  15
ATOM     15  C   UNL     1      44.244  16.947  12.272  1.00  0.00     0.041 C 
ATOM     16  O   UNL     1      45.196  17.703  11.941  1.00  0.00    -0.550 OA
ATOM     17  O   UNL     1      44.201  15.645  11.791  1.00  0.00    -0.550 OA
ENDBRANCH  14  15
ENDBRANCH  13  14
ENDBRANCH  12  13
ENDBRANCH  11  12
ENDBRANCH  10  11
ENDBRANCH   9  10
ENDBRANCH   8   9
ENDBRANCH   7   8
ENDBRANCH   6   7
ENDBRANCH   5   6
ENDBRANCH   4   5
ENDBRANCH   3   4
ENDBRANCH   2   3
ENDBRANCH   1   2
BRANCH   1  18
ATOM     18  C   UNL     1      40.808  17.861  10.245  1.00  0.00     0.000 C 
BRANCH  18  19
ATOM     19  C   UNL     1      42.001  18.249   9.346  1.00  0.00     0.000 C 
BRANCH  19  20
ATOM     20  C   UNL     1      41.552  18.821   7.984  1.00  0.00     0.000 C 
BRANCH  20  21
ATOM     21  C   UNL     1      42.714  19.032   6.993  1.00  0.00     0.000 C 
BRANCH  21  22
ATOM     22  C   UNL     1      42.807  20.450   6.403  1.00  0.00     0.000 C 
BRANCH  22  23
ATOM     23  C   UNL     1      44.197  21.080   6.575  1.00  0.00     0.000 C 
BRANCH  23  24
ATOM     24  C   UNL     1      44.619  21.799   5.284  1.00  0.00    -0.000 C 
BRANCH  24  25
ATOM     25  C   UNL     1      44.777  20.847   4.086  1.00  0.00    -0.000 C 
BRANCH  25  26
ATOM     26  C   UNL     1      46.214  20.708   3.543  1.00  0.00    -0.000 C 
BRANCH  26  27
ATOM     27  C   UNL     1      46.845  22.007   3.003  1.00  0.00    -0.000 C 
BRANCH  27  28
ATOM     28  C   UNL     1      48.383  22.054   3.056  1.00  0.00    -0.000 C 
BRANCH  28  29
ATOM     29  C   UNL     1      48.943  22.984   4.152  1.00  0.00    -0.000 C 
BRANCH  29  30
ATOM     30  C   UNL     1      47.987  23.125   5.350  1.00  0.00    -0.000 C 
BRANCH  30  31
ATOM     31  C   UNL     1      48.522  22.434   6.614  1.00  0.00    -0.003 C 
ATOM     32  C   UNL     1      48.234  20.931   6.638  1.00  0.00     0.004 C 
ENDBRANCH  30  31
ENDBRANCH  29  30
ENDBRANCH  28  29
ENDBRANCH  27  28
ENDBRANCH  26  27
ENDBRANCH  25  26
ENDBRANCH  24  25
ENDBRANCH  23  24
ENDBRANCH  22  23
ENDBRANCH  21  22
ENDBRANCH  20  21
ENDBRANCH  19  20
ENDBRANCH  18  19
ENDBRANCH   1  18
TORSDOF 28
ENDMDL
