MODEL 1
REMARK VINA RESULT:    -4.320      0.000      0.000
REMARK INTER + INTRA:          -8.936
REMARK INTER:                  -8.361
REMARK INTRA:                  -0.575
REMARK UNBOUND:                -0.575
REMARK SMILES CCCCCCCCCCCCCCCCCC(=O)[O-]
REMARK SMILES IDX 10 1 11 2 12 3 13 4 14 5 15 6 16 7 17 8 18 9 19 10 20 11
REMARK SMILES IDX 9 12 8 13 7 14 6 15 5 16 4 17 3 18 2 19 1 20
REMARK H PARENT
REMARK Flexibility Score: inf
ROOT
ATOM      1  C   UNL     1     -30.201 -20.070  13.775  1.00  0.00     0.000 C 
ENDROOT
BRANCH   1   2
ATOM      2  C   UNL     1     -31.018 -21.288  13.305  1.00  0.00     0.000 C 
BRANCH   2   3
ATOM      3  C   UNL     1     -30.412 -22.645  13.724  1.00  0.00     0.000 C 
BRANCH   3   4
ATOM      4  C   UNL     1     -30.793 -23.043  15.161  1.00  0.00     0.000 C 
BRANCH   4   5
ATOM      5  C   UNL     1     -30.183 -24.389  15.594  1.00  0.00     0.000 C 
BRANCH   5   6
ATOM      6  C   UNL     1     -31.073 -25.620  15.342  1.00  0.00     0.000 C 
BRANCH   6   7
ATOM      7  C   UNL     1     -30.738 -26.802  16.267  1.00  0.00     0.006 C 
BRANCH   7   8
ATOM      8  C   UNL     1     -30.890 -26.439  17.749  1.00  0.00     0.053 C 
BRANCH   8   9
ATOM      9  C   UNL     1     -30.071 -27.332  18.630  1.00  0.00     0.041 C 
ATOM     10  O   UNL     1     -30.303 -27.389  19.865  1.00  0.00    -0.550 OA
ATOM     11  O   UNL     1     -29.070 -28.124  18.081  1.00  0.00    -0.550 OA
ENDBRANCH   8   9
ENDBRANCH   7   8
ENDBRANCH   6   7
ENDBRANCH   5   6
ENDBRANCH   4   5
ENDBRANCH   3   4
ENDBRANCH   2   3
ENDBRANCH   1   2
BRANCH   1  12
ATOM     12  C   UNL     1     -31.025 -18.795  14.032  1.00  0.00     0.000 C 
BRANCH  12  13
ATOM     13  C   UNL     1     -30.835 -17.676  12.988  1.00  0.00    -0.000 C 
BRANCH  13  14
ATOM     14  C   UNL     1     -30.089 -16.426  13.495  1.00  0.00    -0.000 C 
BRANCH  14  15
ATOM     15  C   UNL     1     -30.851 -15.099  13.323  1.00  0.00    -0.000 C 
BRANCH  15  16
ATOM     16  C   UNL     1     -30.876 -14.255  14.605  1.00  0.00    -0.000 C 
BRANCH  16  17
ATOM     17  C   UNL     1     -30.872 -12.755  14.275  1.00  0.00    -0.000 C 
BRANCH  17  18
ATOM     18  C   UNL     1     -31.040 -12.478  12.773  1.00  0.00    -0.000 C 
BRANCH  18  19
ATOM     19  C   UNL     1     -30.854 -10.994  12.422  1.00  0.00    -0.003 C 
ATOM     20  C   UNL     1     -29.407 -10.698  12.037  1.00  0.00     0.004 C 
ENDBRANCH  18  19
ENDBRANCH  17  18
ENDBRANCH  16  17
ENDBRANCH  15  16
ENDBRANCH  14  15
ENDBRANCH  13  14
ENDBRANCH  12  13
ENDBRANCH   1  12
TORSDOF 16
ENDMDL
MODEL 2
REMARK VINA RESULT:    -4.088     18.190     20.346
REMARK INTER + INTRA:          -8.488
REMARK INTER:                  -6.390
REMARK INTRA:                  -2.097
REMARK UNBOUND:                -0.575
REMARK SMILES CCCCCCCCCCCCCCCCCC(=O)[O-]
REMARK SMILES IDX 10 1 11 2 12 3 13 4 14 5 15 6 16 7 17 8 18 9 19 10 20 11
REMARK SMILES IDX 9 12 8 13 7 14 6 15 5 16 4 17 3 18 2 19 1 20
REMARK H PARENT
REMARK Flexibility Score: inf
ROOT
ATOM      1  C   UNL     1     -13.203 -21.739  18.981  1.00  0.00     0.000 C 
ENDROOT
BRANCH   1   2
ATOM      2  C   UNL     1     -12.054 -21.090  18.186  1.00  0.00     0.000 C 
BRANCH   2   3
ATOM      3  C   UNL     1     -11.919 -19.569  18.414  1.00  0.00     0.000 C 
BRANCH   3   4
ATOM      4  C   UNL     1     -13.110 -18.980  19.191  1.00  0.00     0.000 C 
BRANCH   4   5
ATOM      5  C   UNL     1     -12.692 -18.303  20.509  1.00  0.00     0.000 C 
BRANCH   5   6
ATOM      6  C   UNL     1     -11.415 -18.869  21.157  1.00  0.00     0.000 C 
BRANCH   6   7
ATOM      7  C   UNL     1     -11.270 -18.480  22.638  1.00  0.00     0.006 C 
BRANCH   7   8
ATOM      8  C   UNL     1     -12.619 -18.135  23.281  1.00  0.00     0.053 C 
BRANCH   8   9
ATOM      9  C   UNL     1     -12.728 -18.677  24.674  1.00  0.00     0.041 C 
ATOM     10  O   UNL     1     -12.250 -19.807  24.952  1.00  0.00    -0.550 OA
ATOM     11  O   UNL     1     -13.331 -17.920  25.671  1.00  0.00    -0.550 OA
ENDBRANCH   8   9
ENDBRANCH   7   8
ENDBRANCH   6   7
ENDBRANCH   5   6
ENDBRANCH   4   5
ENDBRANCH   3   4
ENDBRANCH   2   3
ENDBRANCH   1   2
BRANCH   1  12
ATOM     12  C   UNL     1     -12.764 -22.802  20.004  1.00  0.00     0.000 C 
BRANCH  12  13
ATOM     13  C   UNL     1     -12.622 -22.294  21.452  1.00  0.00    -0.000 C 
BRANCH  13  14
ATOM     14  C   UNL     1     -13.846 -21.536  22.004  1.00  0.00    -0.000 C 
BRANCH  14  15
ATOM     15  C   UNL     1     -14.400 -22.077  23.336  1.00  0.00    -0.000 C 
BRANCH  15  16
ATOM     16  C   UNL     1     -14.683 -23.585  23.296  1.00  0.00    -0.000 C 
BRANCH  16  17
ATOM     17  C   UNL     1     -15.838 -23.951  24.239  1.00  0.00    -0.000 C 
BRANCH  17  18
ATOM     18  C   UNL     1     -16.900 -22.845  24.336  1.00  0.00    -0.000 C 
BRANCH  18  19
ATOM     19  C   UNL     1     -17.185 -22.425  25.786  1.00  0.00    -0.003 C 
ATOM     20  C   UNL     1     -18.569 -22.892  26.231  1.00  0.00     0.004 C 
ENDBRANCH  18  19
ENDBRANCH  17  18
ENDBRANCH  16  17
ENDBRANCH  15  16
ENDBRANCH  14  15
ENDBRANCH  13  14
ENDBRANCH  12  13
ENDBRANCH   1  12
TORSDOF 16
ENDMDL
MODEL 3
REMARK VINA RESULT:    -4.052     17.050     17.878
REMARK INTER + INTRA:          -8.418
REMARK INTER:                  -7.543
REMARK INTRA:                  -0.875
REMARK UNBOUND:                -0.575
REMARK SMILES CCCCCCCCCCCCCCCCCC(=O)[O-]
REMARK SMILES IDX 10 1 11 2 12 3 13 4 14 5 15 6 16 7 17 8 18 9 19 10 20 11
REMARK SMILES IDX 9 12 8 13 7 14 6 15 5 16 4 17 3 18 2 19 1 20
REMARK H PARENT
REMARK Flexibility Score: inf
ROOT
ATOM      1  C   UNL     1     -13.835 -20.381  20.600  1.00  0.00     0.000 C 
ENDROOT
BRANCH   1   2
ATOM      2  C   UNL     1     -13.151 -21.760  20.632  1.00  0.00     0.000 C 
BRANCH   2   3
ATOM      3  C   UNL     1     -13.410 -22.554  21.931  1.00  0.00     0.000 C 
BRANCH   3   4
ATOM      4  C   UNL     1     -13.835 -21.650  23.101  1.00  0.00     0.000 C 
BRANCH   4   5
ATOM      5  C   UNL     1     -14.753 -22.364  24.110  1.00  0.00     0.000 C 
BRANCH   5   6
ATOM      6  C   UNL     1     -15.755 -23.355  23.490  1.00  0.00     0.000 C 
BRANCH   6   7
ATOM      7  C   UNL     1     -17.182 -23.188  24.040  1.00  0.00     0.006 C 
BRANCH   7   8
ATOM      8  C   UNL     1     -17.666 -24.436  24.789  1.00  0.00     0.053 C 
BRANCH   8   9
ATOM      9  C   UNL     1     -18.726 -24.109  25.795  1.00  0.00     0.041 C 
ATOM     10  O   UNL     1     -19.461 -25.019  26.258  1.00  0.00    -0.550 OA
ATOM     11  O   UNL     1     -18.883 -22.802  26.242  1.00  0.00    -0.550 OA
ENDBRANCH   8   9
ENDBRANCH   7   8
ENDBRANCH   6   7
ENDBRANCH   5   6
ENDBRANCH   4   5
ENDBRANCH   3   4
ENDBRANCH   2   3
ENDBRANCH   1   2
BRANCH   1  12
ATOM     12  C   UNL     1     -13.238 -19.383  19.591  1.00  0.00     0.000 C 
BRANCH  12  13
ATOM     13  C   UNL     1     -12.166 -19.971  18.651  1.00  0.00    -0.000 C 
BRANCH  13  14
ATOM     14  C   UNL     1     -11.494 -18.954  17.707  1.00  0.00    -0.000 C 
BRANCH  14  15
ATOM     15  C   UNL     1     -11.688 -17.477  18.096  1.00  0.00    -0.000 C 
BRANCH  15  16
ATOM     16  C   UNL     1     -11.271 -16.506  16.982  1.00  0.00    -0.000 C 
BRANCH  16  17
ATOM     17  C   UNL     1     -11.694 -17.038  15.605  1.00  0.00    -0.000 C 
BRANCH  17  18
ATOM     18  C   UNL     1     -12.218 -15.932  14.675  1.00  0.00    -0.000 C 
BRANCH  18  19
ATOM     19  C   UNL     1     -11.632 -14.552  15.011  1.00  0.00    -0.003 C 
ATOM     20  C   UNL     1     -12.704 -13.468  14.938  1.00  0.00     0.004 C 
ENDBRANCH  18  19
ENDBRANCH  17  18
ENDBRANCH  16  17
ENDBRANCH  15  16
ENDBRANCH  14  15
ENDBRANCH  13  14
ENDBRANCH  12  13
ENDBRANCH   1  12
TORSDOF 16
ENDMDL
MODEL 4
REMARK VINA RESULT:    -3.994     17.850     18.960
REMARK INTER + INTRA:          -8.305
REMARK INTER:                  -6.171
REMARK INTRA:                  -2.134
REMARK UNBOUND:                -0.575
REMARK SMILES CCCCCCCCCCCCCCCCCC(=O)[O-]
REMARK SMILES IDX 10 1 11 2 12 3 13 4 14 5 15 6 16 7 17 8 18 9 19 10 20 11
REMARK SMILES IDX 9 12 8 13 7 14 6 15 5 16 4 17 3 18 2 19 1 20
REMARK H PARENT
REMARK Flexibility Score: inf
ROOT
ATOM      1  C   UNL     1     -13.282 -21.756  19.078  1.00  0.00     0.000 C 
ENDROOT
BRANCH   1   2
ATOM      2  C   UNL     1     -12.721 -22.892  19.953  1.00  0.00     0.000 C 
BRANCH   2   3
ATOM      3  C   UNL     1     -12.674 -22.555  21.459  1.00  0.00     0.000 C 
BRANCH   3   4
ATOM      4  C   UNL     1     -13.888 -21.726  21.916  1.00  0.00     0.000 C 
BRANCH   4   5
ATOM      5  C   UNL     1     -14.255 -21.960  23.393  1.00  0.00     0.000 C 
BRANCH   5   6
ATOM      6  C   UNL     1     -15.065 -23.241  23.667  1.00  0.00     0.000 C 
BRANCH   6   7
ATOM      7  C   UNL     1     -16.581 -22.990  23.731  1.00  0.00     0.006 C 
BRANCH   7   8
ATOM      8  C   UNL     1     -17.037 -22.552  25.129  1.00  0.00     0.053 C 
BRANCH   8   9
ATOM      9  C   UNL     1     -17.716 -23.664  25.869  1.00  0.00     0.041 C 
ATOM     10  O   UNL     1     -17.033 -24.521  26.489  1.00  0.00    -0.550 OA
ATOM     11  O   UNL     1     -19.103 -23.737  25.899  1.00  0.00    -0.550 OA
ENDBRANCH   8   9
ENDBRANCH   7   8
ENDBRANCH   6   7
ENDBRANCH   5   6
ENDBRANCH   4   5
ENDBRANCH   3   4
ENDBRANCH   2   3
ENDBRANCH   1   2
BRANCH   1  12
ATOM     12  C   UNL     1     -12.238 -21.024  18.216  1.00  0.00     0.000 C 
BRANCH  12  13
ATOM     13  C   UNL     1     -11.978 -19.557  18.613  1.00  0.00    -0.000 C 
BRANCH  13  14
ATOM     14  C   UNL     1     -13.130 -18.869  19.371  1.00  0.00    -0.000 C 
BRANCH  14  15
ATOM     15  C   UNL     1     -12.762 -18.329  20.765  1.00  0.00    -0.000 C 
BRANCH  15  16
ATOM     16  C   UNL     1     -11.469 -18.944  21.321  1.00  0.00    -0.000 C 
BRANCH  16  17
ATOM     17  C   UNL     1     -11.522 -19.040  22.853  1.00  0.00    -0.000 C 
BRANCH  17  18
ATOM     18  C   UNL     1     -12.632 -18.170  23.464  1.00  0.00    -0.000 C 
BRANCH  18  19
ATOM     19  C   UNL     1     -12.537 -18.082  24.995  1.00  0.00    -0.003 C 
ATOM     20  C   UNL     1     -13.132 -19.324  25.654  1.00  0.00     0.004 C 
ENDBRANCH  18  19
ENDBRANCH  17  18
ENDBRANCH  16  17
ENDBRANCH  15  16
ENDBRANCH  14  15
ENDBRANCH  13  14
ENDBRANCH  12  13
ENDBRANCH   1  12
TORSDOF 16
ENDMDL
MODEL 5
REMARK VINA RESULT:    -3.977     17.944     20.730
REMARK INTER + INTRA:          -8.273
REMARK INTER:                  -7.335
REMARK INTRA:                  -0.938
REMARK UNBOUND:                -0.575
REMARK SMILES CCCCCCCCCCCCCCCCCC(=O)[O-]
REMARK SMILES IDX 10 1 11 2 12 3 13 4 14 5 15 6 16 7 17 8 18 9 19 10 20 11
REMARK SMILES IDX 9 12 8 13 7 14 6 15 5 16 4 17 3 18 2 19 1 20
REMARK H PARENT
REMARK Flexibility Score: inf
ROOT
ATOM      1  C   UNL     1     -13.452 -21.119  19.307  1.00  0.00     0.000 C 
ENDROOT
BRANCH   1   2
ATOM      2  C   UNL     1     -12.254 -20.177  19.087  1.00  0.00     0.000 C 
BRANCH   2   3
ATOM      3  C   UNL     1     -12.588 -18.684  19.294  1.00  0.00     0.000 C 
BRANCH   3   4
ATOM      4  C   UNL     1     -12.039 -17.795  18.164  1.00  0.00     0.000 C 
BRANCH   4   5
ATOM      5  C   UNL     1     -10.986 -18.508  17.295  1.00  0.00     0.000 C 
BRANCH   5   6
ATOM      6  C   UNL     1     -10.881 -17.996  15.847  1.00  0.00     0.000 C 
BRANCH   6   7
ATOM      7  C   UNL     1     -11.496 -16.598  15.658  1.00  0.00     0.006 C 
BRANCH   7   8
ATOM      8  C   UNL     1     -11.967 -16.362  14.217  1.00  0.00     0.053 C 
BRANCH   8   9
ATOM      9  C   UNL     1     -12.383 -14.941  13.992  1.00  0.00     0.041 C 
ATOM     10  O   UNL     1     -12.631 -14.531  12.828  1.00  0.00    -0.550 OA
ATOM     11  O   UNL     1     -12.527 -14.077  15.071  1.00  0.00    -0.550 OA
ENDBRANCH   8   9
ENDBRANCH   7   8
ENDBRANCH   6   7
ENDBRANCH   5   6
ENDBRANCH   4   5
ENDBRANCH   3   4
ENDBRANCH   2   3
ENDBRANCH   1   2
BRANCH   1  12
ATOM     12  C   UNL     1     -13.084 -22.548  19.743  1.00  0.00     0.000 C 
BRANCH  12  13
ATOM     13  C   UNL     1     -13.156 -22.805  21.262  1.00  0.00    -0.000 C 
BRANCH  13  14
ATOM     14  C   UNL     1     -13.912 -21.734  22.072  1.00  0.00    -0.000 C 
BRANCH  14  15
ATOM     15  C   UNL     1     -14.442 -22.206  23.439  1.00  0.00    -0.000 C 
BRANCH  15  16
ATOM     16  C   UNL     1     -14.929 -23.662  23.420  1.00  0.00    -0.000 C 
BRANCH  16  17
ATOM     17  C   UNL     1     -16.395 -23.755  23.869  1.00  0.00    -0.000 C 
BRANCH  17  18
ATOM     18  C   UNL     1     -16.866 -22.501  24.622  1.00  0.00    -0.000 C 
BRANCH  18  19
ATOM     19  C   UNL     1     -17.492 -22.830  25.986  1.00  0.00    -0.003 C 
ATOM     20  C   UNL     1     -18.619 -23.850  25.841  1.00  0.00     0.004 C 
ENDBRANCH  18  19
ENDBRANCH  17  18
ENDBRANCH  16  17
ENDBRANCH  15  16
ENDBRANCH  14  15
ENDBRANCH  13  14
ENDBRANCH  12  13
ENDBRANCH   1  12
TORSDOF 16
ENDMDL
MODEL 6
REMARK VINA RESULT:    -3.946     17.990     20.143
REMARK INTER + INTRA:          -8.212
REMARK INTER:                  -6.452
REMARK INTRA:                  -1.760
REMARK UNBOUND:                -0.575
REMARK SMILES CCCCCCCCCCCCCCCCCC(=O)[O-]
REMARK SMILES IDX 10 1 11 2 12 3 13 4 14 5 15 6 16 7 17 8 18 9 19 10 20 11
REMARK SMILES IDX 9 12 8 13 7 14 6 15 5 16 4 17 3 18 2 19 1 20
REMARK H PARENT
REMARK Flexibility Score: inf
ROOT
ATOM      1  C   UNL     1     -11.948 -22.583  20.408  1.00  0.00     0.000 C 
ENDROOT
BRANCH   1   2
ATOM      2  C   UNL     1     -13.199 -22.383  19.533  1.00  0.00     0.000 C 
BRANCH   2   3
ATOM      3  C   UNL     1     -12.976 -21.436  18.333  1.00  0.00     0.000 C 
BRANCH   3   4
ATOM      4  C   UNL     1     -11.600 -20.749  18.372  1.00  0.00     0.000 C 
BRANCH   4   5
ATOM      5  C   UNL     1     -11.688 -19.219  18.227  1.00  0.00     0.000 C 
BRANCH   5   6
ATOM      6  C   UNL     1     -12.794 -18.548  19.061  1.00  0.00     0.000 C 
BRANCH   6   7
ATOM      7  C   UNL     1     -12.359 -18.249  20.506  1.00  0.00     0.006 C 
BRANCH   7   8
ATOM      8  C   UNL     1     -13.062 -19.158  21.523  1.00  0.00     0.053 C 
BRANCH   8   9
ATOM      9  C   UNL     1     -12.458 -19.040  22.889  1.00  0.00     0.041 C 
ATOM     10  O   UNL     1     -11.581 -19.859  23.265  1.00  0.00    -0.550 OA
ATOM     11  O   UNL     1     -12.842 -18.005  23.734  1.00  0.00    -0.550 OA
ENDBRANCH   8   9
ENDBRANCH   7   8
ENDBRANCH   6   7
ENDBRANCH   5   6
ENDBRANCH   4   5
ENDBRANCH   3   4
ENDBRANCH   2   3
ENDBRANCH   1   2
BRANCH   1  12
ATOM     12  C   UNL     1     -12.235 -22.923  21.882  1.00  0.00     0.000 C 
BRANCH  12  13
ATOM     13  C   UNL     1     -13.703 -23.277  22.195  1.00  0.00    -0.000 C 
BRANCH  13  14
ATOM     14  C   UNL     1     -14.469 -22.225  23.022  1.00  0.00    -0.000 C 
BRANCH  14  15
ATOM     15  C   UNL     1     -15.330 -22.796  24.165  1.00  0.00    -0.000 C 
BRANCH  15  16
ATOM     16  C   UNL     1     -16.760 -23.135  23.721  1.00  0.00    -0.000 C 
BRANCH  16  17
ATOM     17  C   UNL     1     -17.237 -24.446  24.364  1.00  0.00    -0.000 C 
BRANCH  17  18
ATOM     18  C   UNL     1     -17.631 -24.275  25.840  1.00  0.00    -0.000 C 
BRANCH  18  19
ATOM     19  C   UNL     1     -18.746 -23.236  26.037  1.00  0.00    -0.003 C 
ATOM     20  C   UNL     1     -18.294 -22.117  26.971  1.00  0.00     0.004 C 
ENDBRANCH  18  19
ENDBRANCH  17  18
ENDBRANCH  16  17
ENDBRANCH  15  16
ENDBRANCH  14  15
ENDBRANCH  13  14
ENDBRANCH  12  13
ENDBRANCH   1  12
TORSDOF 16
ENDMDL
MODEL 7
REMARK VINA RESULT:    -3.938     17.467     18.640
REMARK INTER + INTRA:          -8.197
REMARK INTER:                  -6.309
REMARK INTRA:                  -1.888
REMARK UNBOUND:                -0.575
REMARK SMILES CCCCCCCCCCCCCCCCCC(=O)[O-]
REMARK SMILES IDX 10 1 11 2 12 3 13 4 14 5 15 6 16 7 17 8 18 9 19 10 20 11
REMARK SMILES IDX 9 12 8 13 7 14 6 15 5 16 4 17 3 18 2 19 1 20
REMARK H PARENT
REMARK Flexibility Score: inf
ROOT
ATOM      1  C   UNL     1     -13.137 -23.038  20.913  1.00  0.00     0.000 C 
ENDROOT
BRANCH   1   2
ATOM      2  C   UNL     1     -12.762 -22.060  22.042  1.00  0.00     0.000 C 
BRANCH   2   3
ATOM      3  C   UNL     1     -13.978 -21.373  22.701  1.00  0.00     0.000 C 
BRANCH   3   4
ATOM      4  C   UNL     1     -13.951 -21.472  24.236  1.00  0.00     0.000 C 
BRANCH   4   5
ATOM      5  C   UNL     1     -15.100 -22.325  24.804  1.00  0.00     0.000 C 
BRANCH   5   6
ATOM      6  C   UNL     1     -15.997 -22.996  23.748  1.00  0.00     0.000 C 
BRANCH   6   7
ATOM      7  C   UNL     1     -16.682 -24.272  24.265  1.00  0.00     0.006 C 
BRANCH   7   8
ATOM      8  C   UNL     1     -18.212 -24.165  24.226  1.00  0.00     0.053 C 
BRANCH   8   9
ATOM      9  C   UNL     1     -18.791 -23.946  25.590  1.00  0.00     0.041 C 
ATOM     10  O   UNL     1     -19.346 -24.895  26.202  1.00  0.00    -0.550 OA
ATOM     11  O   UNL     1     -18.691 -22.700  26.198  1.00  0.00    -0.550 OA
ENDBRANCH   8   9
ENDBRANCH   7   8
ENDBRANCH   6   7
ENDBRANCH   5   6
ENDBRANCH   4   5
ENDBRANCH   3   4
ENDBRANCH   2   3
ENDBRANCH   1   2
BRANCH   1  12
ATOM     12  C   UNL     1     -12.774 -22.562  19.494  1.00  0.00     0.000 C 
BRANCH  12  13
ATOM     13  C   UNL     1     -13.375 -21.200  19.091  1.00  0.00    -0.000 C 
BRANCH  13  14
ATOM     14  C   UNL     1     -12.363 -20.173  18.545  1.00  0.00    -0.000 C 
BRANCH  14  15
ATOM     15  C   UNL     1     -12.625 -18.715  18.966  1.00  0.00    -0.000 C 
BRANCH  15  16
ATOM     16  C   UNL     1     -12.832 -18.560  20.480  1.00  0.00    -0.000 C 
BRANCH  16  17
ATOM     17  C   UNL     1     -11.493 -18.645  21.228  1.00  0.00    -0.000 C 
BRANCH  17  18
ATOM     18  C   UNL     1     -11.471 -17.792  22.506  1.00  0.00    -0.000 C 
BRANCH  18  19
ATOM     19  C   UNL     1     -12.718 -18.004  23.378  1.00  0.00    -0.003 C 
ATOM     20  C   UNL     1     -12.351 -18.039  24.860  1.00  0.00     0.004 C 
ENDBRANCH  18  19
ENDBRANCH  17  18
ENDBRANCH  16  17
ENDBRANCH  15  16
ENDBRANCH  14  15
ENDBRANCH  13  14
ENDBRANCH  12  13
ENDBRANCH   1  12
TORSDOF 16
ENDMDL
MODEL 8
REMARK VINA RESULT:    -3.892     17.536     19.460
REMARK INTER + INTRA:          -8.108
REMARK INTER:                  -5.934
REMARK INTRA:                  -2.173
REMARK UNBOUND:                -0.575
REMARK SMILES CCCCCCCCCCCCCCCCCC(=O)[O-]
REMARK SMILES IDX 10 1 11 2 12 3 13 4 14 5 15 6 16 7 17 8 18 9 19 10 20 11
REMARK SMILES IDX 9 12 8 13 7 14 6 15 5 16 4 17 3 18 2 19 1 20
REMARK H PARENT
REMARK Flexibility Score: inf
ROOT
ATOM      1  C   UNL     1     -11.866 -19.065  21.791  1.00  0.00     0.000 C 
ENDROOT
BRANCH   1   2
ATOM      2  C   UNL     1     -12.597 -19.012  23.145  1.00  0.00     0.000 C 
BRANCH   2   3
ATOM      3  C   UNL     1     -12.705 -20.382  23.850  1.00  0.00     0.000 C 
BRANCH   3   4
ATOM      4  C   UNL     1     -13.714 -21.320  23.164  1.00  0.00     0.000 C 
BRANCH   4   5
ATOM      5  C   UNL     1     -14.515 -22.175  24.163  1.00  0.00     0.000 C 
BRANCH   5   6
ATOM      6  C   UNL     1     -15.549 -23.121  23.527  1.00  0.00     0.000 C 
BRANCH   6   7
ATOM      7  C   UNL     1     -16.923 -23.059  24.216  1.00  0.00     0.006 C 
BRANCH   7   8
ATOM      8  C   UNL     1     -16.812 -22.682  25.699  1.00  0.00     0.053 C 
BRANCH   8   9
ATOM      9  C   UNL     1     -18.157 -22.464  26.322  1.00  0.00     0.041 C 
ATOM     10  O   UNL     1     -19.083 -23.295  26.135  1.00  0.00    -0.550 OA
ATOM     11  O   UNL     1     -18.377 -21.359  27.135  1.00  0.00    -0.550 OA
ENDBRANCH   8   9
ENDBRANCH   7   8
ENDBRANCH   6   7
ENDBRANCH   5   6
ENDBRANCH   4   5
ENDBRANCH   3   4
ENDBRANCH   2   3
ENDBRANCH   1   2
BRANCH   1  12
ATOM     12  C   UNL     1     -12.490 -18.198  20.682  1.00  0.00     0.000 C 
BRANCH  12  13
ATOM     13  C   UNL     1     -12.913 -18.967  19.415  1.00  0.00    -0.000 C 
BRANCH  13  14
ATOM     14  C   UNL     1     -13.806 -20.199  19.663  1.00  0.00    -0.000 C 
BRANCH  14  15
ATOM     15  C   UNL     1     -13.338 -21.493  18.971  1.00  0.00    -0.000 C 
BRANCH  15  16
ATOM     16  C   UNL     1     -11.877 -21.844  19.288  1.00  0.00    -0.000 C 
BRANCH  16  17
ATOM     17  C   UNL     1     -11.793 -22.838  20.455  1.00  0.00    -0.000 C 
BRANCH  17  18
ATOM     18  C   UNL     1     -12.894 -23.909  20.404  1.00  0.00    -0.000 C 
BRANCH  18  19
ATOM     19  C   UNL     1     -12.967 -24.743  21.692  1.00  0.00    -0.003 C 
ATOM     20  C   UNL     1     -11.740 -24.509  22.568  1.00  0.00     0.004 C 
ENDBRANCH  18  19
ENDBRANCH  17  18
ENDBRANCH  16  17
ENDBRANCH  15  16
ENDBRANCH  14  15
ENDBRANCH  13  14
ENDBRANCH  12  13
ENDBRANCH   1  12
TORSDOF 16
ENDMDL
MODEL 9
REMARK VINA RESULT:    -3.888     17.768     19.859
REMARK INTER + INTRA:          -8.099
REMARK INTER:                  -6.095
REMARK INTRA:                  -2.004
REMARK UNBOUND:                -0.575
REMARK SMILES CCCCCCCCCCCCCCCCCC(=O)[O-]
REMARK SMILES IDX 10 1 11 2 12 3 13 4 14 5 15 6 16 7 17 8 18 9 19 10 20 11
REMARK SMILES IDX 9 12 8 13 7 14 6 15 5 16 4 17 3 18 2 19 1 20
REMARK H PARENT
REMARK Flexibility Score: inf
ROOT
ATOM      1  C   UNL     1     -17.181 -23.515  23.602  1.00  0.00     0.000 C 
ENDROOT
BRANCH   1   2
ATOM      2  C   UNL     1     -15.779 -22.885  23.689  1.00  0.00     0.000 C 
BRANCH   2   3
ATOM      3  C   UNL     1     -14.635 -23.919  23.774  1.00  0.00     0.000 C 
BRANCH   3   4
ATOM      4  C   UNL     1     -13.781 -23.960  22.494  1.00  0.00     0.000 C 
BRANCH   4   5
ATOM      5  C   UNL     1     -13.383 -22.560  21.993  1.00  0.00     0.000 C 
BRANCH   5   6
ATOM      6  C   UNL     1     -13.069 -22.472  20.488  1.00  0.00     0.000 C 
BRANCH   6   7
ATOM      7  C   UNL     1     -13.581 -21.173  19.843  1.00  0.00     0.006 C 
BRANCH   7   8
ATOM      8  C   UNL     1     -13.771 -20.050  20.871  1.00  0.00     0.053 C 
BRANCH   8   9
ATOM      9  C   UNL     1     -13.125 -18.773  20.430  1.00  0.00     0.041 C 
ATOM     10  O   UNL     1     -12.820 -17.893  21.276  1.00  0.00    -0.550 OA
ATOM     11  O   UNL     1     -12.832 -18.568  19.087  1.00  0.00    -0.550 OA
ENDBRANCH   8   9
ENDBRANCH   7   8
ENDBRANCH   6   7
ENDBRANCH   5   6
ENDBRANCH   4   5
ENDBRANCH   3   4
ENDBRANCH   2   3
ENDBRANCH   1   2
BRANCH   1  12
ATOM     12  C   UNL     1     -17.570 -24.403  24.797  1.00  0.00     0.000 C 
BRANCH  12  13
ATOM     13  C   UNL     1     -18.737 -23.870  25.653  1.00  0.00    -0.000 C 
BRANCH  13  14
ATOM     14  C   UNL     1     -18.324 -23.190  26.973  1.00  0.00    -0.000 C 
BRANCH  14  15
ATOM     15  C   UNL     1     -17.766 -21.762  26.823  1.00  0.00    -0.000 C 
BRANCH  15  16
ATOM     16  C   UNL     1     -16.526 -21.512  27.693  1.00  0.00    -0.000 C 
BRANCH  16  17
ATOM     17  C   UNL     1     -15.290 -22.203  27.097  1.00  0.00    -0.000 C 
BRANCH  17  18
ATOM     18  C   UNL     1     -13.993 -21.417  27.345  1.00  0.00    -0.000 C 
BRANCH  18  19
ATOM     19  C   UNL     1     -13.026 -21.483  26.153  1.00  0.00    -0.003 C 
ATOM     20  C   UNL     1     -13.402 -20.462  25.083  1.00  0.00     0.004 C 
ENDBRANCH  18  19
ENDBRANCH  17  18
ENDBRANCH  16  17
ENDBRANCH  15  16
ENDBRANCH  14  15
ENDBRANCH  13  14
ENDBRANCH  12  13
ENDBRANCH   1  12
TORSDOF 16
ENDMDL
