MODEL 1
REMARK VINA RESULT:    -4.278      0.000      0.000
REMARK INTER + INTRA:          -6.810
REMARK INTER:                  -6.029
REMARK INTRA:                  -0.781
REMARK UNBOUND:                -0.781
REMARK SMILES CCCCCCCCC(=O)[O-]
REMARK SMILES IDX 6 1 7 2 8 3 9 4 10 5 11 6 5 7 4 8 3 9 2 10 1 11
REMARK H PARENT
REMARK Flexibility Score: inf
ROOT
ATOM      1  C   UNL     1      13.816  14.971  69.106  1.00  0.00     0.000 C 
ENDROOT
BRANCH   1   2
ATOM      2  C   UNL     1      13.361  13.570  69.545  1.00  0.00     0.006 C 
BRANCH   2   3
ATOM      3  C   UNL     1      12.082  13.114  68.829  1.00  0.00     0.053 C 
BRANCH   3   4
ATOM      4  C   UNL     1      10.883  13.391  69.677  1.00  0.00     0.041 C 
ATOM      5  O   UNL     1      10.924  13.191  70.920  1.00  0.00    -0.550 OA
ATOM      6  O   UNL     1       9.700  13.823  69.088  1.00  0.00    -0.550 OA
ENDBRANCH   3   4
ENDBRANCH   2   3
ENDBRANCH   1   2
BRANCH   1   7
ATOM      7  C   UNL     1      14.319  15.824  70.283  1.00  0.00     0.000 C 
BRANCH   7   8
ATOM      8  C   UNL     1      13.329  16.934  70.677  1.00  0.00    -0.000 C 
BRANCH   8   9
ATOM      9  C   UNL     1      12.332  16.478  71.755  1.00  0.00    -0.000 C 
BRANCH   9  10
ATOM     10  C   UNL     1      10.870  16.686  71.329  1.00  0.00    -0.003 C 
ATOM     11  C   UNL     1      10.741  17.348  69.957  1.00  0.00     0.004 C 
ENDBRANCH   9  10
ENDBRANCH   8   9
ENDBRANCH   7   8
ENDBRANCH   1   7
TORSDOF 7
ENDMDL
MODEL 2
REMARK VINA RESULT:    -4.251      2.249      3.595
REMARK INTER + INTRA:          -6.771
REMARK INTER:                  -5.982
REMARK INTRA:                  -0.789
REMARK UNBOUND:                -0.781
REMARK SMILES CCCCCCCCC(=O)[O-]
REMARK SMILES IDX 6 1 7 2 8 3 9 4 10 5 11 6 5 7 4 8 3 9 2 10 1 11
REMARK H PARENT
REMARK Flexibility Score: inf
ROOT
ATOM      1  C   UNL     1      10.882  13.700  69.709  1.00  0.00     0.000 C 
ENDROOT
BRANCH   1   2
ATOM      2  C   UNL     1      12.110  13.132  68.979  1.00  0.00     0.006 C 
BRANCH   2   3
ATOM      3  C   UNL     1      13.433  13.635  69.572  1.00  0.00     0.053 C 
BRANCH   3   4
ATOM      4  C   UNL     1      13.752  15.000  69.051  1.00  0.00     0.041 C 
ATOM      5  O   UNL     1      14.190  15.889  69.829  1.00  0.00    -0.550 OA
ATOM      6  O   UNL     1      13.518  15.307  67.717  1.00  0.00    -0.550 OA
ENDBRANCH   3   4
ENDBRANCH   2   3
ENDBRANCH   1   2
BRANCH   1   7
ATOM      7  C   UNL     1       9.735  14.053  68.746  1.00  0.00     0.000 C 
BRANCH   7   8
ATOM      8  C   UNL     1       9.352  15.542  68.801  1.00  0.00    -0.000 C 
BRANCH   8   9
ATOM      9  C   UNL     1      10.124  16.387  67.773  1.00  0.00    -0.000 C 
BRANCH   9  10
ATOM     10  C   UNL     1      10.861  17.569  68.420  1.00  0.00    -0.003 C 
ATOM     11  C   UNL     1      10.972  17.440  69.939  1.00  0.00     0.004 C 
ENDBRANCH   9  10
ENDBRANCH   8   9
ENDBRANCH   7   8
ENDBRANCH   1   7
TORSDOF 7
ENDMDL
MODEL 3
REMARK VINA RESULT:    -4.248      2.219      3.999
REMARK INTER + INTRA:          -6.768
REMARK INTER:                  -6.243
REMARK INTRA:                  -0.525
REMARK UNBOUND:                -0.781
REMARK SMILES CCCCCCCCC(=O)[O-]
REMARK SMILES IDX 6 1 7 2 8 3 9 4 10 5 11 6 5 7 4 8 3 9 2 10 1 11
REMARK H PARENT
REMARK Flexibility Score: inf
ROOT
ATOM      1  C   UNL     1      11.703  13.346  69.228  1.00  0.00     0.000 C 
ENDROOT
BRANCH   1   2
ATOM      2  C   UNL     1      10.858  14.225  70.164  1.00  0.00     0.006 C 
BRANCH   2   3
ATOM      3  C   UNL     1      11.309  14.133  71.627  1.00  0.00     0.053 C 
BRANCH   3   4
ATOM      4  C   UNL     1      11.298  15.486  72.263  1.00  0.00     0.041 C 
ATOM      5  O   UNL     1      12.183  16.333  71.969  1.00  0.00    -0.550 OA
ATOM      6  O   UNL     1      10.338  15.797  73.218  1.00  0.00    -0.550 OA
ENDBRANCH   3   4
ENDBRANCH   2   3
ENDBRANCH   1   2
BRANCH   1   7
ATOM      7  C   UNL     1      13.214  13.520  69.459  1.00  0.00     0.000 C 
BRANCH   7   8
ATOM      8  C   UNL     1      13.734  14.886  68.980  1.00  0.00    -0.000 C 
BRANCH   8   9
ATOM      9  C   UNL     1      14.853  15.438  69.879  1.00  0.00    -0.000 C 
BRANCH   9  10
ATOM     10  C   UNL     1      15.877  14.362  70.271  1.00  0.00    -0.003 C 
ATOM     11  C   UNL     1      17.231  14.555  69.590  1.00  0.00     0.004 C 
ENDBRANCH   9  10
ENDBRANCH   8   9
ENDBRANCH   7   8
ENDBRANCH   1   7
TORSDOF 7
ENDMDL
MODEL 4
REMARK VINA RESULT:    -4.241      1.496      3.472
REMARK INTER + INTRA:          -6.758
REMARK INTER:                  -5.906
REMARK INTRA:                  -0.852
REMARK UNBOUND:                -0.781
REMARK SMILES CCCCCCCCC(=O)[O-]
REMARK SMILES IDX 6 1 7 2 8 3 9 4 10 5 11 6 5 7 4 8 3 9 2 10 1 11
REMARK H PARENT
REMARK Flexibility Score: inf
ROOT
ATOM      1  C   UNL     1      13.767  16.042  70.035  1.00  0.00     0.000 C 
ENDROOT
BRANCH   1   2
ATOM      2  C   UNL     1      13.000  16.703  71.192  1.00  0.00     0.006 C 
BRANCH   2   3
ATOM      3  C   UNL     1      11.485  16.483  71.098  1.00  0.00     0.053 C 
BRANCH   3   4
ATOM      4  C   UNL     1      11.025  15.551  72.173  1.00  0.00     0.041 C 
ATOM      5  O   UNL     1      11.249  14.316  72.080  1.00  0.00    -0.550 OA
ATOM      6  O   UNL     1      10.305  16.041  73.256  1.00  0.00    -0.550 OA
ENDBRANCH   3   4
ENDBRANCH   2   3
ENDBRANCH   1   2
BRANCH   1   7
ATOM      7  C   UNL     1      14.407  14.703  70.441  1.00  0.00     0.000 C 
BRANCH   7   8
ATOM      8  C   UNL     1      13.743  13.496  69.757  1.00  0.00    -0.000 C 
BRANCH   8   9
ATOM      9  C   UNL     1      12.703  13.915  68.704  1.00  0.00    -0.000 C 
BRANCH   9  10
ATOM     10  C   UNL     1      11.447  13.029  68.734  1.00  0.00    -0.003 C 
ATOM     11  C   UNL     1      10.150  13.838  68.712  1.00  0.00     0.004 C 
ENDBRANCH   9  10
ENDBRANCH   8   9
ENDBRANCH   7   8
ENDBRANCH   1   7
TORSDOF 7
ENDMDL
MODEL 5
REMARK VINA RESULT:    -4.235      1.391      1.729
REMARK INTER + INTRA:          -6.749
REMARK INTER:                  -5.902
REMARK INTRA:                  -0.847
REMARK UNBOUND:                -0.781
REMARK SMILES CCCCCCCCC(=O)[O-]
REMARK SMILES IDX 6 1 7 2 8 3 9 4 10 5 11 6 5 7 4 8 3 9 2 10 1 11
REMARK H PARENT
REMARK Flexibility Score: inf
ROOT
ATOM      1  C   UNL     1      14.127  14.442  70.613  1.00  0.00     0.000 C 
ENDROOT
BRANCH   1   2
ATOM      2  C   UNL     1      13.485  13.513  69.570  1.00  0.00     0.006 C 
BRANCH   2   3
ATOM      3  C   UNL     1      11.954  13.482  69.671  1.00  0.00     0.053 C 
BRANCH   3   4
ATOM      4  C   UNL     1      11.339  13.678  68.322  1.00  0.00     0.041 C 
ATOM      5  O   UNL     1      11.518  14.755  67.694  1.00  0.00    -0.550 OA
ATOM      6  O   UNL     1      10.526  12.690  67.780  1.00  0.00    -0.550 OA
ENDBRANCH   3   4
ENDBRANCH   2   3
ENDBRANCH   1   2
BRANCH   1   7
ATOM      7  C   UNL     1      14.177  15.908  70.147  1.00  0.00     0.000 C 
BRANCH   7   8
ATOM      8  C   UNL     1      13.267  16.826  70.980  1.00  0.00    -0.000 C 
BRANCH   8   9
ATOM      9  C   UNL     1      11.998  17.246  70.220  1.00  0.00    -0.000 C 
BRANCH   9  10
ATOM     10  C   UNL     1      10.714  16.752  70.904  1.00  0.00    -0.003 C 
ATOM     11  C   UNL     1      10.974  16.132  72.277  1.00  0.00     0.004 C 
ENDBRANCH   9  10
ENDBRANCH   8   9
ENDBRANCH   7   8
ENDBRANCH   1   7
TORSDOF 7
ENDMDL
MODEL 6
REMARK VINA RESULT:    -4.226      1.837      3.307
REMARK INTER + INTRA:          -6.736
REMARK INTER:                  -5.852
REMARK INTRA:                  -0.884
REMARK UNBOUND:                -0.781
REMARK SMILES CCCCCCCCC(=O)[O-]
REMARK SMILES IDX 6 1 7 2 8 3 9 4 10 5 11 6 5 7 4 8 3 9 2 10 1 11
REMARK H PARENT
REMARK Flexibility Score: inf
ROOT
ATOM      1  C   UNL     1      13.217  14.252  69.163  1.00  0.00     0.000 C 
ENDROOT
BRANCH   1   2
ATOM      2  C   UNL     1      13.330  14.519  70.672  1.00  0.00     0.006 C 
BRANCH   2   3
ATOM      3  C   UNL     1      12.360  15.606  71.153  1.00  0.00     0.053 C 
BRANCH   3   4
ATOM      4  C   UNL     1      11.339  15.023  72.077  1.00  0.00     0.041 C 
ATOM      5  O   UNL     1      11.114  13.784  72.073  1.00  0.00    -0.550 OA
ATOM      6  O   UNL     1      10.600  15.855  72.910  1.00  0.00    -0.550 OA
ENDBRANCH   3   4
ENDBRANCH   2   3
ENDBRANCH   1   2
BRANCH   1   7
ATOM      7  C   UNL     1      12.204  13.141  68.835  1.00  0.00     0.000 C 
BRANCH   7   8
ATOM      8  C   UNL     1      11.032  13.642  67.974  1.00  0.00    -0.000 C 
BRANCH   8   9
ATOM      9  C   UNL     1       9.751  13.864  68.795  1.00  0.00    -0.000 C 
BRANCH   9  10
ATOM     10  C   UNL     1       9.324  15.340  68.828  1.00  0.00    -0.003 C 
ATOM     11  C   UNL     1      10.174  16.224  67.916  1.00  0.00     0.004 C 
ENDBRANCH   9  10
ENDBRANCH   8   9
ENDBRANCH   7   8
ENDBRANCH   1   7
TORSDOF 7
ENDMDL
MODEL 7
REMARK VINA RESULT:    -4.195      1.620      2.653
REMARK INTER + INTRA:          -6.693
REMARK INTER:                  -5.864
REMARK INTRA:                  -0.829
REMARK UNBOUND:                -0.781
REMARK SMILES CCCCCCCCC(=O)[O-]
REMARK SMILES IDX 6 1 7 2 8 3 9 4 10 5 11 6 5 7 4 8 3 9 2 10 1 11
REMARK H PARENT
REMARK Flexibility Score: inf
ROOT
ATOM      1  C   UNL     1      12.110  13.129  68.851  1.00  0.00     0.000 C 
ENDROOT
BRANCH   1   2
ATOM      2  C   UNL     1      10.849  13.478  69.658  1.00  0.00     0.006 C 
BRANCH   2   3
ATOM      3  C   UNL     1       9.747  14.098  68.790  1.00  0.00     0.053 C 
BRANCH   3   4
ATOM      4  C   UNL     1       9.966  15.570  68.641  1.00  0.00     0.041 C 
ATOM      5  O   UNL     1       9.459  16.374  69.467  1.00  0.00    -0.550 OA
ATOM      6  O   UNL     1      10.691  16.058  67.561  1.00  0.00    -0.550 OA
ENDBRANCH   3   4
ENDBRANCH   2   3
ENDBRANCH   1   2
BRANCH   1   7
ATOM      7  C   UNL     1      13.399  13.633  69.524  1.00  0.00     0.000 C 
BRANCH   7   8
ATOM      8  C   UNL     1      13.767  15.066  69.103  1.00  0.00    -0.000 C 
BRANCH   8   9
ATOM      9  C   UNL     1      14.089  15.969  70.305  1.00  0.00    -0.000 C 
BRANCH   9  10
ATOM     10  C   UNL     1      12.907  16.870  70.696  1.00  0.00    -0.003 C 
ATOM     11  C   UNL     1      12.092  16.307  71.860  1.00  0.00     0.004 C 
ENDBRANCH   9  10
ENDBRANCH   8   9
ENDBRANCH   7   8
ENDBRANCH   1   7
TORSDOF 7
ENDMDL
MODEL 8
REMARK VINA RESULT:    -4.180      1.668      3.496
REMARK INTER + INTRA:          -6.672
REMARK INTER:                  -5.810
REMARK INTRA:                  -0.862
REMARK UNBOUND:                -0.781
REMARK SMILES CCCCCCCCC(=O)[O-]
REMARK SMILES IDX 6 1 7 2 8 3 9 4 10 5 11 6 5 7 4 8 3 9 2 10 1 11
REMARK H PARENT
REMARK Flexibility Score: inf
ROOT
ATOM      1  C   UNL     1      14.238  15.931  70.246  1.00  0.00     0.000 C 
ENDROOT
BRANCH   1   2
ATOM      2  C   UNL     1      13.030  16.653  70.866  1.00  0.00     0.006 C 
BRANCH   2   3
ATOM      3  C   UNL     1      11.974  17.039  69.822  1.00  0.00     0.053 C 
BRANCH   3   4
ATOM      4  C   UNL     1      10.607  17.009  70.428  1.00  0.00     0.041 C 
ATOM      5  O   UNL     1      10.461  17.149  71.671  1.00  0.00    -0.550 OA
ATOM      6  O   UNL     1       9.497  16.776  69.626  1.00  0.00    -0.550 OA
ENDBRANCH   3   4
ENDBRANCH   2   3
ENDBRANCH   1   2
BRANCH   1   7
ATOM      7  C   UNL     1      13.837  14.995  69.092  1.00  0.00     0.000 C 
BRANCH   7   8
ATOM      8  C   UNL     1      13.453  13.587  69.577  1.00  0.00    -0.000 C 
BRANCH   8   9
ATOM      9  C   UNL     1      12.139  13.086  68.953  1.00  0.00    -0.000 C 
BRANCH   9  10
ATOM     10  C   UNL     1      10.917  13.390  69.833  1.00  0.00    -0.003 C 
ATOM     11  C   UNL     1      11.248  13.394  71.326  1.00  0.00     0.004 C 
ENDBRANCH   9  10
ENDBRANCH   8   9
ENDBRANCH   7   8
ENDBRANCH   1   7
TORSDOF 7
ENDMDL
MODEL 9
REMARK VINA RESULT:    -4.142      1.598      2.437
REMARK INTER + INTRA:          -6.619
REMARK INTER:                  -5.913
REMARK INTRA:                  -0.705
REMARK UNBOUND:                -0.781
REMARK SMILES CCCCCCCCC(=O)[O-]
REMARK SMILES IDX 6 1 7 2 8 3 9 4 10 5 11 6 5 7 4 8 3 9 2 10 1 11
REMARK H PARENT
REMARK Flexibility Score: inf
ROOT
ATOM      1  C   UNL     1      13.413  15.375  68.953  1.00  0.00     0.000 C 
ENDROOT
BRANCH   1   2
ATOM      2  C   UNL     1      13.418  13.972  69.581  1.00  0.00     0.006 C 
BRANCH   2   3
ATOM      3  C   UNL     1      12.292  13.080  69.041  1.00  0.00     0.053 C 
BRANCH   3   4
ATOM      4  C   UNL     1      11.044  13.274  69.841  1.00  0.00     0.041 C 
ATOM      5  O   UNL     1       9.938  13.435  69.261  1.00  0.00    -0.550 OA
ATOM      6  O   UNL     1      11.109  13.327  71.228  1.00  0.00    -0.550 OA
ENDBRANCH   3   4
ENDBRANCH   2   3
ENDBRANCH   1   2
BRANCH   1   7
ATOM      7  C   UNL     1      12.912  15.368  67.498  1.00  0.00     0.000 C 
BRANCH   7   8
ATOM      8  C   UNL     1      12.031  16.585  67.169  1.00  0.00    -0.000 C 
BRANCH   8   9
ATOM      9  C   UNL     1      10.546  16.342  67.485  1.00  0.00    -0.000 C 
BRANCH   9  10
ATOM     10  C   UNL     1      10.118  16.977  68.817  1.00  0.00    -0.003 C 
ATOM     11  C   UNL     1      10.844  18.289  69.109  1.00  0.00     0.004 C 
ENDBRANCH   9  10
ENDBRANCH   8   9
ENDBRANCH   7   8
ENDBRANCH   1   7
TORSDOF 7
ENDMDL
