MODEL 1
REMARK VINA RESULT:    12.907      0.000      0.000
REMARK INTER + INTRA:          14.376
REMARK INTER:                  14.416
REMARK INTRA:                  -0.039
REMARK UNBOUND:                -0.039
REMARK SMILES CC1(C)CC[C@@]2(C(=O)[O-])[C@H](O)C[C@@]3(C)C(=CC[C@@H]4[C@@]5(C)CC[C@@H](O)C(C)(C)[C@@H]5CC[C@@]43C)[C@H]2C1
REMARK SMILES IDX 6 1 5 2 33 3 10 4 4 5 34 6 15 7 12 8 2 9 16 10 13 11 1 12
REMARK SMILES IDX 3 13 17 14 31 15 14 16 18 17 30 18 32 19 19 20 29 21 21 22
REMARK SMILES IDX 20 23 28 24 22 25 25 26 23 27 26 28 27 29 7 30 8 31 9 32
REMARK SMILES IDX 11 33 24 35
REMARK H PARENT 11 34 24 36
REMARK Flexibility Score: inf
ROOT
ATOM      1  C   UNL     1       6.871 -54.491 577.408  1.00  0.00     0.042 C 
ATOM      2  C   UNL     1       6.290 -54.218 578.847  1.00  0.00     0.017 C 
ATOM      3  C   UNL     1       6.358 -53.393 576.411  1.00  0.00     0.030 C 
ATOM      4  C   UNL     1       6.405 -55.920 576.967  1.00  0.00     0.127 C 
ATOM      5  C   UNL     1       6.088 -52.720 579.125  1.00  0.00     0.007 C 
ATOM      6  C   UNL     1       4.971 -52.836 576.799  1.00  0.00     0.015 C 
ATOM      7  C   UNL     1       6.480 -53.832 574.942  1.00  0.00    -0.063 C 
ATOM      8  C   UNL     1       6.548 -56.231 575.448  1.00  0.00     0.044 C 
ATOM      9  C   UNL     1       5.015 -52.092 578.176  1.00  0.00    -0.035 C 
ATOM     10  C   UNL     1       7.384 -53.167 574.208  1.00  0.00    -0.027 C 
ATOM     11  C   UNL     1       5.904 -55.175 574.471  1.00  0.00    -0.003 C 
ATOM     12  C   UNL     1       5.344 -50.599 577.955  1.00  0.00     0.011 C 
ATOM     13  C   UNL     1       3.622 -52.181 578.839  1.00  0.00     0.011 C 
ATOM     14  C   UNL     1       7.893 -53.591 572.882  1.00  0.00     0.032 C 
ATOM     15  C   UNL     1       6.222 -55.515 572.904  1.00  0.00    -0.020 C 
ATOM     16  C   UNL     1       4.348 -55.163 574.665  1.00  0.00     0.017 C 
ATOM     17  C   UNL     1       7.692 -55.092 572.497  1.00  0.00     0.006 C 
ATOM     18  C   UNL     1       5.236 -54.736 571.933  1.00  0.00     0.008 C 
ATOM     19  C   UNL     1       6.024 -57.071 572.747  1.00  0.00     0.012 C 
ATOM     20  C   UNL     1       8.094 -55.362 570.944  1.00  0.00    -0.025 C 
ATOM     21  C   UNL     1       5.750 -54.407 570.494  1.00  0.00     0.005 C 
ATOM     22  C   UNL     1       8.801 -56.738 570.771  1.00  0.00     0.010 C 
ATOM     23  C   UNL     1       9.125 -54.278 570.477  1.00  0.00     0.012 C 
ATOM     24  C   UNL     1       6.813 -55.415 570.032  1.00  0.00     0.003 C 
ATOM     25  C   UNL     1       9.125 -57.084 569.292  1.00  0.00     0.033 C 
ATOM     26  C   UNL     1       7.038 -55.649 568.488  1.00  0.00    -0.006 C 
ATOM     27  C   UNL     1       7.929 -56.945 568.305  1.00  0.00     0.120 C 
ATOM     28  C   UNL     1       7.675 -54.430 567.761  1.00  0.00     0.014 C 
ATOM     29  C   UNL     1       5.669 -55.900 567.785  1.00  0.00     0.014 C 
ENDROOT
BRANCH   1  30
ATOM     30  C   UNL     1       8.402 -54.429 577.435  1.00  0.00     0.051 C 
ATOM     31  O   UNL     1       9.101 -55.111 576.636  1.00  0.00    -0.549 OA
ATOM     32  O   UNL     1       9.055 -53.623 578.361  1.00  0.00    -0.549 OA
ENDBRANCH   1  30
BRANCH   4  33
ATOM     33  O   UNL     1       7.039 -56.915 577.738  1.00  0.00    -0.392 OA
ATOM     34  H   UNL     1       6.555 -57.770 577.606  1.00  0.00     0.210 HD
ENDBRANCH   4  33
BRANCH  27  35
ATOM     35  O   UNL     1       7.152 -58.123 568.338  1.00  0.00    -0.393 OA
ATOM     36  H   UNL     1       7.763 -58.897 568.450  1.00  0.00     0.210 HD
ENDBRANCH  27  35
TORSDOF 3
ENDMDL
