MODEL 1
REMARK VINA RESULT:    -5.589      0.000      0.000
REMARK INTER + INTRA:          -9.679
REMARK INTER:                  -7.549
REMARK INTRA:                  -2.130
REMARK UNBOUND:                -2.130
REMARK SMILES CC[C@H](CC[C@@H](C)[C@H]1CC[C@@H]2[C@H]3CC(=O)C4=CC(=O)CC[C@]4(C)[C@@H]3CC[C@@]21C)C(C)C
REMARK SMILES IDX 4 1 3 2 2 3 1 4 29 5 30 6 31 7 5 8 6 9 7 10 8 11 9 12 27 13
REMARK SMILES IDX 10 14 11 15 26 16 28 17 12 18 25 19 24 20 13 21 22 22 14 23
REMARK SMILES IDX 16 24 21 25 23 26 15 27 17 28 20 29 18 30 19 31
REMARK H PARENT
REMARK Flexibility Score: inf
ROOT
ATOM      1  C   UNL     1      17.186  61.810  23.425  1.00  0.00     0.004 C 
ENDROOT
BRANCH   1   2
ATOM      2  C   UNL     1      15.857  61.506  22.666  1.00  0.00    -0.009 C 
BRANCH   2   3
ATOM      3  C   UNL     1      14.598  61.670  23.569  1.00  0.00     0.000 C 
ATOM      4  C   UNL     1      13.962  60.351  24.014  1.00  0.00     0.004 C 
ENDBRANCH   2   3
BRANCH   2   5
ATOM      5  C   UNL     1      15.718  62.325  21.335  1.00  0.00    -0.014 C 
ATOM      6  C   UNL     1      16.412  61.628  20.149  1.00  0.00     0.007 C 
ATOM      7  C   UNL     1      14.245  62.578  20.963  1.00  0.00     0.007 C 
ENDBRANCH   2   5
ENDBRANCH   1   2
BRANCH   1   8
ATOM      8  C   UNL     1      17.955  60.552  23.888  1.00  0.00     0.004 C 
BRANCH   8   9
ATOM      9  C   UNL     1      18.249  59.559  22.722  1.00  0.00    -0.011 C 
ATOM     10  C   UNL     1      19.751  59.621  22.381  1.00  0.00     0.008 C 
BRANCH   9  11
ATOM     11  C   UNL     1      17.783  58.101  23.091  1.00  0.00    -0.002 C 
ATOM     12  C   UNL     1      16.881  58.091  24.347  1.00  0.00     0.005 C 
ATOM     13  C   UNL     1      16.962  57.284  22.035  1.00  0.00    -0.026 C 
ATOM     14  C   UNL     1      15.833  56.997  24.165  1.00  0.00     0.005 C 
ATOM     15  C   UNL     1      16.228  56.222  22.902  1.00  0.00    -0.001 C 
ATOM     16  C   UNL     1      17.786  56.591  20.914  1.00  0.00     0.007 C 
ATOM     17  C   UNL     1      15.898  58.183  21.339  1.00  0.00     0.012 C 
ATOM     18  C   UNL     1      17.076  54.957  23.295  1.00  0.00     0.004 C 
ATOM     19  C   UNL     1      18.718  55.501  21.423  1.00  0.00     0.005 C 
ATOM     20  C   UNL     1      17.932  54.383  22.136  1.00  0.00     0.003 C 
ATOM     21  C   UNL     1      16.113  53.843  23.779  1.00  0.00     0.085 C 
ATOM     22  C   UNL     1      18.847  53.153  22.582  1.00  0.00    -0.000 C 
ATOM     23  C   UNL     1      16.838  52.592  24.150  1.00  0.00     0.159 C 
ATOM     24  C   UNL     1      18.261  52.421  23.800  1.00  0.00     0.005 C 
ATOM     25  C   UNL     1      20.303  53.596  22.940  1.00  0.00     0.020 C 
ATOM     26  C   UNL     1      18.892  52.144  21.407  1.00  0.00     0.017 C 
ATOM     27  O   UNL     1      16.218  51.689  24.775  1.00  0.00    -0.295 OA
ATOM     28  C   UNL     1      19.030  51.637  24.579  1.00  0.00     0.055 C 
ATOM     29  C   UNL     1      21.195  52.440  23.421  1.00  0.00     0.081 C 
ATOM     30  C   UNL     1      20.489  51.569  24.414  1.00  0.00     0.156 C 
ATOM     31  O   UNL     1      21.155  50.764  25.115  1.00  0.00    -0.295 OA
ENDBRANCH   9  11
ENDBRANCH   8   9
ENDBRANCH   1   8
TORSDOF 6
ENDMDL
MODEL 2
REMARK VINA RESULT:    -5.373      9.278     12.171
REMARK INTER + INTRA:          -9.388
REMARK INTER:                  -6.716
REMARK INTRA:                  -2.672
REMARK UNBOUND:                -2.130
REMARK SMILES CC[C@H](CC[C@@H](C)[C@H]1CC[C@@H]2[C@H]3CC(=O)C4=CC(=O)CC[C@]4(C)[C@@H]3CC[C@@]21C)C(C)C
REMARK SMILES IDX 4 1 3 2 2 3 1 4 29 5 30 6 31 7 5 8 6 9 7 10 8 11 9 12 27 13
REMARK SMILES IDX 10 14 11 15 26 16 28 17 12 18 25 19 24 20 13 21 22 22 14 23
REMARK SMILES IDX 16 24 21 25 23 26 15 27 17 28 20 29 18 30 19 31
REMARK H PARENT
REMARK Flexibility Score: inf
ROOT
ATOM      1  C   UNL     1      19.662  53.620  29.584  1.00  0.00     0.004 C 
ENDROOT
BRANCH   1   2
ATOM      2  C   UNL     1      19.210  52.131  29.698  1.00  0.00    -0.009 C 
BRANCH   2   3
ATOM      3  C   UNL     1      20.161  51.283  30.596  1.00  0.00     0.000 C 
ATOM      4  C   UNL     1      20.860  50.132  29.868  1.00  0.00     0.004 C 
ENDBRANCH   2   3
BRANCH   2   5
ATOM      5  C   UNL     1      17.715  51.984  30.149  1.00  0.00    -0.014 C 
ATOM      6  C   UNL     1      17.592  51.503  31.608  1.00  0.00     0.007 C 
ATOM      7  C   UNL     1      16.932  53.302  29.998  1.00  0.00     0.007 C 
ENDBRANCH   2   5
ENDBRANCH   1   2
BRANCH   1   8
ATOM      8  C   UNL     1      20.631  54.077  30.699  1.00  0.00     0.004 C 
BRANCH   8   9
ATOM      9  C   UNL     1      20.010  55.158  31.635  1.00  0.00    -0.011 C 
ATOM     10  C   UNL     1      19.217  56.163  30.778  1.00  0.00     0.008 C 
BRANCH   9  11
ATOM     11  C   UNL     1      19.118  54.494  32.750  1.00  0.00    -0.002 C 
ATOM     12  C   UNL     1      19.941  53.542  33.648  1.00  0.00     0.005 C 
ATOM     13  C   UNL     1      18.376  55.423  33.772  1.00  0.00    -0.026 C 
ATOM     14  C   UNL     1      19.385  53.633  35.066  1.00  0.00     0.005 C 
ATOM     15  C   UNL     1      18.108  54.479  34.978  1.00  0.00    -0.001 C 
ATOM     16  C   UNL     1      17.047  56.061  33.279  1.00  0.00     0.007 C 
ATOM     17  C   UNL     1      19.301  56.585  34.242  1.00  0.00     0.012 C 
ATOM     18  C   UNL     1      16.854  53.540  34.845  1.00  0.00     0.004 C 
ATOM     19  C   UNL     1      15.947  55.046  32.999  1.00  0.00     0.005 C 
ATOM     20  C   UNL     1      15.597  54.241  34.265  1.00  0.00     0.003 C 
ATOM     21  C   UNL     1      16.493  52.989  36.248  1.00  0.00     0.085 C 
ATOM     22  C   UNL     1      14.364  53.247  34.061  1.00  0.00    -0.000 C 
ATOM     23  C   UNL     1      15.292  52.104  36.216  1.00  0.00     0.159 C 
ATOM     24  C   UNL     1      14.442  52.041  35.011  1.00  0.00     0.005 C 
ATOM     25  C   UNL     1      14.277  52.703  32.598  1.00  0.00     0.020 C 
ATOM     26  C   UNL     1      13.066  54.025  34.397  1.00  0.00     0.017 C 
ATOM     27  O   UNL     1      15.020  51.404  37.228  1.00  0.00    -0.295 OA
ATOM     28  C   UNL     1      13.764  50.906  34.755  1.00  0.00     0.055 C 
ATOM     29  C   UNL     1      13.127  51.705  32.382  1.00  0.00     0.081 C 
ATOM     30  C   UNL     1      13.054  50.695  33.485  1.00  0.00     0.156 C 
ATOM     31  O   UNL     1      12.372  49.650  33.324  1.00  0.00    -0.295 OA
ENDBRANCH   9  11
ENDBRANCH   8   9
ENDBRANCH   1   8
TORSDOF 6
ENDMDL
MODEL 3
REMARK VINA RESULT:    -5.275     11.187     14.608
REMARK INTER + INTRA:          -9.255
REMARK INTER:                  -7.340
REMARK INTRA:                  -1.915
REMARK UNBOUND:                -2.130
REMARK SMILES CC[C@H](CC[C@@H](C)[C@H]1CC[C@@H]2[C@H]3CC(=O)C4=CC(=O)CC[C@]4(C)[C@@H]3CC[C@@]21C)C(C)C
REMARK SMILES IDX 4 1 3 2 2 3 1 4 29 5 30 6 31 7 5 8 6 9 7 10 8 11 9 12 27 13
REMARK SMILES IDX 10 14 11 15 26 16 28 17 12 18 25 19 24 20 13 21 22 22 14 23
REMARK SMILES IDX 16 24 21 25 23 26 15 27 17 28 20 29 18 30 19 31
REMARK H PARENT
REMARK Flexibility Score: inf
ROOT
ATOM      1  C   UNL     1      16.384  52.433  35.520  1.00  0.00     0.004 C 
ENDROOT
BRANCH   1   2
ATOM      2  C   UNL     1      17.337  52.392  34.286  1.00  0.00    -0.009 C 
BRANCH   2   3
ATOM      3  C   UNL     1      16.566  52.349  32.933  1.00  0.00     0.000 C 
ATOM      4  C   UNL     1      15.159  51.753  33.025  1.00  0.00     0.004 C 
ENDBRANCH   2   3
BRANCH   2   5
ATOM      5  C   UNL     1      18.400  53.546  34.303  1.00  0.00    -0.014 C 
ATOM      6  C   UNL     1      19.544  53.268  35.296  1.00  0.00     0.007 C 
ATOM      7  C   UNL     1      19.008  53.793  32.909  1.00  0.00     0.007 C 
ENDBRANCH   2   5
ENDBRANCH   1   2
BRANCH   1   8
ATOM      8  C   UNL     1      16.179  53.844  36.118  1.00  0.00     0.004 C 
BRANCH   8   9
ATOM      9  C   UNL     1      15.082  54.663  35.373  1.00  0.00    -0.011 C 
ATOM     10  C   UNL     1      13.787  54.638  36.208  1.00  0.00     0.008 C 
BRANCH   9  11
ATOM     11  C   UNL     1      15.573  56.131  35.082  1.00  0.00    -0.002 C 
ATOM     12  C   UNL     1      17.112  56.248  35.179  1.00  0.00     0.005 C 
ATOM     13  C   UNL     1      15.236  56.777  33.694  1.00  0.00    -0.026 C 
ATOM     14  C   UNL     1      17.574  57.261  34.135  1.00  0.00     0.005 C 
ATOM     15  C   UNL     1      16.304  57.898  33.557  1.00  0.00    -0.001 C 
ATOM     16  C   UNL     1      13.807  57.370  33.544  1.00  0.00     0.007 C 
ATOM     17  C   UNL     1      15.436  55.752  32.540  1.00  0.00     0.012 C 
ATOM     18  C   UNL     1      15.988  59.240  34.314  1.00  0.00     0.004 C 
ATOM     19  C   UNL     1      13.537  58.557  34.459  1.00  0.00     0.005 C 
ATOM     20  C   UNL     1      14.516  59.712  34.178  1.00  0.00     0.003 C 
ATOM     21  C   UNL     1      16.905  60.356  33.754  1.00  0.00     0.085 C 
ATOM     22  C   UNL     1      14.201  61.029  35.024  1.00  0.00    -0.000 C 
ATOM     23  C   UNL     1      16.651  61.676  34.403  1.00  0.00     0.159 C 
ATOM     24  C   UNL     1      15.464  61.872  35.258  1.00  0.00     0.005 C 
ATOM     25  C   UNL     1      13.574  60.701  36.419  1.00  0.00     0.020 C 
ATOM     26  C   UNL     1      13.207  61.892  34.205  1.00  0.00     0.017 C 
ATOM     27  O   UNL     1      17.471  62.616  34.219  1.00  0.00    -0.295 OA
ATOM     28  C   UNL     1      15.524  62.778  36.251  1.00  0.00     0.055 C 
ATOM     29  C   UNL     1      13.303  61.948  37.277  1.00  0.00     0.081 C 
ATOM     30  C   UNL     1      14.462  62.896  37.261  1.00  0.00     0.156 C 
ATOM     31  O   UNL     1      14.527  63.810  38.124  1.00  0.00    -0.295 OA
ENDBRANCH   9  11
ENDBRANCH   8   9
ENDBRANCH   1   8
TORSDOF 6
ENDMDL
MODEL 4
REMARK VINA RESULT:    -5.207      1.984      3.631
REMARK INTER + INTRA:          -9.163
REMARK INTER:                  -7.125
REMARK INTRA:                  -2.038
REMARK UNBOUND:                -2.130
REMARK SMILES CC[C@H](CC[C@@H](C)[C@H]1CC[C@@H]2[C@H]3CC(=O)C4=CC(=O)CC[C@]4(C)[C@@H]3CC[C@@]21C)C(C)C
REMARK SMILES IDX 4 1 3 2 2 3 1 4 29 5 30 6 31 7 5 8 6 9 7 10 8 11 9 12 27 13
REMARK SMILES IDX 10 14 11 15 26 16 28 17 12 18 25 19 24 20 13 21 22 22 14 23
REMARK SMILES IDX 16 24 21 25 23 26 15 27 17 28 20 29 18 30 19 31
REMARK H PARENT
REMARK Flexibility Score: inf
ROOT
ATOM      1  C   UNL     1      16.015  62.618  21.480  1.00  0.00     0.004 C 
ENDROOT
BRANCH   1   2
ATOM      2  C   UNL     1      15.131  62.552  22.763  1.00  0.00    -0.009 C 
BRANCH   2   3
ATOM      3  C   UNL     1      15.709  63.402  23.934  1.00  0.00     0.000 C 
ATOM      4  C   UNL     1      17.223  63.622  23.870  1.00  0.00     0.004 C 
ENDBRANCH   2   3
BRANCH   2   5
ATOM      5  C   UNL     1      13.629  62.909  22.485  1.00  0.00    -0.014 C 
ATOM      6  C   UNL     1      13.321  62.989  20.977  1.00  0.00     0.007 C 
ATOM      7  C   UNL     1      12.664  61.897  23.131  1.00  0.00     0.007 C 
ENDBRANCH   2   5
ENDBRANCH   1   2
BRANCH   1   8
ATOM      8  C   UNL     1      16.557  61.247  21.012  1.00  0.00     0.004 C 
BRANCH   8   9
ATOM      9  C   UNL     1      16.122  60.075  21.942  1.00  0.00    -0.011 C 
ATOM     10  C   UNL     1      15.073  59.217  21.207  1.00  0.00     0.008 C 
BRANCH   9  11
ATOM     11  C   UNL     1      17.367  59.227  22.401  1.00  0.00    -0.002 C 
ATOM     12  C   UNL     1      18.698  59.944  22.075  1.00  0.00     0.005 C 
ATOM     13  C   UNL     1      17.506  58.852  23.917  1.00  0.00    -0.026 C 
ATOM     14  C   UNL     1      19.690  59.624  23.190  1.00  0.00     0.005 C 
ATOM     15  C   UNL     1      19.025  58.559  24.072  1.00  0.00    -0.001 C 
ATOM     16  C   UNL     1      16.669  57.635  24.401  1.00  0.00     0.007 C 
ATOM     17  C   UNL     1      17.134  60.061  24.825  1.00  0.00     0.012 C 
ATOM     18  C   UNL     1      19.494  57.127  23.623  1.00  0.00     0.004 C 
ATOM     19  C   UNL     1      17.082  56.315  23.765  1.00  0.00     0.005 C 
ATOM     20  C   UNL     1      18.553  55.981  24.080  1.00  0.00     0.003 C 
ATOM     21  C   UNL     1      20.901  56.857  24.213  1.00  0.00     0.085 C 
ATOM     22  C   UNL     1      19.005  54.548  23.541  1.00  0.00    -0.000 C 
ATOM     23  C   UNL     1      21.413  55.501  23.855  1.00  0.00     0.159 C 
ATOM     24  C   UNL     1      20.514  54.497  23.254  1.00  0.00     0.005 C 
ATOM     25  C   UNL     1      18.251  54.141  22.233  1.00  0.00     0.020 C 
ATOM     26  C   UNL     1      18.704  53.507  24.650  1.00  0.00     0.017 C 
ATOM     27  O   UNL     1      22.627  55.231  24.064  1.00  0.00    -0.295 OA
ATOM     28  C   UNL     1      21.039  53.563  22.439  1.00  0.00     0.055 C 
ATOM     29  C   UNL     1      18.701  52.786  21.662  1.00  0.00     0.081 C 
ATOM     30  C   UNL     1      20.192  52.654  21.654  1.00  0.00     0.156 C 
ATOM     31  O   UNL     1      20.729  51.747  20.966  1.00  0.00    -0.295 OA
ENDBRANCH   9  11
ENDBRANCH   8   9
ENDBRANCH   1   8
TORSDOF 6
ENDMDL
MODEL 5
REMARK VINA RESULT:    -5.200      4.446      6.064
REMARK INTER + INTRA:          -9.154
REMARK INTER:                  -7.996
REMARK INTRA:                  -1.158
REMARK UNBOUND:                -2.130
REMARK SMILES CC[C@H](CC[C@@H](C)[C@H]1CC[C@@H]2[C@H]3CC(=O)C4=CC(=O)CC[C@]4(C)[C@@H]3CC[C@@]21C)C(C)C
REMARK SMILES IDX 4 1 3 2 2 3 1 4 29 5 30 6 31 7 5 8 6 9 7 10 8 11 9 12 27 13
REMARK SMILES IDX 10 14 11 15 26 16 28 17 12 18 25 19 24 20 13 21 22 22 14 23
REMARK SMILES IDX 16 24 21 25 23 26 15 27 17 28 20 29 18 30 19 31
REMARK H PARENT
REMARK Flexibility Score: inf
ROOT
ATOM      1  C   UNL     1      15.995  62.726  21.326  1.00  0.00     0.004 C 
ENDROOT
BRANCH   1   2
ATOM      2  C   UNL     1      14.438  62.717  21.421  1.00  0.00    -0.009 C 
BRANCH   2   3
ATOM      3  C   UNL     1      13.785  61.674  20.466  1.00  0.00     0.000 C 
ATOM      4  C   UNL     1      12.641  62.227  19.611  1.00  0.00     0.004 C 
ENDBRANCH   2   3
BRANCH   2   5
ATOM      5  C   UNL     1      13.921  62.549  22.893  1.00  0.00    -0.014 C 
ATOM      6  C   UNL     1      14.972  62.987  23.931  1.00  0.00     0.007 C 
ATOM      7  C   UNL     1      12.622  63.337  23.143  1.00  0.00     0.007 C 
ENDBRANCH   2   5
ENDBRANCH   1   2
BRANCH   1   8
ATOM      8  C   UNL     1      16.612  61.377  20.891  1.00  0.00     0.004 C 
BRANCH   8   9
ATOM      9  C   UNL     1      16.678  60.339  22.052  1.00  0.00    -0.011 C 
ATOM     10  C   UNL     1      16.465  58.927  21.473  1.00  0.00     0.008 C 
BRANCH   9  11
ATOM     11  C   UNL     1      18.036  60.459  22.840  1.00  0.00    -0.002 C 
ATOM     12  C   UNL     1      18.367  61.929  23.189  1.00  0.00     0.005 C 
ATOM     13  C   UNL     1      18.182  59.708  24.209  1.00  0.00    -0.026 C 
ATOM     14  C   UNL     1      19.063  61.945  24.547  1.00  0.00     0.005 C 
ATOM     15  C   UNL     1      19.331  60.480  24.916  1.00  0.00    -0.001 C 
ATOM     16  C   UNL     1      18.519  58.193  24.127  1.00  0.00     0.007 C 
ATOM     17  C   UNL     1      16.886  59.849  25.061  1.00  0.00     0.012 C 
ATOM     18  C   UNL     1      20.789  60.080  24.484  1.00  0.00     0.004 C 
ATOM     19  C   UNL     1      19.885  57.901  23.520  1.00  0.00     0.005 C 
ATOM     20  C   UNL     1      21.012  58.551  24.346  1.00  0.00     0.003 C 
ATOM     21  C   UNL     1      21.786  60.617  25.542  1.00  0.00     0.085 C 
ATOM     22  C   UNL     1      22.474  58.175  23.826  1.00  0.00    -0.000 C 
ATOM     23  C   UNL     1      23.199  60.257  25.222  1.00  0.00     0.159 C 
ATOM     24  C   UNL     1      23.498  59.270  24.167  1.00  0.00     0.005 C 
ATOM     25  C   UNL     1      22.512  57.943  22.281  1.00  0.00     0.020 C 
ATOM     26  C   UNL     1      22.916  56.878  24.551  1.00  0.00     0.017 C 
ATOM     27  O   UNL     1      24.132  60.817  25.858  1.00  0.00    -0.295 OA
ATOM     28  C   UNL     1      24.664  59.365  23.502  1.00  0.00     0.055 C 
ATOM     29  C   UNL     1      23.917  57.627  21.742  1.00  0.00     0.081 C 
ATOM     30  C   UNL     1      24.951  58.546  22.315  1.00  0.00     0.156 C 
ATOM     31  O   UNL     1      26.085  58.616  21.774  1.00  0.00    -0.295 OA
ENDBRANCH   9  11
ENDBRANCH   8   9
ENDBRANCH   1   8
TORSDOF 6
ENDMDL
MODEL 6
REMARK VINA RESULT:    -5.146     10.469     13.953
REMARK INTER + INTRA:          -9.080
REMARK INTER:                  -7.435
REMARK INTRA:                  -1.645
REMARK UNBOUND:                -2.130
REMARK SMILES CC[C@H](CC[C@@H](C)[C@H]1CC[C@@H]2[C@H]3CC(=O)C4=CC(=O)CC[C@]4(C)[C@@H]3CC[C@@]21C)C(C)C
REMARK SMILES IDX 4 1 3 2 2 3 1 4 29 5 30 6 31 7 5 8 6 9 7 10 8 11 9 12 27 13
REMARK SMILES IDX 10 14 11 15 26 16 28 17 12 18 25 19 24 20 13 21 22 22 14 23
REMARK SMILES IDX 16 24 21 25 23 26 15 27 17 28 20 29 18 30 19 31
REMARK H PARENT
REMARK Flexibility Score: inf
ROOT
ATOM      1  C   UNL     1      15.555  52.875  34.043  1.00  0.00     0.004 C 
ENDROOT
BRANCH   1   2
ATOM      2  C   UNL     1      16.325  52.787  35.397  1.00  0.00    -0.009 C 
BRANCH   2   3
ATOM      3  C   UNL     1      15.537  51.998  36.485  1.00  0.00     0.000 C 
ATOM      4  C   UNL     1      15.210  52.809  37.742  1.00  0.00     0.004 C 
ENDBRANCH   2   3
BRANCH   2   5
ATOM      5  C   UNL     1      17.783  52.232  35.231  1.00  0.00    -0.014 C 
ATOM      6  C   UNL     1      18.173  52.056  33.750  1.00  0.00     0.007 C 
ATOM      7  C   UNL     1      18.828  53.137  35.911  1.00  0.00     0.007 C 
ENDBRANCH   2   5
ENDBRANCH   1   2
BRANCH   1   8
ATOM      8  C   UNL     1      15.053  54.294  33.689  1.00  0.00     0.004 C 
BRANCH   8   9
ATOM      9  C   UNL     1      16.201  55.248  33.238  1.00  0.00    -0.011 C 
ATOM     10  C   UNL     1      16.350  55.160  31.707  1.00  0.00     0.008 C 
BRANCH   9  11
ATOM     11  C   UNL     1      15.935  56.721  33.725  1.00  0.00    -0.002 C 
ATOM     12  C   UNL     1      14.670  56.811  34.611  1.00  0.00     0.005 C 
ATOM     13  C   UNL     1      17.037  57.444  34.575  1.00  0.00    -0.026 C 
ATOM     14  C   UNL     1      14.918  57.871  35.680  1.00  0.00     0.005 C 
ATOM     15  C   UNL     1      16.241  58.556  35.315  1.00  0.00    -0.001 C 
ATOM     16  C   UNL     1      18.219  58.065  33.778  1.00  0.00     0.007 C 
ATOM     17  C   UNL     1      17.648  56.478  35.631  1.00  0.00     0.012 C 
ATOM     18  C   UNL     1      15.955  59.860  34.484  1.00  0.00     0.004 C 
ATOM     19  C   UNL     1      17.805  59.205  32.858  1.00  0.00     0.005 C 
ATOM     20  C   UNL     1      17.167  60.360  33.654  1.00  0.00     0.003 C 
ATOM     21  C   UNL     1      15.542  60.991  35.460  1.00  0.00     0.085 C 
ATOM     22  C   UNL     1      16.826  61.635  32.755  1.00  0.00    -0.000 C 
ATOM     23  C   UNL     1      15.276  62.278  34.753  1.00  0.00     0.159 C 
ATOM     24  C   UNL     1      15.658  62.446  33.337  1.00  0.00     0.005 C 
ATOM     25  C   UNL     1      16.457  61.244  31.287  1.00  0.00     0.020 C 
ATOM     26  C   UNL     1      18.074  62.554  32.743  1.00  0.00     0.017 C 
ATOM     27  O   UNL     1      14.711  63.215  35.379  1.00  0.00    -0.295 OA
ATOM     28  C   UNL     1      14.951  63.298  32.572  1.00  0.00     0.055 C 
ATOM     29  C   UNL     1      16.077  62.447  30.408  1.00  0.00     0.081 C 
ATOM     30  C   UNL     1      15.142  63.378  31.117  1.00  0.00     0.156 C 
ATOM     31  O   UNL     1      14.512  64.245  30.456  1.00  0.00    -0.295 OA
ENDBRANCH   9  11
ENDBRANCH   8   9
ENDBRANCH   1   8
TORSDOF 6
ENDMDL
MODEL 7
REMARK VINA RESULT:    -5.126     10.099     12.265
REMARK INTER + INTRA:          -9.053
REMARK INTER:                  -7.725
REMARK INTRA:                  -1.328
REMARK UNBOUND:                -2.130
REMARK SMILES CC[C@H](CC[C@@H](C)[C@H]1CC[C@@H]2[C@H]3CC(=O)C4=CC(=O)CC[C@]4(C)[C@@H]3CC[C@@]21C)C(C)C
REMARK SMILES IDX 4 1 3 2 2 3 1 4 29 5 30 6 31 7 5 8 6 9 7 10 8 11 9 12 27 13
REMARK SMILES IDX 10 14 11 15 26 16 28 17 12 18 25 19 24 20 13 21 22 22 14 23
REMARK SMILES IDX 16 24 21 25 23 26 15 27 17 28 20 29 18 30 19 31
REMARK H PARENT
REMARK Flexibility Score: inf
ROOT
ATOM      1  C   UNL     1      19.487  52.820  34.108  1.00  0.00     0.004 C 
ENDROOT
BRANCH   1   2
ATOM      2  C   UNL     1      19.778  53.385  32.683  1.00  0.00    -0.009 C 
BRANCH   2   3
ATOM      3  C   UNL     1      21.247  53.877  32.521  1.00  0.00     0.000 C 
ATOM      4  C   UNL     1      21.411  55.399  32.539  1.00  0.00     0.004 C 
ENDBRANCH   2   3
BRANCH   2   5
ATOM      5  C   UNL     1      19.379  52.386  31.541  1.00  0.00    -0.014 C 
ATOM      6  C   UNL     1      20.503  52.216  30.500  1.00  0.00     0.007 C 
ATOM      7  C   UNL     1      19.004  50.998  32.092  1.00  0.00     0.007 C 
ENDBRANCH   2   5
ENDBRANCH   1   2
BRANCH   1   8
ATOM      8  C   UNL     1      19.316  53.903  35.198  1.00  0.00     0.004 C 
BRANCH   8   9
ATOM      9  C   UNL     1      17.891  54.535  35.206  1.00  0.00    -0.011 C 
ATOM     10  C   UNL     1      17.822  55.625  34.118  1.00  0.00     0.008 C 
BRANCH   9  11
ATOM     11  C   UNL     1      16.784  53.432  35.012  1.00  0.00    -0.002 C 
ATOM     12  C   UNL     1      16.591  52.585  36.292  1.00  0.00     0.005 C 
ATOM     13  C   UNL     1      15.329  53.882  34.639  1.00  0.00    -0.026 C 
ATOM     14  C   UNL     1      15.113  52.222  36.397  1.00  0.00     0.005 C 
ATOM     15  C   UNL     1      14.459  52.673  35.084  1.00  0.00    -0.001 C 
ATOM     16  C   UNL     1      15.076  54.207  33.140  1.00  0.00     0.007 C 
ATOM     17  C   UNL     1      14.906  55.134  35.463  1.00  0.00     0.012 C 
ATOM     18  C   UNL     1      14.398  51.468  34.077  1.00  0.00     0.004 C 
ATOM     19  C   UNL     1      15.223  53.005  32.219  1.00  0.00     0.005 C 
ATOM     20  C   UNL     1      14.228  51.890  32.593  1.00  0.00     0.003 C 
ATOM     21  C   UNL     1      13.201  50.561  34.458  1.00  0.00     0.085 C 
ATOM     22  C   UNL     1      14.253  50.654  31.584  1.00  0.00    -0.000 C 
ATOM     23  C   UNL     1      13.054  49.400  33.532  1.00  0.00     0.159 C 
ATOM     24  C   UNL     1      13.815  49.350  32.269  1.00  0.00     0.005 C 
ATOM     25  C   UNL     1      15.670  50.422  30.965  1.00  0.00     0.020 C 
ATOM     26  C   UNL     1      13.240  50.949  30.448  1.00  0.00     0.017 C 
ATOM     27  O   UNL     1      12.277  48.458  33.850  1.00  0.00    -0.295 OA
ATOM     28  C   UNL     1      14.134  48.149  31.752  1.00  0.00     0.055 C 
ATOM     29  C   UNL     1      15.738  49.208  30.025  1.00  0.00     0.081 C 
ATOM     30  C   UNL     1      15.050  48.013  30.610  1.00  0.00     0.156 C 
ATOM     31  O   UNL     1      15.257  46.875  30.114  1.00  0.00    -0.295 OA
ENDBRANCH   9  11
ENDBRANCH   8   9
ENDBRANCH   1   8
TORSDOF 6
ENDMDL
MODEL 8
REMARK VINA RESULT:    -5.057      9.717     12.649
REMARK INTER + INTRA:          -8.960
REMARK INTER:                  -6.255
REMARK INTRA:                  -2.705
REMARK UNBOUND:                -2.130
REMARK SMILES CC[C@H](CC[C@@H](C)[C@H]1CC[C@@H]2[C@H]3CC(=O)C4=CC(=O)CC[C@]4(C)[C@@H]3CC[C@@]21C)C(C)C
REMARK SMILES IDX 4 1 3 2 2 3 1 4 29 5 30 6 31 7 5 8 6 9 7 10 8 11 9 12 27 13
REMARK SMILES IDX 10 14 11 15 26 16 28 17 12 18 25 19 24 20 13 21 22 22 14 23
REMARK SMILES IDX 16 24 21 25 23 26 15 27 17 28 20 29 18 30 19 31
REMARK H PARENT
REMARK Flexibility Score: inf
ROOT
ATOM      1  C   UNL     1      17.824  52.123  35.301  1.00  0.00     0.004 C 
ENDROOT
BRANCH   1   2
ATOM      2  C   UNL     1      16.341  52.129  35.784  1.00  0.00    -0.009 C 
BRANCH   2   3
ATOM      3  C   UNL     1      16.108  53.080  36.996  1.00  0.00     0.000 C 
ATOM      4  C   UNL     1      15.231  52.491  38.104  1.00  0.00     0.004 C 
ENDBRANCH   2   3
BRANCH   2   5
ATOM      5  C   UNL     1      15.326  52.422  34.624  1.00  0.00    -0.014 C 
ATOM      6  C   UNL     1      14.697  53.823  34.742  1.00  0.00     0.007 C 
ATOM      7  C   UNL     1      15.981  52.292  33.236  1.00  0.00     0.007 C 
ENDBRANCH   2   5
ENDBRANCH   1   2
BRANCH   1   8
ATOM      8  C   UNL     1      18.669  53.304  35.832  1.00  0.00     0.004 C 
BRANCH   8   9
ATOM      9  C   UNL     1      19.091  54.299  34.709  1.00  0.00    -0.011 C 
ATOM     10  C   UNL     1      19.570  53.496  33.484  1.00  0.00     0.008 C 
BRANCH   9  11
ATOM     11  C   UNL     1      17.912  55.280  34.352  1.00  0.00    -0.002 C 
ATOM     12  C   UNL     1      17.473  56.115  35.577  1.00  0.00     0.005 C 
ATOM     13  C   UNL     1      18.137  56.352  33.230  1.00  0.00    -0.026 C 
ATOM     14  C   UNL     1      17.064  57.499  35.081  1.00  0.00     0.005 C 
ATOM     15  C   UNL     1      17.062  57.429  33.549  1.00  0.00    -0.001 C 
ATOM     16  C   UNL     1      17.986  55.853  31.766  1.00  0.00     0.007 C 
ATOM     17  C   UNL     1      19.548  57.000  33.356  1.00  0.00     0.012 C 
ATOM     18  C   UNL     1      15.610  57.119  33.030  1.00  0.00     0.004 C 
ATOM     19  C   UNL     1      16.576  55.399  31.416  1.00  0.00     0.005 C 
ATOM     20  C   UNL     1      15.562  56.546  31.589  1.00  0.00     0.003 C 
ATOM     21  C   UNL     1      14.783  58.429  33.055  1.00  0.00     0.085 C 
ATOM     22  C   UNL     1      14.086  56.162  31.118  1.00  0.00    -0.000 C 
ATOM     23  C   UNL     1      13.393  58.229  32.551  1.00  0.00     0.159 C 
ATOM     24  C   UNL     1      13.018  56.976  31.866  1.00  0.00     0.005 C 
ATOM     25  C   UNL     1      13.772  54.645  31.331  1.00  0.00     0.020 C 
ATOM     26  C   UNL     1      13.964  56.503  29.611  1.00  0.00     0.017 C 
ATOM     27  O   UNL     1      12.540  59.141  32.728  1.00  0.00    -0.295 OA
ATOM     28  C   UNL     1      11.741  56.558  31.934  1.00  0.00     0.055 C 
ATOM     29  C   UNL     1      12.339  54.253  30.932  1.00  0.00     0.081 C 
ATOM     30  C   UNL     1      11.331  55.233  31.448  1.00  0.00     0.156 C 
ATOM     31  O   UNL     1      10.113  54.917  31.462  1.00  0.00    -0.295 OA
ENDBRANCH   9  11
ENDBRANCH   8   9
ENDBRANCH   1   8
TORSDOF 6
ENDMDL
