MODEL 1
REMARK VINA RESULT:    -3.708      0.000      0.000
REMARK INTER + INTRA:          -3.708
REMARK INTER:                  -3.708
REMARK INTRA:                   0.000
REMARK UNBOUND:                 0.000
REMARK SMILES C=C1CC[C@@H]2C[C@H]1C2(C)C
REMARK SMILES IDX 9 1 8 2 5 3 4 4 3 5 2 6 1 7 7 8 6 9 10 10
REMARK H PARENT
REMARK Flexibility Score: inf
ROOT
ATOM      1  C   UNL     1       4.442   8.551  13.815  1.00  0.00     0.012 C 
ATOM      2  C   UNL     1       5.471   7.414  13.595  1.00  0.00    -0.026 C 
ATOM      3  C   UNL     1       4.789   6.026  13.497  1.00  0.00    -0.004 C 
ATOM      4  C   UNL     1       5.829   4.875  13.682  1.00  0.00     0.008 C 
ATOM      5  C   UNL     1       7.081   5.033  12.737  1.00  0.00     0.031 C 
ATOM      6  C   UNL     1       7.072   6.366  11.975  1.00  0.00    -0.074 C 
ATOM      7  C   UNL     1       8.115   6.749  11.231  1.00  0.00     0.008 C 
ATOM      8  C   UNL     1       5.821   7.231  12.099  1.00  0.00     0.021 C 
ATOM      9  C   UNL     1       4.646   6.247  11.981  1.00  0.00     0.012 C 
ATOM     10  C   UNL     1       6.634   7.604  14.607  1.00  0.00     0.012 C 
ENDROOT
TORSDOF 0
ENDMDL
MODEL 2
REMARK VINA RESULT:    -3.528      0.964      3.244
REMARK INTER + INTRA:          -3.528
REMARK INTER:                  -3.528
REMARK INTRA:                   0.000
REMARK UNBOUND:                 0.000
REMARK SMILES C=C1CC[C@@H]2C[C@H]1C2(C)C
REMARK SMILES IDX 9 1 8 2 5 3 4 4 3 5 2 6 1 7 7 8 6 9 10 10
REMARK H PARENT
REMARK Flexibility Score: inf
ROOT
ATOM      1  C   UNL     1       8.124   4.875  11.998  1.00  0.00     0.012 C 
ATOM      2  C   UNL     1       7.027   5.907  12.359  1.00  0.00    -0.026 C 
ATOM      3  C   UNL     1       5.644   5.237  12.559  1.00  0.00    -0.004 C 
ATOM      4  C   UNL     1       4.496   6.295  12.518  1.00  0.00     0.008 C 
ATOM      5  C   UNL     1       4.756   7.509  13.490  1.00  0.00     0.031 C 
ATOM      6  C   UNL     1       6.154   7.457  14.126  1.00  0.00    -0.074 C 
ATOM      7  C   UNL     1       6.617   8.468  14.869  1.00  0.00     0.008 C 
ATOM      8  C   UNL     1       6.985   6.203  13.877  1.00  0.00     0.021 C 
ATOM      9  C   UNL     1       6.000   5.035  14.042  1.00  0.00     0.012 C 
ATOM     10  C   UNL     1       7.140   7.105  11.377  1.00  0.00     0.012 C 
ENDROOT
TORSDOF 0
ENDMDL
MODEL 3
REMARK VINA RESULT:    -3.502      1.223      2.773
REMARK INTER + INTRA:          -3.502
REMARK INTER:                  -3.502
REMARK INTRA:                   0.000
REMARK UNBOUND:                 0.000
REMARK SMILES C=C1CC[C@@H]2C[C@H]1C2(C)C
REMARK SMILES IDX 9 1 8 2 5 3 4 4 3 5 2 6 1 7 7 8 6 9 10 10
REMARK H PARENT
REMARK Flexibility Score: inf
ROOT
ATOM      1  C   UNL     1       8.680   7.562  13.666  1.00  0.00     0.012 C 
ATOM      2  C   UNL     1       7.421   6.902  13.049  1.00  0.00    -0.026 C 
ATOM      3  C   UNL     1       6.742   5.917  14.034  1.00  0.00    -0.004 C 
ATOM      4  C   UNL     1       5.744   4.976  13.287  1.00  0.00     0.008 C 
ATOM      5  C   UNL     1       4.726   5.768  12.381  1.00  0.00     0.031 C 
ATOM      6  C   UNL     1       5.054   7.267  12.309  1.00  0.00    -0.074 C 
ATOM      7  C   UNL     1       4.393   8.084  11.483  1.00  0.00     0.008 C 
ATOM      8  C   UNL     1       6.161   7.782  13.224  1.00  0.00     0.021 C 
ATOM      9  C   UNL     1       5.911   7.093  14.575  1.00  0.00     0.012 C 
ATOM     10  C   UNL     1       7.780   6.403  11.624  1.00  0.00     0.012 C 
ENDROOT
TORSDOF 0
ENDMDL
MODEL 4
REMARK VINA RESULT:    -3.395      1.063      2.935
REMARK INTER + INTRA:          -3.395
REMARK INTER:                  -3.395
REMARK INTRA:                   0.000
REMARK UNBOUND:                 0.000
REMARK SMILES C=C1CC[C@@H]2C[C@H]1C2(C)C
REMARK SMILES IDX 9 1 8 2 5 3 4 4 3 5 2 6 1 7 7 8 6 9 10 10
REMARK H PARENT
REMARK Flexibility Score: inf
ROOT
ATOM      1  C   UNL     1       4.415   4.919  12.503  1.00  0.00     0.012 C 
ATOM      2  C   UNL     1       5.609   5.716  13.087  1.00  0.00    -0.026 C 
ATOM      3  C   UNL     1       6.526   6.283  11.974  1.00  0.00    -0.004 C 
ATOM      4  C   UNL     1       7.909   6.721  12.555  1.00  0.00     0.008 C 
ATOM      5  C   UNL     1       7.767   7.673  13.803  1.00  0.00     0.031 C 
ATOM      6  C   UNL     1       6.309   7.816  14.265  1.00  0.00    -0.074 C 
ATOM      7  C   UNL     1       5.997   8.466  15.390  1.00  0.00     0.008 C 
ATOM      8  C   UNL     1       5.235   7.188  13.382  1.00  0.00     0.021 C 
ATOM      9  C   UNL     1       5.645   7.544  11.944  1.00  0.00     0.012 C 
ATOM     10  C   UNL     1       6.249   4.875  14.224  1.00  0.00     0.012 C 
ENDROOT
TORSDOF 0
ENDMDL
MODEL 5
REMARK VINA RESULT:    -3.219      1.437      2.897
REMARK INTER + INTRA:          -3.219
REMARK INTER:                  -3.219
REMARK INTRA:                   0.000
REMARK UNBOUND:                 0.000
REMARK SMILES C=C1CC[C@@H]2C[C@H]1C2(C)C
REMARK SMILES IDX 9 1 8 2 5 3 4 4 3 5 2 6 1 7 7 8 6 9 10 10
REMARK H PARENT
REMARK Flexibility Score: inf
ROOT
ATOM      1  C   UNL     1       3.624   9.709  12.571  1.00  0.00     0.012 C 
ATOM      2  C   UNL     1       4.441   8.402  12.410  1.00  0.00    -0.026 C 
ATOM      3  C   UNL     1       5.587   8.303  13.449  1.00  0.00    -0.004 C 
ATOM      4  C   UNL     1       6.628   7.216  13.033  1.00  0.00     0.008 C 
ATOM      5  C   UNL     1       5.957   5.830  12.698  1.00  0.00     0.031 C 
ATOM      6  C   UNL     1       4.423   5.911  12.693  1.00  0.00    -0.074 C 
ATOM      7  C   UNL     1       3.673   4.878  12.295  1.00  0.00     0.008 C 
ATOM      8  C   UNL     1       3.794   7.218  13.166  1.00  0.00     0.021 C 
ATOM      9  C   UNL     1       4.601   7.618  14.412  1.00  0.00     0.012 C 
ATOM     10  C   UNL     1       4.780   8.220  10.906  1.00  0.00     0.012 C 
ENDROOT
TORSDOF 0
ENDMDL
MODEL 6
REMARK VINA RESULT:    -3.193      1.246      3.386
REMARK INTER + INTRA:          -3.193
REMARK INTER:                  -3.193
REMARK INTRA:                   0.000
REMARK UNBOUND:                 0.000
REMARK SMILES C=C1CC[C@@H]2C[C@H]1C2(C)C
REMARK SMILES IDX 9 1 8 2 5 3 4 4 3 5 2 6 1 7 7 8 6 9 10 10
REMARK H PARENT
REMARK Flexibility Score: inf
ROOT
ATOM      1  C   UNL     1       6.622   4.966  13.448  1.00  0.00     0.012 C 
ATOM      2  C   UNL     1       6.049   6.370  13.134  1.00  0.00    -0.026 C 
ATOM      3  C   UNL     1       5.374   6.423  11.739  1.00  0.00    -0.004 C 
ATOM      4  C   UNL     1       5.168   7.898  11.270  1.00  0.00     0.008 C 
ATOM      5  C   UNL     1       4.446   8.784  12.356  1.00  0.00     0.031 C 
ATOM      6  C   UNL     1       4.262   8.040  13.687  1.00  0.00    -0.074 C 
ATOM      7  C   UNL     1       3.797   8.664  14.774  1.00  0.00     0.008 C 
ATOM      8  C   UNL     1       4.626   6.559  13.712  1.00  0.00     0.021 C 
ATOM      9  C   UNL     1       4.056   5.988  12.404  1.00  0.00     0.012 C 
ATOM     10  C   UNL     1       7.131   7.429  13.478  1.00  0.00     0.012 C 
ENDROOT
TORSDOF 0
ENDMDL
MODEL 7
REMARK VINA RESULT:    -3.063      2.860      5.002
REMARK INTER + INTRA:          -3.063
REMARK INTER:                  -3.063
REMARK INTRA:                   0.000
REMARK UNBOUND:                 0.000
REMARK SMILES C=C1CC[C@@H]2C[C@H]1C2(C)C
REMARK SMILES IDX 9 1 8 2 5 3 4 4 3 5 2 6 1 7 7 8 6 9 10 10
REMARK H PARENT
REMARK Flexibility Score: inf
ROOT
ATOM      1  C   UNL     1       5.134   8.400  14.231  1.00  0.00     0.012 C 
ATOM      2  C   UNL     1       4.064   8.983  13.273  1.00  0.00    -0.026 C 
ATOM      3  C   UNL     1       2.754   9.345  14.019  1.00  0.00    -0.004 C 
ATOM      4  C   UNL     1       1.573   9.541  13.015  1.00  0.00     0.008 C 
ATOM      5  C   UNL     1       1.930  10.534  11.845  1.00  0.00     0.031 C 
ATOM      6  C   UNL     1       3.409  10.951  11.865  1.00  0.00    -0.074 C 
ATOM      7  C   UNL     1       3.940  11.677  10.875  1.00  0.00     0.008 C 
ATOM      8  C   UNL     1       4.241  10.505  13.063  1.00  0.00     0.021 C 
ATOM      9  C   UNL     1       3.338  10.744  14.284  1.00  0.00     0.012 C 
ATOM     10  C   UNL     1       3.980   8.070  12.020  1.00  0.00     0.012 C 
ENDROOT
TORSDOF 0
ENDMDL
MODEL 8
REMARK VINA RESULT:    -2.999      0.912      1.060
REMARK INTER + INTRA:          -2.999
REMARK INTER:                  -2.999
REMARK INTRA:                   0.000
REMARK UNBOUND:                 0.000
REMARK SMILES C=C1CC[C@@H]2C[C@H]1C2(C)C
REMARK SMILES IDX 9 1 8 2 5 3 4 4 3 5 2 6 1 7 7 8 6 9 10 10
REMARK H PARENT
REMARK Flexibility Score: inf
ROOT
ATOM      1  C   UNL     1       4.070   9.269  12.947  1.00  0.00     0.012 C 
ATOM      2  C   UNL     1       4.821   7.935  13.192  1.00  0.00    -0.026 C 
ATOM      3  C   UNL     1       3.990   6.710  12.735  1.00  0.00    -0.004 C 
ATOM      4  C   UNL     1       4.559   5.388  13.342  1.00  0.00     0.008 C 
ATOM      5  C   UNL     1       6.108   5.228  13.100  1.00  0.00     0.031 C 
ATOM      6  C   UNL     1       6.733   6.483  12.473  1.00  0.00    -0.074 C 
ATOM      7  C   UNL     1       8.057   6.597  12.320  1.00  0.00     0.008 C 
ATOM      8  C   UNL     1       5.780   7.588  12.029  1.00  0.00     0.021 C 
ATOM      9  C   UNL     1       4.619   6.855  11.338  1.00  0.00     0.012 C 
ATOM     10  C   UNL     1       5.389   7.953  14.637  1.00  0.00     0.012 C 
ENDROOT
TORSDOF 0
ENDMDL
