MODEL 1
REMARK VINA RESULT:    -3.320      0.000      0.000
REMARK INTER + INTRA:          -3.776
REMARK INTER:                  -3.708
REMARK INTRA:                  -0.068
REMARK UNBOUND:                -0.068
REMARK SMILES CCCC(=O)[O-]
REMARK SMILES IDX 3 1 4 2 5 3 6 4 2 5 1 6
REMARK H PARENT
REMARK Flexibility Score: inf
ROOT
ATOM      1  C   UNL     1      -2.199  36.541  15.890  1.00  0.00     0.052 C 
ENDROOT
BRANCH   1   2
ATOM      2  C   UNL     1      -3.153  36.501  17.043  1.00  0.00     0.041 C 
ATOM      3  O   UNL     1      -3.248  37.485  17.823  1.00  0.00    -0.550 OA
ATOM      4  O   UNL     1      -3.915  35.363  17.276  1.00  0.00    -0.550 OA
ENDBRANCH   1   2
BRANCH   1   5
ATOM      5  C   UNL     1      -2.931  36.459  14.545  1.00  0.00     0.003 C 
ATOM      6  C   UNL     1      -3.919  37.608  14.348  1.00  0.00     0.004 C 
ENDBRANCH   1   5
TORSDOF 2
ENDMDL
MODEL 2
REMARK VINA RESULT:    -3.268      1.495      1.760
REMARK INTER + INTRA:          -3.718
REMARK INTER:                  -3.713
REMARK INTRA:                  -0.005
REMARK UNBOUND:                -0.068
REMARK SMILES CCCC(=O)[O-]
REMARK SMILES IDX 3 1 4 2 5 3 6 4 2 5 1 6
REMARK H PARENT
REMARK Flexibility Score: inf
ROOT
ATOM      1  C   UNL     1      -3.097  36.464  17.060  1.00  0.00     0.052 C 
ENDROOT
BRANCH   1   2
ATOM      2  C   UNL     1      -3.130  37.287  18.311  1.00  0.00     0.041 C 
ATOM      3  O   UNL     1      -2.075  37.816  18.751  1.00  0.00    -0.550 OA
ATOM      4  O   UNL     1      -4.321  37.442  19.009  1.00  0.00    -0.550 OA
ENDBRANCH   1   2
BRANCH   1   5
ATOM      5  C   UNL     1      -3.192  37.337  15.804  1.00  0.00     0.003 C 
ATOM      6  C   UNL     1      -3.077  36.522  14.517  1.00  0.00     0.004 C 
ENDBRANCH   1   5
TORSDOF 2
ENDMDL
MODEL 3
REMARK VINA RESULT:    -3.230      1.563      2.237
REMARK INTER + INTRA:          -3.676
REMARK INTER:                  -3.670
REMARK INTRA:                  -0.006
REMARK UNBOUND:                -0.068
REMARK SMILES CCCC(=O)[O-]
REMARK SMILES IDX 3 1 4 2 5 3 6 4 2 5 1 6
REMARK H PARENT
REMARK Flexibility Score: inf
ROOT
ATOM      1  C   UNL     1      -3.071  37.290  17.113  1.00  0.00     0.052 C 
ENDROOT
BRANCH   1   2
ATOM      2  C   UNL     1      -2.517  37.310  18.504  1.00  0.00     0.041 C 
ATOM      3  O   UNL     1      -3.245  36.992  19.482  1.00  0.00    -0.550 OA
ATOM      4  O   UNL     1      -1.206  37.711  18.724  1.00  0.00    -0.550 OA
ENDBRANCH   1   2
BRANCH   1   5
ATOM      5  C   UNL     1      -2.185  36.477  16.162  1.00  0.00     0.003 C 
ATOM      6  C   UNL     1      -2.739  36.440  14.738  1.00  0.00     0.004 C 
ENDBRANCH   1   5
TORSDOF 2
ENDMDL
MODEL 4
REMARK VINA RESULT:    -3.155      1.973      3.213
REMARK INTER + INTRA:          -3.592
REMARK INTER:                  -3.529
REMARK INTRA:                  -0.063
REMARK UNBOUND:                -0.068
REMARK SMILES CCCC(=O)[O-]
REMARK SMILES IDX 3 1 4 2 5 3 6 4 2 5 1 6
REMARK H PARENT
REMARK Flexibility Score: inf
ROOT
ATOM      1  C   UNL     1      -3.448  36.184  17.228  1.00  0.00     0.052 C 
ENDROOT
BRANCH   1   2
ATOM      2  C   UNL     1      -2.890  36.766  15.966  1.00  0.00     0.041 C 
ATOM      3  O   UNL     1      -1.827  36.306  15.471  1.00  0.00    -0.550 OA
ATOM      4  O   UNL     1      -3.526  37.839  15.354  1.00  0.00    -0.550 OA
ENDBRANCH   1   2
BRANCH   1   5
ATOM      5  C   UNL     1      -3.410  37.192  18.383  1.00  0.00     0.003 C 
ATOM      6  C   UNL     1      -1.989  37.649  18.710  1.00  0.00     0.004 C 
ENDBRANCH   1   5
TORSDOF 2
ENDMDL
MODEL 5
REMARK VINA RESULT:    -3.082      7.242      7.998
REMARK INTER + INTRA:          -3.511
REMARK INTER:                  -3.474
REMARK INTRA:                  -0.036
REMARK UNBOUND:                -0.068
REMARK SMILES CCCC(=O)[O-]
REMARK SMILES IDX 3 1 4 2 5 3 6 4 2 5 1 6
REMARK H PARENT
REMARK Flexibility Score: inf
ROOT
ATOM      1  C   UNL     1      -5.216  37.311  23.243  1.00  0.00     0.052 C 
ENDROOT
BRANCH   1   2
ATOM      2  C   UNL     1      -5.239  36.834  24.662  1.00  0.00     0.041 C 
ATOM      3  O   UNL     1      -5.974  35.867  24.995  1.00  0.00    -0.550 OA
ATOM      4  O   UNL     1      -4.472  37.479  25.625  1.00  0.00    -0.550 OA
ENDBRANCH   1   2
BRANCH   1   5
ATOM      5  C   UNL     1      -4.777  36.202  22.279  1.00  0.00     0.003 C 
ATOM      6  C   UNL     1      -5.938  35.658  21.449  1.00  0.00     0.004 C 
ENDBRANCH   1   5
TORSDOF 2
ENDMDL
MODEL 6
REMARK VINA RESULT:    -3.027      2.806      3.499
REMARK INTER + INTRA:          -3.449
REMARK INTER:                  -3.407
REMARK INTRA:                  -0.041
REMARK UNBOUND:                -0.068
REMARK SMILES CCCC(=O)[O-]
REMARK SMILES IDX 3 1 4 2 5 3 6 4 2 5 1 6
REMARK H PARENT
REMARK Flexibility Score: inf
ROOT
ATOM      1  C   UNL     1      -4.029  37.213  19.072  1.00  0.00     0.052 C 
ENDROOT
BRANCH   1   2
ATOM      2  C   UNL     1      -4.210  35.782  19.475  1.00  0.00     0.041 C 
ATOM      3  O   UNL     1      -3.826  35.388  20.608  1.00  0.00    -0.550 OA
ATOM      4  O   UNL     1      -4.772  34.876  18.585  1.00  0.00    -0.550 OA
ENDBRANCH   1   2
BRANCH   1   5
ATOM      5  C   UNL     1      -2.930  37.370  18.015  1.00  0.00     0.003 C 
ATOM      6  C   UNL     1      -1.558  37.633  18.636  1.00  0.00     0.004 C 
ENDBRANCH   1   5
TORSDOF 2
ENDMDL
MODEL 7
REMARK VINA RESULT:    -3.002      2.774      4.301
REMARK INTER + INTRA:          -3.421
REMARK INTER:                  -3.385
REMARK INTRA:                  -0.036
REMARK UNBOUND:                -0.068
REMARK SMILES CCCC(=O)[O-]
REMARK SMILES IDX 3 1 4 2 5 3 6 4 2 5 1 6
REMARK H PARENT
REMARK Flexibility Score: inf
ROOT
ATOM      1  C   UNL     1      -3.900  36.519  19.195  1.00  0.00     0.052 C 
ENDROOT
BRANCH   1   2
ATOM      2  C   UNL     1      -3.004  37.324  18.305  1.00  0.00     0.041 C 
ATOM      3  O   UNL     1      -3.265  37.440  17.079  1.00  0.00    -0.550 OA
ATOM      4  O   UNL     1      -1.860  37.918  18.825  1.00  0.00    -0.550 OA
ENDBRANCH   1   2
BRANCH   1   5
ATOM      5  C   UNL     1      -5.016  37.379  19.802  1.00  0.00     0.003 C 
ATOM      6  C   UNL     1      -4.731  37.764  21.253  1.00  0.00     0.004 C 
ENDBRANCH   1   5
TORSDOF 2
ENDMDL
MODEL 8
REMARK VINA RESULT:    -2.987      5.980      7.410
REMARK INTER + INTRA:          -3.405
REMARK INTER:                  -3.367
REMARK INTRA:                  -0.037
REMARK UNBOUND:                -0.068
REMARK SMILES CCCC(=O)[O-]
REMARK SMILES IDX 3 1 4 2 5 3 6 4 2 5 1 6
REMARK H PARENT
REMARK Flexibility Score: inf
ROOT
ATOM      1  C   UNL     1      -4.974  36.573  22.610  1.00  0.00     0.052 C 
ENDROOT
BRANCH   1   2
ATOM      2  C   UNL     1      -4.829  37.748  21.693  1.00  0.00     0.041 C 
ATOM      3  O   UNL     1      -4.283  38.808  22.101  1.00  0.00    -0.550 OA
ATOM      4  O   UNL     1      -5.326  37.684  20.398  1.00  0.00    -0.550 OA
ENDBRANCH   1   2
BRANCH   1   5
ATOM      5  C   UNL     1      -5.803  36.923  23.853  1.00  0.00     0.003 C 
ATOM      6  C   UNL     1      -4.947  37.027  25.114  1.00  0.00     0.004 C 
ENDBRANCH   1   5
TORSDOF 2
ENDMDL
MODEL 9
REMARK VINA RESULT:    -2.956      4.830      6.296
REMARK INTER + INTRA:          -3.369
REMARK INTER:                  -3.297
REMARK INTRA:                  -0.072
REMARK UNBOUND:                -0.068
REMARK SMILES CCCC(=O)[O-]
REMARK SMILES IDX 3 1 4 2 5 3 6 4 2 5 1 6
REMARK H PARENT
REMARK Flexibility Score: inf
ROOT
ATOM      1  C   UNL     1      -6.023  35.634  21.306  1.00  0.00     0.052 C 
ENDROOT
BRANCH   1   2
ATOM      2  C   UNL     1      -5.022  36.229  20.365  1.00  0.00     0.041 C 
ATOM      3  O   UNL     1      -3.936  35.634  20.135  1.00  0.00    -0.550 OA
ATOM      4  O   UNL     1      -5.275  37.457  19.766  1.00  0.00    -0.550 OA
ENDBRANCH   1   2
BRANCH   1   5
ATOM      5  C   UNL     1      -5.467  35.527  22.732  1.00  0.00     0.003 C 
ATOM      6  C   UNL     1      -5.113  36.891  23.323  1.00  0.00     0.004 C 
ENDBRANCH   1   5
TORSDOF 2
ENDMDL
