MODEL 1
REMARK VINA RESULT:    -3.603      0.000      0.000
REMARK INTER + INTRA:          -5.585
REMARK INTER:                  -5.077
REMARK INTRA:                  -0.508
REMARK UNBOUND:                -0.508
REMARK SMILES CCCCCCCCC(=O)[O-]
REMARK SMILES IDX 6 1 7 2 8 3 9 4 10 5 11 6 5 7 4 8 3 9 2 10 1 11
REMARK H PARENT
REMARK Flexibility Score: inf
ROOT
ATOM      1  C   UNL     1     -21.383   6.078  16.774  1.00  0.00     0.000 C 
ENDROOT
BRANCH   1   2
ATOM      2  C   UNL     1     -20.433   7.071  16.086  1.00  0.00     0.006 C 
BRANCH   2   3
ATOM      3  C   UNL     1     -18.989   6.561  16.116  1.00  0.00     0.053 C 
BRANCH   3   4
ATOM      4  C   UNL     1     -18.513   6.423  17.527  1.00  0.00     0.041 C 
ATOM      5  O   UNL     1     -18.437   7.436  18.272  1.00  0.00    -0.550 OA
ATOM      6  O   UNL     1     -18.105   5.185  18.006  1.00  0.00    -0.550 OA
ENDBRANCH   3   4
ENDBRANCH   2   3
ENDBRANCH   1   2
BRANCH   1   7
ATOM      7  C   UNL     1     -22.347   6.778  17.755  1.00  0.00     0.000 C 
BRANCH   7   8
ATOM      8  C   UNL     1     -21.919   8.208  18.126  1.00  0.00    -0.000 C 
BRANCH   8   9
ATOM      9  C   UNL     1     -22.690   8.771  19.327  1.00  0.00    -0.000 C 
BRANCH   9  10
ATOM     10  C   UNL     1     -22.745   7.753  20.471  1.00  0.00    -0.003 C 
ATOM     11  C   UNL     1     -24.183   7.498  20.913  1.00  0.00     0.004 C 
ENDBRANCH   9  10
ENDBRANCH   8   9
ENDBRANCH   7   8
ENDBRANCH   1   7
TORSDOF 7
ENDMDL
MODEL 2
REMARK VINA RESULT:    -3.552      2.954      5.441
REMARK INTER + INTRA:          -5.513
REMARK INTER:                  -5.107
REMARK INTRA:                  -0.406
REMARK UNBOUND:                -0.508
REMARK SMILES CCCCCCCCC(=O)[O-]
REMARK SMILES IDX 6 1 7 2 8 3 9 4 10 5 11 6 5 7 4 8 3 9 2 10 1 11
REMARK H PARENT
REMARK Flexibility Score: inf
ROOT
ATOM      1  C   UNL     1     -23.120   8.431  19.176  1.00  0.00     0.000 C 
ENDROOT
BRANCH   1   2
ATOM      2  C   UNL     1     -22.936   7.843  20.584  1.00  0.00     0.006 C 
BRANCH   2   3
ATOM      3  C   UNL     1     -24.184   7.074  21.026  1.00  0.00     0.053 C 
BRANCH   3   4
ATOM      4  C   UNL     1     -23.818   5.692  21.467  1.00  0.00     0.041 C 
ATOM      5  O   UNL     1     -23.069   4.977  20.751  1.00  0.00    -0.550 OA
ATOM      6  O   UNL     1     -24.344   5.175  22.644  1.00  0.00    -0.550 OA
ENDBRANCH   3   4
ENDBRANCH   2   3
ENDBRANCH   1   2
BRANCH   1   7
ATOM      7  C   UNL     1     -22.042   7.933  18.191  1.00  0.00     0.000 C 
BRANCH   7   8
ATOM      8  C   UNL     1     -22.310   6.519  17.647  1.00  0.00    -0.000 C 
BRANCH   8   9
ATOM      9  C   UNL     1     -21.401   6.149  16.468  1.00  0.00    -0.000 C 
BRANCH   9  10
ATOM     10  C   UNL     1     -20.327   7.220  16.244  1.00  0.00    -0.003 C 
ATOM     11  C   UNL     1     -18.925   6.631  16.373  1.00  0.00     0.004 C 
ENDBRANCH   9  10
ENDBRANCH   8   9
ENDBRANCH   7   8
ENDBRANCH   1   7
TORSDOF 7
ENDMDL
MODEL 3
REMARK VINA RESULT:    -3.545      2.817      5.142
REMARK INTER + INTRA:          -5.504
REMARK INTER:                  -4.969
REMARK INTRA:                  -0.535
REMARK UNBOUND:                -0.508
REMARK SMILES CCCCCCCCC(=O)[O-]
REMARK SMILES IDX 6 1 7 2 8 3 9 4 10 5 11 6 5 7 4 8 3 9 2 10 1 11
REMARK H PARENT
REMARK Flexibility Score: inf
ROOT
ATOM      1  C   UNL     1     -21.908   7.882  17.965  1.00  0.00     0.000 C 
ENDROOT
BRANCH   1   2
ATOM      2  C   UNL     1     -22.030   7.898  19.497  1.00  0.00     0.006 C 
BRANCH   2   3
ATOM      3  C   UNL     1     -23.495   8.009  19.929  1.00  0.00     0.053 C 
BRANCH   3   4
ATOM      4  C   UNL     1     -23.892   6.816  20.741  1.00  0.00     0.041 C 
ATOM      5  O   UNL     1     -24.894   6.873  21.502  1.00  0.00    -0.550 OA
ATOM      6  O   UNL     1     -23.127   5.658  20.695  1.00  0.00    -0.550 OA
ENDBRANCH   3   4
ENDBRANCH   2   3
ENDBRANCH   1   2
BRANCH   1   7
ATOM      7  C   UNL     1     -22.206   6.489  17.371  1.00  0.00     0.000 C 
BRANCH   7   8
ATOM      8  C   UNL     1     -21.247   6.085  16.237  1.00  0.00    -0.000 C 
BRANCH   8   9
ATOM      9  C   UNL     1     -20.148   7.125  15.984  1.00  0.00    -0.000 C 
BRANCH   9  10
ATOM     10  C   UNL     1     -18.760   6.538  16.263  1.00  0.00    -0.003 C 
ATOM     11  C   UNL     1     -18.305   6.851  17.685  1.00  0.00     0.004 C 
ENDBRANCH   9  10
ENDBRANCH   8   9
ENDBRANCH   7   8
ENDBRANCH   1   7
TORSDOF 7
ENDMDL
MODEL 4
REMARK VINA RESULT:    -3.528      2.087      3.614
REMARK INTER + INTRA:          -5.480
REMARK INTER:                  -4.723
REMARK INTRA:                  -0.756
REMARK UNBOUND:                -0.508
REMARK SMILES CCCCCCCCC(=O)[O-]
REMARK SMILES IDX 6 1 7 2 8 3 9 4 10 5 11 6 5 7 4 8 3 9 2 10 1 11
REMARK H PARENT
REMARK Flexibility Score: inf
ROOT
ATOM      1  C   UNL     1     -22.394   8.316  20.337  1.00  0.00     0.000 C 
ENDROOT
BRANCH   1   2
ATOM      2  C   UNL     1     -22.113   8.678  18.870  1.00  0.00     0.006 C 
BRANCH   2   3
ATOM      3  C   UNL     1     -22.456   7.509  17.941  1.00  0.00     0.053 C 
BRANCH   3   4
ATOM      4  C   UNL     1     -21.208   6.898  17.387  1.00  0.00     0.041 C 
ATOM      5  O   UNL     1     -20.085   7.204  17.869  1.00  0.00    -0.550 OA
ATOM      6  O   UNL     1     -21.279   6.028  16.307  1.00  0.00    -0.550 OA
ENDBRANCH   3   4
ENDBRANCH   2   3
ENDBRANCH   1   2
BRANCH   1   7
ATOM      7  C   UNL     1     -23.874   7.946  20.573  1.00  0.00     0.000 C 
BRANCH   7   8
ATOM      8  C   UNL     1     -24.067   6.567  21.228  1.00  0.00    -0.000 C 
BRANCH   8   9
ATOM      9  C   UNL     1     -22.758   5.775  21.351  1.00  0.00    -0.000 C 
BRANCH   9  10
ATOM     10  C   UNL     1     -22.733   4.598  20.369  1.00  0.00    -0.003 C 
ATOM     11  C   UNL     1     -21.303   4.228  19.989  1.00  0.00     0.004 C 
ENDBRANCH   9  10
ENDBRANCH   8   9
ENDBRANCH   7   8
ENDBRANCH   1   7
TORSDOF 7
ENDMDL
MODEL 5
REMARK VINA RESULT:    -3.488      3.546      5.493
REMARK INTER + INTRA:          -5.423
REMARK INTER:                  -4.762
REMARK INTRA:                  -0.661
REMARK UNBOUND:                -0.508
REMARK SMILES CCCCCCCCC(=O)[O-]
REMARK SMILES IDX 6 1 7 2 8 3 9 4 10 5 11 6 5 7 4 8 3 9 2 10 1 11
REMARK H PARENT
REMARK Flexibility Score: inf
ROOT
ATOM      1  C   UNL     1     -23.584   8.103  20.703  1.00  0.00     0.000 C 
ENDROOT
BRANCH   1   2
ATOM      2  C   UNL     1     -24.229   6.762  21.089  1.00  0.00     0.006 C 
BRANCH   2   3
ATOM      3  C   UNL     1     -23.167   5.746  21.520  1.00  0.00     0.053 C 
BRANCH   3   4
ATOM      4  C   UNL     1     -23.811   4.544  22.134  1.00  0.00     0.041 C 
ATOM      5  O   UNL     1     -23.864   3.459  21.497  1.00  0.00    -0.550 OA
ATOM      6  O   UNL     1     -24.398   4.634  23.389  1.00  0.00    -0.550 OA
ENDBRANCH   3   4
ENDBRANCH   2   3
ENDBRANCH   1   2
BRANCH   1   7
ATOM      7  C   UNL     1     -22.067   8.123  20.983  1.00  0.00     0.000 C 
BRANCH   7   8
ATOM      8  C   UNL     1     -21.212   8.377  19.729  1.00  0.00    -0.000 C 
BRANCH   8   9
ATOM      9  C   UNL     1     -22.054   8.593  18.464  1.00  0.00    -0.000 C 
BRANCH   9  10
ATOM     10  C   UNL     1     -21.673   7.587  17.372  1.00  0.00    -0.003 C 
ATOM     11  C   UNL     1     -22.392   6.257  17.573  1.00  0.00     0.004 C 
ENDBRANCH   9  10
ENDBRANCH   8   9
ENDBRANCH   7   8
ENDBRANCH   1   7
TORSDOF 7
ENDMDL
MODEL 6
REMARK VINA RESULT:    -3.488      2.471      4.803
REMARK INTER + INTRA:          -5.423
REMARK INTER:                  -4.839
REMARK INTRA:                  -0.584
REMARK UNBOUND:                -0.508
REMARK SMILES CCCCCCCCC(=O)[O-]
REMARK SMILES IDX 6 1 7 2 8 3 9 4 10 5 11 6 5 7 4 8 3 9 2 10 1 11
REMARK H PARENT
REMARK Flexibility Score: inf
ROOT
ATOM      1  C   UNL     1     -22.273   6.458  17.790  1.00  0.00     0.000 C 
ENDROOT
BRANCH   1   2
ATOM      2  C   UNL     1     -21.951   7.883  18.269  1.00  0.00     0.006 C 
BRANCH   2   3
ATOM      3  C   UNL     1     -23.121   8.472  19.063  1.00  0.00     0.053 C 
BRANCH   3   4
ATOM      4  C   UNL     1     -23.196   7.852  20.422  1.00  0.00     0.041 C 
ATOM      5  O   UNL     1     -22.157   7.736  21.124  1.00  0.00    -0.550 OA
ATOM      6  O   UNL     1     -24.404   7.357  20.895  1.00  0.00    -0.550 OA
ENDBRANCH   3   4
ENDBRANCH   2   3
ENDBRANCH   1   2
BRANCH   1   7
ATOM      7  C   UNL     1     -21.408   6.041  16.582  1.00  0.00     0.000 C 
BRANCH   7   8
ATOM      8  C   UNL     1     -20.486   7.160  16.067  1.00  0.00    -0.000 C 
BRANCH   8   9
ATOM      9  C   UNL     1     -18.999   6.785  16.127  1.00  0.00    -0.000 C 
BRANCH   9  10
ATOM     10  C   UNL     1     -18.646   6.150  17.476  1.00  0.00    -0.003 C 
ATOM     11  C   UNL     1     -18.248   7.210  18.498  1.00  0.00     0.004 C 
ENDBRANCH   9  10
ENDBRANCH   8   9
ENDBRANCH   7   8
ENDBRANCH   1   7
TORSDOF 7
ENDMDL
MODEL 7
REMARK VINA RESULT:    -3.471      1.386      2.411
REMARK INTER + INTRA:          -5.400
REMARK INTER:                  -4.951
REMARK INTRA:                  -0.449
REMARK UNBOUND:                -0.508
REMARK SMILES CCCCCCCCC(=O)[O-]
REMARK SMILES IDX 6 1 7 2 8 3 9 4 10 5 11 6 5 7 4 8 3 9 2 10 1 11
REMARK H PARENT
REMARK Flexibility Score: inf
ROOT
ATOM      1  C   UNL     1     -21.979   8.359  18.410  1.00  0.00     0.000 C 
ENDROOT
BRANCH   1   2
ATOM      2  C   UNL     1     -21.953   7.110  17.515  1.00  0.00     0.006 C 
BRANCH   2   3
ATOM      3  C   UNL     1     -20.764   7.151  16.549  1.00  0.00     0.053 C 
BRANCH   3   4
ATOM      4  C   UNL     1     -19.572   6.485  17.160  1.00  0.00     0.041 C 
ATOM      5  O   UNL     1     -19.707   5.741  18.166  1.00  0.00    -0.550 OA
ATOM      6  O   UNL     1     -18.303   6.725  16.647  1.00  0.00    -0.550 OA
ENDBRANCH   3   4
ENDBRANCH   2   3
ENDBRANCH   1   2
BRANCH   1   7
ATOM      7  C   UNL     1     -23.273   8.449  19.247  1.00  0.00     0.000 C 
BRANCH   7   8
ATOM      8  C   UNL     1     -23.111   7.941  20.690  1.00  0.00    -0.000 C 
BRANCH   8   9
ATOM      9  C   UNL     1     -24.232   6.983  21.116  1.00  0.00    -0.000 C 
BRANCH   9  10
ATOM     10  C   UNL     1     -23.660   5.640  21.582  1.00  0.00    -0.003 C 
ATOM     11  C   UNL     1     -22.894   4.947  20.460  1.00  0.00     0.004 C 
ENDBRANCH   9  10
ENDBRANCH   8   9
ENDBRANCH   7   8
ENDBRANCH   1   7
TORSDOF 7
ENDMDL
MODEL 8
REMARK VINA RESULT:    -3.325      2.213      3.639
REMARK INTER + INTRA:          -5.194
REMARK INTER:                  -4.681
REMARK INTRA:                  -0.513
REMARK UNBOUND:                -0.508
REMARK SMILES CCCCCCCCC(=O)[O-]
REMARK SMILES IDX 6 1 7 2 8 3 9 4 10 5 11 6 5 7 4 8 3 9 2 10 1 11
REMARK H PARENT
REMARK Flexibility Score: inf
ROOT
ATOM      1  C   UNL     1     -22.074   8.367  20.681  1.00  0.00     0.000 C 
ENDROOT
BRANCH   1   2
ATOM      2  C   UNL     1     -21.315   8.666  19.378  1.00  0.00     0.006 C 
BRANCH   2   3
ATOM      3  C   UNL     1     -22.114   8.201  18.157  1.00  0.00     0.053 C 
BRANCH   3   4
ATOM      4  C   UNL     1     -21.369   7.135  17.419  1.00  0.00     0.041 C 
ATOM      5  O   UNL     1     -20.802   7.399  16.326  1.00  0.00    -0.550 OA
ATOM      6  O   UNL     1     -21.340   5.837  17.913  1.00  0.00    -0.550 OA
ENDBRANCH   3   4
ENDBRANCH   2   3
ENDBRANCH   1   2
BRANCH   1   7
ATOM      7  C   UNL     1     -23.563   8.052  20.428  1.00  0.00     0.000 C 
BRANCH   7   8
ATOM      8  C   UNL     1     -24.046   6.762  21.115  1.00  0.00    -0.000 C 
BRANCH   8   9
ATOM      9  C   UNL     1     -23.032   5.615  21.013  1.00  0.00    -0.000 C 
BRANCH   9  10
ATOM     10  C   UNL     1     -23.582   4.335  21.653  1.00  0.00    -0.003 C 
ATOM     11  C   UNL     1     -24.293   4.638  22.969  1.00  0.00     0.004 C 
ENDBRANCH   9  10
ENDBRANCH   8   9
ENDBRANCH   7   8
ENDBRANCH   1   7
TORSDOF 7
ENDMDL
MODEL 9
REMARK VINA RESULT:    -3.296      2.202      4.283
REMARK INTER + INTRA:          -5.153
REMARK INTER:                  -4.472
REMARK INTRA:                  -0.681
REMARK UNBOUND:                -0.508
REMARK SMILES CCCCCCCCC(=O)[O-]
REMARK SMILES IDX 6 1 7 2 8 3 9 4 10 5 11 6 5 7 4 8 3 9 2 10 1 11
REMARK H PARENT
REMARK Flexibility Score: inf
ROOT
ATOM      1  C   UNL     1     -23.927   7.260  20.478  1.00  0.00     0.000 C 
ENDROOT
BRANCH   1   2
ATOM      2  C   UNL     1     -23.441   5.977  21.170  1.00  0.00     0.006 C 
BRANCH   2   3
ATOM      3  C   UNL     1     -22.856   4.992  20.154  1.00  0.00     0.053 C 
BRANCH   3   4
ATOM      4  C   UNL     1     -21.403   4.762  20.424  1.00  0.00     0.041 C 
ATOM      5  O   UNL     1     -20.733   5.621  21.057  1.00  0.00    -0.550 OA
ATOM      6  O   UNL     1     -20.776   3.623  19.936  1.00  0.00    -0.550 OA
ENDBRANCH   3   4
ENDBRANCH   2   3
ENDBRANCH   1   2
BRANCH   1   7
ATOM      7  C   UNL     1     -22.845   8.361  20.463  1.00  0.00     0.000 C 
BRANCH   7   8
ATOM      8  C   UNL     1     -22.444   8.813  19.048  1.00  0.00    -0.000 C 
BRANCH   8   9
ATOM      9  C   UNL     1     -21.241   8.040  18.492  1.00  0.00    -0.000 C 
BRANCH   9  10
ATOM     10  C   UNL     1     -21.659   7.136  17.327  1.00  0.00    -0.003 C 
ATOM     11  C   UNL     1     -20.556   7.046  16.276  1.00  0.00     0.004 C 
ENDBRANCH   9  10
ENDBRANCH   8   9
ENDBRANCH   7   8
ENDBRANCH   1   7
TORSDOF 7
ENDMDL
