MODEL 1
REMARK VINA RESULT:    -5.122      0.000      0.000
REMARK INTER + INTRA:          -4.934
REMARK INTER:                  -5.571
REMARK INTRA:                   0.637
REMARK UNBOUND:                 0.637
REMARK SMILES CC(C)c1cc2c(cc1O)[C@@]1(C)CCCC(C)(C)[C@@H]1CC2=O
REMARK SMILES IDX 4 1 9 2 8 3 7 4 6 5 5 6 21 7 22 8 20 9 19 10 11 11 13 12
REMARK SMILES IDX 14 13 15 14 16 15 17 16 18 17 12 18 2 19 1 20 3 21 10 22
REMARK H PARENT 10 23
REMARK Flexibility Score: inf
ROOT
ATOM      1  C   UNL     1      28.135  36.101  20.850  1.00  0.00    -0.003 A 
ATOM      2  C   UNL     1      27.908  36.666  22.114  1.00  0.00     0.119 A 
ATOM      3  C   UNL     1      27.697  38.046  22.243  1.00  0.00     0.051 A 
ATOM      4  C   UNL     1      27.735  38.908  21.125  1.00  0.00    -0.027 A 
ATOM      5  C   UNL     1      27.976  38.336  19.850  1.00  0.00     0.022 A 
ATOM      6  C   UNL     1      28.192  36.951  19.731  1.00  0.00     0.020 A 
ATOM      7  C   UNL     1      28.004  39.181  18.633  1.00  0.00     0.163 C 
ATOM      8  O   UNL     1      28.292  38.683  17.509  1.00  0.00    -0.294 OA
ATOM      9  C   UNL     1      27.680  40.642  18.707  1.00  0.00     0.086 C 
ATOM     10  C   UNL     1      28.063  41.210  20.093  1.00  0.00     0.013 C 
ATOM     11  C   UNL     1      27.371  40.406  21.260  1.00  0.00    -0.003 C 
ATOM     12  C   UNL     1      27.887  40.980  22.614  1.00  0.00     0.012 C 
ATOM     13  C   UNL     1      27.751  42.502  22.736  1.00  0.00     0.001 C 
ATOM     14  C   UNL     1      28.477  43.230  21.603  1.00  0.00     0.007 C 
ATOM     15  C   UNL     1      28.011  42.791  20.189  1.00  0.00    -0.031 C 
ATOM     16  C   UNL     1      29.019  43.409  19.181  1.00  0.00     0.011 C 
ATOM     17  C   UNL     1      26.613  43.403  19.876  1.00  0.00     0.011 C 
ATOM     18  C   UNL     1      25.823  40.463  21.221  1.00  0.00     0.017 C 
ENDROOT
BRANCH   1  19
ATOM     19  C   UNL     1      28.363  34.605  20.687  1.00  0.00     0.017 C 
ATOM     20  C   UNL     1      29.116  34.033  21.896  1.00  0.00     0.012 C 
ATOM     21  C   UNL     1      29.090  34.274  19.375  1.00  0.00     0.012 C 
ENDBRANCH   1  19
BRANCH   2  22
ATOM     22  O   UNL     1      27.883  35.861  23.251  1.00  0.00    -0.508 OA
ATOM     23  H   UNL     1      28.719  35.685  23.800  1.00  0.00     0.293 HD
ENDBRANCH   2  22
TORSDOF 2
ENDMDL
MODEL 2
REMARK VINA RESULT:    -3.940      8.237     13.897
REMARK INTER + INTRA:          -3.649
REMARK INTER:                  -3.970
REMARK INTRA:                   0.321
REMARK UNBOUND:                 0.637
REMARK SMILES CC(C)c1cc2c(cc1O)[C@@]1(C)CCCC(C)(C)[C@@H]1CC2=O
REMARK SMILES IDX 4 1 9 2 8 3 7 4 6 5 5 6 21 7 22 8 20 9 19 10 11 11 13 12
REMARK SMILES IDX 14 13 15 14 16 15 17 16 18 17 12 18 2 19 1 20 3 21 10 22
REMARK H PARENT 10 23
REMARK Flexibility Score: inf
ROOT
ATOM      1  C   UNL     1      28.800  30.744  24.870  1.00  0.00    -0.003 A 
ATOM      2  C   UNL     1      28.575  29.626  24.052  1.00  0.00     0.119 A 
ATOM      3  C   UNL     1      28.274  28.383  24.624  1.00  0.00     0.051 A 
ATOM      4  C   UNL     1      28.216  28.206  26.024  1.00  0.00    -0.027 A 
ATOM      5  C   UNL     1      28.455  29.334  26.848  1.00  0.00     0.022 A 
ATOM      6  C   UNL     1      28.762  30.578  26.266  1.00  0.00     0.020 A 
ATOM      7  C   UNL     1      28.386  29.224  28.324  1.00  0.00     0.163 C 
ATOM      8  O   UNL     1      28.672  30.211  29.058  1.00  0.00    -0.294 OA
ATOM      9  C   UNL     1      27.965  27.943  28.977  1.00  0.00     0.086 C 
ATOM     10  C   UNL     1      28.352  26.734  28.094  1.00  0.00     0.013 C 
ATOM     11  C   UNL     1      27.754  26.864  26.640  1.00  0.00    -0.003 C 
ATOM     12  C   UNL     1      28.273  25.660  25.796  1.00  0.00     0.012 C 
ATOM     13  C   UNL     1      28.037  24.295  26.450  1.00  0.00     0.001 C 
ATOM     14  C   UNL     1      28.674  24.212  27.838  1.00  0.00     0.007 C 
ATOM     15  C   UNL     1      28.195  25.327  28.806  1.00  0.00    -0.031 C 
ATOM     16  C   UNL     1      29.125  25.263  30.048  1.00  0.00     0.011 C 
ATOM     17  C   UNL     1      26.748  25.020  29.297  1.00  0.00     0.011 C 
ATOM     18  C   UNL     1      26.206  26.902  26.606  1.00  0.00     0.017 C 
ENDROOT
BRANCH   1  19
ATOM     19  C   UNL     1      29.125  32.104  24.269  1.00  0.00     0.017 C 
ATOM     20  C   UNL     1      29.125  33.193  25.350  1.00  0.00     0.012 C 
ATOM     21  C   UNL     1      28.172  32.466  23.119  1.00  0.00     0.012 C 
ENDBRANCH   1  19
BRANCH   2  22
ATOM     22  O   UNL     1      28.642  29.743  22.665  1.00  0.00    -0.508 OA
ATOM     23  H   UNL     1      28.145  29.105  22.050  1.00  0.00     0.293 HD
ENDBRANCH   2  22
TORSDOF 2
ENDMDL
MODEL 3
REMARK VINA RESULT:    -2.849      9.185     14.449
REMARK INTER + INTRA:          -2.462
REMARK INTER:                  -2.560
REMARK INTRA:                   0.098
REMARK UNBOUND:                 0.637
REMARK SMILES CC(C)c1cc2c(cc1O)[C@@]1(C)CCCC(C)(C)[C@@H]1CC2=O
REMARK SMILES IDX 4 1 9 2 8 3 7 4 6 5 5 6 21 7 22 8 20 9 19 10 11 11 13 12
REMARK SMILES IDX 14 13 15 14 16 15 17 16 18 17 12 18 2 19 1 20 3 21 10 22
REMARK H PARENT 10 23
REMARK Flexibility Score: inf
ROOT
ATOM      1  C   UNL     1      28.689  29.695  25.253  1.00  0.00    -0.003 A 
ATOM      2  C   UNL     1      28.732  30.157  26.577  1.00  0.00     0.119 A 
ATOM      3  C   UNL     1      28.390  29.301  27.634  1.00  0.00     0.051 A 
ATOM      4  C   UNL     1      27.969  27.972  27.404  1.00  0.00    -0.027 A 
ATOM      5  C   UNL     1      27.915  27.513  26.064  1.00  0.00     0.022 A 
ATOM      6  C   UNL     1      28.255  28.380  25.009  1.00  0.00     0.020 A 
ATOM      7  C   UNL     1      27.505  26.123  25.755  1.00  0.00     0.163 C 
ATOM      8  O   UNL     1      27.387  25.737  24.558  1.00  0.00    -0.294 OA
ATOM      9  C   UNL     1      27.233  25.142  26.854  1.00  0.00     0.086 C 
ATOM     10  C   UNL     1      26.719  25.875  28.116  1.00  0.00     0.013 C 
ATOM     11  C   UNL     1      27.722  26.999  28.581  1.00  0.00    -0.003 C 
ATOM     12  C   UNL     1      27.081  27.745  29.791  1.00  0.00     0.012 C 
ATOM     13  C   UNL     1      26.615  26.817  30.917  1.00  0.00     0.001 C 
ATOM     14  C   UNL     1      25.613  25.775  30.417  1.00  0.00     0.007 C 
ATOM     15  C   UNL     1      26.151  24.915  29.242  1.00  0.00    -0.031 C 
ATOM     16  C   UNL     1      24.939  24.118  28.688  1.00  0.00     0.011 C 
ATOM     17  C   UNL     1      27.183  23.875  29.773  1.00  0.00     0.011 C 
ATOM     18  C   UNL     1      29.120  26.461  28.976  1.00  0.00     0.017 C 
ENDROOT
BRANCH   1  19
ATOM     19  C   UNL     1      29.059  30.607  24.091  1.00  0.00     0.017 C 
ATOM     20  C   UNL     1      28.156  31.847  24.061  1.00  0.00     0.012 C 
ATOM     21  C   UNL     1      29.027  29.865  22.746  1.00  0.00     0.012 C 
ENDBRANCH   1  19
BRANCH   2  22
ATOM     22  O   UNL     1      29.120  31.466  26.856  1.00  0.00    -0.508 OA
ATOM     23  H   UNL     1      28.786  31.959  27.678  1.00  0.00     0.293 HD
ENDBRANCH   2  22
TORSDOF 2
ENDMDL
MODEL 4
REMARK VINA RESULT:    -2.808      2.450      4.182
REMARK INTER + INTRA:          -2.417
REMARK INTER:                  -2.694
REMARK INTRA:                   0.277
REMARK UNBOUND:                 0.637
REMARK SMILES CC(C)c1cc2c(cc1O)[C@@]1(C)CCCC(C)(C)[C@@H]1CC2=O
REMARK SMILES IDX 4 1 9 2 8 3 7 4 6 5 5 6 21 7 22 8 20 9 19 10 11 11 13 12
REMARK SMILES IDX 14 13 15 14 16 15 17 16 18 17 12 18 2 19 1 20 3 21 10 22
REMARK H PARENT 10 23
REMARK Flexibility Score: inf
ROOT
ATOM      1  C   UNL     1      28.808  33.245  23.335  1.00  0.00    -0.003 A 
ATOM      2  C   UNL     1      28.623  34.424  24.075  1.00  0.00     0.119 A 
ATOM      3  C   UNL     1      28.333  35.629  23.421  1.00  0.00     0.051 A 
ATOM      4  C   UNL     1      28.247  35.706  22.013  1.00  0.00    -0.027 A 
ATOM      5  C   UNL     1      28.445  34.516  21.268  1.00  0.00     0.022 A 
ATOM      6  C   UNL     1      28.741  33.312  21.932  1.00  0.00     0.020 A 
ATOM      7  C   UNL     1      28.345  34.522  19.789  1.00  0.00     0.163 C 
ATOM      8  O   UNL     1      28.594  33.479  19.122  1.00  0.00    -0.294 OA
ATOM      9  C   UNL     1      27.934  35.761  19.055  1.00  0.00     0.086 C 
ATOM     10  C   UNL     1      28.365  37.022  19.840  1.00  0.00     0.013 C 
ATOM     11  C   UNL     1      27.798  37.010  21.311  1.00  0.00    -0.003 C 
ATOM     12  C   UNL     1      28.359  38.260  22.055  1.00  0.00     0.012 C 
ATOM     13  C   UNL     1      28.135  39.579  21.309  1.00  0.00     0.001 C 
ATOM     14  C   UNL     1      28.742  39.549  19.905  1.00  0.00     0.007 C 
ATOM     15  C   UNL     1      28.218  38.377  19.031  1.00  0.00    -0.031 C 
ATOM     16  C   UNL     1      29.121  38.332  17.768  1.00  0.00     0.011 C 
ATOM     17  C   UNL     1      26.768  38.679  18.551  1.00  0.00     0.011 C 
ATOM     18  C   UNL     1      26.250  37.007  21.382  1.00  0.00     0.017 C 
ENDROOT
BRANCH   1  19
ATOM     19  C   UNL     1      29.119  31.925  24.026  1.00  0.00     0.017 C 
ATOM     20  C   UNL     1      29.124  30.769  23.017  1.00  0.00     0.012 C 
ATOM     21  C   UNL     1      28.154  31.643  25.188  1.00  0.00     0.012 C 
ENDBRANCH   1  19
BRANCH   2  22
ATOM     22  O   UNL     1      28.720  34.405  25.465  1.00  0.00    -0.508 OA
ATOM     23  H   UNL     1      29.195  35.142  25.978  1.00  0.00     0.293 HD
ENDBRANCH   2  22
TORSDOF 2
ENDMDL
