MODEL 1
REMARK VINA RESULT:    -5.988      0.000      0.000
REMARK INTER + INTRA:          -7.767
REMARK INTER:                  -7.388
REMARK INTRA:                  -0.378
REMARK UNBOUND:                -0.378
REMARK SMILES COc1cc(-c2oc3cc(O)cc(O)c3c(=O)c2O)ccc1O
REMARK SMILES IDX 6 1 18 2 16 3 17 4 15 5 13 6 12 7 10 8 9 9 8 10 7 11 5 12
REMARK SMILES IDX 3 13 22 14 4 15 21 16 20 17 2 18 1 19 23 20 19 22 14 24
REMARK SMILES IDX 11 26
REMARK H PARENT 23 21 19 23 14 25 11 27
REMARK Flexibility Score: inf
ROOT
ATOM      1  C   UNL     1      18.511  -1.737 -17.057  1.00  0.00     0.180 A 
ATOM      2  C   UNL     1      17.732  -1.089 -16.080  1.00  0.00     0.208 A 
ATOM      3  C   UNL     1      17.020  -1.868 -15.154  1.00  0.00     0.238 A 
ATOM      4  O   UNL     1      16.328  -1.298 -14.266  1.00  0.00    -0.285 OA
ATOM      5  C   UNL     1      17.083  -3.275 -15.232  1.00  0.00     0.111 A 
ATOM      6  C   UNL     1      16.394  -4.131 -14.340  1.00  0.00     0.134 A 
ATOM      7  C   UNL     1      16.499  -5.522 -14.490  1.00  0.00     0.093 A 
ATOM      8  C   UNL     1      17.278  -6.071 -15.511  1.00  0.00     0.123 A 
ATOM      9  C   UNL     1      17.961  -5.230 -16.394  1.00  0.00     0.094 A 
ATOM     10  C   UNL     1      17.870  -3.842 -16.261  1.00  0.00     0.146 A 
ATOM     11  O   UNL     1      18.534  -3.066 -17.110  1.00  0.00    -0.452 OA
ENDROOT
BRANCH   1  12
ATOM     12  C   UNL     1      19.304  -0.985 -18.056  1.00  0.00     0.025 A 
ATOM     13  C   UNL     1      21.318   0.243 -18.706  1.00  0.00     0.161 A 
ATOM     14  C   UNL     1      20.798   0.390 -20.004  1.00  0.00     0.157 A 
ATOM     15  C   UNL     1      20.567  -0.453 -17.738  1.00  0.00     0.062 A 
ATOM     16  C   UNL     1      19.553  -0.158 -20.325  1.00  0.00     0.051 A 
ATOM     17  C   UNL     1      18.814  -0.846 -19.362  1.00  0.00     0.016 A 
BRANCH  13  18
ATOM     18  O   UNL     1      22.577   0.794 -18.414  1.00  0.00    -0.493 OA
ATOM     19  C   UNL     1      23.203   0.749 -17.137  1.00  0.00     0.278 C 
ENDBRANCH  13  18
BRANCH  14  20
ATOM     20  O   UNL     1      21.506   1.075 -20.992  1.00  0.00    -0.504 OA
ATOM     21  H   UNL     1      22.482   1.321 -20.883  1.00  0.00     0.293 HD
ENDBRANCH  14  20
ENDBRANCH   1  12
BRANCH   2  22
ATOM     22  O   UNL     1      17.648   0.305 -16.054  1.00  0.00    -0.502 OA
ATOM     23  H   UNL     1      18.409   0.901 -16.356  1.00  0.00     0.293 HD
ENDBRANCH   2  22
BRANCH   6  24
ATOM     24  O   UNL     1      15.606  -3.613 -13.310  1.00  0.00    -0.507 OA
ATOM     25  H   UNL     1      15.043  -4.211 -12.717  1.00  0.00     0.293 HD
ENDBRANCH   6  24
BRANCH   8  26
ATOM     26  O   UNL     1      17.365  -7.456 -15.638  1.00  0.00    -0.508 OA
ATOM     27  H   UNL     1      16.615  -7.998 -16.052  1.00  0.00     0.293 HD
ENDBRANCH   8  26
TORSDOF 6
ENDMDL
MODEL 2
REMARK VINA RESULT:    -5.974      7.441     11.004
REMARK INTER + INTRA:          -7.750
REMARK INTER:                  -7.515
REMARK INTRA:                  -0.235
REMARK UNBOUND:                -0.378
REMARK SMILES COc1cc(-c2oc3cc(O)cc(O)c3c(=O)c2O)ccc1O
REMARK SMILES IDX 6 1 18 2 16 3 17 4 15 5 13 6 12 7 10 8 9 9 8 10 7 11 5 12
REMARK SMILES IDX 3 13 22 14 4 15 21 16 20 17 2 18 1 19 23 20 19 22 14 24
REMARK SMILES IDX 11 26
REMARK H PARENT 23 21 19 23 14 25 11 27
REMARK Flexibility Score: inf
ROOT
ATOM      1  C   UNL     1      11.061  -6.148 -10.841  1.00  0.00     0.180 A 
ATOM      2  C   UNL     1      10.819  -6.457  -9.489  1.00  0.00     0.208 A 
ATOM      3  C   UNL     1       9.712  -7.257  -9.164  1.00  0.00     0.238 A 
ATOM      4  O   UNL     1       9.492  -7.551  -7.957  1.00  0.00    -0.285 OA
ATOM      5  C   UNL     1       8.858  -7.714 -10.189  1.00  0.00     0.111 A 
ATOM      6  C   UNL     1       7.720  -8.521  -9.945  1.00  0.00     0.134 A 
ATOM      7  C   UNL     1       6.913  -8.928 -11.019  1.00  0.00     0.093 A 
ATOM      8  C   UNL     1       7.222  -8.546 -12.326  1.00  0.00     0.123 A 
ATOM      9  C   UNL     1       8.345  -7.750 -12.572  1.00  0.00     0.094 A 
ATOM     10  C   UNL     1       9.161  -7.335 -11.517  1.00  0.00     0.146 A 
ATOM     11  O   UNL     1      10.225  -6.584 -11.779  1.00  0.00    -0.452 OA
ENDROOT
BRANCH   1  12
ATOM     12  C   UNL     1      12.218  -5.326 -11.264  1.00  0.00     0.025 A 
ATOM     13  C   UNL     1      13.156  -3.263 -12.184  1.00  0.00     0.161 A 
ATOM     14  C   UNL     1      14.451  -3.782 -12.004  1.00  0.00     0.157 A 
ATOM     15  C   UNL     1      12.044  -4.039 -11.803  1.00  0.00     0.062 A 
ATOM     16  C   UNL     1      14.624  -5.053 -11.447  1.00  0.00     0.051 A 
ATOM     17  C   UNL     1      13.518  -5.817 -11.073  1.00  0.00     0.016 A 
BRANCH  13  18
ATOM     18  O   UNL     1      13.013  -1.979 -12.735  1.00  0.00    -0.493 OA
ATOM     19  C   UNL     1      11.777  -1.414 -13.158  1.00  0.00     0.278 C 
ENDBRANCH  13  18
BRANCH  14  20
ATOM     20  O   UNL     1      15.580  -3.049 -12.369  1.00  0.00    -0.504 OA
ATOM     21  H   UNL     1      15.948  -3.059 -13.313  1.00  0.00     0.293 HD
ENDBRANCH  14  20
ENDBRANCH   1  12
BRANCH   2  22
ATOM     22  O   UNL     1      11.653  -5.952  -8.489  1.00  0.00    -0.502 OA
ATOM     23  H   UNL     1      12.469  -6.452  -8.157  1.00  0.00     0.293 HD
ENDBRANCH   2  22
BRANCH   6  24
ATOM     24  O   UNL     1       7.385  -8.920  -8.650  1.00  0.00    -0.507 OA
ATOM     25  H   UNL     1       7.038  -9.851  -8.451  1.00  0.00     0.293 HD
ENDBRANCH   6  24
BRANCH   8  26
ATOM     26  O   UNL     1       6.403  -8.963 -13.373  1.00  0.00    -0.508 OA
ATOM     27  H   UNL     1       5.735  -9.716 -13.256  1.00  0.00     0.293 HD
ENDBRANCH   8  26
TORSDOF 6
ENDMDL
MODEL 3
REMARK VINA RESULT:    -5.919      8.080     11.790
REMARK INTER + INTRA:          -7.681
REMARK INTER:                  -7.293
REMARK INTRA:                  -0.388
REMARK UNBOUND:                -0.378
REMARK SMILES COc1cc(-c2oc3cc(O)cc(O)c3c(=O)c2O)ccc1O
REMARK SMILES IDX 6 1 18 2 16 3 17 4 15 5 13 6 12 7 10 8 9 9 8 10 7 11 5 12
REMARK SMILES IDX 3 13 22 14 4 15 21 16 20 17 2 18 1 19 23 20 19 22 14 24
REMARK SMILES IDX 11 26
REMARK H PARENT 23 21 19 23 14 25 11 27
REMARK Flexibility Score: inf
ROOT
ATOM      1  C   UNL     1      10.952  -6.106 -10.031  1.00  0.00     0.180 A 
ATOM      2  C   UNL     1      10.344  -7.242 -10.597  1.00  0.00     0.208 A 
ATOM      3  C   UNL     1       9.321  -7.890  -9.886  1.00  0.00     0.238 A 
ATOM      4  O   UNL     1       8.761  -8.902 -10.388  1.00  0.00    -0.285 OA
ATOM      5  C   UNL     1       8.940  -7.405  -8.617  1.00  0.00     0.111 A 
ATOM      6  C   UNL     1       7.922  -8.001  -7.835  1.00  0.00     0.134 A 
ATOM      7  C   UNL     1       7.607  -7.465  -6.577  1.00  0.00     0.093 A 
ATOM      8  C   UNL     1       8.288  -6.347  -6.089  1.00  0.00     0.123 A 
ATOM      9  C   UNL     1       9.293  -5.754  -6.858  1.00  0.00     0.094 A 
ATOM     10  C   UNL     1       9.621  -6.272  -8.113  1.00  0.00     0.146 A 
ATOM     11  O   UNL     1      10.577  -5.687  -8.826  1.00  0.00    -0.452 OA
ENDROOT
BRANCH   1  12
ATOM     12  C   UNL     1      12.024  -5.358 -10.728  1.00  0.00     0.025 A 
ATOM     13  C   UNL     1      12.766  -3.530 -12.174  1.00  0.00     0.161 A 
ATOM     14  C   UNL     1      14.099  -3.937 -11.988  1.00  0.00     0.157 A 
ATOM     15  C   UNL     1      11.733  -4.243 -11.533  1.00  0.00     0.062 A 
ATOM     16  C   UNL     1      14.389  -5.033 -11.170  1.00  0.00     0.051 A 
ATOM     17  C   UNL     1      13.361  -5.734 -10.538  1.00  0.00     0.016 A 
BRANCH  13  18
ATOM     18  O   UNL     1      12.505  -2.419 -12.992  1.00  0.00    -0.493 OA
ATOM     19  C   UNL     1      11.312  -1.643 -12.947  1.00  0.00     0.278 C 
ENDBRANCH  13  18
BRANCH  14  20
ATOM     20  O   UNL     1      15.152  -3.263 -12.606  1.00  0.00    -0.504 OA
ATOM     21  H   UNL     1      15.936  -2.891 -12.083  1.00  0.00     0.293 HD
ENDBRANCH  14  20
ENDBRANCH   1  12
BRANCH   2  22
ATOM     22  O   UNL     1      10.773  -7.731 -11.833  1.00  0.00    -0.502 OA
ATOM     23  H   UNL     1      10.860  -7.140 -12.651  1.00  0.00     0.293 HD
ENDBRANCH   2  22
BRANCH   6  24
ATOM     24  O   UNL     1       7.223  -9.119  -8.294  1.00  0.00    -0.507 OA
ATOM     25  H   UNL     1       7.688 -10.001  -8.476  1.00  0.00     0.293 HD
ENDBRANCH   6  24
BRANCH   8  26
ATOM     26  O   UNL     1       7.955  -5.835  -4.837  1.00  0.00    -0.508 OA
ATOM     27  H   UNL     1       7.420  -6.377  -4.168  1.00  0.00     0.293 HD
ENDBRANCH   8  26
TORSDOF 6
ENDMDL
MODEL 4
REMARK VINA RESULT:    -5.733      6.877      9.659
REMARK INTER + INTRA:          -7.452
REMARK INTER:                  -7.071
REMARK INTRA:                  -0.381
REMARK UNBOUND:                -0.378
REMARK SMILES COc1cc(-c2oc3cc(O)cc(O)c3c(=O)c2O)ccc1O
REMARK SMILES IDX 6 1 18 2 16 3 17 4 15 5 13 6 12 7 10 8 9 9 8 10 7 11 5 12
REMARK SMILES IDX 3 13 22 14 4 15 21 16 20 17 2 18 1 19 23 20 19 22 14 24
REMARK SMILES IDX 11 26
REMARK H PARENT 23 21 19 23 14 25 11 27
REMARK Flexibility Score: inf
ROOT
ATOM      1  C   UNL     1      13.006  -5.229 -10.793  1.00  0.00     0.180 A 
ATOM      2  C   UNL     1      11.989  -4.501 -11.441  1.00  0.00     0.208 A 
ATOM      3  C   UNL     1      10.653  -4.730 -11.075  1.00  0.00     0.238 A 
ATOM      4  O   UNL     1       9.734  -4.076 -11.640  1.00  0.00    -0.285 OA
ATOM      5  C   UNL     1      10.356  -5.694 -10.089  1.00  0.00     0.111 A 
ATOM      6  C   UNL     1       9.037  -5.987  -9.666  1.00  0.00     0.134 A 
ATOM      7  C   UNL     1       8.823  -6.967  -8.685  1.00  0.00     0.093 A 
ATOM      8  C   UNL     1       9.898  -7.656  -8.120  1.00  0.00     0.123 A 
ATOM      9  C   UNL     1      11.203  -7.370  -8.533  1.00  0.00     0.094 A 
ATOM     10  C   UNL     1      11.437  -6.397  -9.508  1.00  0.00     0.146 A 
ATOM     11  O   UNL     1      12.687  -6.140  -9.879  1.00  0.00    -0.452 OA
ENDROOT
BRANCH   1  12
ATOM     12  C   UNL     1      14.438  -5.030 -11.110  1.00  0.00     0.025 A 
ATOM     13  C   UNL     1      16.615  -4.018 -10.637  1.00  0.00     0.161 A 
ATOM     14  C   UNL     1      17.169  -4.726 -11.719  1.00  0.00     0.157 A 
ATOM     15  C   UNL     1      15.249  -4.182 -10.334  1.00  0.00     0.062 A 
ATOM     16  C   UNL     1      16.368  -5.586 -12.475  1.00  0.00     0.051 A 
ATOM     17  C   UNL     1      15.015  -5.743 -12.170  1.00  0.00     0.016 A 
BRANCH  13  18
ATOM     18  O   UNL     1      17.446  -3.169  -9.887  1.00  0.00    -0.493 OA
ATOM     19  C   UNL     1      17.350  -2.981  -8.479  1.00  0.00     0.278 C 
ENDBRANCH  13  18
BRANCH  14  20
ATOM     20  O   UNL     1      18.516  -4.591 -12.055  1.00  0.00    -0.504 OA
ATOM     21  H   UNL     1      19.080  -3.818 -11.724  1.00  0.00     0.293 HD
ENDBRANCH  14  20
ENDBRANCH   1  12
BRANCH   2  22
ATOM     22  O   UNL     1      12.306  -3.588 -12.449  1.00  0.00    -0.502 OA
ATOM     23  H   UNL     1      12.670  -3.877 -13.349  1.00  0.00     0.293 HD
ENDBRANCH   2  22
BRANCH   6  24
ATOM     24  O   UNL     1       7.941  -5.316 -10.211  1.00  0.00    -0.507 OA
ATOM     25  H   UNL     1       7.231  -4.890  -9.627  1.00  0.00     0.293 HD
ENDBRANCH   6  24
BRANCH   8  26
ATOM     26  O   UNL     1       9.657  -8.625  -7.148  1.00  0.00    -0.508 OA
ATOM     27  H   UNL     1       9.121  -9.460  -7.354  1.00  0.00     0.293 HD
ENDBRANCH   8  26
TORSDOF 6
ENDMDL
MODEL 5
REMARK VINA RESULT:    -5.675      1.207      2.771
REMARK INTER + INTRA:          -7.380
REMARK INTER:                  -7.114
REMARK INTRA:                  -0.266
REMARK UNBOUND:                -0.378
REMARK SMILES COc1cc(-c2oc3cc(O)cc(O)c3c(=O)c2O)ccc1O
REMARK SMILES IDX 6 1 18 2 16 3 17 4 15 5 13 6 12 7 10 8 9 9 8 10 7 11 5 12
REMARK SMILES IDX 3 13 22 14 4 15 21 16 20 17 2 18 1 19 23 20 19 22 14 24
REMARK SMILES IDX 11 26
REMARK H PARENT 23 21 19 23 14 25 11 27
REMARK Flexibility Score: inf
ROOT
ATOM      1  C   UNL     1      18.513  -2.323 -17.249  1.00  0.00     0.180 A 
ATOM      2  C   UNL     1      18.405  -3.698 -17.530  1.00  0.00     0.208 A 
ATOM      3  C   UNL     1      17.734  -4.527 -16.616  1.00  0.00     0.238 A 
ATOM      4  O   UNL     1      17.620  -5.759 -16.864  1.00  0.00    -0.285 OA
ATOM      5  C   UNL     1      17.203  -3.973 -15.433  1.00  0.00     0.111 A 
ATOM      6  C   UNL     1      16.516  -4.739 -14.460  1.00  0.00     0.134 A 
ATOM      7  C   UNL     1      16.026  -4.116 -13.303  1.00  0.00     0.093 A 
ATOM      8  C   UNL     1      16.207  -2.746 -13.101  1.00  0.00     0.123 A 
ATOM      9  C   UNL     1      16.883  -1.984 -14.059  1.00  0.00     0.094 A 
ATOM     10  C   UNL     1      17.379  -2.586 -15.218  1.00  0.00     0.146 A 
ATOM     11  O   UNL     1      18.013  -1.839 -16.115  1.00  0.00    -0.452 OA
ENDROOT
BRANCH   1  12
ATOM     12  C   UNL     1      19.188  -1.383 -18.171  1.00  0.00     0.025 A 
ATOM     13  C   UNL     1      21.069   0.072 -18.747  1.00  0.00     0.161 A 
ATOM     14  C   UNL     1      20.458   0.357 -19.982  1.00  0.00     0.157 A 
ATOM     15  C   UNL     1      20.429  -0.806 -17.850  1.00  0.00     0.062 A 
ATOM     16  C   UNL     1      19.235  -0.235 -20.310  1.00  0.00     0.051 A 
ATOM     17  C   UNL     1      18.607  -1.103 -19.417  1.00  0.00     0.016 A 
BRANCH  13  18
ATOM     18  O   UNL     1      22.303   0.672 -18.449  1.00  0.00    -0.493 OA
ATOM     19  C   UNL     1      22.941   0.619 -17.177  1.00  0.00     0.278 C 
ENDBRANCH  13  18
BRANCH  14  20
ATOM     20  O   UNL     1      21.054   1.223 -20.899  1.00  0.00    -0.504 OA
ATOM     21  H   UNL     1      20.753   1.278 -21.864  1.00  0.00     0.293 HD
ENDBRANCH  14  20
ENDBRANCH   1  12
BRANCH   2  22
ATOM     22  O   UNL     1      18.981  -4.230 -18.686  1.00  0.00    -0.502 OA
ATOM     23  H   UNL     1      19.078  -3.695 -19.540  1.00  0.00     0.293 HD
ENDBRANCH   2  22
BRANCH   6  24
ATOM     24  O   UNL     1      16.319  -6.111 -14.632  1.00  0.00    -0.507 OA
ATOM     25  H   UNL     1      16.888  -6.655 -15.270  1.00  0.00     0.293 HD
ENDBRANCH   6  24
BRANCH   8  26
ATOM     26  O   UNL     1      15.710  -2.152 -11.943  1.00  0.00    -0.508 OA
ATOM     27  H   UNL     1      15.007  -2.609 -11.373  1.00  0.00     0.293 HD
ENDBRANCH   8  26
TORSDOF 6
ENDMDL
MODEL 6
REMARK VINA RESULT:    -5.660      7.449     12.606
REMARK INTER + INTRA:          -7.362
REMARK INTER:                  -6.964
REMARK INTRA:                  -0.399
REMARK UNBOUND:                -0.378
REMARK SMILES COc1cc(-c2oc3cc(O)cc(O)c3c(=O)c2O)ccc1O
REMARK SMILES IDX 6 1 18 2 16 3 17 4 15 5 13 6 12 7 10 8 9 9 8 10 7 11 5 12
REMARK SMILES IDX 3 13 22 14 4 15 21 16 20 17 2 18 1 19 23 20 19 22 14 24
REMARK SMILES IDX 11 26
REMARK H PARENT 23 21 19 23 14 25 11 27
REMARK Flexibility Score: inf
ROOT
ATOM      1  C   UNL     1      10.875  -6.185 -10.550  1.00  0.00     0.180 A 
ATOM      2  C   UNL     1      11.023  -7.439 -11.175  1.00  0.00     0.208 A 
ATOM      3  C   UNL     1      12.238  -7.741 -11.811  1.00  0.00     0.238 A 
ATOM      4  O   UNL     1      12.385  -8.865 -12.364  1.00  0.00    -0.285 OA
ATOM      5  C   UNL     1      13.271  -6.782 -11.830  1.00  0.00     0.111 A 
ATOM      6  C   UNL     1      14.523  -7.006 -12.453  1.00  0.00     0.134 A 
ATOM      7  C   UNL     1      15.498  -5.997 -12.437  1.00  0.00     0.093 A 
ATOM      8  C   UNL     1      15.247  -4.773 -11.813  1.00  0.00     0.123 A 
ATOM      9  C   UNL     1      14.013  -4.547 -11.196  1.00  0.00     0.094 A 
ATOM     10  C   UNL     1      13.029  -5.539 -11.199  1.00  0.00     0.146 A 
ATOM     11  O   UNL     1      11.867  -5.301 -10.601  1.00  0.00    -0.452 OA
ENDROOT
BRANCH   1  12
ATOM     12  C   UNL     1       9.633  -5.801  -9.842  1.00  0.00     0.025 A 
ATOM     13  C   UNL     1       8.241  -5.758  -7.831  1.00  0.00     0.161 A 
ATOM     14  C   UNL     1       7.279  -5.001  -8.525  1.00  0.00     0.157 A 
ATOM     15  C   UNL     1       9.420  -6.148  -8.496  1.00  0.00     0.062 A 
ATOM     16  C   UNL     1       7.502  -4.638  -9.856  1.00  0.00     0.051 A 
ATOM     17  C   UNL     1       8.672  -5.028 -10.508  1.00  0.00     0.016 A 
BRANCH  13  18
ATOM     18  O   UNL     1       7.996  -6.099  -6.491  1.00  0.00    -0.493 OA
ATOM     19  C   UNL     1       8.431  -5.336  -5.370  1.00  0.00     0.278 C 
ENDBRANCH  13  18
BRANCH  14  20
ATOM     20  O   UNL     1       6.096  -4.597  -7.906  1.00  0.00    -0.504 OA
ATOM     21  H   UNL     1       5.678  -3.691  -8.081  1.00  0.00     0.293 HD
ENDBRANCH  14  20
ENDBRANCH   1  12
BRANCH   2  22
ATOM     22  O   UNL     1       9.966  -8.352 -11.183  1.00  0.00    -0.502 OA
ATOM     23  H   UNL     1       9.103  -8.179 -11.684  1.00  0.00     0.293 HD
ENDBRANCH   2  22
BRANCH   6  24
ATOM     24  O   UNL     1      14.805  -8.218 -13.086  1.00  0.00    -0.507 OA
ATOM     25  H   UNL     1      14.710  -8.331 -14.088  1.00  0.00     0.293 HD
ENDBRANCH   6  24
BRANCH   8  26
ATOM     26  O   UNL     1      16.232  -3.788 -11.812  1.00  0.00    -0.508 OA
ATOM     27  H   UNL     1      16.016  -2.823 -11.593  1.00  0.00     0.293 HD
ENDBRANCH   8  26
TORSDOF 6
ENDMDL
MODEL 7
REMARK VINA RESULT:    -5.601     10.879     12.283
REMARK INTER + INTRA:          -7.289
REMARK INTER:                  -6.902
REMARK INTRA:                  -0.387
REMARK UNBOUND:                -0.378
REMARK SMILES COc1cc(-c2oc3cc(O)cc(O)c3c(=O)c2O)ccc1O
REMARK SMILES IDX 6 1 18 2 16 3 17 4 15 5 13 6 12 7 10 8 9 9 8 10 7 11 5 12
REMARK SMILES IDX 3 13 22 14 4 15 21 16 20 17 2 18 1 19 23 20 19 22 14 24
REMARK SMILES IDX 11 26
REMARK H PARENT 23 21 19 23 14 25 11 27
REMARK Flexibility Score: inf
ROOT
ATOM      1  C   UNL     1       9.069   3.452 -18.804  1.00  0.00     0.180 A 
ATOM      2  C   UNL     1       8.601   2.716 -19.910  1.00  0.00     0.208 A 
ATOM      3  C   UNL     1       7.224   2.467 -20.025  1.00  0.00     0.238 A 
ATOM      4  O   UNL     1       6.792   1.819 -21.018  1.00  0.00    -0.285 OA
ATOM      5  C   UNL     1       6.344   2.937 -19.028  1.00  0.00     0.111 A 
ATOM      6  C   UNL     1       4.945   2.727 -19.069  1.00  0.00     0.134 A 
ATOM      7  C   UNL     1       4.138   3.218 -18.032  1.00  0.00     0.093 A 
ATOM      8  C   UNL     1       4.700   3.915 -16.961  1.00  0.00     0.123 A 
ATOM      9  C   UNL     1       6.081   4.128 -16.916  1.00  0.00     0.094 A 
ATOM     10  C   UNL     1       6.903   3.647 -17.939  1.00  0.00     0.146 A 
ATOM     11  O   UNL     1       8.211   3.866 -17.876  1.00  0.00    -0.452 OA
ENDROOT
BRANCH   1  12
ATOM     12  C   UNL     1      10.503   3.771 -18.622  1.00  0.00     0.025 A 
ATOM     13  C   UNL     1      12.391   5.317 -18.794  1.00  0.00     0.161 A 
ATOM     14  C   UNL     1      13.225   4.349 -18.206  1.00  0.00     0.157 A 
ATOM     15  C   UNL     1      11.027   5.022 -18.992  1.00  0.00     0.062 A 
ATOM     16  C   UNL     1      12.698   3.114 -17.819  1.00  0.00     0.051 A 
ATOM     17  C   UNL     1      11.347   2.828 -18.017  1.00  0.00     0.016 A 
BRANCH  13  18
ATOM     18  O   UNL     1      12.944   6.554 -19.163  1.00  0.00    -0.493 OA
ATOM     19  C   UNL     1      12.632   7.797 -18.543  1.00  0.00     0.278 C 
ENDBRANCH  13  18
BRANCH  14  20
ATOM     20  O   UNL     1      14.581   4.598 -17.995  1.00  0.00    -0.504 OA
ATOM     21  H   UNL     1      15.282   4.403 -18.700  1.00  0.00     0.293 HD
ENDBRANCH  14  20
ENDBRANCH   1  12
BRANCH   2  22
ATOM     22  O   UNL     1       9.498   2.219 -20.858  1.00  0.00    -0.502 OA
ATOM     23  H   UNL     1      10.192   1.516 -20.634  1.00  0.00     0.293 HD
ENDBRANCH   2  22
BRANCH   6  24
ATOM     24  O   UNL     1       4.352   2.033 -20.126  1.00  0.00    -0.507 OA
ATOM     25  H   UNL     1       4.666   2.149 -21.082  1.00  0.00     0.293 HD
ENDBRANCH   6  24
BRANCH   8  26
ATOM     26  O   UNL     1       3.875   4.393 -15.945  1.00  0.00    -0.508 OA
ATOM     27  H   UNL     1       3.902   3.998 -15.011  1.00  0.00     0.293 HD
ENDBRANCH   8  26
TORSDOF 6
ENDMDL
MODEL 8
REMARK VINA RESULT:    -5.517      5.416     10.488
REMARK INTER + INTRA:          -7.186
REMARK INTER:                  -6.868
REMARK INTRA:                  -0.318
REMARK UNBOUND:                -0.378
REMARK SMILES COc1cc(-c2oc3cc(O)cc(O)c3c(=O)c2O)ccc1O
REMARK SMILES IDX 6 1 18 2 16 3 17 4 15 5 13 6 12 7 10 8 9 9 8 10 7 11 5 12
REMARK SMILES IDX 3 13 22 14 4 15 21 16 20 17 2 18 1 19 23 20 19 22 14 24
REMARK SMILES IDX 11 26
REMARK H PARENT 23 21 19 23 14 25 11 27
REMARK Flexibility Score: inf
ROOT
ATOM      1  C   UNL     1      13.710  -5.111 -11.398  1.00  0.00     0.180 A 
ATOM      2  C   UNL     1      13.277  -3.876 -11.919  1.00  0.00     0.208 A 
ATOM      3  C   UNL     1      14.227  -3.002 -12.470  1.00  0.00     0.238 A 
ATOM      4  O   UNL     1      13.849  -1.898 -12.949  1.00  0.00    -0.285 OA
ATOM      5  C   UNL     1      15.590  -3.365 -12.472  1.00  0.00     0.111 A 
ATOM      6  C   UNL     1      16.610  -2.540 -13.005  1.00  0.00     0.134 A 
ATOM      7  C   UNL     1      17.945  -2.969 -12.961  1.00  0.00     0.093 A 
ATOM      8  C   UNL     1      18.279  -4.202 -12.398  1.00  0.00     0.123 A 
ATOM      9  C   UNL     1      17.275  -5.022 -11.872  1.00  0.00     0.094 A 
ATOM     10  C   UNL     1      15.940  -4.613 -11.906  1.00  0.00     0.146 A 
ATOM     11  O   UNL     1      15.005  -5.413 -11.405  1.00  0.00    -0.452 OA
ENDROOT
BRANCH   1  12
ATOM     12  C   UNL     1      12.767  -6.094 -10.819  1.00  0.00     0.025 A 
ATOM     13  C   UNL     1      11.265  -6.823  -9.030  1.00  0.00     0.161 A 
ATOM     14  C   UNL     1      10.938  -7.965  -9.783  1.00  0.00     0.157 A 
ATOM     15  C   UNL     1      12.176  -5.887  -9.560  1.00  0.00     0.062 A 
ATOM     16  C   UNL     1      11.509  -8.158 -11.044  1.00  0.00     0.051 A 
ATOM     17  C   UNL     1      12.410  -7.228 -11.563  1.00  0.00     0.016 A 
BRANCH  13  18
ATOM     18  O   UNL     1      10.667  -6.648  -7.772  1.00  0.00    -0.493 OA
ATOM     19  C   UNL     1       9.468  -5.916  -7.540  1.00  0.00     0.278 C 
ENDBRANCH  13  18
BRANCH  14  20
ATOM     20  O   UNL     1      10.043  -8.918  -9.297  1.00  0.00    -0.504 OA
ATOM     21  H   UNL     1      10.355  -9.784  -8.873  1.00  0.00     0.293 HD
ENDBRANCH  14  20
ENDBRANCH   1  12
BRANCH   2  22
ATOM     22  O   UNL     1      11.928  -3.519 -11.860  1.00  0.00    -0.502 OA
ATOM     23  H   UNL     1      11.294  -3.901 -11.168  1.00  0.00     0.293 HD
ENDBRANCH   2  22
BRANCH   6  24
ATOM     24  O   UNL     1      16.309  -1.301 -13.574  1.00  0.00    -0.507 OA
ATOM     25  H   UNL     1      16.171  -1.192 -14.572  1.00  0.00     0.293 HD
ENDBRANCH   6  24
BRANCH   8  26
ATOM     26  O   UNL     1      19.612  -4.604 -12.368  1.00  0.00    -0.508 OA
ATOM     27  H   UNL     1      20.264  -4.332 -13.095  1.00  0.00     0.293 HD
ENDBRANCH   8  26
TORSDOF 6
ENDMDL
MODEL 9
REMARK VINA RESULT:    -5.484     10.618     12.034
REMARK INTER + INTRA:          -7.145
REMARK INTER:                  -6.775
REMARK INTRA:                  -0.370
REMARK UNBOUND:                -0.378
REMARK SMILES COc1cc(-c2oc3cc(O)cc(O)c3c(=O)c2O)ccc1O
REMARK SMILES IDX 6 1 18 2 16 3 17 4 15 5 13 6 12 7 10 8 9 9 8 10 7 11 5 12
REMARK SMILES IDX 3 13 22 14 4 15 21 16 20 17 2 18 1 19 23 20 19 22 14 24
REMARK SMILES IDX 11 26
REMARK H PARENT 23 21 19 23 14 25 11 27
REMARK Flexibility Score: inf
ROOT
ATOM      1  C   UNL     1       8.841   3.324 -18.604  1.00  0.00     0.180 A 
ATOM      2  C   UNL     1       8.330   2.744 -19.781  1.00  0.00     0.208 A 
ATOM      3  C   UNL     1       6.970   2.397 -19.832  1.00  0.00     0.238 A 
ATOM      4  O   UNL     1       6.499   1.888 -20.885  1.00  0.00    -0.285 OA
ATOM      5  C   UNL     1       6.153   2.615 -18.703  1.00  0.00     0.111 A 
ATOM      6  C   UNL     1       4.775   2.290 -18.671  1.00  0.00     0.134 A 
ATOM      7  C   UNL     1       4.032   2.529 -17.505  1.00  0.00     0.093 A 
ATOM      8  C   UNL     1       4.637   3.085 -16.376  1.00  0.00     0.123 A 
ATOM      9  C   UNL     1       5.997   3.408 -16.402  1.00  0.00     0.094 A 
ATOM     10  C   UNL     1       6.755   3.179 -17.553  1.00  0.00     0.146 A 
ATOM     11  O   UNL     1       8.043   3.501 -17.554  1.00  0.00    -0.452 OA
ENDROOT
BRANCH   1  12
ATOM     12  C   UNL     1      10.258   3.734 -18.481  1.00  0.00     0.025 A 
ATOM     13  C   UNL     1      12.556   3.305 -17.762  1.00  0.00     0.161 A 
ATOM     14  C   UNL     1      12.951   4.534 -18.321  1.00  0.00     0.157 A 
ATOM     15  C   UNL     1      11.207   2.909 -17.854  1.00  0.00     0.062 A 
ATOM     16  C   UNL     1      12.011   5.344 -18.964  1.00  0.00     0.051 A 
ATOM     17  C   UNL     1      10.676   4.946 -19.051  1.00  0.00     0.016 A 
BRANCH  13  18
ATOM     18  O   UNL     1      13.524   2.507 -17.131  1.00  0.00    -0.493 OA
ATOM     19  C   UNL     1      13.470   2.094 -15.770  1.00  0.00     0.278 C 
ENDBRANCH  13  18
BRANCH  14  20
ATOM     20  O   UNL     1      14.275   4.967 -18.250  1.00  0.00    -0.504 OA
ATOM     21  H   UNL     1      14.540   5.926 -18.436  1.00  0.00     0.293 HD
ENDBRANCH  14  20
ENDBRANCH   1  12
BRANCH   2  22
ATOM     22  O   UNL     1       9.171   2.494 -20.868  1.00  0.00    -0.502 OA
ATOM     23  H   UNL     1       9.825   3.183 -21.219  1.00  0.00     0.293 HD
ENDBRANCH   2  22
BRANCH   6  24
ATOM     24  O   UNL     1       4.142   1.733 -19.783  1.00  0.00    -0.507 OA
ATOM     25  H   UNL     1       3.244   2.071 -20.110  1.00  0.00     0.293 HD
ENDBRANCH   6  24
BRANCH   8  26
ATOM     26  O   UNL     1       3.875   3.311 -15.231  1.00  0.00    -0.508 OA
ATOM     27  H   UNL     1       3.783   4.237 -14.831  1.00  0.00     0.293 HD
ENDBRANCH   8  26
TORSDOF 6
ENDMDL
