MODEL 1
REMARK VINA RESULT:    -3.446      0.000      0.000
REMARK INTER + INTRA:          -3.446
REMARK INTER:                  -3.446
REMARK INTRA:                   0.000
REMARK UNBOUND:                 0.000
REMARK SMILES CC1(C)O[C@]2(C)CC[C@H]1CC2
REMARK SMILES IDX 1 1 2 2 9 3 10 4 11 5 5 6 4 7 7 8 8 9 6 10 3 11
REMARK H PARENT
REMARK Flexibility Score: inf
ROOT
ATOM      1  C   UNL     1      -8.715  -6.473  11.999  1.00  0.00     0.042 C 
ATOM      2  C   UNL     1      -9.234  -6.277  13.440  1.00  0.00     0.066 C 
ATOM      3  C   UNL     1     -10.678  -5.642  13.431  1.00  0.00     0.021 C 
ATOM      4  C   UNL     1     -11.125  -5.422  14.897  1.00  0.00     0.009 C 
ATOM      5  C   UNL     1     -10.023  -4.642  15.652  1.00  0.00     0.035 C 
ATOM      6  C   UNL     1      -8.879  -4.259  14.669  1.00  0.00     0.066 C 
ATOM      7  O   UNL     1      -8.294  -5.452  14.144  1.00  0.00    -0.369 OA
ATOM      8  C   UNL     1      -9.475  -3.425  13.499  1.00  0.00     0.035 C 
ATOM      9  C   UNL     1     -10.591  -4.235  12.794  1.00  0.00     0.009 C 
ATOM     10  C   UNL     1      -7.796  -3.457  15.397  1.00  0.00     0.042 C 
ATOM     11  C   UNL     1      -9.252  -7.666  14.113  1.00  0.00     0.042 C 
ENDROOT
TORSDOF 0
ENDMDL
MODEL 2
REMARK VINA RESULT:    -3.437      1.279      2.386
REMARK INTER + INTRA:          -3.437
REMARK INTER:                  -3.437
REMARK INTRA:                   0.000
REMARK UNBOUND:                 0.000
REMARK SMILES CC1(C)O[C@]2(C)CC[C@H]1CC2
REMARK SMILES IDX 1 1 2 2 9 3 10 4 11 5 5 6 4 7 7 8 8 9 6 10 3 11
REMARK H PARENT
REMARK Flexibility Score: inf
ROOT
ATOM      1  C   UNL     1     -10.867  -6.889  12.780  1.00  0.00     0.042 C 
ATOM      2  C   UNL     1      -9.680  -5.949  13.085  1.00  0.00     0.066 C 
ATOM      3  C   UNL     1      -9.455  -5.822  14.641  1.00  0.00     0.021 C 
ATOM      4  C   UNL     1      -8.291  -4.832  14.887  1.00  0.00     0.009 C 
ATOM      5  C   UNL     1      -8.566  -3.521  14.110  1.00  0.00     0.035 C 
ATOM      6  C   UNL     1      -9.957  -3.600  13.418  1.00  0.00     0.066 C 
ATOM      7  O   UNL     1      -9.953  -4.677  12.480  1.00  0.00    -0.369 OA
ATOM      8  C   UNL     1     -11.045  -3.868  14.498  1.00  0.00     0.035 C 
ATOM      9  C   UNL     1     -10.711  -5.170  15.266  1.00  0.00     0.009 C 
ATOM     10  C   UNL     1     -10.256  -2.296  12.673  1.00  0.00     0.042 C 
ATOM     11  C   UNL     1      -8.433  -6.549  12.400  1.00  0.00     0.042 C 
ENDROOT
TORSDOF 0
ENDMDL
MODEL 3
REMARK VINA RESULT:    -3.294      1.313      3.132
REMARK INTER + INTRA:          -3.294
REMARK INTER:                  -3.294
REMARK INTRA:                   0.000
REMARK UNBOUND:                 0.000
REMARK SMILES CC1(C)O[C@]2(C)CC[C@H]1CC2
REMARK SMILES IDX 1 1 2 2 9 3 10 4 11 5 5 6 4 7 7 8 8 9 6 10 3 11
REMARK H PARENT
REMARK Flexibility Score: inf
ROOT
ATOM      1  C   UNL     1     -10.843  -4.537  11.815  1.00  0.00     0.042 C 
ATOM      2  C   UNL     1     -10.326  -4.081  13.197  1.00  0.00     0.066 C 
ATOM      3  C   UNL     1      -8.775  -4.339  13.325  1.00  0.00     0.021 C 
ATOM      4  C   UNL     1      -8.324  -3.912  14.742  1.00  0.00     0.009 C 
ATOM      5  C   UNL     1      -9.234  -4.593  15.792  1.00  0.00     0.035 C 
ATOM      6  C   UNL     1     -10.237  -5.547  15.081  1.00  0.00     0.066 C 
ATOM      7  O   UNL     1     -11.068  -4.784  14.204  1.00  0.00    -0.369 OA
ATOM      8  C   UNL     1      -9.439  -6.591  14.248  1.00  0.00     0.035 C 
ATOM      9  C   UNL     1      -8.522  -5.863  13.235  1.00  0.00     0.009 C 
ATOM     10  C   UNL     1     -11.124  -6.253  16.111  1.00  0.00     0.042 C 
ATOM     11  C   UNL     1     -10.642  -2.576  13.331  1.00  0.00     0.042 C 
ENDROOT
TORSDOF 0
ENDMDL
MODEL 4
REMARK VINA RESULT:    -3.260      0.963      3.354
REMARK INTER + INTRA:          -3.260
REMARK INTER:                  -3.260
REMARK INTRA:                   0.000
REMARK UNBOUND:                 0.000
REMARK SMILES CC1(C)O[C@]2(C)CC[C@H]1CC2
REMARK SMILES IDX 1 1 2 2 9 3 10 4 11 5 5 6 4 7 7 8 8 9 6 10 3 11
REMARK H PARENT
REMARK Flexibility Score: inf
ROOT
ATOM      1  C   UNL     1      -8.269  -4.117  15.341  1.00  0.00     0.042 C 
ATOM      2  C   UNL     1      -9.093  -4.362  14.057  1.00  0.00     0.066 C 
ATOM      3  C   UNL     1     -10.368  -5.235  14.373  1.00  0.00     0.021 C 
ATOM      4  C   UNL     1     -11.125  -5.492  13.047  1.00  0.00     0.009 C 
ATOM      5  C   UNL     1     -10.135  -6.053  11.997  1.00  0.00     0.035 C 
ATOM      6  C   UNL     1      -8.737  -6.258  12.648  1.00  0.00     0.066 C 
ATOM      7  O   UNL     1      -8.238  -4.996  13.094  1.00  0.00    -0.369 OA
ATOM      8  C   UNL     1      -8.882  -7.211  13.869  1.00  0.00     0.035 C 
ATOM      9  C   UNL     1      -9.901  -6.622  14.875  1.00  0.00     0.009 C 
ATOM     10  C   UNL     1      -7.755  -6.845  11.628  1.00  0.00     0.042 C 
ATOM     11  C   UNL     1      -9.500  -2.980  13.503  1.00  0.00     0.042 C 
ENDROOT
TORSDOF 0
ENDMDL
MODEL 5
REMARK VINA RESULT:    -3.152      1.361      3.441
REMARK INTER + INTRA:          -3.152
REMARK INTER:                  -3.152
REMARK INTRA:                   0.000
REMARK UNBOUND:                 0.000
REMARK SMILES CC1(C)O[C@]2(C)CC[C@H]1CC2
REMARK SMILES IDX 1 1 2 2 9 3 10 4 11 5 5 6 4 7 7 8 8 9 6 10 3 11
REMARK H PARENT
REMARK Flexibility Score: inf
ROOT
ATOM      1  C   UNL     1     -10.951  -4.045  13.999  1.00  0.00     0.042 C 
ATOM      2  C   UNL     1      -9.751  -4.969  13.695  1.00  0.00     0.066 C 
ATOM      3  C   UNL     1      -9.847  -5.543  12.229  1.00  0.00     0.021 C 
ATOM      4  C   UNL     1      -8.651  -6.498  11.998  1.00  0.00     0.009 C 
ATOM      5  C   UNL     1      -8.597  -7.530  13.150  1.00  0.00     0.035 C 
ATOM      6  C   UNL     1      -9.809  -7.322  14.103  1.00  0.00     0.066 C 
ATOM      7  O   UNL     1      -9.736  -6.017  14.677  1.00  0.00    -0.369 OA
ATOM      8  C   UNL     1     -11.125  -7.446  13.282  1.00  0.00     0.035 C 
ATOM      9  C   UNL     1     -11.120  -6.416  12.126  1.00  0.00     0.009 C 
ATOM     10  C   UNL     1      -9.786  -8.359  15.230  1.00  0.00     0.042 C 
ATOM     11  C   UNL     1      -8.469  -4.128  13.870  1.00  0.00     0.042 C 
ENDROOT
TORSDOF 0
ENDMDL
MODEL 6
REMARK VINA RESULT:    -3.148      8.378     10.056
REMARK INTER + INTRA:          -3.148
REMARK INTER:                  -3.148
REMARK INTRA:                   0.000
REMARK UNBOUND:                 0.000
REMARK SMILES CC1(C)O[C@]2(C)CC[C@H]1CC2
REMARK SMILES IDX 1 1 2 2 9 3 10 4 11 5 5 6 4 7 7 8 8 9 6 10 3 11
REMARK H PARENT
REMARK Flexibility Score: inf
ROOT
ATOM      1  C   UNL     1      -6.622  -6.125  22.479  1.00  0.00     0.042 C 
ATOM      2  C   UNL     1      -8.001  -5.507  22.796  1.00  0.00     0.066 C 
ATOM      3  C   UNL     1      -8.126  -5.182  24.335  1.00  0.00     0.021 C 
ATOM      4  C   UNL     1      -9.542  -4.615  24.601  1.00  0.00     0.009 C 
ATOM      5  C   UNL     1     -10.596  -5.577  24.002  1.00  0.00     0.035 C 
ATOM      6  C   UNL     1      -9.890  -6.833  23.414  1.00  0.00     0.066 C 
ATOM      7  O   UNL     1      -9.013  -6.428  22.362  1.00  0.00    -0.369 OA
ATOM      8  C   UNL     1      -9.059  -7.518  24.537  1.00  0.00     0.035 C 
ATOM      9  C   UNL     1      -8.041  -6.510  25.124  1.00  0.00     0.009 C 
ATOM     10  C   UNL     1     -10.925  -7.810  22.847  1.00  0.00     0.042 C 
ATOM     11  C   UNL     1      -8.131  -4.220  21.954  1.00  0.00     0.042 C 
ENDROOT
TORSDOF 0
ENDMDL
MODEL 7
REMARK VINA RESULT:    -2.938      1.367      2.566
REMARK INTER + INTRA:          -2.938
REMARK INTER:                  -2.938
REMARK INTRA:                   0.000
REMARK UNBOUND:                 0.000
REMARK SMILES CC1(C)O[C@]2(C)CC[C@H]1CC2
REMARK SMILES IDX 1 1 2 2 9 3 10 4 11 5 5 6 4 7 7 8 8 9 6 10 3 11
REMARK H PARENT
REMARK Flexibility Score: inf
ROOT
ATOM      1  C   UNL     1      -8.298  -6.028  12.326  1.00  0.00     0.042 C 
ATOM      2  C   UNL     1      -9.533  -5.215  12.770  1.00  0.00     0.066 C 
ATOM      3  C   UNL     1      -9.111  -3.767  13.232  1.00  0.00     0.021 C 
ATOM      4  C   UNL     1     -10.377  -3.018  13.713  1.00  0.00     0.009 C 
ATOM      5  C   UNL     1     -11.123  -3.893  14.749  1.00  0.00     0.035 C 
ATOM      6  C   UNL     1     -10.308  -5.188  15.030  1.00  0.00     0.066 C 
ATOM      7  O   UNL     1     -10.190  -5.939  13.821  1.00  0.00    -0.369 OA
ATOM      8  C   UNL     1      -8.887  -4.793  15.526  1.00  0.00     0.035 C 
ATOM      9  C   UNL     1      -8.193  -3.896  14.472  1.00  0.00     0.009 C 
ATOM     10  C   UNL     1     -11.018  -6.049  16.079  1.00  0.00     0.042 C 
ATOM     11  C   UNL     1     -10.494  -5.144  11.563  1.00  0.00     0.042 C 
ENDROOT
TORSDOF 0
ENDMDL
MODEL 8
REMARK VINA RESULT:    -1.947      1.845      2.848
REMARK INTER + INTRA:          -1.947
REMARK INTER:                  -1.947
REMARK INTRA:                   0.000
REMARK UNBOUND:                 0.000
REMARK SMILES CC1(C)O[C@]2(C)CC[C@H]1CC2
REMARK SMILES IDX 1 1 2 2 9 3 10 4 11 5 5 6 4 7 7 8 8 9 6 10 3 11
REMARK H PARENT
REMARK Flexibility Score: inf
ROOT
ATOM      1  C   UNL     1      -7.460  -7.259  11.777  1.00  0.00     0.042 C 
ATOM      2  C   UNL     1      -8.941  -7.425  12.181  1.00  0.00     0.066 C 
ATOM      3  C   UNL     1      -9.660  -6.023  12.253  1.00  0.00     0.021 C 
ATOM      4  C   UNL     1     -11.122  -6.245  12.711  1.00  0.00     0.009 C 
ATOM      5  C   UNL     1     -11.125  -7.099  14.002  1.00  0.00     0.035 C 
ATOM      6  C   UNL     1      -9.662  -7.372  14.458  1.00  0.00     0.066 C 
ATOM      7  O   UNL     1      -8.984  -8.111  13.442  1.00  0.00    -0.369 OA
ATOM      8  C   UNL     1      -8.937  -6.011  14.670  1.00  0.00     0.035 C 
ATOM      9  C   UNL     1      -8.986  -5.182  13.364  1.00  0.00     0.009 C 
ATOM     10  C   UNL     1      -9.651  -8.188  15.754  1.00  0.00     0.042 C 
ATOM     11  C   UNL     1      -9.608  -8.327  11.121  1.00  0.00     0.042 C 
ENDROOT
TORSDOF 0
ENDMDL
