MODEL 1
REMARK VINA RESULT:    -6.936      0.000      0.000
REMARK INTER + INTRA:          -8.440
REMARK INTER:                  -8.152
REMARK INTRA:                  -0.288
REMARK UNBOUND:                -0.288
REMARK SMILES O=c1cc(-c2ccc(O)c(O)c2)oc2cc(O)cc(O)c12
REMARK SMILES IDX 4 1 3 2 2 3 1 4 21 5 19 6 18 7 16 8 15 9 14 10 13 11 5 12
REMARK SMILES IDX 6 13 7 14 8 15 12 16 10 17 9 18 11 20 20 22 17 24
REMARK H PARENT 9 19 11 21 20 23 17 25
REMARK Flexibility Score: inf
ROOT
ATOM      1  C   UNL     1      -2.091 -20.356  -7.235  1.00  0.00     0.138 A 
ATOM      2  C   UNL     1      -2.195 -21.004  -8.473  1.00  0.00     0.100 A 
ATOM      3  C   UNL     1      -3.291 -20.745  -9.298  1.00  0.00     0.197 A 
ATOM      4  O   UNL     1      -3.384 -21.384 -10.377  1.00  0.00    -0.289 OA
ATOM      5  C   UNL     1      -4.268 -19.803  -8.895  1.00  0.00     0.107 A 
ATOM      6  C   UNL     1      -5.409 -19.432  -9.670  1.00  0.00     0.134 A 
ATOM      7  C   UNL     1      -6.360 -18.561  -9.123  1.00  0.00     0.093 A 
ATOM      8  C   UNL     1      -6.181 -18.002  -7.854  1.00  0.00     0.123 A 
ATOM      9  C   UNL     1      -5.047 -18.318  -7.113  1.00  0.00     0.094 A 
ATOM     10  C   UNL     1      -4.098 -19.211  -7.615  1.00  0.00     0.146 A 
ATOM     11  O   UNL     1      -3.038 -19.500  -6.866  1.00  0.00    -0.456 OA
ENDROOT
BRANCH   1  12
ATOM     12  C   UNL     1      -0.947 -20.592  -6.319  1.00  0.00     0.021 A 
ATOM     13  C   UNL     1      -0.550 -19.575  -5.435  1.00  0.00     0.016 A 
ATOM     14  C   UNL     1       0.520 -19.773  -4.558  1.00  0.00     0.051 A 
ATOM     15  C   UNL     1       1.204 -20.991  -4.540  1.00  0.00     0.157 A 
ATOM     16  C   UNL     1      -0.263 -21.823  -6.288  1.00  0.00     0.062 A 
ATOM     17  C   UNL     1       0.810 -22.024  -5.406  1.00  0.00     0.158 A 
BRANCH  15  18
ATOM     18  O   UNL     1       2.268 -21.159  -3.654  1.00  0.00    -0.504 OA
ATOM     19  H   UNL     1       3.229 -20.996  -3.930  1.00  0.00     0.293 HD
ENDBRANCH  15  18
BRANCH  17  20
ATOM     20  O   UNL     1       1.480 -23.246  -5.385  1.00  0.00    -0.504 OA
ATOM     21  H   UNL     1       2.449 -23.324  -5.669  1.00  0.00     0.293 HD
ENDBRANCH  17  20
ENDBRANCH   1  12
BRANCH   6  22
ATOM     22  O   UNL     1      -5.645 -19.868 -10.977  1.00  0.00    -0.507 OA
ATOM     23  H   UNL     1      -6.264 -19.421 -11.635  1.00  0.00     0.293 HD
ENDBRANCH   6  22
BRANCH   8  24
ATOM     24  O   UNL     1      -7.125 -17.124  -7.326  1.00  0.00    -0.508 OA
ATOM     25  H   UNL     1      -8.036 -17.445  -7.020  1.00  0.00     0.293 HD
ENDBRANCH   8  24
TORSDOF 5
ENDMDL
MODEL 2
REMARK VINA RESULT:    -6.717      2.711      3.948
REMARK INTER + INTRA:          -8.183
REMARK INTER:                  -7.878
REMARK INTRA:                  -0.304
REMARK UNBOUND:                -0.288
REMARK SMILES O=c1cc(-c2ccc(O)c(O)c2)oc2cc(O)cc(O)c12
REMARK SMILES IDX 4 1 3 2 2 3 1 4 21 5 19 6 18 7 16 8 15 9 14 10 13 11 5 12
REMARK SMILES IDX 6 13 7 14 8 15 12 16 10 17 9 18 11 20 20 22 17 24
REMARK H PARENT 9 19 11 21 20 23 17 25
REMARK Flexibility Score: inf
ROOT
ATOM      1  C   UNL     1      -1.932 -22.098  -6.330  1.00  0.00     0.138 A 
ATOM      2  C   UNL     1      -3.290 -21.896  -6.609  1.00  0.00     0.100 A 
ATOM      3  C   UNL     1      -3.662 -21.156  -7.732  1.00  0.00     0.197 A 
ATOM      4  O   UNL     1      -4.887 -20.945  -7.924  1.00  0.00    -0.289 OA
ATOM      5  C   UNL     1      -2.667 -20.647  -8.601  1.00  0.00     0.107 A 
ATOM      6  C   UNL     1      -2.929 -19.908  -9.795  1.00  0.00     0.134 A 
ATOM      7  C   UNL     1      -1.859 -19.371 -10.521  1.00  0.00     0.093 A 
ATOM      8  C   UNL     1      -0.536 -19.595 -10.130  1.00  0.00     0.123 A 
ATOM      9  C   UNL     1      -0.269 -20.356  -8.996  1.00  0.00     0.094 A 
ATOM     10  C   UNL     1      -1.315 -20.877  -8.230  1.00  0.00     0.146 A 
ATOM     11  O   UNL     1      -1.016 -21.582  -7.144  1.00  0.00    -0.456 OA
ENDROOT
BRANCH   1  12
ATOM     12  C   UNL     1      -1.480 -22.879  -5.151  1.00  0.00     0.021 A 
ATOM     13  C   UNL     1      -2.267 -22.889  -3.988  1.00  0.00     0.016 A 
ATOM     14  C   UNL     1      -1.869 -23.621  -2.866  1.00  0.00     0.051 A 
ATOM     15  C   UNL     1      -0.684 -24.363  -2.890  1.00  0.00     0.157 A 
ATOM     16  C   UNL     1      -0.294 -23.638  -5.175  1.00  0.00     0.062 A 
ATOM     17  C   UNL     1       0.106 -24.375  -4.050  1.00  0.00     0.158 A 
BRANCH  15  18
ATOM     18  O   UNL     1      -0.312 -25.083  -1.755  1.00  0.00    -0.504 OA
ATOM     19  H   UNL     1      -0.286 -26.095  -1.744  1.00  0.00     0.293 HD
ENDBRANCH  15  18
BRANCH  17  20
ATOM     20  O   UNL     1       1.283 -25.123  -4.085  1.00  0.00    -0.504 OA
ATOM     21  H   UNL     1       1.842 -25.271  -3.253  1.00  0.00     0.293 HD
ENDBRANCH  17  20
ENDBRANCH   1  12
BRANCH   6  22
ATOM     22  O   UNL     1      -4.207 -19.693 -10.319  1.00  0.00    -0.507 OA
ATOM     23  H   UNL     1      -4.942 -20.381 -10.355  1.00  0.00     0.293 HD
ENDBRANCH   6  22
BRANCH   8  24
ATOM     24  O   UNL     1       0.522 -19.069 -10.870  1.00  0.00    -0.508 OA
ATOM     25  H   UNL     1       0.374 -18.359 -11.577  1.00  0.00     0.293 HD
ENDBRANCH   8  24
TORSDOF 5
ENDMDL
MODEL 3
REMARK VINA RESULT:    -6.672      1.552      7.233
REMARK INTER + INTRA:          -8.130
REMARK INTER:                  -7.830
REMARK INTRA:                  -0.300
REMARK UNBOUND:                -0.288
REMARK SMILES O=c1cc(-c2ccc(O)c(O)c2)oc2cc(O)cc(O)c12
REMARK SMILES IDX 4 1 3 2 2 3 1 4 21 5 19 6 18 7 16 8 15 9 14 10 13 11 5 12
REMARK SMILES IDX 6 13 7 14 8 15 12 16 10 17 9 18 11 20 20 22 17 24
REMARK H PARENT 9 19 11 21 20 23 17 25
REMARK Flexibility Score: inf
ROOT
ATOM      1  C   UNL     1      -2.426 -20.405  -7.153  1.00  0.00     0.138 A 
ATOM      2  C   UNL     1      -1.834 -19.303  -6.521  1.00  0.00     0.100 A 
ATOM      3  C   UNL     1      -0.809 -19.507  -5.595  1.00  0.00     0.197 A 
ATOM      4  O   UNL     1      -0.337 -18.503  -5.004  1.00  0.00    -0.289 OA
ATOM      5  C   UNL     1      -0.351 -20.820  -5.329  1.00  0.00     0.107 A 
ATOM      6  C   UNL     1       0.711 -21.146  -4.431  1.00  0.00     0.134 A 
ATOM      7  C   UNL     1       1.009 -22.490  -4.176  1.00  0.00     0.093 A 
ATOM      8  C   UNL     1       0.324 -23.518  -4.829  1.00  0.00     0.123 A 
ATOM      9  C   UNL     1      -0.678 -23.210  -5.744  1.00  0.00     0.094 A 
ATOM     10  C   UNL     1      -1.023 -21.879  -5.995  1.00  0.00     0.146 A 
ATOM     11  O   UNL     1      -1.999 -21.630  -6.862  1.00  0.00    -0.456 OA
ENDROOT
BRANCH   1  12
ATOM     12  C   UNL     1      -3.517 -20.247  -8.147  1.00  0.00     0.021 A 
ATOM     13  C   UNL     1      -4.479 -19.239  -7.961  1.00  0.00     0.016 A 
ATOM     14  C   UNL     1      -5.513 -19.064  -8.885  1.00  0.00     0.051 A 
ATOM     15  C   UNL     1      -5.598 -19.883 -10.014  1.00  0.00     0.157 A 
ATOM     16  C   UNL     1      -3.600 -21.060  -9.293  1.00  0.00     0.062 A 
ATOM     17  C   UNL     1      -4.636 -20.884 -10.223  1.00  0.00     0.158 A 
BRANCH  15  18
ATOM     18  O   UNL     1      -6.641 -19.685 -10.919  1.00  0.00    -0.504 OA
ATOM     19  H   UNL     1      -6.706 -20.201 -11.787  1.00  0.00     0.293 HD
ENDBRANCH  15  18
BRANCH  17  20
ATOM     20  O   UNL     1      -4.708 -21.696 -11.354  1.00  0.00    -0.504 OA
ATOM     21  H   UNL     1      -5.452 -21.593 -12.034  1.00  0.00     0.293 HD
ENDBRANCH  17  20
ENDBRANCH   1  12
BRANCH   6  22
ATOM     22  O   UNL     1       1.511 -20.198  -3.787  1.00  0.00    -0.507 OA
ATOM     23  H   UNL     1       1.839 -19.339  -4.200  1.00  0.00     0.293 HD
ENDBRANCH   6  22
BRANCH   8  24
ATOM     24  O   UNL     1       0.640 -24.852  -4.580  1.00  0.00    -0.508 OA
ATOM     25  H   UNL     1       0.993 -25.460  -5.310  1.00  0.00     0.293 HD
ENDBRANCH   8  24
TORSDOF 5
ENDMDL
MODEL 4
REMARK VINA RESULT:    -6.667     12.438     14.911
REMARK INTER + INTRA:          -8.125
REMARK INTER:                  -7.851
REMARK INTRA:                  -0.274
REMARK UNBOUND:                -0.288
REMARK SMILES O=c1cc(-c2ccc(O)c(O)c2)oc2cc(O)cc(O)c12
REMARK SMILES IDX 4 1 3 2 2 3 1 4 21 5 19 6 18 7 16 8 15 9 14 10 13 11 5 12
REMARK SMILES IDX 6 13 7 14 8 15 12 16 10 17 9 18 11 20 20 22 17 24
REMARK H PARENT 9 19 11 21 20 23 17 25
REMARK Flexibility Score: inf
ROOT
ATOM      1  C   UNL     1       9.925 -13.442  -5.896  1.00  0.00     0.138 A 
ATOM      2  C   UNL     1      10.985 -13.123  -6.755  1.00  0.00     0.100 A 
ATOM      3  C   UNL     1      11.422 -14.063  -7.690  1.00  0.00     0.197 A 
ATOM      4  O   UNL     1      12.411 -13.768  -8.408  1.00  0.00    -0.289 OA
ATOM      5  C   UNL     1      10.769 -15.315  -7.789  1.00  0.00     0.107 A 
ATOM      6  C   UNL     1      11.104 -16.337  -8.727  1.00  0.00     0.134 A 
ATOM      7  C   UNL     1      10.450 -17.573  -8.663  1.00  0.00     0.093 A 
ATOM      8  C   UNL     1       9.432 -17.804  -7.734  1.00  0.00     0.123 A 
ATOM      9  C   UNL     1       9.063 -16.796  -6.848  1.00  0.00     0.094 A 
ATOM     10  C   UNL     1       9.720 -15.564  -6.863  1.00  0.00     0.146 A 
ATOM     11  O   UNL     1       9.349 -14.636  -5.987  1.00  0.00    -0.456 OA
ENDROOT
BRANCH   1  12
ATOM     12  C   UNL     1       9.417 -12.480  -4.885  1.00  0.00     0.021 A 
ATOM     13  C   UNL     1       9.289 -12.889  -3.547  1.00  0.00     0.016 A 
ATOM     14  C   UNL     1       8.820 -12.002  -2.574  1.00  0.00     0.051 A 
ATOM     15  C   UNL     1       8.482 -10.690  -2.917  1.00  0.00     0.157 A 
ATOM     16  C   UNL     1       9.088 -11.153  -5.224  1.00  0.00     0.062 A 
ATOM     17  C   UNL     1       8.620 -10.261  -4.247  1.00  0.00     0.158 A 
BRANCH  15  18
ATOM     18  O   UNL     1       8.016  -9.828  -1.925  1.00  0.00    -0.504 OA
ATOM     19  H   UNL     1       7.028  -9.676  -1.765  1.00  0.00     0.293 HD
ENDBRANCH  15  18
BRANCH  17  20
ATOM     20  O   UNL     1       8.296  -8.950  -4.594  1.00  0.00    -0.504 OA
ATOM     21  H   UNL     1       7.501  -8.738  -5.185  1.00  0.00     0.293 HD
ENDBRANCH  17  20
ENDBRANCH   1  12
BRANCH   6  22
ATOM     22  O   UNL     1      12.049 -16.185  -9.747  1.00  0.00    -0.507 OA
ATOM     23  H   UNL     1      13.012 -15.921  -9.610  1.00  0.00     0.293 HD
ENDBRANCH   6  22
BRANCH   8  24
ATOM     24  O   UNL     1       8.776 -19.032  -7.689  1.00  0.00    -0.508 OA
ATOM     25  H   UNL     1       8.671 -19.608  -8.517  1.00  0.00     0.293 HD
ENDBRANCH   8  24
TORSDOF 5
ENDMDL
MODEL 5
REMARK VINA RESULT:    -6.623      2.536      7.580
REMARK INTER + INTRA:          -8.073
REMARK INTER:                  -7.806
REMARK INTRA:                  -0.266
REMARK UNBOUND:                -0.288
REMARK SMILES O=c1cc(-c2ccc(O)c(O)c2)oc2cc(O)cc(O)c12
REMARK SMILES IDX 4 1 3 2 2 3 1 4 21 5 19 6 18 7 16 8 15 9 14 10 13 11 5 12
REMARK SMILES IDX 6 13 7 14 8 15 12 16 10 17 9 18 11 20 20 22 17 24
REMARK H PARENT 9 19 11 21 20 23 17 25
REMARK Flexibility Score: inf
ROOT
ATOM      1  C   UNL     1      -0.909 -20.823  -6.627  1.00  0.00     0.138 A 
ATOM      2  C   UNL     1      -0.802 -19.619  -5.919  1.00  0.00     0.100 A 
ATOM      3  C   UNL     1       0.093 -19.522  -4.852  1.00  0.00     0.197 A 
ATOM      4  O   UNL     1       0.125 -18.447  -4.201  1.00  0.00    -0.289 OA
ATOM      5  C   UNL     1       0.911 -20.628  -4.517  1.00  0.00     0.107 A 
ATOM      6  C   UNL     1       1.885 -20.634  -3.472  1.00  0.00     0.134 A 
ATOM      7  C   UNL     1       2.565 -21.820  -3.171  1.00  0.00     0.093 A 
ATOM      8  C   UNL     1       2.352 -22.984  -3.915  1.00  0.00     0.123 A 
ATOM      9  C   UNL     1       1.442 -22.974  -4.968  1.00  0.00     0.094 A 
ATOM     10  C   UNL     1       0.721 -21.816  -5.271  1.00  0.00     0.146 A 
ATOM     11  O   UNL     1      -0.152 -21.856  -6.273  1.00  0.00    -0.456 OA
ENDROOT
BRANCH   1  12
ATOM     12  C   UNL     1      -1.842 -20.981  -7.771  1.00  0.00     0.021 A 
ATOM     13  C   UNL     1      -1.463 -20.510  -9.040  1.00  0.00     0.016 A 
ATOM     14  C   UNL     1      -2.319 -20.651 -10.136  1.00  0.00     0.051 A 
ATOM     15  C   UNL     1      -3.561 -21.274  -9.986  1.00  0.00     0.157 A 
ATOM     16  C   UNL     1      -3.089 -21.619  -7.629  1.00  0.00     0.062 A 
ATOM     17  C   UNL     1      -3.948 -21.763  -8.729  1.00  0.00     0.158 A 
BRANCH  15  18
ATOM     18  O   UNL     1      -4.395 -21.400 -11.098  1.00  0.00    -0.504 OA
ATOM     19  H   UNL     1      -5.151 -22.073 -11.129  1.00  0.00     0.293 HD
ENDBRANCH  15  18
BRANCH  17  20
ATOM     20  O   UNL     1      -5.181 -22.396  -8.576  1.00  0.00    -0.504 OA
ATOM     21  H   UNL     1      -5.361 -23.310  -8.973  1.00  0.00     0.293 HD
ENDBRANCH  17  20
ENDBRANCH   1  12
BRANCH   6  22
ATOM     22  O   UNL     1       2.234 -19.508  -2.720  1.00  0.00    -0.507 OA
ATOM     23  H   UNL     1       2.560 -19.526  -1.767  1.00  0.00     0.293 HD
ENDBRANCH   6  22
BRANCH   8  24
ATOM     24  O   UNL     1       3.046 -24.154  -3.617  1.00  0.00    -0.508 OA
ATOM     25  H   UNL     1       4.012 -24.135  -3.310  1.00  0.00     0.293 HD
ENDBRANCH   8  24
TORSDOF 5
ENDMDL
MODEL 6
REMARK VINA RESULT:    -6.482     12.853     16.001
REMARK INTER + INTRA:          -7.907
REMARK INTER:                  -7.643
REMARK INTRA:                  -0.263
REMARK UNBOUND:                -0.288
REMARK SMILES O=c1cc(-c2ccc(O)c(O)c2)oc2cc(O)cc(O)c12
REMARK SMILES IDX 4 1 3 2 2 3 1 4 21 5 19 6 18 7 16 8 15 9 14 10 13 11 5 12
REMARK SMILES IDX 6 13 7 14 8 15 12 16 10 17 9 18 11 20 20 22 17 24
REMARK H PARENT 9 19 11 21 20 23 17 25
REMARK Flexibility Score: inf
ROOT
ATOM      1  C   UNL     1      10.412 -12.079  -7.171  1.00  0.00     0.138 A 
ATOM      2  C   UNL     1      10.035 -11.766  -5.858  1.00  0.00     0.100 A 
ATOM      3  C   UNL     1       9.534 -12.768  -5.026  1.00  0.00     0.197 A 
ATOM      4  O   UNL     1       9.152 -12.445  -3.872  1.00  0.00    -0.289 OA
ATOM      5  C   UNL     1       9.445 -14.099  -5.501  1.00  0.00     0.107 A 
ATOM      6  C   UNL     1       8.983 -15.210  -4.732  1.00  0.00     0.134 A 
ATOM      7  C   UNL     1       8.846 -16.462  -5.343  1.00  0.00     0.093 A 
ATOM      8  C   UNL     1       9.211 -16.658  -6.678  1.00  0.00     0.123 A 
ATOM      9  C   UNL     1       9.710 -15.593  -7.421  1.00  0.00     0.094 A 
ATOM     10  C   UNL     1       9.825 -14.323  -6.851  1.00  0.00     0.146 A 
ATOM     11  O   UNL     1      10.289 -13.330  -7.603  1.00  0.00    -0.456 OA
ENDROOT
BRANCH   1  12
ATOM     12  C   UNL     1      10.954 -11.053  -8.097  1.00  0.00     0.021 A 
ATOM     13  C   UNL     1      12.344 -10.869  -8.186  1.00  0.00     0.016 A 
ATOM     14  C   UNL     1      12.881  -9.915  -9.055  1.00  0.00     0.051 A 
ATOM     15  C   UNL     1      12.041  -9.137  -9.857  1.00  0.00     0.157 A 
ATOM     16  C   UNL     1      10.113 -10.276  -8.917  1.00  0.00     0.062 A 
ATOM     17  C   UNL     1      10.650  -9.320  -9.792  1.00  0.00     0.158 A 
BRANCH  15  18
ATOM     18  O   UNL     1      12.606  -8.193 -10.714  1.00  0.00    -0.504 OA
ATOM     19  H   UNL     1      12.479  -7.197 -10.576  1.00  0.00     0.293 HD
ENDBRANCH  15  18
BRANCH  17  20
ATOM     20  O   UNL     1       9.808  -8.555 -10.598  1.00  0.00    -0.504 OA
ATOM     21  H   UNL     1       9.710  -8.741 -11.589  1.00  0.00     0.293 HD
ENDBRANCH  17  20
ENDBRANCH   1  12
BRANCH   6  22
ATOM     22  O   UNL     1       8.667 -15.143  -3.371  1.00  0.00    -0.507 OA
ATOM     23  H   UNL     1       8.690 -14.305  -2.811  1.00  0.00     0.293 HD
ENDBRANCH   6  22
BRANCH   8  24
ATOM     24  O   UNL     1       9.087 -17.912  -7.271  1.00  0.00    -0.508 OA
ATOM     25  H   UNL     1       8.313 -18.530  -7.050  1.00  0.00     0.293 HD
ENDBRANCH   8  24
TORSDOF 5
ENDMDL
MODEL 7
REMARK VINA RESULT:    -6.462      2.394      6.908
REMARK INTER + INTRA:          -7.884
REMARK INTER:                  -7.621
REMARK INTRA:                  -0.263
REMARK UNBOUND:                -0.288
REMARK SMILES O=c1cc(-c2ccc(O)c(O)c2)oc2cc(O)cc(O)c12
REMARK SMILES IDX 4 1 3 2 2 3 1 4 21 5 19 6 18 7 16 8 15 9 14 10 13 11 5 12
REMARK SMILES IDX 6 13 7 14 8 15 12 16 10 17 9 18 11 20 20 22 17 24
REMARK H PARENT 9 19 11 21 20 23 17 25
REMARK Flexibility Score: inf
ROOT
ATOM      1  C   UNL     1      -0.856 -20.703  -6.547  1.00  0.00     0.138 A 
ATOM      2  C   UNL     1      -0.084 -21.750  -6.026  1.00  0.00     0.100 A 
ATOM      3  C   UNL     1       0.759 -21.512  -4.939  1.00  0.00     0.197 A 
ATOM      4  O   UNL     1       1.480 -22.458  -4.531  1.00  0.00    -0.289 OA
ATOM      5  C   UNL     1       0.801 -20.227  -4.349  1.00  0.00     0.107 A 
ATOM      6  C   UNL     1       1.596 -19.877  -3.215  1.00  0.00     0.134 A 
ATOM      7  C   UNL     1       1.629 -18.546  -2.781  1.00  0.00     0.093 A 
ATOM      8  C   UNL     1       0.851 -17.564  -3.401  1.00  0.00     0.123 A 
ATOM      9  C   UNL     1       0.034 -17.906  -4.475  1.00  0.00     0.094 A 
ATOM     10  C   UNL     1       0.005 -19.218  -4.954  1.00  0.00     0.146 A 
ATOM     11  O   UNL     1      -0.775 -19.497  -5.994  1.00  0.00    -0.456 OA
ENDROOT
BRANCH   1  12
ATOM     12  C   UNL     1      -1.771 -20.899  -7.699  1.00  0.00     0.021 A 
ATOM     13  C   UNL     1      -1.377 -20.464  -8.975  1.00  0.00     0.016 A 
ATOM     14  C   UNL     1      -2.216 -20.643 -10.078  1.00  0.00     0.051 A 
ATOM     15  C   UNL     1      -3.457 -21.268  -9.928  1.00  0.00     0.157 A 
ATOM     16  C   UNL     1      -3.017 -21.540  -7.555  1.00  0.00     0.062 A 
ATOM     17  C   UNL     1      -3.860 -21.722  -8.662  1.00  0.00     0.158 A 
BRANCH  15  18
ATOM     18  O   UNL     1      -4.274 -21.431 -11.047  1.00  0.00    -0.504 OA
ATOM     19  H   UNL     1      -4.417 -20.690 -11.722  1.00  0.00     0.293 HD
ENDBRANCH  15  18
BRANCH  17  20
ATOM     20  O   UNL     1      -5.091 -22.357  -8.508  1.00  0.00    -0.504 OA
ATOM     21  H   UNL     1      -5.462 -22.976  -9.220  1.00  0.00     0.293 HD
ENDBRANCH  17  20
ENDBRANCH   1  12
BRANCH   6  22
ATOM     22  O   UNL     1       2.349 -20.792  -2.473  1.00  0.00    -0.507 OA
ATOM     23  H   UNL     1       2.194 -21.018  -1.503  1.00  0.00     0.293 HD
ENDBRANCH   6  22
BRANCH   8  24
ATOM     24  O   UNL     1       0.879 -16.247  -2.951  1.00  0.00    -0.508 OA
ATOM     25  H   UNL     1       0.507 -15.987  -2.044  1.00  0.00     0.293 HD
ENDBRANCH   8  24
TORSDOF 5
ENDMDL
MODEL 8
REMARK VINA RESULT:    -6.382      2.390      3.574
REMARK INTER + INTRA:          -7.790
REMARK INTER:                  -7.497
REMARK INTRA:                  -0.293
REMARK UNBOUND:                -0.288
REMARK SMILES O=c1cc(-c2ccc(O)c(O)c2)oc2cc(O)cc(O)c12
REMARK SMILES IDX 4 1 3 2 2 3 1 4 21 5 19 6 18 7 16 8 15 9 14 10 13 11 5 12
REMARK SMILES IDX 6 13 7 14 8 15 12 16 10 17 9 18 11 20 20 22 17 24
REMARK H PARENT 9 19 11 21 20 23 17 25
REMARK Flexibility Score: inf
ROOT
ATOM      1  C   UNL     1      -0.823 -22.168  -6.174  1.00  0.00     0.138 A 
ATOM      2  C   UNL     1      -2.146 -22.538  -5.896  1.00  0.00     0.100 A 
ATOM      3  C   UNL     1      -3.176 -22.089  -6.723  1.00  0.00     0.197 A 
ATOM      4  O   UNL     1      -4.357 -22.392  -6.415  1.00  0.00    -0.289 OA
ATOM      5  C   UNL     1      -2.875 -21.295  -7.855  1.00  0.00     0.107 A 
ATOM      6  C   UNL     1      -3.840 -20.809  -8.790  1.00  0.00     0.134 A 
ATOM      7  C   UNL     1      -3.433 -19.949  -9.816  1.00  0.00     0.093 A 
ATOM      8  C   UNL     1      -2.088 -19.604  -9.979  1.00  0.00     0.123 A 
ATOM      9  C   UNL     1      -1.133 -20.114  -9.104  1.00  0.00     0.094 A 
ATOM     10  C   UNL     1      -1.512 -20.946  -8.048  1.00  0.00     0.146 A 
ATOM     11  O   UNL     1      -0.570 -21.395  -7.225  1.00  0.00    -0.456 OA
ENDROOT
BRANCH   1  12
ATOM     12  C   UNL     1       0.312 -22.619  -5.330  1.00  0.00     0.021 A 
ATOM     13  C   UNL     1       0.384 -23.965  -4.932  1.00  0.00     0.016 A 
ATOM     14  C   UNL     1       1.445 -24.418  -4.143  1.00  0.00     0.051 A 
ATOM     15  C   UNL     1       2.456 -23.539  -3.747  1.00  0.00     0.157 A 
ATOM     16  C   UNL     1       1.341 -21.740  -4.939  1.00  0.00     0.062 A 
ATOM     17  C   UNL     1       2.408 -22.194  -4.149  1.00  0.00     0.158 A 
BRANCH  15  18
ATOM     18  O   UNL     1       3.502 -24.019  -2.959  1.00  0.00    -0.504 OA
ATOM     19  H   UNL     1       4.473 -23.849  -3.191  1.00  0.00     0.293 HD
ENDBRANCH  15  18
BRANCH  17  20
ATOM     20  O   UNL     1       3.421 -21.315  -3.767  1.00  0.00    -0.504 OA
ATOM     21  H   UNL     1       3.219 -20.361  -3.492  1.00  0.00     0.293 HD
ENDBRANCH  17  20
ENDBRANCH   1  12
BRANCH   6  22
ATOM     22  O   UNL     1      -5.195 -21.153  -8.767  1.00  0.00    -0.507 OA
ATOM     23  H   UNL     1      -5.593 -21.969  -9.205  1.00  0.00     0.293 HD
ENDBRANCH   6  22
BRANCH   8  24
ATOM     24  O   UNL     1      -1.691 -18.761 -11.014  1.00  0.00    -0.508 OA
ATOM     25  H   UNL     1      -1.693 -19.069 -11.980  1.00  0.00     0.293 HD
ENDBRANCH   8  24
TORSDOF 5
ENDMDL
MODEL 9
REMARK VINA RESULT:    -6.379      3.247      7.064
REMARK INTER + INTRA:          -7.786
REMARK INTER:                  -7.474
REMARK INTRA:                  -0.312
REMARK UNBOUND:                -0.288
REMARK SMILES O=c1cc(-c2ccc(O)c(O)c2)oc2cc(O)cc(O)c12
REMARK SMILES IDX 4 1 3 2 2 3 1 4 21 5 19 6 18 7 16 8 15 9 14 10 13 11 5 12
REMARK SMILES IDX 6 13 7 14 8 15 12 16 10 17 9 18 11 20 20 22 17 24
REMARK H PARENT 9 19 11 21 20 23 17 25
REMARK Flexibility Score: inf
ROOT
ATOM      1  C   UNL     1      -1.118 -21.282  -6.897  1.00  0.00     0.138 A 
ATOM      2  C   UNL     1      -2.298 -21.489  -6.170  1.00  0.00     0.100 A 
ATOM      3  C   UNL     1      -2.263 -22.248  -4.999  1.00  0.00     0.197 A 
ATOM      4  O   UNL     1      -3.348 -22.462  -4.400  1.00  0.00    -0.289 OA
ATOM      5  C   UNL     1      -1.032 -22.771  -4.536  1.00  0.00     0.107 A 
ATOM      6  C   UNL     1      -0.870 -23.530  -3.336  1.00  0.00     0.134 A 
ATOM      7  C   UNL     1       0.382 -24.079  -3.033  1.00  0.00     0.093 A 
ATOM      8  C   UNL     1       1.490 -23.848  -3.853  1.00  0.00     0.123 A 
ATOM      9  C   UNL     1       1.353 -23.068  -4.997  1.00  0.00     0.094 A 
ATOM     10  C   UNL     1       0.110 -22.535  -5.347  1.00  0.00     0.146 A 
ATOM     11  O   UNL     1       0.019 -21.811  -6.458  1.00  0.00    -0.456 OA
ENDROOT
BRANCH   1  12
ATOM     12  C   UNL     1      -1.096 -20.481  -8.147  1.00  0.00     0.021 A 
ATOM     13  C   UNL     1      -2.118 -19.546  -8.385  1.00  0.00     0.016 A 
ATOM     14  C   UNL     1      -2.119 -18.775  -9.551  1.00  0.00     0.051 A 
ATOM     15  C   UNL     1      -1.095 -18.915 -10.492  1.00  0.00     0.157 A 
ATOM     16  C   UNL     1      -0.060 -20.610  -9.092  1.00  0.00     0.062 A 
ATOM     17  C   UNL     1      -0.058 -19.834 -10.262  1.00  0.00     0.158 A 
BRANCH  15  18
ATOM     18  O   UNL     1      -1.122 -18.132 -11.646  1.00  0.00    -0.504 OA
ATOM     19  H   UNL     1      -1.812 -18.272 -12.375  1.00  0.00     0.293 HD
ENDBRANCH  15  18
BRANCH  17  20
ATOM     20  O   UNL     1       0.972 -19.970 -11.191  1.00  0.00    -0.504 OA
ATOM     21  H   UNL     1       1.197 -20.867 -11.606  1.00  0.00     0.293 HD
ENDBRANCH  17  20
ENDBRANCH   1  12
BRANCH   6  22
ATOM     22  O   UNL     1      -1.890 -23.754  -2.407  1.00  0.00    -0.507 OA
ATOM     23  H   UNL     1      -2.835 -23.414  -2.490  1.00  0.00     0.293 HD
ENDBRANCH   6  22
BRANCH   8  24
ATOM     24  O   UNL     1       2.734 -24.386  -3.533  1.00  0.00    -0.508 OA
ATOM     25  H   UNL     1       3.570 -24.133  -4.047  1.00  0.00     0.293 HD
ENDBRANCH   8  24
TORSDOF 5
ENDMDL
