MODEL 1
REMARK VINA RESULT:    -3.889      0.000      0.000
REMARK INTER + INTRA:          -3.889
REMARK INTER:                  -3.889
REMARK INTRA:                   0.000
REMARK UNBOUND:                 0.000
REMARK SMILES CC1(C)[C@H]2CC[C@]1(C)C(=O)C2
REMARK SMILES IDX 1 1 2 2 4 3 5 4 6 5 7 6 9 7 10 8 11 9 8 10 3 11
REMARK H PARENT
REMARK Flexibility Score: inf
ROOT
ATOM      1  C   UNL     1     115.747 116.007 119.530  1.00  0.00     0.012 C 
ATOM      2  C   UNL     1     115.775 116.126 117.976  1.00  0.00    -0.020 C 
ATOM      3  C   UNL     1     117.014 115.464 117.326  1.00  0.00     0.003 C 
ATOM      4  C   UNL     1     116.875 115.873 115.832  1.00  0.00     0.005 C 
ATOM      5  C   UNL     1     116.284 117.302 115.916  1.00  0.00     0.015 C 
ATOM      6  C   UNL     1     116.151 117.524 117.442  1.00  0.00     0.032 C 
ATOM      7  C   UNL     1     117.570 117.640 117.941  1.00  0.00     0.139 C 
ATOM      8  O   UNL     1     118.140 118.676 118.248  1.00  0.00    -0.299 OA
ATOM      9  C   UNL     1     118.205 116.285 117.895  1.00  0.00     0.080 C 
ATOM     10  C   UNL     1     115.227 118.680 117.844  1.00  0.00     0.020 C 
ATOM     11  C   UNL     1     114.417 115.555 117.466  1.00  0.00     0.012 C 
ENDROOT
TORSDOF 0
ENDMDL
MODEL 2
REMARK VINA RESULT:    -3.881      1.790      3.257
REMARK INTER + INTRA:          -3.881
REMARK INTER:                  -3.881
REMARK INTRA:                   0.000
REMARK UNBOUND:                 0.000
REMARK SMILES CC1(C)[C@H]2CC[C@]1(C)C(=O)C2
REMARK SMILES IDX 1 1 2 2 4 3 5 4 6 5 7 6 9 7 10 8 11 9 8 10 3 11
REMARK H PARENT
REMARK Flexibility Score: inf
ROOT
ATOM      1  C   UNL     1     117.485 117.223 119.523  1.00  0.00     0.012 C 
ATOM      2  C   UNL     1     117.432 117.103 117.969  1.00  0.00    -0.020 C 
ATOM      3  C   UNL     1     116.157 117.717 117.343  1.00  0.00     0.003 C 
ATOM      4  C   UNL     1     116.284 117.313 115.846  1.00  0.00     0.005 C 
ATOM      5  C   UNL     1     116.929 115.907 115.919  1.00  0.00     0.015 C 
ATOM      6  C   UNL     1     117.100 115.691 117.442  1.00  0.00     0.032 C 
ATOM      7  C   UNL     1     115.695 115.522 117.967  1.00  0.00     0.139 C 
ATOM      8  O   UNL     1     115.170 114.466 118.284  1.00  0.00    -0.299 OA
ATOM      9  C   UNL     1     115.009 116.852 117.934  1.00  0.00     0.080 C 
ATOM     10  C   UNL     1     118.073 114.571 117.826  1.00  0.00     0.020 C 
ATOM     11  C   UNL     1     118.758 117.724 117.434  1.00  0.00     0.012 C 
ENDROOT
TORSDOF 0
ENDMDL
MODEL 3
REMARK VINA RESULT:    -3.876      1.418      2.266
REMARK INTER + INTRA:          -3.876
REMARK INTER:                  -3.876
REMARK INTRA:                   0.000
REMARK UNBOUND:                 0.000
REMARK SMILES CC1(C)[C@H]2CC[C@]1(C)C(=O)C2
REMARK SMILES IDX 1 1 2 2 4 3 5 4 6 5 7 6 9 7 10 8 11 9 8 10 3 11
REMARK H PARENT
REMARK Flexibility Score: inf
ROOT
ATOM      1  C   UNL     1     116.036 117.479 119.502  1.00  0.00     0.012 C 
ATOM      2  C   UNL     1     116.133 117.409 117.947  1.00  0.00    -0.020 C 
ATOM      3  C   UNL     1     115.505 116.128 117.344  1.00  0.00     0.003 C 
ATOM      4  C   UNL     1     115.887 116.237 115.840  1.00  0.00     0.005 C 
ATOM      5  C   UNL     1     117.295 116.880 115.884  1.00  0.00     0.015 C 
ATOM      6  C   UNL     1     117.535 117.067 117.402  1.00  0.00     0.032 C 
ATOM      7  C   UNL     1     117.709 115.668 117.940  1.00  0.00     0.139 C 
ATOM      8  O   UNL     1     118.769 115.144 118.246  1.00  0.00    -0.299 OA
ATOM      9  C   UNL     1     116.377 114.985 117.934  1.00  0.00     0.080 C 
ATOM     10  C   UNL     1     118.664 118.042 117.758  1.00  0.00     0.020 C 
ATOM     11  C   UNL     1     115.506 118.730 117.407  1.00  0.00     0.012 C 
ENDROOT
TORSDOF 0
ENDMDL
MODEL 4
REMARK VINA RESULT:    -3.867      1.465      2.341
REMARK INTER + INTRA:          -3.867
REMARK INTER:                  -3.867
REMARK INTRA:                   0.000
REMARK UNBOUND:                 0.000
REMARK SMILES CC1(C)[C@H]2CC[C@]1(C)C(=O)C2
REMARK SMILES IDX 1 1 2 2 4 3 5 4 6 5 7 6 9 7 10 8 11 9 8 10 3 11
REMARK H PARENT
REMARK Flexibility Score: inf
ROOT
ATOM      1  C   UNL     1     117.245 115.755 119.480  1.00  0.00     0.012 C 
ATOM      2  C   UNL     1     117.099 115.789 117.928  1.00  0.00    -0.020 C 
ATOM      3  C   UNL     1     117.708 117.054 117.276  1.00  0.00     0.003 C 
ATOM      4  C   UNL     1     117.278 116.911 115.788  1.00  0.00     0.005 C 
ATOM      5  C   UNL     1     115.871 116.272 115.892  1.00  0.00     0.015 C 
ATOM      6  C   UNL     1     115.680 116.121 117.420  1.00  0.00     0.032 C 
ATOM      7  C   UNL     1     115.525 117.533 117.931  1.00  0.00     0.139 C 
ATOM      8  O   UNL     1     114.476 118.066 118.259  1.00  0.00    -0.299 OA
ATOM      9  C   UNL     1     116.857 118.213 117.867  1.00  0.00     0.080 C 
ATOM     10  C   UNL     1     114.562 115.157 117.835  1.00  0.00     0.020 C 
ATOM     11  C   UNL     1     117.706 114.454 117.398  1.00  0.00     0.012 C 
ENDROOT
TORSDOF 0
ENDMDL
MODEL 5
REMARK VINA RESULT:    -3.766      1.012      2.116
REMARK INTER + INTRA:          -3.766
REMARK INTER:                  -3.766
REMARK INTRA:                   0.000
REMARK UNBOUND:                 0.000
REMARK SMILES CC1(C)[C@H]2CC[C@]1(C)C(=O)C2
REMARK SMILES IDX 1 1 2 2 4 3 5 4 6 5 7 6 9 7 10 8 11 9 8 10 3 11
REMARK H PARENT
REMARK Flexibility Score: inf
ROOT
ATOM      1  C   UNL     1     115.210 117.932 117.976  1.00  0.00     0.012 C 
ATOM      2  C   UNL     1     115.792 116.487 117.892  1.00  0.00    -0.020 C 
ATOM      3  C   UNL     1     116.561 116.054 119.164  1.00  0.00     0.003 C 
ATOM      4  C   UNL     1     117.162 114.681 118.748  1.00  0.00     0.005 C 
ATOM      5  C   UNL     1     117.502 114.890 117.251  1.00  0.00     0.015 C 
ATOM      6  C   UNL     1     117.043 116.346 116.999  1.00  0.00     0.032 C 
ATOM      7  C   UNL     1     118.027 117.198 117.762  1.00  0.00     0.139 C 
ATOM      8  O   UNL     1     118.952 117.833 117.280  1.00  0.00    -0.299 OA
ATOM      9  C   UNL     1     117.751 117.052 119.227  1.00  0.00     0.080 C 
ATOM     10  C   UNL     1     116.874 116.720 115.522  1.00  0.00     0.020 C 
ATOM     11  C   UNL     1     114.599 115.552 117.529  1.00  0.00     0.012 C 
ENDROOT
TORSDOF 0
ENDMDL
MODEL 6
REMARK VINA RESULT:    -3.760      1.813      3.243
REMARK INTER + INTRA:          -3.760
REMARK INTER:                  -3.760
REMARK INTRA:                   0.000
REMARK UNBOUND:                 0.000
REMARK SMILES CC1(C)[C@H]2CC[C@]1(C)C(=O)C2
REMARK SMILES IDX 1 1 2 2 4 3 5 4 6 5 7 6 9 7 10 8 11 9 8 10 3 11
REMARK H PARENT
REMARK Flexibility Score: inf
ROOT
ATOM      1  C   UNL     1     118.070 115.301 118.003  1.00  0.00     0.012 C 
ATOM      2  C   UNL     1     117.464 116.735 117.904  1.00  0.00    -0.020 C 
ATOM      3  C   UNL     1     116.677 117.163 119.166  1.00  0.00     0.003 C 
ATOM      4  C   UNL     1     116.056 118.523 118.735  1.00  0.00     0.005 C 
ATOM      5  C   UNL     1     115.733 118.298 117.237  1.00  0.00     0.015 C 
ATOM      6  C   UNL     1     116.218 116.848 116.999  1.00  0.00     0.032 C 
ATOM      7  C   UNL     1     115.242 115.985 117.760  1.00  0.00     0.139 C 
ATOM      8  O   UNL     1     114.333 115.331 117.273  1.00  0.00    -0.299 OA
ATOM      9  C   UNL     1     115.503 116.146 119.225  1.00  0.00     0.080 C 
ATOM     10  C   UNL     1     116.407 116.468 115.526  1.00  0.00     0.020 C 
ATOM     11  C   UNL     1     118.644 117.687 117.544  1.00  0.00     0.012 C 
ENDROOT
TORSDOF 0
ENDMDL
MODEL 7
REMARK VINA RESULT:    -3.543      1.585      2.818
REMARK INTER + INTRA:          -3.543
REMARK INTER:                  -3.543
REMARK INTRA:                   0.000
REMARK UNBOUND:                 0.000
REMARK SMILES CC1(C)[C@H]2CC[C@]1(C)C(=O)C2
REMARK SMILES IDX 1 1 2 2 4 3 5 4 6 5 7 6 9 7 10 8 11 9 8 10 3 11
REMARK H PARENT
REMARK Flexibility Score: inf
ROOT
ATOM      1  C   UNL     1     117.472 115.003 117.187  1.00  0.00     0.012 C 
ATOM      2  C   UNL     1     116.732 116.376 117.182  1.00  0.00    -0.020 C 
ATOM      3  C   UNL     1     117.442 117.465 118.023  1.00  0.00     0.003 C 
ATOM      4  C   UNL     1     116.427 118.643 117.982  1.00  0.00     0.005 C 
ATOM      5  C   UNL     1     115.056 117.921 118.011  1.00  0.00     0.015 C 
ATOM      6  C   UNL     1     115.460 116.428 118.054  1.00  0.00     0.032 C 
ATOM      7  C   UNL     1     116.054 116.228 119.426  1.00  0.00     0.139 C 
ATOM      8  O   UNL     1     115.505 115.690 120.374  1.00  0.00    -0.299 OA
ATOM      9  C   UNL     1     117.393 116.896 119.469  1.00  0.00     0.080 C 
ATOM     10  C   UNL     1     114.339 115.449 117.685  1.00  0.00     0.020 C 
ATOM     11  C   UNL     1     116.537 116.765 115.685  1.00  0.00     0.012 C 
ENDROOT
TORSDOF 0
ENDMDL
MODEL 8
REMARK VINA RESULT:    -3.537      1.533      3.117
REMARK INTER + INTRA:          -3.537
REMARK INTER:                  -3.537
REMARK INTRA:                   0.000
REMARK UNBOUND:                 0.000
REMARK SMILES CC1(C)[C@H]2CC[C@]1(C)C(=O)C2
REMARK SMILES IDX 1 1 2 2 4 3 5 4 6 5 7 6 9 7 10 8 11 9 8 10 3 11
REMARK H PARENT
REMARK Flexibility Score: inf
ROOT
ATOM      1  C   UNL     1     118.121 117.392 117.007  1.00  0.00     0.012 C 
ATOM      2  C   UNL     1     116.767 116.620 117.063  1.00  0.00    -0.020 C 
ATOM      3  C   UNL     1     115.654 117.376 117.830  1.00  0.00     0.003 C 
ATOM      4  C   UNL     1     114.503 116.331 117.878  1.00  0.00     0.005 C 
ATOM      5  C   UNL     1     115.259 114.988 118.037  1.00  0.00     0.015 C 
ATOM      6  C   UNL     1     116.741 115.433 118.049  1.00  0.00     0.032 C 
ATOM      7  C   UNL     1     116.916 116.156 119.361  1.00  0.00     0.139 C 
ATOM      8  O   UNL     1     117.461 115.711 120.359  1.00  0.00    -0.299 OA
ATOM      9  C   UNL     1     116.214 117.476 119.277  1.00  0.00     0.080 C 
ATOM     10  C   UNL     1     117.751 114.308 117.791  1.00  0.00     0.020 C 
ATOM     11  C   UNL     1     116.394 116.277 115.589  1.00  0.00     0.012 C 
ENDROOT
TORSDOF 0
ENDMDL
MODEL 9
REMARK VINA RESULT:    -3.512      1.205      2.626
REMARK INTER + INTRA:          -3.512
REMARK INTER:                  -3.512
REMARK INTRA:                   0.000
REMARK UNBOUND:                 0.000
REMARK SMILES CC1(C)[C@H]2CC[C@]1(C)C(=O)C2
REMARK SMILES IDX 1 1 2 2 4 3 5 4 6 5 7 6 9 7 10 8 11 9 8 10 3 11
REMARK H PARENT
REMARK Flexibility Score: inf
ROOT
ATOM      1  C   UNL     1     115.737 118.246 117.286  1.00  0.00     0.012 C 
ATOM      2  C   UNL     1     116.471 116.876 117.166  1.00  0.00    -0.020 C 
ATOM      3  C   UNL     1     115.751 115.720 117.902  1.00  0.00     0.003 C 
ATOM      4  C   UNL     1     116.763 114.547 117.767  1.00  0.00     0.005 C 
ATOM      5  C   UNL     1     118.135 115.257 117.870  1.00  0.00     0.015 C 
ATOM      6  C   UNL     1     117.736 116.743 118.041  1.00  0.00     0.032 C 
ATOM      7  C   UNL     1     117.130 116.824 119.420  1.00  0.00     0.139 C 
ATOM      8  O   UNL     1     117.673 117.274 120.417  1.00  0.00    -0.299 OA
ATOM      9  C   UNL     1     115.789 116.160 119.393  1.00  0.00     0.080 C 
ATOM     10  C   UNL     1     118.863 117.746 117.769  1.00  0.00     0.020 C 
ATOM     11  C   UNL     1     116.678 116.619 115.642  1.00  0.00     0.012 C 
ENDROOT
TORSDOF 0
ENDMDL
