MODEL 1
REMARK VINA RESULT:    -3.730      0.000      0.000
REMARK INTER + INTRA:          -5.744
REMARK INTER:                  -5.257
REMARK INTRA:                  -0.487
REMARK UNBOUND:                -0.487
REMARK SMILES CCCCCCCCC(=O)[O-]
REMARK SMILES IDX 6 1 7 2 8 3 9 4 10 5 11 6 5 7 4 8 3 9 2 10 1 11
REMARK H PARENT
REMARK Flexibility Score: inf
ROOT
ATOM      1  C   UNL     1       6.484   5.635   8.345  1.00  0.00     0.000 C 
ENDROOT
BRANCH   1   2
ATOM      2  C   UNL     1       5.353   4.656   8.694  1.00  0.00     0.006 C 
BRANCH   2   3
ATOM      3  C   UNL     1       4.024   5.395   8.872  1.00  0.00     0.053 C 
BRANCH   3   4
ATOM      4  C   UNL     1       3.110   5.114   7.720  1.00  0.00     0.041 C 
ATOM      5  O   UNL     1       1.862   5.192   7.869  1.00  0.00    -0.550 OA
ATOM      6  O   UNL     1       3.635   4.718   6.497  1.00  0.00    -0.550 OA
ENDBRANCH   3   4
ENDBRANCH   2   3
ENDBRANCH   1   2
BRANCH   1   7
ATOM      7  C   UNL     1       7.438   5.088   7.269  1.00  0.00     0.000 C 
BRANCH   7   8
ATOM      8  C   UNL     1       7.795   3.595   7.413  1.00  0.00    -0.000 C 
BRANCH   8   9
ATOM      9  C   UNL     1       9.289   3.300   7.652  1.00  0.00    -0.000 C 
BRANCH   9  10
ATOM     10  C   UNL     1       9.802   3.653   9.059  1.00  0.00    -0.003 C 
ATOM     11  C   UNL     1       9.078   2.888  10.166  1.00  0.00     0.004 C 
ENDBRANCH   9  10
ENDBRANCH   8   9
ENDBRANCH   7   8
ENDBRANCH   1   7
TORSDOF 7
ENDMDL
MODEL 2
REMARK VINA RESULT:    -3.686     13.321     16.029
REMARK INTER + INTRA:          -5.681
REMARK INTER:                  -5.147
REMARK INTRA:                  -0.534
REMARK UNBOUND:                -0.487
REMARK SMILES CCCCCCCCC(=O)[O-]
REMARK SMILES IDX 6 1 7 2 8 3 9 4 10 5 11 6 5 7 4 8 3 9 2 10 1 11
REMARK H PARENT
REMARK Flexibility Score: inf
ROOT
ATOM      1  C   UNL     1      -6.634  -5.116   8.692  1.00  0.00     0.000 C 
ENDROOT
BRANCH   1   2
ATOM      2  C   UNL     1      -5.539  -4.057   8.883  1.00  0.00     0.006 C 
BRANCH   2   3
ATOM      3  C   UNL     1      -4.174  -4.714   9.101  1.00  0.00     0.053 C 
BRANCH   3   4
ATOM      4  C   UNL     1      -3.230  -4.340   8.001  1.00  0.00     0.041 C 
ATOM      5  O   UNL     1      -2.002  -4.199   8.240  1.00  0.00    -0.550 OA
ATOM      6  O   UNL     1      -3.715  -4.099   6.721  1.00  0.00    -0.550 OA
ENDBRANCH   3   4
ENDBRANCH   2   3
ENDBRANCH   1   2
BRANCH   1   7
ATOM      7  C   UNL     1      -7.482  -4.880   7.430  1.00  0.00     0.000 C 
BRANCH   7   8
ATOM      8  C   UNL     1      -7.811  -3.403   7.133  1.00  0.00    -0.000 C 
BRANCH   8   9
ATOM      9  C   UNL     1      -9.237  -2.960   7.517  1.00  0.00    -0.000 C 
BRANCH   9  10
ATOM     10  C   UNL     1      -9.381  -2.410   8.946  1.00  0.00    -0.003 C 
ATOM     11  C   UNL     1     -10.124  -3.364   9.880  1.00  0.00     0.004 C 
ENDBRANCH   9  10
ENDBRANCH   8   9
ENDBRANCH   7   8
ENDBRANCH   1   7
TORSDOF 7
ENDMDL
MODEL 3
REMARK VINA RESULT:    -3.679      2.404      4.660
REMARK INTER + INTRA:          -5.672
REMARK INTER:                  -4.984
REMARK INTRA:                  -0.688
REMARK UNBOUND:                -0.487
REMARK SMILES CCCCCCCCC(=O)[O-]
REMARK SMILES IDX 6 1 7 2 8 3 9 4 10 5 11 6 5 7 4 8 3 9 2 10 1 11
REMARK H PARENT
REMARK Flexibility Score: inf
ROOT
ATOM      1  C   UNL     1       8.092   2.313   7.632  1.00  0.00     0.000 C 
ENDROOT
BRANCH   1   2
ATOM      2  C   UNL     1       9.080   3.219   6.885  1.00  0.00     0.006 C 
BRANCH   2   3
ATOM      3  C   UNL     1       8.785   3.229   5.382  1.00  0.00     0.053 C 
BRANCH   3   4
ATOM      4  C   UNL     1       7.809   4.313   5.047  1.00  0.00     0.041 C 
ATOM      5  O   UNL     1       6.573   4.069   5.028  1.00  0.00    -0.550 OA
ATOM      6  O   UNL     1       8.265   5.580   4.706  1.00  0.00    -0.550 OA
ENDBRANCH   3   4
ENDBRANCH   2   3
ENDBRANCH   1   2
BRANCH   1   7
ATOM      7  C   UNL     1       7.154   3.094   8.569  1.00  0.00     0.000 C 
BRANCH   7   8
ATOM      8  C   UNL     1       7.524   4.577   8.772  1.00  0.00    -0.000 C 
BRANCH   8   9
ATOM      9  C   UNL     1       6.477   5.589   8.267  1.00  0.00    -0.000 C 
BRANCH   9  10
ATOM     10  C   UNL     1       5.045   5.038   8.157  1.00  0.00    -0.003 C 
ATOM     11  C   UNL     1       4.151   5.470   9.317  1.00  0.00     0.004 C 
ENDBRANCH   9  10
ENDBRANCH   8   9
ENDBRANCH   7   8
ENDBRANCH   1   7
TORSDOF 7
ENDMDL
MODEL 4
REMARK VINA RESULT:    -3.634      1.303      1.821
REMARK INTER + INTRA:          -5.608
REMARK INTER:                  -5.396
REMARK INTRA:                  -0.212
REMARK UNBOUND:                -0.487
REMARK SMILES CCCCCCCCC(=O)[O-]
REMARK SMILES IDX 6 1 7 2 8 3 9 4 10 5 11 6 5 7 4 8 3 9 2 10 1 11
REMARK H PARENT
REMARK Flexibility Score: inf
ROOT
ATOM      1  C   UNL     1       5.318   4.699   8.784  1.00  0.00     0.000 C 
ENDROOT
BRANCH   1   2
ATOM      2  C   UNL     1       4.089   5.493   9.249  1.00  0.00     0.006 C 
BRANCH   2   3
ATOM      3  C   UNL     1       2.969   5.430   8.206  1.00  0.00     0.053 C 
BRANCH   3   4
ATOM      4  C   UNL     1       1.822   4.615   8.718  1.00  0.00     0.041 C 
ATOM      5  O   UNL     1       0.948   4.183   7.922  1.00  0.00    -0.550 OA
ATOM      6  O   UNL     1       1.692   4.376  10.080  1.00  0.00    -0.550 OA
ENDBRANCH   3   4
ENDBRANCH   2   3
ENDBRANCH   1   2
BRANCH   1   7
ATOM      7  C   UNL     1       6.441   5.600   8.240  1.00  0.00     0.000 C 
BRANCH   7   8
ATOM      8  C   UNL     1       7.756   4.868   7.901  1.00  0.00    -0.000 C 
BRANCH   8   9
ATOM      9  C   UNL     1       8.194   3.800   8.923  1.00  0.00    -0.000 C 
BRANCH   9  10
ATOM     10  C   UNL     1       9.663   3.895   9.367  1.00  0.00    -0.003 C 
ATOM     11  C   UNL     1       9.930   3.192  10.697  1.00  0.00     0.004 C 
ENDBRANCH   9  10
ENDBRANCH   8   9
ENDBRANCH   7   8
ENDBRANCH   1   7
TORSDOF 7
ENDMDL
MODEL 5
REMARK VINA RESULT:    -3.633     13.451     15.974
REMARK INTER + INTRA:          -5.606
REMARK INTER:                  -5.251
REMARK INTRA:                  -0.356
REMARK UNBOUND:                -0.487
REMARK SMILES CCCCCCCCC(=O)[O-]
REMARK SMILES IDX 6 1 7 2 8 3 9 4 10 5 11 6 5 7 4 8 3 9 2 10 1 11
REMARK H PARENT
REMARK Flexibility Score: inf
ROOT
ATOM      1  C   UNL     1      -6.052  -3.114   9.106  1.00  0.00     0.000 C 
ENDROOT
BRANCH   1   2
ATOM      2  C   UNL     1      -5.662  -4.577   8.852  1.00  0.00     0.006 C 
BRANCH   2   3
ATOM      3  C   UNL     1      -4.318  -4.907   9.506  1.00  0.00     0.053 C 
BRANCH   3   4
ATOM      4  C   UNL     1      -3.211  -4.817   8.502  1.00  0.00     0.041 C 
ATOM      5  O   UNL     1      -3.475  -4.745   7.273  1.00  0.00    -0.550 OA
ATOM      6  O   UNL     1      -1.887  -4.864   8.921  1.00  0.00    -0.550 OA
ENDBRANCH   3   4
ENDBRANCH   2   3
ENDBRANCH   1   2
BRANCH   1   7
ATOM      7  C   UNL     1      -7.392  -2.730   8.455  1.00  0.00     0.000 C 
BRANCH   7   8
ATOM      8  C   UNL     1      -8.533  -3.746   8.664  1.00  0.00    -0.000 C 
BRANCH   8   9
ATOM      9  C   UNL     1      -9.572  -3.354   9.734  1.00  0.00    -0.000 C 
BRANCH   9  10
ATOM     10  C   UNL     1      -9.436  -1.919  10.271  1.00  0.00    -0.003 C 
ATOM     11  C   UNL     1      -9.875  -1.785  11.728  1.00  0.00     0.004 C 
ENDBRANCH   9  10
ENDBRANCH   8   9
ENDBRANCH   7   8
ENDBRANCH   1   7
TORSDOF 7
ENDMDL
MODEL 6
REMARK VINA RESULT:    -3.608     12.276     13.899
REMARK INTER + INTRA:          -5.571
REMARK INTER:                  -5.098
REMARK INTRA:                  -0.473
REMARK UNBOUND:                -0.487
REMARK SMILES CCCCCCCCC(=O)[O-]
REMARK SMILES IDX 6 1 7 2 8 3 9 4 10 5 11 6 5 7 4 8 3 9 2 10 1 11
REMARK H PARENT
REMARK Flexibility Score: inf
ROOT
ATOM      1  C   UNL     1      -4.371  -4.801   9.425  1.00  0.00     0.000 C 
ENDROOT
BRANCH   1   2
ATOM      2  C   UNL     1      -5.597  -3.962   9.038  1.00  0.00     0.006 C 
BRANCH   2   3
ATOM      3  C   UNL     1      -6.806  -4.857   8.751  1.00  0.00     0.053 C 
BRANCH   3   4
ATOM      4  C   UNL     1      -6.951  -5.086   7.278  1.00  0.00     0.041 C 
ATOM      5  O   UNL     1      -7.501  -6.135   6.852  1.00  0.00    -0.550 OA
ATOM      6  O   UNL     1      -6.433  -4.164   6.377  1.00  0.00    -0.550 OA
ENDBRANCH   3   4
ENDBRANCH   2   3
ENDBRANCH   1   2
BRANCH   1   7
ATOM      7  C   UNL     1      -3.343  -4.919   8.286  1.00  0.00     0.000 C 
BRANCH   7   8
ATOM      8  C   UNL     1      -1.874  -4.719   8.711  1.00  0.00    -0.000 C 
BRANCH   8   9
ATOM      9  C   UNL     1      -1.551  -3.342   9.325  1.00  0.00    -0.000 C 
BRANCH   9  10
ATOM     10  C   UNL     1      -1.296  -3.354  10.841  1.00  0.00    -0.003 C 
ATOM     11  C   UNL     1      -2.171  -2.358  11.600  1.00  0.00     0.004 C 
ENDBRANCH   9  10
ENDBRANCH   8   9
ENDBRANCH   7   8
ENDBRANCH   1   7
TORSDOF 7
ENDMDL
MODEL 7
REMARK VINA RESULT:    -3.554      2.982      5.645
REMARK INTER + INTRA:          -5.495
REMARK INTER:                  -5.037
REMARK INTRA:                  -0.458
REMARK UNBOUND:                -0.487
REMARK SMILES CCCCCCCCC(=O)[O-]
REMARK SMILES IDX 6 1 7 2 8 3 9 4 10 5 11 6 5 7 4 8 3 9 2 10 1 11
REMARK H PARENT
REMARK Flexibility Score: inf
ROOT
ATOM      1  C   UNL     1       4.180   5.337   8.848  1.00  0.00     0.000 C 
ENDROOT
BRANCH   1   2
ATOM      2  C   UNL     1       5.535   4.691   8.527  1.00  0.00     0.006 C 
BRANCH   2   3
ATOM      3  C   UNL     1       6.610   5.757   8.296  1.00  0.00     0.053 C 
BRANCH   3   4
ATOM      4  C   UNL     1       7.497   5.369   7.155  1.00  0.00     0.041 C 
ATOM      5  O   UNL     1       8.227   4.346   7.240  1.00  0.00    -0.550 OA
ATOM      6  O   UNL     1       7.556   6.165   6.018  1.00  0.00    -0.550 OA
ENDBRANCH   3   4
ENDBRANCH   2   3
ENDBRANCH   1   2
BRANCH   1   7
ATOM      7  C   UNL     1       3.401   4.582   9.939  1.00  0.00     0.000 C 
BRANCH   7   8
ATOM      8  C   UNL     1       1.889   4.429   9.671  1.00  0.00    -0.000 C 
BRANCH   8   9
ATOM      9  C   UNL     1       1.471   4.538   8.192  1.00  0.00    -0.000 C 
BRANCH   9  10
ATOM     10  C   UNL     1       1.218   3.192   7.490  1.00  0.00    -0.003 C 
ATOM     11  C   UNL     1       2.466   2.632   6.810  1.00  0.00     0.004 C 
ENDBRANCH   9  10
ENDBRANCH   8   9
ENDBRANCH   7   8
ENDBRANCH   1   7
TORSDOF 7
ENDMDL
MODEL 8
REMARK VINA RESULT:    -3.545     14.545     16.041
REMARK INTER + INTRA:          -5.483
REMARK INTER:                  -4.798
REMARK INTRA:                  -0.685
REMARK UNBOUND:                -0.487
REMARK SMILES CCCCCCCCC(=O)[O-]
REMARK SMILES IDX 6 1 7 2 8 3 9 4 10 5 11 6 5 7 4 8 3 9 2 10 1 11
REMARK H PARENT
REMARK Flexibility Score: inf
ROOT
ATOM      1  C   UNL     1      -7.991  -1.882   7.509  1.00  0.00     0.000 C 
ENDROOT
BRANCH   1   2
ATOM      2  C   UNL     1      -9.080  -2.709   6.811  1.00  0.00     0.006 C 
BRANCH   2   3
ATOM      3  C   UNL     1      -8.694  -3.011   5.360  1.00  0.00     0.053 C 
BRANCH   3   4
ATOM      4  C   UNL     1      -7.766  -4.184   5.299  1.00  0.00     0.041 C 
ATOM      5  O   UNL     1      -8.226  -5.356   5.293  1.00  0.00    -0.550 OA
ATOM      6  O   UNL     1      -6.391  -3.984   5.297  1.00  0.00    -0.550 OA
ENDBRANCH   3   4
ENDBRANCH   2   3
ENDBRANCH   1   2
BRANCH   1   7
ATOM      7  C   UNL     1      -7.480  -2.537   8.804  1.00  0.00     0.000 C 
BRANCH   7   8
ATOM      8  C   UNL     1      -7.831  -4.031   8.961  1.00  0.00    -0.000 C 
BRANCH   8   9
ATOM      9  C   UNL     1      -6.671  -5.009   8.685  1.00  0.00    -0.000 C 
BRANCH   9  10
ATOM     10  C   UNL     1      -5.278  -4.359   8.623  1.00  0.00    -0.003 C 
ATOM     11  C   UNL     1      -4.311  -4.925   9.661  1.00  0.00     0.004 C 
ENDBRANCH   9  10
ENDBRANCH   8   9
ENDBRANCH   7   8
ENDBRANCH   1   7
TORSDOF 7
ENDMDL
MODEL 9
REMARK VINA RESULT:    -3.529      1.774      3.089
REMARK INTER + INTRA:          -5.459
REMARK INTER:                  -4.737
REMARK INTRA:                  -0.722
REMARK UNBOUND:                -0.487
REMARK SMILES CCCCCCCCC(=O)[O-]
REMARK SMILES IDX 6 1 7 2 8 3 9 4 10 5 11 6 5 7 4 8 3 9 2 10 1 11
REMARK H PARENT
REMARK Flexibility Score: inf
ROOT
ATOM      1  C   UNL     1       8.358   3.875   9.146  1.00  0.00     0.000 C 
ENDROOT
BRANCH   1   2
ATOM      2  C   UNL     1       6.902   3.834   8.660  1.00  0.00     0.006 C 
BRANCH   2   3
ATOM      3  C   UNL     1       6.382   5.244   8.368  1.00  0.00     0.053 C 
BRANCH   3   4
ATOM      4  C   UNL     1       4.885   5.253   8.327  1.00  0.00     0.041 C 
ATOM      5  O   UNL     1       4.280   4.994   7.253  1.00  0.00    -0.550 OA
ATOM      6  O   UNL     1       4.160   5.595   9.461  1.00  0.00    -0.550 OA
ENDBRANCH   3   4
ENDBRANCH   2   3
ENDBRANCH   1   2
BRANCH   1   7
ATOM      7  C   UNL     1       9.357   3.387   8.083  1.00  0.00     0.000 C 
BRANCH   7   8
ATOM      8  C   UNL     1       8.723   2.674   6.871  1.00  0.00    -0.000 C 
BRANCH   8   9
ATOM      9  C   UNL     1       8.942   3.369   5.513  1.00  0.00    -0.000 C 
BRANCH   9  10
ATOM     10  C   UNL     1       7.742   4.186   5.004  1.00  0.00    -0.003 C 
ATOM     11  C   UNL     1       6.446   3.379   4.963  1.00  0.00     0.004 C 
ENDBRANCH   9  10
ENDBRANCH   8   9
ENDBRANCH   7   8
ENDBRANCH   1   7
TORSDOF 7
ENDMDL
