MODEL 1
REMARK VINA RESULT:    -2.064      0.000      0.000
REMARK INTER + INTRA:          -3.560
REMARK INTER:                  -2.787
REMARK INTRA:                  -0.772
REMARK UNBOUND:                -0.772
REMARK SMILES CCCCCCCC(C)=O
REMARK SMILES IDX 5 1 4 2 3 3 2 4 1 5 6 6 7 7 8 8 10 9 9 10
REMARK H PARENT
REMARK Flexibility Score: inf
ROOT
ATOM      1  C   UNL     1     132.564 144.503 138.783  1.00  0.00     0.000 C 
ENDROOT
BRANCH   1   2
ATOM      2  C   UNL     1     132.120 143.771 137.511  1.00  0.00     0.000 C 
BRANCH   2   3
ATOM      3  C   UNL     1     131.481 142.416 137.851  1.00  0.00    -0.000 C 
BRANCH   3   4
ATOM      4  C   UNL     1     130.446 142.519 138.982  1.00  0.00    -0.003 C 
ATOM      5  C   UNL     1     129.006 142.508 138.469  1.00  0.00     0.004 C 
ENDBRANCH   3   4
ENDBRANCH   2   3
ENDBRANCH   1   2
BRANCH   1   6
ATOM      6  C   UNL     1     132.009 145.935 138.817  1.00  0.00     0.008 C 
BRANCH   6   7
ATOM      7  C   UNL     1     130.910 146.154 137.769  1.00  0.00     0.075 C 
BRANCH   7   8
ATOM      8  C   UNL     1     129.537 146.178 138.393  1.00  0.00     0.129 C 
ATOM      9  O   UNL     1     128.550 146.205 137.674  1.00  0.00    -0.300 OA
ATOM     10  C   UNL     1     129.356 146.157 139.882  1.00  0.00     0.087 C 
ENDBRANCH   7   8
ENDBRANCH   6   7
ENDBRANCH   1   6
TORSDOF 6
ENDMDL
MODEL 2
REMARK VINA RESULT:    -2.041      1.416      3.025
REMARK INTER + INTRA:          -3.529
REMARK INTER:                  -2.727
REMARK INTRA:                  -0.803
REMARK UNBOUND:                -0.772
REMARK SMILES CCCCCCCC(C)=O
REMARK SMILES IDX 5 1 4 2 3 3 2 4 1 5 6 6 7 7 8 8 10 9 9 10
REMARK H PARENT
REMARK Flexibility Score: inf
ROOT
ATOM      1  C   UNL     1     130.638 146.207 138.049  1.00  0.00     0.000 C 
ENDROOT
BRANCH   1   2
ATOM      2  C   UNL     1     131.950 146.190 138.842  1.00  0.00     0.000 C 
BRANCH   2   3
ATOM      3  C   UNL     1     132.579 144.788 138.834  1.00  0.00    -0.000 C 
BRANCH   3   4
ATOM      4  C   UNL     1     132.168 143.963 137.606  1.00  0.00    -0.003 C 
ATOM      5  C   UNL     1     132.126 142.461 137.888  1.00  0.00     0.004 C 
ENDBRANCH   3   4
ENDBRANCH   2   3
ENDBRANCH   1   2
BRANCH   1   6
ATOM      6  C   UNL     1     129.425 146.186 138.990  1.00  0.00     0.008 C 
BRANCH   6   7
ATOM      7  C   UNL     1     128.436 145.068 138.632  1.00  0.00     0.075 C 
BRANCH   7   8
ATOM      8  C   UNL     1     128.835 143.749 139.243  1.00  0.00     0.129 C 
ATOM      9  O   UNL     1     129.481 143.737 140.280  1.00  0.00    -0.300 OA
ATOM     10  C   UNL     1     128.447 142.446 138.610  1.00  0.00     0.087 C 
ENDBRANCH   7   8
ENDBRANCH   6   7
ENDBRANCH   1   6
TORSDOF 6
ENDMDL
MODEL 3
REMARK VINA RESULT:    -1.942      1.957      4.474
REMARK INTER + INTRA:          -3.395
REMARK INTER:                  -2.720
REMARK INTRA:                  -0.675
REMARK UNBOUND:                -0.772
REMARK SMILES CCCCCCCC(C)=O
REMARK SMILES IDX 5 1 4 2 3 3 2 4 1 5 6 6 7 7 8 8 10 9 9 10
REMARK H PARENT
REMARK Flexibility Score: inf
ROOT
ATOM      1  C   UNL     1     128.269 143.883 139.100  1.00  0.00     0.000 C 
ENDROOT
BRANCH   1   2
ATOM      2  C   UNL     1     129.299 144.985 139.373  1.00  0.00     0.000 C 
BRANCH   2   3
ATOM      3  C   UNL     1     129.286 146.039 138.255  1.00  0.00    -0.000 C 
BRANCH   3   4
ATOM      4  C   UNL     1     130.690 146.338 137.709  1.00  0.00    -0.003 C 
ATOM      5  C   UNL     1     131.757 146.368 138.803  1.00  0.00     0.004 C 
ENDBRANCH   3   4
ENDBRANCH   2   3
ENDBRANCH   1   2
BRANCH   1   6
ATOM      6  C   UNL     1     128.949 142.607 138.583  1.00  0.00     0.008 C 
BRANCH   6   7
ATOM      7  C   UNL     1     130.446 142.573 138.921  1.00  0.00     0.075 C 
BRANCH   7   8
ATOM      8  C   UNL     1     131.284 142.205 137.723  1.00  0.00     0.129 C 
ATOM      9  O   UNL     1     130.997 141.214 137.069  1.00  0.00    -0.300 OA
ATOM     10  C   UNL     1     132.460 143.038 137.308  1.00  0.00     0.087 C 
ENDBRANCH   7   8
ENDBRANCH   6   7
ENDBRANCH   1   6
TORSDOF 6
ENDMDL
MODEL 4
REMARK VINA RESULT:    -1.941      1.604      2.739
REMARK INTER + INTRA:          -3.394
REMARK INTER:                  -3.009
REMARK INTRA:                  -0.385
REMARK UNBOUND:                -0.772
REMARK SMILES CCCCCCCC(C)=O
REMARK SMILES IDX 5 1 4 2 3 3 2 4 1 5 6 6 7 7 8 8 10 9 9 10
REMARK H PARENT
REMARK Flexibility Score: inf
ROOT
ATOM      1  C   UNL     1     132.737 144.989 138.973  1.00  0.00     0.000 C 
ENDROOT
BRANCH   1   2
ATOM      2  C   UNL     1     132.362 143.998 137.865  1.00  0.00     0.000 C 
BRANCH   2   3
ATOM      3  C   UNL     1     133.427 142.899 137.728  1.00  0.00    -0.000 C 
BRANCH   3   4
ATOM      4  C   UNL     1     134.792 143.325 138.290  1.00  0.00    -0.003 C 
ATOM      5  C   UNL     1     135.951 142.983 137.354  1.00  0.00     0.004 C 
ENDBRANCH   3   4
ENDBRANCH   2   3
ENDBRANCH   1   2
BRANCH   1   6
ATOM      6  C   UNL     1     131.848 146.241 138.917  1.00  0.00     0.008 C 
BRANCH   6   7
ATOM      7  C   UNL     1     130.891 146.216 137.719  1.00  0.00     0.075 C 
BRANCH   7   8
ATOM      8  C   UNL     1     129.447 146.215 138.153  1.00  0.00     0.129 C 
ATOM      9  O   UNL     1     128.579 146.544 137.359  1.00  0.00    -0.300 OA
ATOM     10  C   UNL     1     129.051 145.808 139.542  1.00  0.00     0.087 C 
ENDBRANCH   7   8
ENDBRANCH   6   7
ENDBRANCH   1   6
TORSDOF 6
ENDMDL
MODEL 5
REMARK VINA RESULT:    -1.934      9.972     11.683
REMARK INTER + INTRA:          -3.385
REMARK INTER:                  -2.531
REMARK INTRA:                  -0.854
REMARK UNBOUND:                -0.772
REMARK SMILES CCCCCCCC(C)=O
REMARK SMILES IDX 5 1 4 2 3 3 2 4 1 5 6 6 7 7 8 8 10 9 9 10
REMARK H PARENT
REMARK Flexibility Score: inf
ROOT
ATOM      1  C   UNL     1     142.616 144.463 138.668  1.00  0.00     0.000 C 
ENDROOT
BRANCH   1   2
ATOM      2  C   UNL     1     143.653 145.578 138.848  1.00  0.00     0.000 C 
BRANCH   2   3
ATOM      3  C   UNL     1     143.536 146.623 137.728  1.00  0.00    -0.000 C 
BRANCH   3   4
ATOM      4  C   UNL     1     143.279 148.039 138.266  1.00  0.00    -0.003 C 
ATOM      5  C   UNL     1     143.216 148.090 139.792  1.00  0.00     0.004 C 
ENDBRANCH   3   4
ENDBRANCH   2   3
ENDBRANCH   1   2
BRANCH   1   6
ATOM      6  C   UNL     1     141.556 144.857 137.629  1.00  0.00     0.008 C 
BRANCH   6   7
ATOM      7  C   UNL     1     140.156 144.968 138.246  1.00  0.00     0.075 C 
BRANCH   7   8
ATOM      8  C   UNL     1     139.977 146.258 139.005  1.00  0.00     0.129 C 
ATOM      9  O   UNL     1     139.810 147.300 138.389  1.00  0.00    -0.300 OA
ATOM     10  C   UNL     1     139.989 146.290 140.504  1.00  0.00     0.087 C 
ENDBRANCH   7   8
ENDBRANCH   6   7
ENDBRANCH   1   6
TORSDOF 6
ENDMDL
MODEL 6
REMARK VINA RESULT:    -1.933      1.142      2.686
REMARK INTER + INTRA:          -3.383
REMARK INTER:                  -2.686
REMARK INTRA:                  -0.697
REMARK UNBOUND:                -0.772
REMARK SMILES CCCCCCCC(C)=O
REMARK SMILES IDX 5 1 4 2 3 3 2 4 1 5 6 6 7 7 8 8 10 9 9 10
REMARK H PARENT
REMARK Flexibility Score: inf
ROOT
ATOM      1  C   UNL     1     129.076 143.725 139.380  1.00  0.00     0.000 C 
ENDROOT
BRANCH   1   2
ATOM      2  C   UNL     1     128.877 142.507 138.471  1.00  0.00     0.000 C 
BRANCH   2   3
ATOM      3  C   UNL     1     130.209 141.781 138.227  1.00  0.00    -0.000 C 
BRANCH   3   4
ATOM      4  C   UNL     1     131.428 142.665 138.527  1.00  0.00    -0.003 C 
ATOM      5  C   UNL     1     132.184 143.081 137.265  1.00  0.00     0.004 C 
ENDBRANCH   3   4
ENDBRANCH   2   3
ENDBRANCH   1   2
BRANCH   1   6
ATOM      6  C   UNL     1     128.602 145.013 138.689  1.00  0.00     0.008 C 
BRANCH   6   7
ATOM      7  C   UNL     1     129.417 146.237 139.127  1.00  0.00     0.075 C 
BRANCH   7   8
ATOM      8  C   UNL     1     130.711 146.352 138.361  1.00  0.00     0.129 C 
ATOM      9  O   UNL     1     130.686 146.407 137.141  1.00  0.00    -0.300 OA
ATOM     10  C   UNL     1     132.033 146.410 139.067  1.00  0.00     0.087 C 
ENDBRANCH   7   8
ENDBRANCH   6   7
ENDBRANCH   1   6
TORSDOF 6
ENDMDL
MODEL 7
REMARK VINA RESULT:    -1.923      1.466      3.322
REMARK INTER + INTRA:          -3.370
REMARK INTER:                  -2.587
REMARK INTRA:                  -0.783
REMARK UNBOUND:                -0.772
REMARK SMILES CCCCCCCC(C)=O
REMARK SMILES IDX 5 1 4 2 3 3 2 4 1 5 6 6 7 7 8 8 10 9 9 10
REMARK H PARENT
REMARK Flexibility Score: inf
ROOT
ATOM      1  C   UNL     1     132.727 144.792 138.901  1.00  0.00     0.000 C 
ENDROOT
BRANCH   1   2
ATOM      2  C   UNL     1     132.100 146.191 138.907  1.00  0.00     0.000 C 
BRANCH   2   3
ATOM      3  C   UNL     1     130.778 146.204 138.125  1.00  0.00    -0.000 C 
BRANCH   3   4
ATOM      4  C   UNL     1     129.548 146.236 139.044  1.00  0.00    -0.003 C 
ATOM      5  C   UNL     1     128.287 145.699 138.367  1.00  0.00     0.004 C 
ENDBRANCH   3   4
ENDBRANCH   2   3
ENDBRANCH   1   2
BRANCH   1   6
ATOM      6  C   UNL     1     132.096 143.909 137.815  1.00  0.00     0.008 C 
BRANCH   6   7
ATOM      7  C   UNL     1     131.709 142.523 138.349  1.00  0.00     0.075 C 
BRANCH   7   8
ATOM      8  C   UNL     1     130.308 142.507 138.906  1.00  0.00     0.129 C 
ATOM      9  O   UNL     1     129.368 142.275 138.161  1.00  0.00    -0.300 OA
ATOM     10  C   UNL     1     130.043 142.761 140.360  1.00  0.00     0.087 C 
ENDBRANCH   7   8
ENDBRANCH   6   7
ENDBRANCH   1   6
TORSDOF 6
ENDMDL
MODEL 8
REMARK VINA RESULT:    -1.908      2.256      3.756
REMARK INTER + INTRA:          -3.350
REMARK INTER:                  -2.544
REMARK INTRA:                  -0.806
REMARK UNBOUND:                -0.772
REMARK SMILES CCCCCCCC(C)=O
REMARK SMILES IDX 5 1 4 2 3 3 2 4 1 5 6 6 7 7 8 8 10 9 9 10
REMARK H PARENT
REMARK Flexibility Score: inf
ROOT
ATOM      1  C   UNL     1     129.398 146.271 137.921  1.00  0.00     0.000 C 
ENDROOT
BRANCH   1   2
ATOM      2  C   UNL     1     130.903 146.314 137.629  1.00  0.00     0.000 C 
BRANCH   2   3
ATOM      3  C   UNL     1     131.676 145.400 138.591  1.00  0.00    -0.000 C 
BRANCH   3   4
ATOM      4  C   UNL     1     132.764 146.150 139.373  1.00  0.00    -0.003 C 
ATOM      5  C   UNL     1     132.320 147.545 139.816  1.00  0.00     0.004 C 
ENDBRANCH   3   4
ENDBRANCH   2   3
ENDBRANCH   1   2
BRANCH   1   6
ATOM      6  C   UNL     1     129.042 145.066 138.804  1.00  0.00     0.008 C 
BRANCH   6   7
ATOM      7  C   UNL     1     128.212 145.473 140.029  1.00  0.00     0.075 C 
BRANCH   7   8
ATOM      8  C   UNL     1     129.057 146.145 141.081  1.00  0.00     0.129 C 
ATOM      9  O   UNL     1     129.909 145.499 141.672  1.00  0.00    -0.300 OA
ATOM     10  C   UNL     1     128.882 147.598 141.412  1.00  0.00     0.087 C 
ENDBRANCH   7   8
ENDBRANCH   6   7
ENDBRANCH   1   6
TORSDOF 6
ENDMDL
MODEL 9
REMARK VINA RESULT:    -1.890      1.787      3.278
REMARK INTER + INTRA:          -3.325
REMARK INTER:                  -2.547
REMARK INTRA:                  -0.779
REMARK UNBOUND:                -0.772
REMARK SMILES CCCCCCCC(C)=O
REMARK SMILES IDX 5 1 4 2 3 3 2 4 1 5 6 6 7 7 8 8 10 9 9 10
REMARK H PARENT
REMARK Flexibility Score: inf
ROOT
ATOM      1  C   UNL     1     129.401 146.221 138.946  1.00  0.00     0.000 C 
ENDROOT
BRANCH   1   2
ATOM      2  C   UNL     1     128.388 145.121 138.609  1.00  0.00     0.000 C 
BRANCH   2   3
ATOM      3  C   UNL     1     128.647 143.860 139.448  1.00  0.00    -0.000 C 
BRANCH   3   4
ATOM      4  C   UNL     1     128.900 142.616 138.583  1.00  0.00    -0.003 C 
ATOM      5  C   UNL     1     129.720 141.548 139.307  1.00  0.00     0.004 C 
ENDBRANCH   3   4
ENDBRANCH   2   3
ENDBRANCH   1   2
BRANCH   1   6
ATOM      6  C   UNL     1     130.575 146.213 137.956  1.00  0.00     0.008 C 
BRANCH   6   7
ATOM      7  C   UNL     1     131.916 145.947 138.654  1.00  0.00     0.075 C 
BRANCH   7   8
ATOM      8  C   UNL     1     132.219 144.473 138.744  1.00  0.00     0.129 C 
ATOM      9  O   UNL     1     132.351 143.952 139.840  1.00  0.00    -0.300 OA
ATOM     10  C   UNL     1     132.352 143.627 137.512  1.00  0.00     0.087 C 
ENDBRANCH   7   8
ENDBRANCH   6   7
ENDBRANCH   1   6
TORSDOF 6
ENDMDL
