MODEL 1
REMARK VINA RESULT:    -1.581      0.000      0.000
REMARK INTER + INTRA:          -1.960
REMARK INTER:                  -1.812
REMARK INTRA:                  -0.149
REMARK UNBOUND:                -0.149
REMARK SMILES O=C([O-])C=Cc1ccc(O)cc1
REMARK SMILES IDX 6 1 7 2 12 3 8 4 11 5 9 6 5 7 4 8 2 9 1 10 3 11 10 12
REMARK H PARENT 10 13
REMARK Flexibility Score: inf
ROOT
ATOM      1  C   UNL     1     -18.441   5.934  21.007  1.00  0.00    -0.025 A 
ATOM      2  C   UNL     1     -18.381   7.338  21.125  1.00  0.00     0.012 A 
ATOM      3  C   UNL     1     -17.451   5.274  20.260  1.00  0.00     0.012 A 
ATOM      4  C   UNL     1     -17.365   8.058  20.488  1.00  0.00     0.047 A 
ATOM      5  C   UNL     1     -16.438   5.998  19.624  1.00  0.00     0.047 A 
ATOM      6  C   UNL     1     -16.394   7.393  19.736  1.00  0.00     0.115 A 
ENDROOT
BRANCH   1   7
ATOM      7  C   UNL     1     -19.490   5.121  21.670  1.00  0.00     0.010 C 
ATOM      8  C   UNL     1     -19.339   3.829  21.995  1.00  0.00     0.025 C 
BRANCH   8   9
ATOM      9  C   UNL     1     -20.399   3.057  22.665  1.00  0.00     0.064 C 
ATOM     10  O   UNL     1     -21.104   2.230  22.028  1.00  0.00    -0.545 OA
ATOM     11  O   UNL     1     -20.625   3.243  24.021  1.00  0.00    -0.545 OA
ENDBRANCH   8   9
ENDBRANCH   1   7
BRANCH   6  12
ATOM     12  O   UNL     1     -15.389   8.125  19.107  1.00  0.00    -0.508 OA
ATOM     13  H   UNL     1     -15.191   8.014  18.119  1.00  0.00     0.293 HD
ENDBRANCH   6  12
TORSDOF 3
ENDMDL
MODEL 2
REMARK VINA RESULT:    -0.674      7.569      8.490
REMARK INTER + INTRA:          -0.921
REMARK INTER:                  -0.781
REMARK INTRA:                  -0.140
REMARK UNBOUND:                -0.149
REMARK SMILES O=C([O-])C=Cc1ccc(O)cc1
REMARK SMILES IDX 6 1 7 2 12 3 8 4 11 5 9 6 5 7 4 8 2 9 1 10 3 11 10 12
REMARK H PARENT 10 13
REMARK Flexibility Score: inf
ROOT
ATOM      1  C   UNL     1     -18.718   2.862  14.359  1.00  0.00    -0.025 A 
ATOM      2  C   UNL     1     -18.355   1.522  14.112  1.00  0.00     0.012 A 
ATOM      3  C   UNL     1     -17.829   3.684  15.072  1.00  0.00     0.012 A 
ATOM      4  C   UNL     1     -17.143   1.018  14.594  1.00  0.00     0.047 A 
ATOM      5  C   UNL     1     -16.618   3.175  15.552  1.00  0.00     0.047 A 
ATOM      6  C   UNL     1     -16.273   1.839  15.315  1.00  0.00     0.115 A 
ENDROOT
BRANCH   1   7
ATOM      7  C   UNL     1     -19.986   3.450  13.862  1.00  0.00     0.010 C 
ATOM      8  C   UNL     1     -20.905   2.764  13.168  1.00  0.00     0.025 C 
BRANCH   8   9
ATOM      9  C   UNL     1     -22.159   3.380  12.701  1.00  0.00     0.064 C 
ATOM     10  O   UNL     1     -23.213   2.701  12.582  1.00  0.00    -0.545 OA
ATOM     11  O   UNL     1     -22.179   4.731  12.386  1.00  0.00    -0.545 OA
ENDBRANCH   8   9
ENDBRANCH   1   7
BRANCH   6  12
ATOM     12  O   UNL     1     -15.070   1.322  15.788  1.00  0.00    -0.508 OA
ATOM     13  H   UNL     1     -14.373   0.939  15.158  1.00  0.00     0.293 HD
ENDBRANCH   6  12
TORSDOF 3
ENDMDL
MODEL 3
REMARK VINA RESULT:    -0.625      8.234      8.933
REMARK INTER + INTRA:          -0.865
REMARK INTER:                  -0.728
REMARK INTRA:                  -0.137
REMARK UNBOUND:                -0.149
REMARK SMILES O=C([O-])C=Cc1ccc(O)cc1
REMARK SMILES IDX 6 1 7 2 12 3 8 4 11 5 9 6 5 7 4 8 2 9 1 10 3 11 10 12
REMARK H PARENT 10 13
REMARK Flexibility Score: inf
ROOT
ATOM      1  C   UNL     1     -20.238   2.809  14.029  1.00  0.00    -0.025 A 
ATOM      2  C   UNL     1     -19.519   3.958  14.418  1.00  0.00     0.012 A 
ATOM      3  C   UNL     1     -19.590   1.563  14.054  1.00  0.00     0.012 A 
ATOM      4  C   UNL     1     -18.176   3.855  14.797  1.00  0.00     0.047 A 
ATOM      5  C   UNL     1     -18.248   1.465  14.433  1.00  0.00     0.047 A 
ATOM      6  C   UNL     1     -17.537   2.614  14.804  1.00  0.00     0.115 A 
ENDROOT
BRANCH   1   7
ATOM      7  C   UNL     1     -21.666   2.859  13.629  1.00  0.00     0.010 C 
ATOM      8  C   UNL     1     -22.085   2.840  12.355  1.00  0.00     0.025 C 
BRANCH   8   9
ATOM      9  C   UNL     1     -23.513   2.880  11.996  1.00  0.00     0.064 C 
ATOM     10  O   UNL     1     -24.406   2.941  12.883  1.00  0.00    -0.545 OA
ATOM     11  O   UNL     1     -23.881   2.850  10.658  1.00  0.00    -0.545 OA
ENDBRANCH   8   9
ENDBRANCH   1   7
BRANCH   6  12
ATOM     12  O   UNL     1     -16.200   2.529  15.183  1.00  0.00    -0.508 OA
ATOM     13  H   UNL     1     -15.469   2.328  14.510  1.00  0.00     0.293 HD
ENDBRANCH   6  12
TORSDOF 3
ENDMDL
MODEL 4
REMARK VINA RESULT:     0.250      7.228      8.338
REMARK INTER + INTRA:           0.138
REMARK INTER:                   0.290
REMARK INTRA:                  -0.153
REMARK UNBOUND:                -0.149
REMARK SMILES O=C([O-])C=Cc1ccc(O)cc1
REMARK SMILES IDX 6 1 7 2 12 3 8 4 11 5 9 6 5 7 4 8 2 9 1 10 3 11 10 12
REMARK H PARENT 10 13
REMARK Flexibility Score: inf
ROOT
ATOM      1  C   UNL     1     -17.717   2.715  14.914  1.00  0.00    -0.025 A 
ATOM      2  C   UNL     1     -18.361   3.962  14.778  1.00  0.00     0.012 A 
ATOM      3  C   UNL     1     -18.355   1.565  14.421  1.00  0.00     0.012 A 
ATOM      4  C   UNL     1     -19.625   4.043  14.183  1.00  0.00     0.047 A 
ATOM      5  C   UNL     1     -19.618   1.651  13.828  1.00  0.00     0.047 A 
ATOM      6  C   UNL     1     -20.257   2.891  13.709  1.00  0.00     0.115 A 
ENDROOT
BRANCH   1   7
ATOM      7  C   UNL     1     -16.373   2.575  15.527  1.00  0.00     0.010 C 
ATOM      8  C   UNL     1     -15.667   1.435  15.524  1.00  0.00     0.025 C 
BRANCH   8   9
ATOM      9  C   UNL     1     -14.330   1.336  16.133  1.00  0.00     0.064 C 
ATOM     10  O   UNL     1     -13.571   0.361  15.884  1.00  0.00    -0.545 OA
ATOM     11  O   UNL     1     -13.897   2.334  16.994  1.00  0.00    -0.545 OA
ENDBRANCH   8   9
ENDBRANCH   1   7
BRANCH   6  12
ATOM     12  O   UNL     1     -21.515   2.989  13.120  1.00  0.00    -0.508 OA
ATOM     13  H   UNL     1     -21.974   3.885  12.994  1.00  0.00     0.293 HD
ENDBRANCH   6  12
TORSDOF 3
ENDMDL
MODEL 5
REMARK VINA RESULT:     0.339      7.244      8.479
REMARK INTER + INTRA:           0.239
REMARK INTER:                   0.380
REMARK INTRA:                  -0.141
REMARK UNBOUND:                -0.149
REMARK SMILES O=C([O-])C=Cc1ccc(O)cc1
REMARK SMILES IDX 6 1 7 2 12 3 8 4 11 5 9 6 5 7 4 8 2 9 1 10 3 11 10 12
REMARK H PARENT 10 13
REMARK Flexibility Score: inf
ROOT
ATOM      1  C   UNL     1     -17.718   2.663  14.842  1.00  0.00    -0.025 A 
ATOM      2  C   UNL     1     -18.402   1.523  14.374  1.00  0.00     0.012 A 
ATOM      3  C   UNL     1     -18.357   3.912  14.775  1.00  0.00     0.012 A 
ATOM      4  C   UNL     1     -19.685   1.642  13.830  1.00  0.00     0.047 A 
ATOM      5  C   UNL     1     -19.639   4.027  14.229  1.00  0.00     0.047 A 
ATOM      6  C   UNL     1     -20.306   2.891  13.753  1.00  0.00     0.115 A 
ENDROOT
BRANCH   1   7
ATOM      7  C   UNL     1     -16.361   2.591  15.439  1.00  0.00     0.010 C 
ATOM      8  C   UNL     1     -15.695   1.445  15.642  1.00  0.00     0.025 C 
BRANCH   8   9
ATOM      9  C   UNL     1     -14.344   1.414  16.226  1.00  0.00     0.064 C 
ATOM     10  O   UNL     1     -13.938   2.338  16.980  1.00  0.00    -0.545 OA
ATOM     11  O   UNL     1     -13.503   0.347  15.942  1.00  0.00    -0.545 OA
ENDBRANCH   8   9
ENDBRANCH   1   7
BRANCH   6  12
ATOM     12  O   UNL     1     -21.583   2.993  13.208  1.00  0.00    -0.508 OA
ATOM     13  H   UNL     1     -22.205   2.193  13.159  1.00  0.00     0.293 HD
ENDBRANCH   6  12
TORSDOF 3
ENDMDL
MODEL 6
REMARK VINA RESULT:     0.635     15.949     17.031
REMARK INTER + INTRA:           0.579
REMARK INTER:                   0.715
REMARK INTRA:                  -0.136
REMARK UNBOUND:                -0.149
REMARK SMILES O=C([O-])C=Cc1ccc(O)cc1
REMARK SMILES IDX 6 1 7 2 12 3 8 4 11 5 9 6 5 7 4 8 2 9 1 10 3 11 10 12
REMARK H PARENT 10 13
REMARK Flexibility Score: inf
ROOT
ATOM      1  C   UNL     1     -18.948  -7.960  11.487  1.00  0.00    -0.025 A 
ATOM      2  C   UNL     1     -19.121  -7.606  12.841  1.00  0.00     0.012 A 
ATOM      3  C   UNL     1     -17.994  -7.268  10.722  1.00  0.00     0.012 A 
ATOM      4  C   UNL     1     -18.370  -6.567  13.401  1.00  0.00     0.047 A 
ATOM      5  C   UNL     1     -17.247  -6.229  11.286  1.00  0.00     0.047 A 
ATOM      6  C   UNL     1     -17.435  -5.876  12.628  1.00  0.00     0.115 A 
ENDROOT
BRANCH   1   7
ATOM      7  C   UNL     1     -19.710  -9.060  10.846  1.00  0.00     0.010 C 
ATOM      8  C   UNL     1     -19.786 -10.303  11.344  1.00  0.00     0.025 C 
BRANCH   8   9
ATOM      9  C   UNL     1     -20.562 -11.367  10.685  1.00  0.00     0.064 C 
ATOM     10  O   UNL     1     -21.756 -11.602  11.013  1.00  0.00    -0.545 OA
ATOM     11  O   UNL     1     -19.968 -12.125   9.685  1.00  0.00    -0.545 OA
ENDBRANCH   8   9
ENDBRANCH   1   7
BRANCH   6  12
ATOM     12  O   UNL     1     -16.696  -4.843  13.201  1.00  0.00    -0.508 OA
ATOM     13  H   UNL     1     -15.881  -5.030  13.775  1.00  0.00     0.293 HD
ENDBRANCH   6  12
TORSDOF 3
ENDMDL
MODEL 7
REMARK VINA RESULT:     0.968     16.662     18.008
REMARK INTER + INTRA:           0.961
REMARK INTER:                   1.098
REMARK INTRA:                  -0.137
REMARK UNBOUND:                -0.149
REMARK SMILES O=C([O-])C=Cc1ccc(O)cc1
REMARK SMILES IDX 6 1 7 2 12 3 8 4 11 5 9 6 5 7 4 8 2 9 1 10 3 11 10 12
REMARK H PARENT 10 13
REMARK Flexibility Score: inf
ROOT
ATOM      1  C   UNL     1     -19.656  -8.943  10.747  1.00  0.00    -0.025 A 
ATOM      2  C   UNL     1     -20.102  -9.248   9.445  1.00  0.00     0.012 A 
ATOM      3  C   UNL     1     -18.612  -9.703  11.301  1.00  0.00     0.012 A 
ATOM      4  C   UNL     1     -19.529 -10.306   8.731  1.00  0.00     0.047 A 
ATOM      5  C   UNL     1     -18.043 -10.760  10.584  1.00  0.00     0.047 A 
ATOM      6  C   UNL     1     -18.502 -11.064   9.297  1.00  0.00     0.115 A 
ENDROOT
BRANCH   1   7
ATOM      7  C   UNL     1     -20.222  -7.826  11.543  1.00  0.00     0.010 C 
ATOM      8  C   UNL     1     -19.842  -6.547  11.408  1.00  0.00     0.025 C 
BRANCH   8   9
ATOM      9  C   UNL     1     -20.435  -5.462  12.209  1.00  0.00     0.064 C 
ATOM     10  O   UNL     1     -21.134  -5.711  13.227  1.00  0.00    -0.545 OA
ATOM     11  O   UNL     1     -20.219  -4.143  11.835  1.00  0.00    -0.545 OA
ENDBRANCH   8   9
ENDBRANCH   1   7
BRANCH   6  12
ATOM     12  O   UNL     1     -17.942 -12.115   8.573  1.00  0.00    -0.508 OA
ATOM     13  H   UNL     1     -17.486 -11.960   7.681  1.00  0.00     0.293 HD
ENDBRANCH   6  12
TORSDOF 3
ENDMDL
MODEL 8
REMARK VINA RESULT:     0.993     16.117     17.308
REMARK INTER + INTRA:           0.990
REMARK INTER:                   1.125
REMARK INTRA:                  -0.135
REMARK UNBOUND:                -0.149
REMARK SMILES O=C([O-])C=Cc1ccc(O)cc1
REMARK SMILES IDX 6 1 7 2 12 3 8 4 11 5 9 6 5 7 4 8 2 9 1 10 3 11 10 12
REMARK H PARENT 10 13
REMARK Flexibility Score: inf
ROOT
ATOM      1  C   UNL     1     -19.494  -7.765  11.334  1.00  0.00    -0.025 A 
ATOM      2  C   UNL     1     -19.124  -6.660  10.539  1.00  0.00     0.012 A 
ATOM      3  C   UNL     1     -20.266  -7.542  12.486  1.00  0.00     0.012 A 
ATOM      4  C   UNL     1     -19.502  -5.365  10.910  1.00  0.00     0.047 A 
ATOM      5  C   UNL     1     -20.640  -6.246  12.853  1.00  0.00     0.047 A 
ATOM      6  C   UNL     1     -20.257  -5.154  12.066  1.00  0.00     0.115 A 
ENDROOT
BRANCH   1   7
ATOM      7  C   UNL     1     -19.130  -9.159  10.981  1.00  0.00     0.010 C 
ATOM      8  C   UNL     1     -19.505  -9.763   9.844  1.00  0.00     0.025 C 
BRANCH   8   9
ATOM      9  C   UNL     1     -19.115 -11.146   9.523  1.00  0.00     0.064 C 
ATOM     10  O   UNL     1     -19.814 -12.125   9.898  1.00  0.00    -0.545 OA
ATOM     11  O   UNL     1     -17.957 -11.375   8.792  1.00  0.00    -0.545 OA
ENDBRANCH   8   9
ENDBRANCH   1   7
BRANCH   6  12
ATOM     12  O   UNL     1     -20.624  -3.858  12.421  1.00  0.00    -0.508 OA
ATOM     13  H   UNL     1     -20.868  -3.165  11.722  1.00  0.00     0.293 HD
ENDBRANCH   6  12
TORSDOF 3
ENDMDL
