MODEL 1
REMARK VINA RESULT:    -4.021      0.000      0.000
REMARK INTER + INTRA:          -9.328
REMARK INTER:                  -7.076
REMARK INTRA:                  -2.252
REMARK UNBOUND:                -2.252
REMARK SMILES CCCCCCCCCCCCCCC(=O)[O-]
REMARK SMILES IDX 9 1 10 2 11 3 12 4 13 5 14 6 15 7 16 8 17 9 8 10 7 11 6 12
REMARK SMILES IDX 5 13 4 14 3 15 2 16 1 17
REMARK H PARENT
REMARK Flexibility Score: inf
ROOT
ATOM      1  C   UNL     1      96.419   6.006  22.119  1.00  0.00     0.000 C 
ENDROOT
BRANCH   1   2
ATOM      2  C   UNL     1      97.803   6.661  21.966  1.00  0.00     0.000 C 
BRANCH   2   3
ATOM      3  C   UNL     1      98.947   5.637  21.993  1.00  0.00     0.000 C 
BRANCH   3   4
ATOM      4  C   UNL     1      99.102   4.955  23.361  1.00  0.00     0.000 C 
BRANCH   4   5
ATOM      5  C   UNL     1      99.759   3.574  23.215  1.00  0.00     0.006 C 
BRANCH   5   6
ATOM      6  C   UNL     1     100.138   2.964  24.571  1.00  0.00     0.053 C 
BRANCH   6   7
ATOM      7  C   UNL     1     100.167   1.466  24.520  1.00  0.00     0.041 C 
ATOM      8  O   UNL     1      99.136   0.804  24.811  1.00  0.00    -0.550 OA
ATOM      9  O   UNL     1     101.339   0.802  24.183  1.00  0.00    -0.550 OA
ENDBRANCH   6   7
ENDBRANCH   5   6
ENDBRANCH   4   5
ENDBRANCH   3   4
ENDBRANCH   2   3
ENDBRANCH   1   2
BRANCH   1  10
ATOM     10  C   UNL     1      95.347   6.987  22.629  1.00  0.00     0.000 C 
BRANCH  10  11
ATOM     11  C   UNL     1      95.834   8.009  23.676  1.00  0.00    -0.000 C 
BRANCH  11  12
ATOM     12  C   UNL     1      95.758   7.538  25.139  1.00  0.00    -0.000 C 
BRANCH  12  13
ATOM     13  C   UNL     1      97.094   6.973  25.654  1.00  0.00    -0.000 C 
BRANCH  13  14
ATOM     14  C   UNL     1      96.940   5.585  26.294  1.00  0.00    -0.000 C 
BRANCH  14  15
ATOM     15  C   UNL     1      95.962   4.683  25.521  1.00  0.00    -0.000 C 
BRANCH  15  16
ATOM     16  C   UNL     1      96.515   3.266  25.302  1.00  0.00    -0.003 C 
ATOM     17  C   UNL     1      96.152   2.692  23.932  1.00  0.00     0.004 C 
ENDBRANCH  15  16
ENDBRANCH  14  15
ENDBRANCH  13  14
ENDBRANCH  12  13
ENDBRANCH  11  12
ENDBRANCH  10  11
ENDBRANCH   1  10
TORSDOF 13
ENDMDL
MODEL 2
REMARK VINA RESULT:    -4.019      3.276      4.987
REMARK INTER + INTRA:          -9.325
REMARK INTER:                  -7.023
REMARK INTRA:                  -2.302
REMARK UNBOUND:                -2.252
REMARK SMILES CCCCCCCCCCCCCCC(=O)[O-]
REMARK SMILES IDX 9 1 10 2 11 3 12 4 13 5 14 6 15 7 16 8 17 9 8 10 7 11 6 12
REMARK SMILES IDX 5 13 4 14 3 15 2 16 1 17
REMARK H PARENT
REMARK Flexibility Score: inf
ROOT
ATOM      1  C   UNL     1      95.523   5.552  25.784  1.00  0.00     0.000 C 
ENDROOT
BRANCH   1   2
ATOM      2  C   UNL     1      95.701   6.696  24.771  1.00  0.00     0.000 C 
BRANCH   2   3
ATOM      3  C   UNL     1      95.009   6.410  23.429  1.00  0.00     0.000 C 
BRANCH   3   4
ATOM      4  C   UNL     1      95.992   5.949  22.341  1.00  0.00     0.000 C 
BRANCH   4   5
ATOM      5  C   UNL     1      97.353   6.645  22.500  1.00  0.00     0.006 C 
BRANCH   5   6
ATOM      6  C   UNL     1      98.214   6.535  21.235  1.00  0.00     0.053 C 
BRANCH   6   7
ATOM      7  C   UNL     1      97.626   7.307  20.093  1.00  0.00     0.041 C 
ATOM      8  O   UNL     1      97.547   6.783  18.950  1.00  0.00    -0.550 OA
ATOM      9  O   UNL     1      97.198   8.614  20.282  1.00  0.00    -0.550 OA
ENDBRANCH   6   7
ENDBRANCH   5   6
ENDBRANCH   4   5
ENDBRANCH   3   4
ENDBRANCH   2   3
ENDBRANCH   1   2
BRANCH   1  10
ATOM     10  C   UNL     1      96.632   5.520  26.851  1.00  0.00     0.000 C 
BRANCH  10  11
ATOM     11  C   UNL     1      97.992   6.095  26.404  1.00  0.00    -0.000 C 
BRANCH  11  12
ATOM     12  C   UNL     1      99.227   5.319  26.897  1.00  0.00    -0.000 C 
BRANCH  12  13
ATOM     13  C   UNL     1      99.613   4.157  25.965  1.00  0.00    -0.000 C 
BRANCH  13  14
ATOM     14  C   UNL     1      99.405   4.499  24.481  1.00  0.00    -0.000 C 
BRANCH  14  15
ATOM     15  C   UNL     1      98.655   3.393  23.719  1.00  0.00    -0.000 C 
BRANCH  15  16
ATOM     16  C   UNL     1      97.620   2.672  24.596  1.00  0.00    -0.003 C 
ATOM     17  C   UNL     1      96.259   2.531  23.913  1.00  0.00     0.004 C 
ENDBRANCH  15  16
ENDBRANCH  14  15
ENDBRANCH  13  14
ENDBRANCH  12  13
ENDBRANCH  11  12
ENDBRANCH  10  11
ENDBRANCH   1  10
TORSDOF 13
ENDMDL
MODEL 3
REMARK VINA RESULT:    -3.951      3.231      6.710
REMARK INTER + INTRA:          -9.205
REMARK INTER:                  -7.314
REMARK INTRA:                  -1.891
REMARK UNBOUND:                -2.252
REMARK SMILES CCCCCCCCCCCCCCC(=O)[O-]
REMARK SMILES IDX 9 1 10 2 11 3 12 4 13 5 14 6 15 7 16 8 17 9 8 10 7 11 6 12
REMARK SMILES IDX 5 13 4 14 3 15 2 16 1 17
REMARK H PARENT
REMARK Flexibility Score: inf
ROOT
ATOM      1  C   UNL     1     102.749   3.502  25.955  1.00  0.00     0.000 C 
ENDROOT
BRANCH   1   2
ATOM      2  C   UNL     1     101.512   3.211  26.823  1.00  0.00     0.000 C 
BRANCH   2   3
ATOM      3  C   UNL     1     100.206   3.231  26.014  1.00  0.00     0.000 C 
BRANCH   3   4
ATOM      4  C   UNL     1     100.321   4.051  24.720  1.00  0.00     0.000 C 
BRANCH   4   5
ATOM      5  C   UNL     1      99.003   4.016  23.930  1.00  0.00     0.006 C 
BRANCH   5   6
ATOM      6  C   UNL     1      97.991   3.030  24.528  1.00  0.00     0.053 C 
BRANCH   6   7
ATOM      7  C   UNL     1      96.619   3.226  23.959  1.00  0.00     0.041 C 
ATOM      8  O   UNL     1      95.909   2.229  23.664  1.00  0.00    -0.550 OA
ATOM      9  O   UNL     1      96.138   4.508  23.724  1.00  0.00    -0.550 OA
ENDBRANCH   6   7
ENDBRANCH   5   6
ENDBRANCH   4   5
ENDBRANCH   3   4
ENDBRANCH   2   3
ENDBRANCH   1   2
BRANCH   1  10
ATOM     10  C   UNL     1     103.942   2.590  26.290  1.00  0.00     0.000 C 
BRANCH  10  11
ATOM     11  C   UNL     1     104.376   1.631  25.162  1.00  0.00    -0.000 C 
BRANCH  11  12
ATOM     12  C   UNL     1     103.567   1.743  23.858  1.00  0.00    -0.000 C 
BRANCH  12  13
ATOM     13  C   UNL     1     102.597   0.565  23.655  1.00  0.00    -0.000 C 
BRANCH  13  14
ATOM     14  C   UNL     1     101.212   1.020  23.166  1.00  0.00    -0.000 C 
BRANCH  14  15
ATOM     15  C   UNL     1     100.123  -0.040  23.405  1.00  0.00    -0.000 C 
BRANCH  15  16
ATOM     16  C   UNL     1      99.937  -0.367  24.894  1.00  0.00    -0.003 C 
ATOM     17  C   UNL     1     100.217  -1.835  25.219  1.00  0.00     0.004 C 
ENDBRANCH  15  16
ENDBRANCH  14  15
ENDBRANCH  13  14
ENDBRANCH  12  13
ENDBRANCH  11  12
ENDBRANCH  10  11
ENDBRANCH   1  10
TORSDOF 13
ENDMDL
MODEL 4
REMARK VINA RESULT:    -3.900      3.195      5.758
REMARK INTER + INTRA:          -9.116
REMARK INTER:                  -7.111
REMARK INTRA:                  -2.005
REMARK UNBOUND:                -2.252
REMARK SMILES CCCCCCCCCCCCCCC(=O)[O-]
REMARK SMILES IDX 9 1 10 2 11 3 12 4 13 5 14 6 15 7 16 8 17 9 8 10 7 11 6 12
REMARK SMILES IDX 5 13 4 14 3 15 2 16 1 17
REMARK H PARENT
REMARK Flexibility Score: inf
ROOT
ATOM      1  C   UNL     1      97.069   2.432  25.230  1.00  0.00     0.000 C 
ENDROOT
BRANCH   1   2
ATOM      2  C   UNL     1      96.217   3.088  24.130  1.00  0.00     0.000 C 
BRANCH   2   3
ATOM      3  C   UNL     1      96.887   4.332  23.527  1.00  0.00     0.000 C 
BRANCH   3   4
ATOM      4  C   UNL     1      95.923   5.522  23.398  1.00  0.00     0.000 C 
BRANCH   4   5
ATOM      5  C   UNL     1      95.321   5.890  24.763  1.00  0.00     0.006 C 
BRANCH   5   6
ATOM      6  C   UNL     1      96.263   6.767  25.598  1.00  0.00     0.053 C 
BRANCH   6   7
ATOM      7  C   UNL     1      96.405   8.142  25.018  1.00  0.00     0.041 C 
ATOM      8  O   UNL     1      95.559   9.033  25.293  1.00  0.00    -0.550 OA
ATOM      9  O   UNL     1      97.450   8.428  24.149  1.00  0.00    -0.550 OA
ENDBRANCH   6   7
ENDBRANCH   5   6
ENDBRANCH   4   5
ENDBRANCH   3   4
ENDBRANCH   2   3
ENDBRANCH   1   2
BRANCH   1  10
ATOM     10  C   UNL     1      97.582   3.443  26.272  1.00  0.00     0.000 C 
BRANCH  10  11
ATOM     11  C   UNL     1      99.109   3.446  26.492  1.00  0.00    -0.000 C 
BRANCH  11  12
ATOM     12  C   UNL     1      99.900   4.412  25.592  1.00  0.00    -0.000 C 
BRANCH  12  13
ATOM     13  C   UNL     1     100.975   3.699  24.752  1.00  0.00    -0.000 C 
BRANCH  13  14
ATOM     14  C   UNL     1     100.405   3.086  23.463  1.00  0.00    -0.000 C 
BRANCH  14  15
ATOM     15  C   UNL     1     100.841   1.624  23.260  1.00  0.00    -0.000 C 
BRANCH  15  16
ATOM     16  C   UNL     1      99.738   0.624  23.638  1.00  0.00    -0.003 C 
ATOM     17  C   UNL     1      99.918   0.043  25.041  1.00  0.00     0.004 C 
ENDBRANCH  15  16
ENDBRANCH  14  15
ENDBRANCH  13  14
ENDBRANCH  12  13
ENDBRANCH  11  12
ENDBRANCH  10  11
ENDBRANCH   1  10
TORSDOF 13
ENDMDL
MODEL 5
REMARK VINA RESULT:    -3.883      3.397      5.280
REMARK INTER + INTRA:          -9.086
REMARK INTER:                  -7.296
REMARK INTRA:                  -1.790
REMARK UNBOUND:                -2.252
REMARK SMILES CCCCCCCCCCCCCCC(=O)[O-]
REMARK SMILES IDX 9 1 10 2 11 3 12 4 13 5 14 6 15 7 16 8 17 9 8 10 7 11 6 12
REMARK SMILES IDX 5 13 4 14 3 15 2 16 1 17
REMARK H PARENT
REMARK Flexibility Score: inf
ROOT
ATOM      1  C   UNL     1      95.765   6.810  24.787  1.00  0.00     0.000 C 
ENDROOT
BRANCH   1   2
ATOM      2  C   UNL     1      95.198   6.428  23.409  1.00  0.00     0.000 C 
BRANCH   2   3
ATOM      3  C   UNL     1      96.219   5.681  22.537  1.00  0.00     0.000 C 
BRANCH   3   4
ATOM      4  C   UNL     1      97.648   6.221  22.702  1.00  0.00     0.000 C 
BRANCH   4   5
ATOM      5  C   UNL     1      98.291   6.500  21.334  1.00  0.00     0.006 C 
BRANCH   5   6
ATOM      6  C   UNL     1      97.588   7.640  20.583  1.00  0.00     0.053 C 
BRANCH   6   7
ATOM      7  C   UNL     1      97.178   7.227  19.202  1.00  0.00     0.041 C 
ATOM      8  O   UNL     1      98.043   6.828  18.378  1.00  0.00    -0.550 OA
ATOM      9  O   UNL     1      95.847   7.313  18.815  1.00  0.00    -0.550 OA
ENDBRANCH   6   7
ENDBRANCH   5   6
ENDBRANCH   4   5
ENDBRANCH   3   4
ENDBRANCH   2   3
ENDBRANCH   1   2
BRANCH   1  10
ATOM     10  C   UNL     1      95.447   5.766  25.873  1.00  0.00     0.000 C 
BRANCH  10  11
ATOM     11  C   UNL     1      96.623   4.849  26.270  1.00  0.00    -0.000 C 
BRANCH  11  12
ATOM     12  C   UNL     1      96.676   3.495  25.540  1.00  0.00    -0.000 C 
BRANCH  12  13
ATOM     13  C   UNL     1      98.042   3.222  24.887  1.00  0.00    -0.000 C 
BRANCH  13  14
ATOM     14  C   UNL     1      99.148   4.143  25.428  1.00  0.00    -0.000 C 
BRANCH  14  15
ATOM     15  C   UNL     1     100.406   4.139  24.543  1.00  0.00    -0.000 C 
BRANCH  15  16
ATOM     16  C   UNL     1     100.199   3.370  23.229  1.00  0.00    -0.003 C 
ATOM     17  C   UNL     1     101.246   2.278  23.008  1.00  0.00     0.004 C 
ENDBRANCH  15  16
ENDBRANCH  14  15
ENDBRANCH  13  14
ENDBRANCH  12  13
ENDBRANCH  11  12
ENDBRANCH  10  11
ENDBRANCH   1  10
TORSDOF 13
ENDMDL
MODEL 6
REMARK VINA RESULT:    -3.840      3.003      5.768
REMARK INTER + INTRA:          -9.010
REMARK INTER:                  -6.989
REMARK INTRA:                  -2.022
REMARK UNBOUND:                -2.252
REMARK SMILES CCCCCCCCCCCCCCC(=O)[O-]
REMARK SMILES IDX 9 1 10 2 11 3 12 4 13 5 14 6 15 7 16 8 17 9 8 10 7 11 6 12
REMARK SMILES IDX 5 13 4 14 3 15 2 16 1 17
REMARK H PARENT
REMARK Flexibility Score: inf
ROOT
ATOM      1  C   UNL     1      98.012   3.746  27.373  1.00  0.00     0.000 C 
ENDROOT
BRANCH   1   2
ATOM      2  C   UNL     1      98.137   2.938  26.069  1.00  0.00     0.000 C 
BRANCH   2   3
ATOM      3  C   UNL     1      96.771   2.586  25.460  1.00  0.00     0.000 C 
BRANCH   3   4
ATOM      4  C   UNL     1      96.665   2.975  23.977  1.00  0.00     0.000 C 
BRANCH   4   5
ATOM      5  C   UNL     1      97.045   4.449  23.768  1.00  0.00     0.006 C 
BRANCH   5   6
ATOM      6  C   UNL     1      95.866   5.396  24.030  1.00  0.00     0.053 C 
BRANCH   6   7
ATOM      7  C   UNL     1      95.908   5.968  25.415  1.00  0.00     0.041 C 
ATOM      8  O   UNL     1      95.015   5.666  26.250  1.00  0.00    -0.550 OA
ATOM      9  O   UNL     1      96.912   6.858  25.772  1.00  0.00    -0.550 OA
ENDBRANCH   6   7
ENDBRANCH   5   6
ENDBRANCH   4   5
ENDBRANCH   3   4
ENDBRANCH   2   3
ENDBRANCH   1   2
BRANCH   1  10
ATOM     10  C   UNL     1      99.267   4.584  27.679  1.00  0.00     0.000 C 
BRANCH  10  11
ATOM     11  C   UNL     1     100.035   5.096  26.443  1.00  0.00    -0.000 C 
BRANCH  11  12
ATOM     12  C   UNL     1     101.555   4.854  26.467  1.00  0.00    -0.000 C 
BRANCH  12  13
ATOM     13  C   UNL     1     101.925   3.436  26.939  1.00  0.00    -0.000 C 
BRANCH  13  14
ATOM     14  C   UNL     1     102.578   2.598  25.828  1.00  0.00    -0.000 C 
BRANCH  14  15
ATOM     15  C   UNL     1     101.544   1.870  24.952  1.00  0.00    -0.000 C 
BRANCH  15  16
ATOM     16  C   UNL     1     101.572   2.345  23.491  1.00  0.00    -0.003 C 
ATOM     17  C   UNL     1     100.423   3.296  23.154  1.00  0.00     0.004 C 
ENDBRANCH  15  16
ENDBRANCH  14  15
ENDBRANCH  13  14
ENDBRANCH  12  13
ENDBRANCH  11  12
ENDBRANCH  10  11
ENDBRANCH   1  10
TORSDOF 13
ENDMDL
MODEL 7
REMARK VINA RESULT:    -3.820      2.069      4.910
REMARK INTER + INTRA:          -8.974
REMARK INTER:                  -7.052
REMARK INTRA:                  -1.922
REMARK UNBOUND:                -2.252
REMARK SMILES CCCCCCCCCCCCCCC(=O)[O-]
REMARK SMILES IDX 9 1 10 2 11 3 12 4 13 5 14 6 15 7 16 8 17 9 8 10 7 11 6 12
REMARK SMILES IDX 5 13 4 14 3 15 2 16 1 17
REMARK H PARENT
REMARK Flexibility Score: inf
ROOT
ATOM      1  C   UNL     1      97.249   7.519  23.476  1.00  0.00     0.000 C 
ENDROOT
BRANCH   1   2
ATOM      2  C   UNL     1      96.042   7.408  24.424  1.00  0.00     0.000 C 
BRANCH   2   3
ATOM      3  C   UNL     1      95.349   6.039  24.340  1.00  0.00     0.000 C 
BRANCH   3   4
ATOM      4  C   UNL     1      95.364   5.283  25.677  1.00  0.00     0.000 C 
BRANCH   4   5
ATOM      5  C   UNL     1      96.759   4.705  25.965  1.00  0.00     0.006 C 
BRANCH   5   6
ATOM      6  C   UNL     1      96.810   3.184  25.771  1.00  0.00     0.053 C 
BRANCH   6   7
ATOM      7  C   UNL     1      97.021   2.812  24.334  1.00  0.00     0.041 C 
ATOM      8  O   UNL     1      98.133   3.024  23.784  1.00  0.00    -0.550 OA
ATOM      9  O   UNL     1      95.980   2.264  23.596  1.00  0.00    -0.550 OA
ENDBRANCH   6   7
ENDBRANCH   5   6
ENDBRANCH   4   5
ENDBRANCH   3   4
ENDBRANCH   2   3
ENDBRANCH   1   2
BRANCH   1  10
ATOM     10  C   UNL     1      97.467   6.248  22.636  1.00  0.00     0.000 C 
BRANCH  10  11
ATOM     11  C   UNL     1      98.315   6.438  21.361  1.00  0.00    -0.000 C 
BRANCH  11  12
ATOM     12  C   UNL     1      97.884   7.604  20.454  1.00  0.00    -0.000 C 
BRANCH  12  13
ATOM     13  C   UNL     1      96.984   7.153  19.289  1.00  0.00    -0.000 C 
BRANCH  13  14
ATOM     14  C   UNL     1      95.591   7.800  19.337  1.00  0.00    -0.000 C 
BRANCH  14  15
ATOM     15  C   UNL     1      94.703   7.212  20.447  1.00  0.00    -0.000 C 
BRANCH  15  16
ATOM     16  C   UNL     1      94.257   8.271  21.467  1.00  0.00    -0.003 C 
ATOM     17  C   UNL     1      94.900   9.637  21.224  1.00  0.00     0.004 C 
ENDBRANCH  15  16
ENDBRANCH  14  15
ENDBRANCH  13  14
ENDBRANCH  12  13
ENDBRANCH  11  12
ENDBRANCH  10  11
ENDBRANCH   1  10
TORSDOF 13
ENDMDL
MODEL 8
REMARK VINA RESULT:    -3.799      3.263      6.507
REMARK INTER + INTRA:          -8.937
REMARK INTER:                  -6.993
REMARK INTRA:                  -1.944
REMARK UNBOUND:                -2.252
REMARK SMILES CCCCCCCCCCCCCCC(=O)[O-]
REMARK SMILES IDX 9 1 10 2 11 3 12 4 13 5 14 6 15 7 16 8 17 9 8 10 7 11 6 12
REMARK SMILES IDX 5 13 4 14 3 15 2 16 1 17
REMARK H PARENT
REMARK Flexibility Score: inf
ROOT
ATOM      1  C   UNL     1     101.200   4.450  25.873  1.00  0.00     0.000 C 
ENDROOT
BRANCH   1   2
ATOM      2  C   UNL     1     100.260   3.408  26.503  1.00  0.00     0.000 C 
BRANCH   2   3
ATOM      3  C   UNL     1      98.781   3.674  26.180  1.00  0.00     0.000 C 
BRANCH   3   4
ATOM      4  C   UNL     1      98.592   4.467  24.878  1.00  0.00     0.000 C 
BRANCH   4   5
ATOM      5  C   UNL     1      97.560   3.786  23.966  1.00  0.00     0.006 C 
BRANCH   5   6
ATOM      6  C   UNL     1      96.166   3.730  24.604  1.00  0.00     0.053 C 
BRANCH   6   7
ATOM      7  C   UNL     1      95.596   5.100  24.819  1.00  0.00     0.041 C 
ATOM      8  O   UNL     1      95.370   5.851  23.834  1.00  0.00    -0.550 OA
ATOM      9  O   UNL     1      95.347   5.558  26.106  1.00  0.00    -0.550 OA
ENDBRANCH   6   7
ENDBRANCH   5   6
ENDBRANCH   4   5
ENDBRANCH   3   4
ENDBRANCH   2   3
ENDBRANCH   1   2
BRANCH   1  10
ATOM     10  C   UNL     1     102.646   4.339  26.388  1.00  0.00     0.000 C 
BRANCH  10  11
ATOM     11  C   UNL     1     103.105   2.914  26.763  1.00  0.00    -0.000 C 
BRANCH  11  12
ATOM     12  C   UNL     1     104.064   2.248  25.761  1.00  0.00    -0.000 C 
BRANCH  12  13
ATOM     13  C   UNL     1     103.443   2.076  24.363  1.00  0.00    -0.000 C 
BRANCH  13  14
ATOM     14  C   UNL     1     102.258   1.096  24.362  1.00  0.00    -0.000 C 
BRANCH  14  15
ATOM     15  C   UNL     1     101.151   1.509  23.377  1.00  0.00    -0.000 C 
BRANCH  15  16
ATOM     16  C   UNL     1      99.777   0.939  23.764  1.00  0.00    -0.003 C 
ATOM     17  C   UNL     1      99.841   0.002  24.970  1.00  0.00     0.004 C 
ENDBRANCH  15  16
ENDBRANCH  14  15
ENDBRANCH  13  14
ENDBRANCH  12  13
ENDBRANCH  11  12
ENDBRANCH  10  11
ENDBRANCH   1  10
TORSDOF 13
ENDMDL
MODEL 9
REMARK VINA RESULT:    -3.747      3.043      6.373
REMARK INTER + INTRA:          -8.847
REMARK INTER:                  -6.812
REMARK INTRA:                  -2.034
REMARK UNBOUND:                -2.252
REMARK SMILES CCCCCCCCCCCCCCC(=O)[O-]
REMARK SMILES IDX 9 1 10 2 11 3 12 4 13 5 14 6 15 7 16 8 17 9 8 10 7 11 6 12
REMARK SMILES IDX 5 13 4 14 3 15 2 16 1 17
REMARK H PARENT
REMARK Flexibility Score: inf
ROOT
ATOM      1  C   UNL     1      99.881   3.277  26.203  1.00  0.00     0.000 C 
ENDROOT
BRANCH   1   2
ATOM      2  C   UNL     1      98.722   3.949  26.959  1.00  0.00     0.000 C 
BRANCH   2   3
ATOM      3  C   UNL     1      98.103   5.116  26.174  1.00  0.00     0.000 C 
BRANCH   3   4
ATOM      4  C   UNL     1      96.573   5.021  26.077  1.00  0.00     0.000 C 
BRANCH   4   5
ATOM      5  C   UNL     1      96.151   4.177  24.864  1.00  0.00     0.006 C 
BRANCH   5   6
ATOM      6  C   UNL     1      96.511   4.850  23.533  1.00  0.00     0.053 C 
BRANCH   6   7
ATOM      7  C   UNL     1      95.940   6.232  23.436  1.00  0.00     0.041 C 
ATOM      8  O   UNL     1      94.697   6.395  23.320  1.00  0.00    -0.550 OA
ATOM      9  O   UNL     1      96.782   7.337  23.439  1.00  0.00    -0.550 OA
ENDBRANCH   6   7
ENDBRANCH   5   6
ENDBRANCH   4   5
ENDBRANCH   3   4
ENDBRANCH   2   3
ENDBRANCH   1   2
BRANCH   1  10
ATOM     10  C   UNL     1     100.078   3.843  24.785  1.00  0.00     0.000 C 
BRANCH  10  11
ATOM     11  C   UNL     1      99.688   2.891  23.635  1.00  0.00    -0.000 C 
BRANCH  11  12
ATOM     12  C   UNL     1      98.960   1.605  24.065  1.00  0.00    -0.000 C 
BRANCH  12  13
ATOM     13  C   UNL     1      99.738   0.328  23.701  1.00  0.00    -0.000 C 
BRANCH  13  14
ATOM     14  C   UNL     1     101.083   0.227  24.438  1.00  0.00    -0.000 C 
BRANCH  14  15
ATOM     15  C   UNL     1     102.284   0.210  23.476  1.00  0.00    -0.000 C 
BRANCH  15  16
ATOM     16  C   UNL     1     103.234   1.396  23.701  1.00  0.00    -0.003 C 
ATOM     17  C   UNL     1     103.206   1.916  25.139  1.00  0.00     0.004 C 
ENDBRANCH  15  16
ENDBRANCH  14  15
ENDBRANCH  13  14
ENDBRANCH  12  13
ENDBRANCH  11  12
ENDBRANCH  10  11
ENDBRANCH   1  10
TORSDOF 13
ENDMDL
