MODEL 1
REMARK VINA RESULT:    -4.620      0.000      0.000
REMARK INTER + INTRA:          -5.725
REMARK INTER:                  -5.430
REMARK INTRA:                  -0.295
REMARK UNBOUND:                -0.295
REMARK SMILES O=c1cc(-c2ccc(O)c(O)c2)oc2cc(O)cc(O)c12
REMARK SMILES IDX 4 1 3 2 2 3 1 4 21 5 19 6 18 7 16 8 15 9 14 10 13 11 5 12
REMARK SMILES IDX 6 13 7 14 8 15 12 16 10 17 9 18 11 20 20 22 17 24
REMARK H PARENT 9 19 11 21 20 23 17 25
REMARK Flexibility Score: inf
ROOT
ATOM      1  C   UNL     1      51.416  21.089 129.746  1.00  0.00     0.138 A 
ATOM      2  C   UNL     1      50.731  20.052 129.098  1.00  0.00     0.100 A 
ATOM      3  C   UNL     1      49.376  19.848 129.364  1.00  0.00     0.197 A 
ATOM      4  O   UNL     1      48.803  18.875 128.809  1.00  0.00    -0.289 OA
ATOM      5  C   UNL     1      48.696  20.711 130.256  1.00  0.00     0.107 A 
ATOM      6  C   UNL     1      47.307  20.619 130.578  1.00  0.00     0.134 A 
ATOM      7  C   UNL     1      46.768  21.469 131.552  1.00  0.00     0.093 A 
ATOM      8  C   UNL     1      47.552  22.443 132.173  1.00  0.00     0.123 A 
ATOM      9  C   UNL     1      48.895  22.573 131.831  1.00  0.00     0.094 A 
ATOM     10  C   UNL     1      49.472  21.718 130.889  1.00  0.00     0.146 A 
ATOM     11  O   UNL     1      50.762  21.865 130.604  1.00  0.00    -0.456 OA
ENDROOT
BRANCH   1  12
ATOM     12  C   UNL     1      52.856  21.354 129.499  1.00  0.00     0.021 A 
ATOM     13  C   UNL     1      53.421  22.560 129.940  1.00  0.00     0.016 A 
ATOM     14  C   UNL     1      54.774  22.830 129.726  1.00  0.00     0.051 A 
ATOM     15  C   UNL     1      55.594  21.901 129.077  1.00  0.00     0.157 A 
ATOM     16  C   UNL     1      53.683  20.411 128.860  1.00  0.00     0.062 A 
ATOM     17  C   UNL     1      55.043  20.673 128.644  1.00  0.00     0.158 A 
BRANCH  15  18
ATOM     18  O   UNL     1      56.937  22.235 128.890  1.00  0.00    -0.504 OA
ATOM     19  H   UNL     1      57.709  21.654 129.181  1.00  0.00     0.293 HD
ENDBRANCH  15  18
BRANCH  17  20
ATOM     20  O   UNL     1      55.803  19.690 128.005  1.00  0.00    -0.504 OA
ATOM     21  H   UNL     1      55.520  18.725 127.919  1.00  0.00     0.293 HD
ENDBRANCH  17  20
ENDBRANCH   1  12
BRANCH   6  22
ATOM     22  O   UNL     1      46.417  19.737 129.961  1.00  0.00    -0.507 OA
ATOM     23  H   UNL     1      45.867  19.039 130.438  1.00  0.00     0.293 HD
ENDBRANCH   6  22
BRANCH   8  24
ATOM     24  O   UNL     1      47.003  23.294 133.130  1.00  0.00    -0.508 OA
ATOM     25  H   UNL     1      46.490  24.128 132.866  1.00  0.00     0.293 HD
ENDBRANCH   8  24
TORSDOF 5
ENDMDL
MODEL 2
REMARK VINA RESULT:    -4.591      1.736      6.975
REMARK INTER + INTRA:          -5.692
REMARK INTER:                  -5.375
REMARK INTRA:                  -0.317
REMARK UNBOUND:                -0.295
REMARK SMILES O=c1cc(-c2ccc(O)c(O)c2)oc2cc(O)cc(O)c12
REMARK SMILES IDX 4 1 3 2 2 3 1 4 21 5 19 6 18 7 16 8 15 9 14 10 13 11 5 12
REMARK SMILES IDX 6 13 7 14 8 15 12 16 10 17 9 18 11 20 20 22 17 24
REMARK H PARENT 9 19 11 21 20 23 17 25
REMARK Flexibility Score: inf
ROOT
ATOM      1  C   UNL     1      52.092  21.351 129.223  1.00  0.00     0.138 A 
ATOM      2  C   UNL     1      53.222  20.546 129.024  1.00  0.00     0.100 A 
ATOM      3  C   UNL     1      54.488  21.132 128.975  1.00  0.00     0.197 A 
ATOM      4  O   UNL     1      55.476  20.389 128.741  1.00  0.00    -0.289 OA
ATOM      5  C   UNL     1      54.625  22.528 129.163  1.00  0.00     0.107 A 
ATOM      6  C   UNL     1      55.868  23.231 129.167  1.00  0.00     0.134 A 
ATOM      7  C   UNL     1      55.870  24.628 129.264  1.00  0.00     0.093 A 
ATOM      8  C   UNL     1      54.679  25.342 129.415  1.00  0.00     0.123 A 
ATOM      9  C   UNL     1      53.466  24.662 129.461  1.00  0.00     0.094 A 
ATOM     10  C   UNL     1      53.427  23.272 129.332  1.00  0.00     0.146 A 
ATOM     11  O   UNL     1      52.245  22.664 129.364  1.00  0.00    -0.456 OA
ENDROOT
BRANCH   1  12
ATOM     12  C   UNL     1      50.722  20.781 129.286  1.00  0.00     0.021 A 
ATOM     13  C   UNL     1      50.518  19.438 128.938  1.00  0.00     0.016 A 
ATOM     14  C   UNL     1      49.242  18.876 128.995  1.00  0.00     0.051 A 
ATOM     15  C   UNL     1      48.144  19.637 129.410  1.00  0.00     0.157 A 
ATOM     16  C   UNL     1      49.622  21.545 129.718  1.00  0.00     0.062 A 
ATOM     17  C   UNL     1      48.338  20.988 129.782  1.00  0.00     0.158 A 
BRANCH  15  18
ATOM     18  O   UNL     1      46.893  19.017 129.440  1.00  0.00    -0.504 OA
ATOM     19  H   UNL     1      46.668  18.175 128.930  1.00  0.00     0.293 HD
ENDBRANCH  15  18
BRANCH  17  20
ATOM     20  O   UNL     1      47.293  21.805 130.222  1.00  0.00    -0.504 OA
ATOM     21  H   UNL     1      46.483  22.034 129.665  1.00  0.00     0.293 HD
ENDBRANCH  17  20
ENDBRANCH   1  12
BRANCH   6  22
ATOM     22  O   UNL     1      57.119  22.610 129.104  1.00  0.00    -0.507 OA
ATOM     23  H   UNL     1      57.999  23.058 129.308  1.00  0.00     0.293 HD
ENDBRANCH   6  22
BRANCH   8  24
ATOM     24  O   UNL     1      54.692  26.731 129.526  1.00  0.00    -0.508 OA
ATOM     25  H   UNL     1      54.346  27.326 128.781  1.00  0.00     0.293 HD
ENDBRANCH   8  24
TORSDOF 5
ENDMDL
MODEL 3
REMARK VINA RESULT:    -4.584     11.869     14.079
REMARK INTER + INTRA:          -5.683
REMARK INTER:                  -5.365
REMARK INTRA:                  -0.318
REMARK UNBOUND:                -0.295
REMARK SMILES O=c1cc(-c2ccc(O)c(O)c2)oc2cc(O)cc(O)c12
REMARK SMILES IDX 4 1 3 2 2 3 1 4 21 5 19 6 18 7 16 8 15 9 14 10 13 11 5 12
REMARK SMILES IDX 6 13 7 14 8 15 12 16 10 17 9 18 11 20 20 22 17 24
REMARK H PARENT 9 19 11 21 20 23 17 25
REMARK Flexibility Score: inf
ROOT
ATOM      1  C   UNL     1      62.709  28.919 129.146  1.00  0.00     0.138 A 
ATOM      2  C   UNL     1      63.252  30.182 128.870  1.00  0.00     0.100 A 
ATOM      3  C   UNL     1      62.402  31.255 128.602  1.00  0.00     0.197 A 
ATOM      4  O   UNL     1      62.920  32.362 128.305  1.00  0.00    -0.289 OA
ATOM      5  C   UNL     1      60.999  31.071 128.646  1.00  0.00     0.107 A 
ATOM      6  C   UNL     1      60.034  32.101 128.423  1.00  0.00     0.134 A 
ATOM      7  C   UNL     1      58.673  31.775 128.395  1.00  0.00     0.093 A 
ATOM      8  C   UNL     1      58.237  30.471 128.639  1.00  0.00     0.123 A 
ATOM      9  C   UNL     1      59.167  29.470 128.907  1.00  0.00     0.094 A 
ATOM     10  C   UNL     1      60.535  29.754 128.907  1.00  0.00     0.146 A 
ATOM     11  O   UNL     1      61.388  28.765 129.149  1.00  0.00    -0.456 OA
ENDROOT
BRANCH   1  12
ATOM     12  C   UNL     1      63.566  27.743 129.441  1.00  0.00     0.021 A 
ATOM     13  C   UNL     1      64.954  27.912 129.551  1.00  0.00     0.016 A 
ATOM     14  C   UNL     1      65.782  26.824 129.834  1.00  0.00     0.051 A 
ATOM     15  C   UNL     1      65.243  25.547 130.024  1.00  0.00     0.157 A 
ATOM     16  C   UNL     1      63.020  26.462 129.647  1.00  0.00     0.062 A 
ATOM     17  C   UNL     1      63.843  25.365 129.935  1.00  0.00     0.158 A 
BRANCH  15  18
ATOM     18  O   UNL     1      66.125  24.501 130.299  1.00  0.00    -0.504 OA
ATOM     19  H   UNL     1      67.129  24.570 130.212  1.00  0.00     0.293 HD
ENDBRANCH  15  18
BRANCH  17  20
ATOM     20  O   UNL     1      63.231  24.124 130.128  1.00  0.00    -0.504 OA
ATOM     21  H   UNL     1      63.704  23.313 130.499  1.00  0.00     0.293 HD
ENDBRANCH  17  20
ENDBRANCH   1  12
BRANCH   6  22
ATOM     22  O   UNL     1      60.355  33.450 128.249  1.00  0.00    -0.507 OA
ATOM     23  H   UNL     1      60.987  33.976 128.832  1.00  0.00     0.293 HD
ENDBRANCH   6  22
BRANCH   8  24
ATOM     24  O   UNL     1      56.879  30.160 128.625  1.00  0.00    -0.508 OA
ATOM     25  H   UNL     1      56.174  30.872 128.471  1.00  0.00     0.293 HD
ENDBRANCH   8  24
TORSDOF 5
ENDMDL
MODEL 4
REMARK VINA RESULT:    -4.519      7.821     10.924
REMARK INTER + INTRA:          -5.607
REMARK INTER:                  -5.310
REMARK INTRA:                  -0.296
REMARK UNBOUND:                -0.295
REMARK SMILES O=c1cc(-c2ccc(O)c(O)c2)oc2cc(O)cc(O)c12
REMARK SMILES IDX 4 1 3 2 2 3 1 4 21 5 19 6 18 7 16 8 15 9 14 10 13 11 5 12
REMARK SMILES IDX 6 13 7 14 8 15 12 16 10 17 9 18 11 20 20 22 17 24
REMARK H PARENT 9 19 11 21 20 23 17 25
REMARK Flexibility Score: inf
ROOT
ATOM      1  C   UNL     1      57.739  29.492 128.602  1.00  0.00     0.138 A 
ATOM      2  C   UNL     1      56.498  30.073 128.900  1.00  0.00     0.100 A 
ATOM      3  C   UNL     1      55.359  29.270 128.972  1.00  0.00     0.197 A 
ATOM      4  O   UNL     1      54.252  29.828 129.188  1.00  0.00    -0.289 OA
ATOM      5  C   UNL     1      55.470  27.872 128.781  1.00  0.00     0.107 A 
ATOM      6  C   UNL     1      54.383  26.949 128.865  1.00  0.00     0.134 A 
ATOM      7  C   UNL     1      54.599  25.600 128.558  1.00  0.00     0.093 A 
ATOM      8  C   UNL     1      55.871  25.130 128.227  1.00  0.00     0.123 A 
ATOM      9  C   UNL     1      56.947  26.013 128.191  1.00  0.00     0.094 A 
ATOM     10  C   UNL     1      56.759  27.371 128.458  1.00  0.00     0.146 A 
ATOM     11  O   UNL     1      57.810  28.181 128.395  1.00  0.00    -0.456 OA
ENDROOT
BRANCH   1  12
ATOM     12  C   UNL     1      58.982  30.298 128.515  1.00  0.00     0.021 A 
ATOM     13  C   UNL     1      60.223  29.646 128.445  1.00  0.00     0.016 A 
ATOM     14  C   UNL     1      61.407  30.380 128.357  1.00  0.00     0.051 A 
ATOM     15  C   UNL     1      61.380  31.779 128.326  1.00  0.00     0.157 A 
ATOM     16  C   UNL     1      58.952  31.705 128.469  1.00  0.00     0.062 A 
ATOM     17  C   UNL     1      60.135  32.450 128.377  1.00  0.00     0.158 A 
BRANCH  15  18
ATOM     18  O   UNL     1      62.599  32.453 128.242  1.00  0.00    -0.504 OA
ATOM     19  H   UNL     1      63.089  32.835 129.038  1.00  0.00     0.293 HD
ENDBRANCH  15  18
BRANCH  17  20
ATOM     20  O   UNL     1      60.028  33.842 128.335  1.00  0.00    -0.504 OA
ATOM     21  H   UNL     1      60.790  34.473 128.537  1.00  0.00     0.293 HD
ENDBRANCH  17  20
ENDBRANCH   1  12
BRANCH   6  22
ATOM     22  O   UNL     1      53.089  27.297 129.263  1.00  0.00    -0.507 OA
ATOM     23  H   UNL     1      52.269  26.725 129.133  1.00  0.00     0.293 HD
ENDBRANCH   6  22
BRANCH   8  24
ATOM     24  O   UNL     1      56.079  23.783 127.938  1.00  0.00    -0.508 OA
ATOM     25  H   UNL     1      55.551  23.308 127.214  1.00  0.00     0.293 HD
ENDBRANCH   8  24
TORSDOF 5
ENDMDL
MODEL 5
REMARK VINA RESULT:    -4.472      1.940      6.926
REMARK INTER + INTRA:          -5.552
REMARK INTER:                  -5.262
REMARK INTRA:                  -0.290
REMARK UNBOUND:                -0.295
REMARK SMILES O=c1cc(-c2ccc(O)c(O)c2)oc2cc(O)cc(O)c12
REMARK SMILES IDX 4 1 3 2 2 3 1 4 21 5 19 6 18 7 16 8 15 9 14 10 13 11 5 12
REMARK SMILES IDX 6 13 7 14 8 15 12 16 10 17 9 18 11 20 20 22 17 24
REMARK H PARENT 9 19 11 21 20 23 17 25
REMARK Flexibility Score: inf
ROOT
ATOM      1  C   UNL     1      50.359  20.680 131.544  1.00  0.00     0.138 A 
ATOM      2  C   UNL     1      50.181  19.819 130.452  1.00  0.00     0.100 A 
ATOM      3  C   UNL     1      51.232  19.610 129.558  1.00  0.00     0.197 A 
ATOM      4  O   UNL     1      51.023  18.875 128.559  1.00  0.00    -0.289 OA
ATOM      5  C   UNL     1      52.481  20.236 129.782  1.00  0.00     0.107 A 
ATOM      6  C   UNL     1      53.635  20.069 128.957  1.00  0.00     0.134 A 
ATOM      7  C   UNL     1      54.787  20.820 129.223  1.00  0.00     0.093 A 
ATOM      8  C   UNL     1      54.847  21.687 130.316  1.00  0.00     0.123 A 
ATOM      9  C   UNL     1      53.744  21.820 131.155  1.00  0.00     0.094 A 
ATOM     10  C   UNL     1      52.568  21.112 130.897  1.00  0.00     0.146 A 
ATOM     11  O   UNL     1      51.533  21.282 131.713  1.00  0.00    -0.456 OA
ENDROOT
BRANCH   1  12
ATOM     12  C   UNL     1      49.277  20.938 132.526  1.00  0.00     0.021 A 
ATOM     13  C   UNL     1      49.255  22.154 133.225  1.00  0.00     0.016 A 
ATOM     14  C   UNL     1      48.245  22.423 134.150  1.00  0.00     0.051 A 
ATOM     15  C   UNL     1      47.229  21.492 134.390  1.00  0.00     0.157 A 
ATOM     16  C   UNL     1      48.247  20.006 132.755  1.00  0.00     0.062 A 
ATOM     17  C   UNL     1      47.227  20.270 133.679  1.00  0.00     0.158 A 
BRANCH  15  18
ATOM     18  O   UNL     1      46.251  21.821 135.331  1.00  0.00    -0.504 OA
ATOM     19  H   UNL     1      45.488  22.459 135.154  1.00  0.00     0.293 HD
ENDBRANCH  15  18
BRANCH  17  20
ATOM     20  O   UNL     1      46.237  19.299 133.853  1.00  0.00    -0.504 OA
ATOM     21  H   UNL     1      45.873  19.019 134.752  1.00  0.00     0.293 HD
ENDBRANCH  17  20
ENDBRANCH   1  12
BRANCH   6  22
ATOM     22  O   UNL     1      53.712  19.171 127.889  1.00  0.00    -0.507 OA
ATOM     23  H   UNL     1      54.038  19.399 126.962  1.00  0.00     0.293 HD
ENDBRANCH   6  22
BRANCH   8  24
ATOM     24  O   UNL     1      56.003  22.418 130.582  1.00  0.00    -0.508 OA
ATOM     25  H   UNL     1      56.882  21.961 130.794  1.00  0.00     0.293 HD
ENDBRANCH   8  24
TORSDOF 5
ENDMDL
MODEL 6
REMARK VINA RESULT:    -4.428     13.057     16.329
REMARK INTER + INTRA:          -5.500
REMARK INTER:                  -5.235
REMARK INTRA:                  -0.264
REMARK UNBOUND:                -0.295
REMARK SMILES O=c1cc(-c2ccc(O)c(O)c2)oc2cc(O)cc(O)c12
REMARK SMILES IDX 4 1 3 2 2 3 1 4 21 5 19 6 18 7 16 8 15 9 14 10 13 11 5 12
REMARK SMILES IDX 6 13 7 14 8 15 12 16 10 17 9 18 11 20 20 22 17 24
REMARK H PARENT 9 19 11 21 20 23 17 25
REMARK Flexibility Score: inf
ROOT
ATOM      1  C   UNL     1      60.850  34.467 129.971  1.00  0.00     0.138 A 
ATOM      2  C   UNL     1      59.791  35.011 130.711  1.00  0.00     0.100 A 
ATOM      3  C   UNL     1      58.571  34.337 130.770  1.00  0.00     0.197 A 
ATOM      4  O   UNL     1      57.624  34.878 131.397  1.00  0.00    -0.289 OA
ATOM      5  C   UNL     1      58.423  33.091 130.115  1.00  0.00     0.107 A 
ATOM      6  C   UNL     1      57.236  32.296 130.135  1.00  0.00     0.134 A 
ATOM      7  C   UNL     1      57.176  31.127 129.365  1.00  0.00     0.093 A 
ATOM      8  C   UNL     1      58.278  30.694 128.625  1.00  0.00     0.123 A 
ATOM      9  C   UNL     1      59.456  31.436 128.638  1.00  0.00     0.094 A 
ATOM     10  C   UNL     1      59.537  32.625 129.367  1.00  0.00     0.146 A 
ATOM     11  O   UNL     1      60.675  33.311 129.338  1.00  0.00    -0.456 OA
ENDROOT
BRANCH   1  12
ATOM     12  C   UNL     1      62.170  35.140 129.876  1.00  0.00     0.021 A 
ATOM     13  C   UNL     1      62.544  35.755 128.672  1.00  0.00     0.016 A 
ATOM     14  C   UNL     1      63.777  36.399 128.558  1.00  0.00     0.051 A 
ATOM     15  C   UNL     1      64.658  36.455 129.644  1.00  0.00     0.157 A 
ATOM     16  C   UNL     1      63.048  35.207 130.974  1.00  0.00     0.062 A 
ATOM     17  C   UNL     1      64.285  35.856 130.870  1.00  0.00     0.158 A 
BRANCH  15  18
ATOM     18  O   UNL     1      65.877  37.110 129.462  1.00  0.00    -0.504 OA
ATOM     19  H   UNL     1      66.185  37.894 130.019  1.00  0.00     0.293 HD
ENDBRANCH  15  18
BRANCH  17  20
ATOM     20  O   UNL     1      65.104  35.885 132.001  1.00  0.00    -0.504 OA
ATOM     21  H   UNL     1      65.279  36.714 132.550  1.00  0.00     0.293 HD
ENDBRANCH  17  20
ENDBRANCH   1  12
BRANCH   6  22
ATOM     22  O   UNL     1      56.107  32.593 130.903  1.00  0.00    -0.507 OA
ATOM     23  H   UNL     1      55.646  31.951 131.528  1.00  0.00     0.293 HD
ENDBRANCH   6  22
BRANCH   8  24
ATOM     24  O   UNL     1      58.214  29.522 127.875  1.00  0.00    -0.508 OA
ATOM     25  H   UNL     1      57.734  28.697 128.220  1.00  0.00     0.293 HD
ENDBRANCH   8  24
TORSDOF 5
ENDMDL
MODEL 7
REMARK VINA RESULT:    -4.404     11.571     14.713
REMARK INTER + INTRA:          -5.472
REMARK INTER:                  -5.170
REMARK INTRA:                  -0.302
REMARK UNBOUND:                -0.295
REMARK SMILES O=c1cc(-c2ccc(O)c(O)c2)oc2cc(O)cc(O)c12
REMARK SMILES IDX 4 1 3 2 2 3 1 4 21 5 19 6 18 7 16 8 15 9 14 10 13 11 5 12
REMARK SMILES IDX 6 13 7 14 8 15 12 16 10 17 9 18 11 20 20 22 17 24
REMARK H PARENT 9 19 11 21 20 23 17 25
REMARK Flexibility Score: inf
ROOT
ATOM      1  C   UNL     1      46.732  31.561 138.070  1.00  0.00     0.138 A 
ATOM      2  C   UNL     1      47.160  30.749 137.010  1.00  0.00     0.100 A 
ATOM      3  C   UNL     1      47.316  29.377 137.210  1.00  0.00     0.197 A 
ATOM      4  O   UNL     1      47.753  28.685 136.254  1.00  0.00    -0.289 OA
ATOM      5  C   UNL     1      47.006  28.809 138.469  1.00  0.00     0.107 A 
ATOM      6  C   UNL     1      47.094  27.418 138.779  1.00  0.00     0.134 A 
ATOM      7  C   UNL     1      46.856  26.987 140.090  1.00  0.00     0.093 A 
ATOM      8  C   UNL     1      46.478  27.888 141.088  1.00  0.00     0.123 A 
ATOM      9  C   UNL     1      46.341  29.240 140.784  1.00  0.00     0.094 A 
ATOM     10  C   UNL     1      46.605  29.707 139.494  1.00  0.00     0.146 A 
ATOM     11  O   UNL     1      46.479  31.007 139.252  1.00  0.00    -0.456 OA
ENDROOT
BRANCH   1  12
ATOM     12  C   UNL     1      46.547  33.025 137.913  1.00  0.00     0.021 A 
ATOM     13  C   UNL     1      46.064  33.532 136.697  1.00  0.00     0.016 A 
ATOM     14  C   UNL     1      45.875  34.905 136.526  1.00  0.00     0.051 A 
ATOM     15  C   UNL     1      46.153  35.800 137.565  1.00  0.00     0.157 A 
ATOM     16  C   UNL     1      46.813  33.922 138.964  1.00  0.00     0.062 A 
ATOM     17  C   UNL     1      46.623  35.301 138.802  1.00  0.00     0.158 A 
BRANCH  15  18
ATOM     18  O   UNL     1      45.947  37.160 137.327  1.00  0.00    -0.504 OA
ATOM     19  H   UNL     1      45.976  37.870 138.045  1.00  0.00     0.293 HD
ENDBRANCH  15  18
BRANCH  17  20
ATOM     20  O   UNL     1      46.906  36.131 139.890  1.00  0.00    -0.504 OA
ATOM     21  H   UNL     1      46.391  36.972 140.107  1.00  0.00     0.293 HD
ENDBRANCH  17  20
ENDBRANCH   1  12
BRANCH   6  22
ATOM     22  O   UNL     1      47.385  26.423 137.841  1.00  0.00    -0.507 OA
ATOM     23  H   UNL     1      46.700  25.905 137.314  1.00  0.00     0.293 HD
ENDBRANCH   6  22
BRANCH   8  24
ATOM     24  O   UNL     1      46.228  27.448 142.385  1.00  0.00    -0.508 OA
ATOM     25  H   UNL     1      46.977  27.133 142.992  1.00  0.00     0.293 HD
ENDBRANCH   8  24
TORSDOF 5
ENDMDL
MODEL 8
REMARK VINA RESULT:    -4.298     12.665     17.040
REMARK INTER + INTRA:          -5.347
REMARK INTER:                  -5.068
REMARK INTRA:                  -0.279
REMARK UNBOUND:                -0.295
REMARK SMILES O=c1cc(-c2ccc(O)c(O)c2)oc2cc(O)cc(O)c12
REMARK SMILES IDX 4 1 3 2 2 3 1 4 21 5 19 6 18 7 16 8 15 9 14 10 13 11 5 12
REMARK SMILES IDX 6 13 7 14 8 15 12 16 10 17 9 18 11 20 20 22 17 24
REMARK H PARENT 9 19 11 21 20 23 17 25
REMARK Flexibility Score: inf
ROOT
ATOM      1  C   UNL     1      61.686  32.498 129.332  1.00  0.00     0.138 A 
ATOM      2  C   UNL     1      62.919  32.369 128.678  1.00  0.00     0.100 A 
ATOM      3  C   UNL     1      63.952  33.260 128.971  1.00  0.00     0.197 A 
ATOM      4  O   UNL     1      65.028  33.152 128.328  1.00  0.00    -0.289 OA
ATOM      5  C   UNL     1      63.760  34.263 129.951  1.00  0.00     0.107 A 
ATOM      6  C   UNL     1      64.754  35.206 130.357  1.00  0.00     0.134 A 
ATOM      7  C   UNL     1      64.414  36.216 131.266  1.00  0.00     0.093 A 
ATOM      8  C   UNL     1      63.137  36.283 131.828  1.00  0.00     0.123 A 
ATOM      9  C   UNL     1      62.177  35.338 131.476  1.00  0.00     0.094 A 
ATOM     10  C   UNL     1      62.472  34.339 130.545  1.00  0.00     0.146 A 
ATOM     11  O   UNL     1      61.521  33.469 130.225  1.00  0.00    -0.456 OA
ENDROOT
BRANCH   1  12
ATOM     12  C   UNL     1      60.554  31.577 129.061  1.00  0.00     0.021 A 
ATOM     13  C   UNL     1      59.264  32.101 128.889  1.00  0.00     0.016 A 
ATOM     14  C   UNL     1      58.183  31.257 128.628  1.00  0.00     0.051 A 
ATOM     15  C   UNL     1      58.366  29.874 128.522  1.00  0.00     0.157 A 
ATOM     16  C   UNL     1      60.742  30.187 128.940  1.00  0.00     0.062 A 
ATOM     17  C   UNL     1      59.664  29.333 128.674  1.00  0.00     0.158 A 
BRANCH  15  18
ATOM     18  O   UNL     1      57.243  29.086 128.264  1.00  0.00    -0.504 OA
ATOM     19  H   UNL     1      57.246  28.076 128.283  1.00  0.00     0.293 HD
ENDBRANCH  15  18
BRANCH  17  20
ATOM     20  O   UNL     1      59.926  27.965 128.566  1.00  0.00    -0.504 OA
ATOM     21  H   UNL     1      59.252  27.243 128.775  1.00  0.00     0.293 HD
ENDBRANCH  17  20
ENDBRANCH   1  12
BRANCH   6  22
ATOM     22  O   UNL     1      66.081  35.183 129.920  1.00  0.00    -0.507 OA
ATOM     23  H   UNL     1      66.837  35.707 130.334  1.00  0.00     0.293 HD
ENDBRANCH   6  22
BRANCH   8  24
ATOM     24  O   UNL     1      62.814  37.282 132.743  1.00  0.00    -0.508 OA
ATOM     25  H   UNL     1      61.881  37.676 132.790  1.00  0.00     0.293 HD
ENDBRANCH   8  24
TORSDOF 5
ENDMDL
MODEL 9
REMARK VINA RESULT:    -4.279      2.056      2.854
REMARK INTER + INTRA:          -5.325
REMARK INTER:                  -5.009
REMARK INTRA:                  -0.316
REMARK UNBOUND:                -0.295
REMARK SMILES O=c1cc(-c2ccc(O)c(O)c2)oc2cc(O)cc(O)c12
REMARK SMILES IDX 4 1 3 2 2 3 1 4 21 5 19 6 18 7 16 8 15 9 14 10 13 11 5 12
REMARK SMILES IDX 6 13 7 14 8 15 12 16 10 17 9 18 11 20 20 22 17 24
REMARK H PARENT 9 19 11 21 20 23 17 25
REMARK Flexibility Score: inf
ROOT
ATOM      1  C   UNL     1      50.681  20.923 131.278  1.00  0.00     0.138 A 
ATOM      2  C   UNL     1      49.444  20.796 130.631  1.00  0.00     0.100 A 
ATOM      3  C   UNL     1      48.265  20.993 131.350  1.00  0.00     0.197 A 
ATOM      4  O   UNL     1      47.171  20.818 130.755  1.00  0.00    -0.289 OA
ATOM      5  C   UNL     1      48.327  21.357 132.717  1.00  0.00     0.107 A 
ATOM      6  C   UNL     1      47.191  21.618 133.543  1.00  0.00     0.134 A 
ATOM      7  C   UNL     1      47.375  21.872 134.907  1.00  0.00     0.093 A 
ATOM      8  C   UNL     1      48.654  21.933 135.464  1.00  0.00     0.123 A 
ATOM      9  C   UNL     1      49.770  21.730 134.657  1.00  0.00     0.094 A 
ATOM     10  C   UNL     1      49.620  21.439 133.300  1.00  0.00     0.146 A 
ATOM     11  O   UNL     1      50.711  21.233 132.570  1.00  0.00    -0.456 OA
ENDROOT
BRANCH   1  12
ATOM     12  C   UNL     1      51.966  20.727 130.561  1.00  0.00     0.021 A 
ATOM     13  C   UNL     1      51.960  20.161 129.277  1.00  0.00     0.016 A 
ATOM     14  C   UNL     1      53.154  19.970 128.579  1.00  0.00     0.051 A 
ATOM     15  C   UNL     1      54.378  20.351 129.140  1.00  0.00     0.157 A 
ATOM     16  C   UNL     1      53.195  21.123 131.121  1.00  0.00     0.062 A 
ATOM     17  C   UNL     1      54.398  20.940 130.425  1.00  0.00     0.158 A 
BRANCH  15  18
ATOM     18  O   UNL     1      55.536  20.129 128.392  1.00  0.00    -0.504 OA
ATOM     19  H   UNL     1      55.979  19.227 128.292  1.00  0.00     0.293 HD
ENDBRANCH  15  18
BRANCH  17  20
ATOM     20  O   UNL     1      55.579  21.359 131.043  1.00  0.00    -0.504 OA
ATOM     21  H   UNL     1      56.367  20.754 131.224  1.00  0.00     0.293 HD
ENDBRANCH  17  20
ENDBRANCH   1  12
BRANCH   6  22
ATOM     22  O   UNL     1      45.875  21.661 133.074  1.00  0.00    -0.507 OA
ATOM     23  H   UNL     1      45.097  21.165 133.481  1.00  0.00     0.293 HD
ENDBRANCH   6  22
BRANCH   8  24
ATOM     24  O   UNL     1      48.827  22.203 136.820  1.00  0.00    -0.508 OA
ATOM     25  H   UNL     1      48.057  22.141 137.476  1.00  0.00     0.293 HD
ENDBRANCH   8  24
TORSDOF 5
ENDMDL
