MODEL 1
REMARK VINA RESULT:    -4.216      0.000      0.000
REMARK INTER + INTRA:          -4.557
REMARK INTER:                  -4.462
REMARK INTRA:                  -0.095
REMARK UNBOUND:                -0.095
REMARK SMILES C=C(C)[C@H]1CC=C(C)C(=O)C1
REMARK SMILES IDX 8 1 7 2 6 3 5 4 4 5 11 6 9 7 10 8 2 9 1 10 3 11
REMARK H PARENT
REMARK Flexibility Score: inf
ROOT
ATOM      1  C   UNL     1      53.915 -11.831  -8.746  1.00  0.00     0.048 C 
ATOM      2  C   UNL     1      54.784 -12.581  -7.774  1.00  0.00    -0.012 C 
ATOM      3  C   UNL     1      54.439 -12.642  -6.477  1.00  0.00    -0.019 C 
ATOM      4  C   UNL     1      55.281 -13.364  -5.460  1.00  0.00     0.036 C 
ATOM      5  C   UNL     1      55.991 -14.579  -6.088  1.00  0.00     0.025 C 
ATOM      6  C   UNL     1      56.809 -14.140  -7.318  1.00  0.00     0.089 C 
ATOM      7  C   UNL     1      55.951 -13.353  -8.270  1.00  0.00     0.158 C 
ATOM      8  O   UNL     1      56.257 -13.326  -9.492  1.00  0.00    -0.295 OA
ENDROOT
BRANCH   5   9
ATOM      9  C   UNL     1      56.856 -15.313  -5.071  1.00  0.00    -0.077 C 
ATOM     10  C   UNL     1      56.498 -15.394  -3.779  1.00  0.00     0.008 C 
ATOM     11  C   UNL     1      58.142 -15.967  -5.506  1.00  0.00     0.039 C 
ENDBRANCH   5   9
TORSDOF 1
ENDMDL
MODEL 2
REMARK VINA RESULT:    -4.215      8.944     10.328
REMARK INTER + INTRA:          -4.556
REMARK INTER:                  -4.468
REMARK INTRA:                  -0.088
REMARK UNBOUND:                -0.095
REMARK SMILES C=C(C)[C@H]1CC=C(C)C(=O)C1
REMARK SMILES IDX 8 1 7 2 6 3 5 4 4 5 11 6 9 7 10 8 2 9 1 10 3 11
REMARK H PARENT
REMARK Flexibility Score: inf
ROOT
ATOM      1  C   UNL     1      56.654 -20.906   2.609  1.00  0.00     0.048 C 
ATOM      2  C   UNL     1      57.701 -20.110   1.878  1.00  0.00    -0.012 C 
ATOM      3  C   UNL     1      58.897 -19.894   2.452  1.00  0.00    -0.019 C 
ATOM      4  C   UNL     1      59.974 -19.091   1.772  1.00  0.00     0.036 C 
ATOM      5  C   UNL     1      59.913 -19.262   0.242  1.00  0.00     0.025 C 
ATOM      6  C   UNL     1      58.506 -18.910  -0.278  1.00  0.00     0.089 C 
ATOM      7  C   UNL     1      57.456 -19.673   0.482  1.00  0.00     0.158 C 
ATOM      8  O   UNL     1      56.347 -19.905  -0.071  1.00  0.00    -0.295 OA
ENDROOT
BRANCH   5   9
ATOM      9  C   UNL     1      60.992 -18.445  -0.458  1.00  0.00    -0.077 C 
ATOM     10  C   UNL     1      62.002 -19.039  -1.116  1.00  0.00     0.008 C 
ATOM     11  C   UNL     1      60.941 -16.939  -0.422  1.00  0.00     0.039 C 
ENDBRANCH   5   9
TORSDOF 1
ENDMDL
MODEL 3
REMARK VINA RESULT:    -4.139      1.657      2.644
REMARK INTER + INTRA:          -4.476
REMARK INTER:                  -4.387
REMARK INTRA:                  -0.089
REMARK UNBOUND:                -0.095
REMARK SMILES C=C(C)[C@H]1CC=C(C)C(=O)C1
REMARK SMILES IDX 8 1 7 2 6 3 5 4 4 5 11 6 9 7 10 8 2 9 1 10 3 11
REMARK H PARENT
REMARK Flexibility Score: inf
ROOT
ATOM      1  C   UNL     1      56.536 -13.168  -9.134  1.00  0.00     0.048 C 
ATOM      2  C   UNL     1      56.657 -13.964  -7.864  1.00  0.00    -0.012 C 
ATOM      3  C   UNL     1      57.664 -14.842  -7.719  1.00  0.00    -0.019 C 
ATOM      4  C   UNL     1      57.823 -15.677  -6.476  1.00  0.00     0.036 C 
ATOM      5  C   UNL     1      57.324 -14.919  -5.230  1.00  0.00     0.025 C 
ATOM      6  C   UNL     1      55.871 -14.451  -5.438  1.00  0.00     0.089 C 
ATOM      7  C   UNL     1      55.740 -13.691  -6.730  1.00  0.00     0.158 C 
ATOM      8  O   UNL     1      54.815 -12.843  -6.851  1.00  0.00    -0.295 OA
ENDROOT
BRANCH   5   9
ATOM      9  C   UNL     1      57.469 -15.757  -3.967  1.00  0.00    -0.077 C 
ATOM     10  C   UNL     1      58.579 -15.697  -3.211  1.00  0.00     0.008 C 
ATOM     11  C   UNL     1      56.355 -16.680  -3.540  1.00  0.00     0.039 C 
ENDBRANCH   5   9
TORSDOF 1
ENDMDL
MODEL 4
REMARK VINA RESULT:    -3.983      8.730     11.159
REMARK INTER + INTRA:          -4.311
REMARK INTER:                  -4.215
REMARK INTRA:                  -0.096
REMARK UNBOUND:                -0.095
REMARK SMILES C=C(C)[C@H]1CC=C(C)C(=O)C1
REMARK SMILES IDX 8 1 7 2 6 3 5 4 4 5 11 6 9 7 10 8 2 9 1 10 3 11
REMARK H PARENT
REMARK Flexibility Score: inf
ROOT
ATOM      1  C   UNL     1      57.362 -20.371   3.837  1.00  0.00     0.048 C 
ATOM      2  C   UNL     1      58.255 -20.119   2.652  1.00  0.00    -0.012 C 
ATOM      3  C   UNL     1      57.738 -20.128   1.412  1.00  0.00    -0.019 C 
ATOM      4  C   UNL     1      58.589 -19.899   0.191  1.00  0.00     0.036 C 
ATOM      5  C   UNL     1      59.749 -18.932   0.496  1.00  0.00     0.025 C 
ATOM      6  C   UNL     1      60.571 -19.446   1.693  1.00  0.00     0.089 C 
ATOM      7  C   UNL     1      59.674 -19.740   2.864  1.00  0.00     0.158 C 
ATOM      8  O   UNL     1      60.153 -19.697   4.029  1.00  0.00    -0.295 OA
ENDROOT
BRANCH   5   9
ATOM      9  C   UNL     1      60.624 -18.699  -0.729  1.00  0.00    -0.077 C 
ATOM     10  C   UNL     1      61.894 -19.136  -0.774  1.00  0.00     0.008 C 
ATOM     11  C   UNL     1      60.071 -17.966  -1.924  1.00  0.00     0.039 C 
ENDBRANCH   5   9
TORSDOF 1
ENDMDL
MODEL 5
REMARK VINA RESULT:    -3.894      8.147      9.833
REMARK INTER + INTRA:          -4.216
REMARK INTER:                  -4.120
REMARK INTRA:                  -0.096
REMARK UNBOUND:                -0.095
REMARK SMILES C=C(C)[C@H]1CC=C(C)C(=O)C1
REMARK SMILES IDX 8 1 7 2 6 3 5 4 4 5 11 6 9 7 10 8 2 9 1 10 3 11
REMARK H PARENT
REMARK Flexibility Score: inf
ROOT
ATOM      1  C   UNL     1      61.480 -17.765  -1.914  1.00  0.00     0.048 C 
ATOM      2  C   UNL     1      60.591 -18.476  -0.930  1.00  0.00    -0.012 C 
ATOM      3  C   UNL     1      61.130 -19.078   0.143  1.00  0.00    -0.019 C 
ATOM      4  C   UNL     1      60.289 -19.818   1.150  1.00  0.00     0.036 C 
ATOM      5  C   UNL     1      58.896 -19.173   1.291  1.00  0.00     0.025 C 
ATOM      6  C   UNL     1      58.211 -19.078  -0.086  1.00  0.00     0.089 C 
ATOM      7  C   UNL     1      59.116 -18.406  -1.081  1.00  0.00     0.158 C 
ATOM      8  O   UNL     1      58.607 -17.811  -2.069  1.00  0.00    -0.295 OA
ENDROOT
BRANCH   5   9
ATOM      9  C   UNL     1      58.031 -19.919   2.298  1.00  0.00    -0.077 C 
ATOM     10  C   UNL     1      56.945 -20.611   1.912  1.00  0.00     0.008 C 
ATOM     11  C   UNL     1      58.384 -19.891   3.763  1.00  0.00     0.039 C 
ENDBRANCH   5   9
TORSDOF 1
ENDMDL
MODEL 6
REMARK VINA RESULT:    -3.888      7.790      9.683
REMARK INTER + INTRA:          -4.211
REMARK INTER:                  -4.119
REMARK INTRA:                  -0.091
REMARK UNBOUND:                -0.095
REMARK SMILES C=C(C)[C@H]1CC=C(C)C(=O)C1
REMARK SMILES IDX 8 1 7 2 6 3 5 4 4 5 11 6 9 7 10 8 2 9 1 10 3 11
REMARK H PARENT
REMARK Flexibility Score: inf
ROOT
ATOM      1  C   UNL     1      60.157 -17.878  -2.782  1.00  0.00     0.048 C 
ATOM      2  C   UNL     1      59.675 -18.285  -1.417  1.00  0.00    -0.012 C 
ATOM      3  C   UNL     1      58.366 -18.208  -1.120  1.00  0.00    -0.019 C 
ATOM      4  C   UNL     1      57.832 -18.587   0.236  1.00  0.00     0.036 C 
ATOM      5  C   UNL     1      58.661 -19.725   0.861  1.00  0.00     0.025 C 
ATOM      6  C   UNL     1      60.151 -19.336   0.908  1.00  0.00     0.089 C 
ATOM      7  C   UNL     1      60.623 -18.886  -0.447  1.00  0.00     0.158 C 
ATOM      8  O   UNL     1      61.845 -18.992  -0.736  1.00  0.00    -0.295 OA
ENDROOT
BRANCH   5   9
ATOM      9  C   UNL     1      58.137 -20.111   2.238  1.00  0.00    -0.077 C 
ATOM     10  C   UNL     1      56.961 -20.744   2.387  1.00  0.00     0.008 C 
ATOM     11  C   UNL     1      58.940 -19.783   3.471  1.00  0.00     0.039 C 
ENDBRANCH   5   9
TORSDOF 1
ENDMDL
MODEL 7
REMARK VINA RESULT:    -3.876      9.871     12.774
REMARK INTER + INTRA:          -4.197
REMARK INTER:                  -4.100
REMARK INTRA:                  -0.097
REMARK UNBOUND:                -0.095
REMARK SMILES C=C(C)[C@H]1CC=C(C)C(=O)C1
REMARK SMILES IDX 8 1 7 2 6 3 5 4 4 5 11 6 9 7 10 8 2 9 1 10 3 11
REMARK H PARENT
REMARK Flexibility Score: inf
ROOT
ATOM      1  C   UNL     1      59.757 -20.085   6.255  1.00  0.00     0.048 C 
ATOM      2  C   UNL     1      59.891 -20.050   4.758  1.00  0.00    -0.012 C 
ATOM      3  C   UNL     1      58.816 -19.781   3.997  1.00  0.00    -0.019 C 
ATOM      4  C   UNL     1      58.890 -19.750   2.493  1.00  0.00     0.036 C 
ATOM      5  C   UNL     1      60.270 -19.259   2.015  1.00  0.00     0.025 C 
ATOM      6  C   UNL     1      61.387 -20.118   2.637  1.00  0.00     0.089 C 
ATOM      7  C   UNL     1      61.229 -20.189   4.131  1.00  0.00     0.158 C 
ATOM      8  O   UNL     1      62.245 -20.406   4.846  1.00  0.00    -0.295 OA
ENDROOT
BRANCH   5   9
ATOM      9  C   UNL     1      60.361 -19.233   0.495  1.00  0.00    -0.077 C 
ATOM     10  C   UNL     1      61.501 -19.551  -0.143  1.00  0.00     0.008 C 
ATOM     11  C   UNL     1      59.159 -18.845  -0.328  1.00  0.00     0.039 C 
ENDBRANCH   5   9
TORSDOF 1
ENDMDL
MODEL 8
REMARK VINA RESULT:    -3.867      6.251      8.563
REMARK INTER + INTRA:          -4.189
REMARK INTER:                  -4.096
REMARK INTRA:                  -0.093
REMARK UNBOUND:                -0.095
REMARK SMILES C=C(C)[C@H]1CC=C(C)C(=O)C1
REMARK SMILES IDX 8 1 7 2 6 3 5 4 4 5 11 6 9 7 10 8 2 9 1 10 3 11
REMARK H PARENT
REMARK Flexibility Score: inf
ROOT
ATOM      1  C   UNL     1      59.343 -19.356   0.331  1.00  0.00     0.048 C 
ATOM      2  C   UNL     1      58.106 -18.962  -0.429  1.00  0.00    -0.012 C 
ATOM      3  C   UNL     1      58.204 -18.126  -1.477  1.00  0.00    -0.019 C 
ATOM      4  C   UNL     1      56.997 -17.686  -2.262  1.00  0.00     0.036 C 
ATOM      5  C   UNL     1      55.926 -18.794  -2.303  1.00  0.00     0.025 C 
ATOM      6  C   UNL     1      55.564 -19.238  -0.873  1.00  0.00     0.089 C 
ATOM      7  C   UNL     1      56.804 -19.591  -0.099  1.00  0.00     0.158 C 
ATOM      8  O   UNL     1      56.716 -20.402   0.862  1.00  0.00    -0.295 OA
ENDROOT
BRANCH   5   9
ATOM      9  C   UNL     1      54.695 -18.357  -3.086  1.00  0.00    -0.077 C 
ATOM     10  C   UNL     1      54.775 -18.015  -4.383  1.00  0.00     0.008 C 
ATOM     11  C   UNL     1      53.350 -18.300  -2.407  1.00  0.00     0.039 C 
ENDBRANCH   5   9
TORSDOF 1
ENDMDL
MODEL 9
REMARK VINA RESULT:    -3.743      9.901     12.871
REMARK INTER + INTRA:          -4.057
REMARK INTER:                  -3.962
REMARK INTRA:                  -0.095
REMARK UNBOUND:                -0.095
REMARK SMILES C=C(C)[C@H]1CC=C(C)C(=O)C1
REMARK SMILES IDX 8 1 7 2 6 3 5 4 4 5 11 6 9 7 10 8 2 9 1 10 3 11
REMARK H PARENT
REMARK Flexibility Score: inf
ROOT
ATOM      1  C   UNL     1      61.699 -20.704   5.666  1.00  0.00     0.048 C 
ATOM      2  C   UNL     1      60.898 -20.253   4.476  1.00  0.00    -0.012 C 
ATOM      3  C   UNL     1      61.502 -20.088   3.287  1.00  0.00    -0.019 C 
ATOM      4  C   UNL     1      60.752 -19.622   2.067  1.00  0.00     0.036 C 
ATOM      5  C   UNL     1      59.294 -20.122   2.088  1.00  0.00     0.025 C 
ATOM      6  C   UNL     1      58.603 -19.697   3.397  1.00  0.00     0.089 C 
ATOM      7  C   UNL     1      59.425 -20.110   4.587  1.00  0.00     0.158 C 
ATOM      8  O   UNL     1      58.851 -20.298   5.693  1.00  0.00    -0.295 OA
ENDROOT
BRANCH   5   9
ATOM      9  C   UNL     1      58.521 -19.648   0.864  1.00  0.00    -0.077 C 
ATOM     10  C   UNL     1      57.267 -20.068   0.624  1.00  0.00     0.008 C 
ATOM     11  C   UNL     1      59.159 -18.689  -0.108  1.00  0.00     0.039 C 
ENDBRANCH   5   9
TORSDOF 1
ENDMDL
