MODEL 1
REMARK VINA RESULT:    -4.105      0.000      0.000
REMARK INTER + INTRA:          -7.994
REMARK INTER:                  -7.224
REMARK INTRA:                  -0.770
REMARK UNBOUND:                -0.770
REMARK SMILES CCCCCCC=CCCCCCCCC(=O)[O-]
REMARK SMILES IDX 10 1 11 2 12 3 13 4 14 5 15 6 16 7 17 8 18 9 9 10 8 11 7 12
REMARK SMILES IDX 6 13 5 14 4 15 3 16 2 17 1 18
REMARK H PARENT
REMARK Flexibility Score: inf
ROOT
ATOM      1  C   UNL     1      27.259  62.108  81.122  1.00  0.00     0.004 C 
ENDROOT
BRANCH   1   2
ATOM      2  C   UNL     1      25.782  62.074  81.547  1.00  0.00     0.000 C 
BRANCH   2   3
ATOM      3  C   UNL     1      25.577  61.427  82.925  1.00  0.00     0.000 C 
BRANCH   3   4
ATOM      4  C   UNL     1      26.922  61.149  83.608  1.00  0.00     0.000 C 
BRANCH   4   5
ATOM      5  C   UNL     1      26.840  61.407  85.116  1.00  0.00     0.006 C 
BRANCH   5   6
ATOM      6  C   UNL     1      27.505  60.275  85.904  1.00  0.00     0.053 C 
BRANCH   6   7
ATOM      7  C   UNL     1      27.655  60.655  87.343  1.00  0.00     0.041 C 
ATOM      8  O   UNL     1      27.266  59.870  88.248  1.00  0.00    -0.550 OA
ATOM      9  O   UNL     1      28.268  61.853  87.686  1.00  0.00    -0.550 OA
ENDBRANCH   6   7
ENDBRANCH   5   6
ENDBRANCH   4   5
ENDBRANCH   3   4
ENDBRANCH   2   3
ENDBRANCH   1   2
BRANCH   1  10
ATOM     10  C   UNL     1      27.502  61.401  79.780  1.00  0.00     0.027 C 
BRANCH  10  11
ATOM     11  C   UNL     1      26.370  61.648  78.822  1.00  0.00    -0.031 C 
ATOM     12  C   UNL     1      26.583  62.165  77.602  1.00  0.00    -0.031 C 
BRANCH  12  13
ATOM     13  C   UNL     1      25.450  62.435  76.648  1.00  0.00     0.027 C 
BRANCH  13  14
ATOM     14  C   UNL     1      24.535  63.584  77.113  1.00  0.00     0.004 C 
BRANCH  14  15
ATOM     15  C   UNL     1      24.913  64.961  76.535  1.00  0.00     0.000 C 
BRANCH  15  16
ATOM     16  C   UNL     1      25.997  64.880  75.447  1.00  0.00    -0.000 C 
BRANCH  16  17
ATOM     17  C   UNL     1      26.690  66.230  75.207  1.00  0.00    -0.003 C 
ATOM     18  C   UNL     1      25.997  67.388  75.924  1.00  0.00     0.004 C 
ENDBRANCH  16  17
ENDBRANCH  15  16
ENDBRANCH  14  15
ENDBRANCH  13  14
ENDBRANCH  12  13
ENDBRANCH  10  11
ENDBRANCH   1  10
TORSDOF 13
ENDMDL
MODEL 2
REMARK VINA RESULT:    -4.016      5.777      8.805
REMARK INTER + INTRA:          -7.838
REMARK INTER:                  -6.038
REMARK INTRA:                  -1.800
REMARK UNBOUND:                -0.770
REMARK SMILES CCCCCCC=CCCCCCCCC(=O)[O-]
REMARK SMILES IDX 10 1 11 2 12 3 13 4 14 5 15 6 16 7 17 8 18 9 9 10 8 11 7 12
REMARK SMILES IDX 6 13 5 14 4 15 3 16 2 17 1 18
REMARK H PARENT
REMARK Flexibility Score: inf
ROOT
ATOM      1  C   UNL     1      25.245  61.445  83.660  1.00  0.00     0.004 C 
ENDROOT
BRANCH   1   2
ATOM      2  C   UNL     1      26.727  61.407  84.064  1.00  0.00     0.000 C 
BRANCH   2   3
ATOM      3  C   UNL     1      27.652  61.049  82.891  1.00  0.00     0.000 C 
BRANCH   3   4
ATOM      4  C   UNL     1      27.897  59.536  82.827  1.00  0.00     0.000 C 
BRANCH   4   5
ATOM      5  C   UNL     1      29.387  59.210  82.980  1.00  0.00     0.006 C 
BRANCH   5   6
ATOM      6  C   UNL     1      29.974  58.696  81.663  1.00  0.00     0.053 C 
BRANCH   6   7
ATOM      7  C   UNL     1      31.438  58.425  81.811  1.00  0.00     0.041 C 
ATOM      8  O   UNL     1      31.834  57.439  82.486  1.00  0.00    -0.550 OA
ATOM      9  O   UNL     1      32.364  59.234  81.164  1.00  0.00    -0.550 OA
ENDBRANCH   6   7
ENDBRANCH   5   6
ENDBRANCH   4   5
ENDBRANCH   3   4
ENDBRANCH   2   3
ENDBRANCH   1   2
BRANCH   1  10
ATOM     10  C   UNL     1      24.511  60.136  83.986  1.00  0.00     0.027 C 
BRANCH  10  11
ATOM     11  C   UNL     1      24.986  59.556  85.290  1.00  0.00    -0.031 C 
ATOM     12  C   UNL     1      25.321  58.262  85.403  1.00  0.00    -0.031 C 
BRANCH  12  13
ATOM     13  C   UNL     1      25.775  57.672  86.711  1.00  0.00     0.027 C 
BRANCH  13  14
ATOM     14  C   UNL     1      25.665  58.661  87.886  1.00  0.00     0.004 C 
BRANCH  14  15
ATOM     15  C   UNL     1      27.012  58.992  88.557  1.00  0.00     0.000 C 
BRANCH  15  16
ATOM     16  C   UNL     1      28.219  58.749  87.634  1.00  0.00    -0.000 C 
BRANCH  16  17
ATOM     17  C   UNL     1      28.661  60.023  86.898  1.00  0.00    -0.003 C 
ATOM     18  C   UNL     1      28.067  61.294  87.504  1.00  0.00     0.004 C 
ENDBRANCH  16  17
ENDBRANCH  15  16
ENDBRANCH  14  15
ENDBRANCH  13  14
ENDBRANCH  12  13
ENDBRANCH  10  11
ENDBRANCH   1  10
TORSDOF 13
ENDMDL
MODEL 3
REMARK VINA RESULT:    -4.013      3.892      5.229
REMARK INTER + INTRA:          -7.834
REMARK INTER:                  -6.368
REMARK INTRA:                  -1.465
REMARK UNBOUND:                -0.770
REMARK SMILES CCCCCCC=CCCCCCCCC(=O)[O-]
REMARK SMILES IDX 10 1 11 2 12 3 13 4 14 5 15 6 16 7 17 8 18 9 9 10 8 11 7 12
REMARK SMILES IDX 6 13 5 14 4 15 3 16 2 17 1 18
REMARK H PARENT
REMARK Flexibility Score: inf
ROOT
ATOM      1  C   UNL     1      24.923  62.171  80.951  1.00  0.00     0.004 C 
ENDROOT
BRANCH   1   2
ATOM      2  C   UNL     1      26.447  62.287  81.111  1.00  0.00     0.000 C 
BRANCH   2   3
ATOM      3  C   UNL     1      27.209  61.188  80.356  1.00  0.00     0.000 C 
BRANCH   3   4
ATOM      4  C   UNL     1      27.387  61.558  78.879  1.00  0.00     0.000 C 
BRANCH   4   5
ATOM      5  C   UNL     1      27.526  60.304  78.008  1.00  0.00     0.006 C 
BRANCH   5   6
ATOM      6  C   UNL     1      28.989  60.060  77.628  1.00  0.00     0.053 C 
BRANCH   6   7
ATOM      7  C   UNL     1      29.539  58.890  78.382  1.00  0.00     0.041 C 
ATOM      8  O   UNL     1      30.076  59.059  79.508  1.00  0.00    -0.550 OA
ATOM      9  O   UNL     1      29.416  57.608  77.862  1.00  0.00    -0.550 OA
ENDBRANCH   6   7
ENDBRANCH   5   6
ENDBRANCH   4   5
ENDBRANCH   3   4
ENDBRANCH   2   3
ENDBRANCH   1   2
BRANCH   1  10
ATOM     10  C   UNL     1      24.247  63.533  80.738  1.00  0.00     0.027 C 
BRANCH  10  11
ATOM     11  C   UNL     1      24.198  63.894  79.279  1.00  0.00    -0.031 C 
ATOM     12  C   UNL     1      24.173  62.952  78.324  1.00  0.00    -0.031 C 
BRANCH  12  13
ATOM     13  C   UNL     1      24.147  63.307  76.862  1.00  0.00     0.027 C 
BRANCH  13  14
ATOM     14  C   UNL     1      25.482  63.020  76.150  1.00  0.00     0.004 C 
BRANCH  14  15
ATOM     15  C   UNL     1      26.186  64.278  75.603  1.00  0.00     0.000 C 
BRANCH  15  16
ATOM     16  C   UNL     1      25.368  65.564  75.814  1.00  0.00    -0.000 C 
BRANCH  16  17
ATOM     17  C   UNL     1      26.225  66.832  75.685  1.00  0.00    -0.003 C 
ATOM     18  C   UNL     1      25.546  68.069  76.270  1.00  0.00     0.004 C 
ENDBRANCH  16  17
ENDBRANCH  15  16
ENDBRANCH  14  15
ENDBRANCH  13  14
ENDBRANCH  12  13
ENDBRANCH  10  11
ENDBRANCH   1  10
TORSDOF 13
ENDMDL
MODEL 4
REMARK VINA RESULT:    -3.945      4.929      6.970
REMARK INTER + INTRA:          -7.713
REMARK INTER:                  -5.466
REMARK INTRA:                  -2.247
REMARK UNBOUND:                -0.770
REMARK SMILES CCCCCCC=CCCCCCCCC(=O)[O-]
REMARK SMILES IDX 10 1 11 2 12 3 13 4 14 5 15 6 16 7 17 8 18 9 9 10 8 11 7 12
REMARK SMILES IDX 6 13 5 14 4 15 3 16 2 17 1 18
REMARK H PARENT
REMARK Flexibility Score: inf
ROOT
ATOM      1  C   UNL     1      29.714  57.138  83.671  1.00  0.00     0.004 C 
ENDROOT
BRANCH   1   2
ATOM      2  C   UNL     1      30.991  57.734  84.285  1.00  0.00     0.000 C 
BRANCH   2   3
ATOM      3  C   UNL     1      30.901  57.883  85.811  1.00  0.00     0.000 C 
BRANCH   3   4
ATOM      4  C   UNL     1      29.701  57.108  86.369  1.00  0.00     0.000 C 
BRANCH   4   5
ATOM      5  C   UNL     1      28.821  58.009  87.244  1.00  0.00     0.006 C 
BRANCH   5   6
ATOM      6  C   UNL     1      28.772  59.435  86.687  1.00  0.00     0.053 C 
BRANCH   6   7
ATOM      7  C   UNL     1      27.961  60.319  87.581  1.00  0.00     0.041 C 
ATOM      8  O   UNL     1      28.112  61.569  87.540  1.00  0.00    -0.550 OA
ATOM      9  O   UNL     1      27.005  59.767  88.424  1.00  0.00    -0.550 OA
ENDBRANCH   6   7
ENDBRANCH   5   6
ENDBRANCH   4   5
ENDBRANCH   3   4
ENDBRANCH   2   3
ENDBRANCH   1   2
BRANCH   1  10
ATOM     10  C   UNL     1      29.157  57.992  82.523  1.00  0.00     0.027 C 
BRANCH  10  11
ATOM     11  C   UNL     1      28.676  59.327  83.022  1.00  0.00    -0.031 C 
ATOM     12  C   UNL     1      28.037  60.189  82.216  1.00  0.00    -0.031 C 
BRANCH  12  13
ATOM     13  C   UNL     1      27.573  61.535  82.705  1.00  0.00     0.027 C 
BRANCH  13  14
ATOM     14  C   UNL     1      26.981  61.486  84.126  1.00  0.00     0.004 C 
BRANCH  14  15
ATOM     15  C   UNL     1      25.442  61.419  84.163  1.00  0.00     0.000 C 
BRANCH  15  16
ATOM     16  C   UNL     1      24.901  59.981  84.088  1.00  0.00    -0.000 C 
BRANCH  16  17
ATOM     17  C   UNL     1      25.658  59.020  85.018  1.00  0.00    -0.003 C 
ATOM     18  C   UNL     1      25.664  57.581  84.505  1.00  0.00     0.004 C 
ENDBRANCH  16  17
ENDBRANCH  15  16
ENDBRANCH  14  15
ENDBRANCH  13  14
ENDBRANCH  12  13
ENDBRANCH  10  11
ENDBRANCH   1  10
TORSDOF 13
ENDMDL
MODEL 5
REMARK VINA RESULT:    -3.891      3.158      5.102
REMARK INTER + INTRA:          -7.619
REMARK INTER:                  -5.846
REMARK INTRA:                  -1.773
REMARK UNBOUND:                -0.770
REMARK SMILES CCCCCCC=CCCCCCCCC(=O)[O-]
REMARK SMILES IDX 10 1 11 2 12 3 13 4 14 5 15 6 16 7 17 8 18 9 9 10 8 11 7 12
REMARK SMILES IDX 6 13 5 14 4 15 3 16 2 17 1 18
REMARK H PARENT
REMARK Flexibility Score: inf
ROOT
ATOM      1  C   UNL     1      30.537  57.769  81.751  1.00  0.00     0.004 C 
ENDROOT
BRANCH   1   2
ATOM      2  C   UNL     1      30.267  59.007  82.620  1.00  0.00     0.000 C 
BRANCH   2   3
ATOM      3  C   UNL     1      29.932  58.648  84.076  1.00  0.00     0.000 C 
BRANCH   3   4
ATOM      4  C   UNL     1      28.490  58.140  84.198  1.00  0.00     0.000 C 
BRANCH   4   5
ATOM      5  C   UNL     1      28.006  58.196  85.652  1.00  0.00     0.006 C 
BRANCH   5   6
ATOM      6  C   UNL     1      28.874  59.147  86.482  1.00  0.00     0.053 C 
BRANCH   6   7
ATOM      7  C   UNL     1      28.022  59.977  87.390  1.00  0.00     0.041 C 
ATOM      8  O   UNL     1      28.222  61.216  87.488  1.00  0.00    -0.550 OA
ATOM      9  O   UNL     1      26.976  59.389  88.091  1.00  0.00    -0.550 OA
ENDBRANCH   6   7
ENDBRANCH   5   6
ENDBRANCH   4   5
ENDBRANCH   3   4
ENDBRANCH   2   3
ENDBRANCH   1   2
BRANCH   1  10
ATOM     10  C   UNL     1      29.859  57.855  80.375  1.00  0.00     0.027 C 
BRANCH  10  11
ATOM     11  C   UNL     1      29.368  59.249  80.097  1.00  0.00    -0.031 C 
ATOM     12  C   UNL     1      28.983  59.625  78.868  1.00  0.00    -0.031 C 
BRANCH  12  13
ATOM     13  C   UNL     1      28.512  61.025  78.580  1.00  0.00     0.027 C 
BRANCH  13  14
ATOM     14  C   UNL     1      27.068  61.281  79.051  1.00  0.00     0.004 C 
BRANCH  14  15
ATOM     15  C   UNL     1      26.967  62.108  80.347  1.00  0.00     0.000 C 
BRANCH  15  16
ATOM     16  C   UNL     1      26.682  61.247  81.589  1.00  0.00    -0.000 C 
BRANCH  16  17
ATOM     17  C   UNL     1      27.616  61.582  82.762  1.00  0.00    -0.003 C 
ATOM     18  C   UNL     1      26.940  61.423  84.123  1.00  0.00     0.004 C 
ENDBRANCH  16  17
ENDBRANCH  15  16
ENDBRANCH  14  15
ENDBRANCH  13  14
ENDBRANCH  12  13
ENDBRANCH  10  11
ENDBRANCH   1  10
TORSDOF 13
ENDMDL
MODEL 6
REMARK VINA RESULT:    -3.868      3.150      3.808
REMARK INTER + INTRA:          -7.578
REMARK INTER:                  -6.654
REMARK INTRA:                  -0.924
REMARK UNBOUND:                -0.770
REMARK SMILES CCCCCCC=CCCCCCCCC(=O)[O-]
REMARK SMILES IDX 10 1 11 2 12 3 13 4 14 5 15 6 16 7 17 8 18 9 9 10 8 11 7 12
REMARK SMILES IDX 6 13 5 14 4 15 3 16 2 17 1 18
REMARK H PARENT
REMARK Flexibility Score: inf
ROOT
ATOM      1  C   UNL     1      28.116  61.363  78.817  1.00  0.00     0.004 C 
ENDROOT
BRANCH   1   2
ATOM      2  C   UNL     1      27.317  60.795  80.000  1.00  0.00     0.000 C 
BRANCH   2   3
ATOM      3  C   UNL     1      27.322  61.727  81.221  1.00  0.00     0.000 C 
BRANCH   3   4
ATOM      4  C   UNL     1      27.669  60.955  82.500  1.00  0.00     0.000 C 
BRANCH   4   5
ATOM      5  C   UNL     1      28.128  59.529  82.176  1.00  0.00     0.006 C 
BRANCH   5   6
ATOM      6  C   UNL     1      29.576  59.304  82.621  1.00  0.00     0.053 C 
BRANCH   6   7
ATOM      7  C   UNL     1      30.335  58.549  81.576  1.00  0.00     0.041 C 
ATOM      8  O   UNL     1      30.313  58.933  80.377  1.00  0.00    -0.550 OA
ATOM      9  O   UNL     1      31.107  57.451  81.933  1.00  0.00    -0.550 OA
ENDBRANCH   6   7
ENDBRANCH   5   6
ENDBRANCH   4   5
ENDBRANCH   3   4
ENDBRANCH   2   3
ENDBRANCH   1   2
BRANCH   1  10
ATOM     10  C   UNL     1      27.321  61.341  77.503  1.00  0.00     0.027 C 
BRANCH  10  11
ATOM     11  C   UNL     1      26.087  62.196  77.599  1.00  0.00    -0.031 C 
ATOM     12  C   UNL     1      25.570  62.806  76.522  1.00  0.00    -0.031 C 
BRANCH  12  13
ATOM     13  C   UNL     1      24.349  63.681  76.617  1.00  0.00     0.027 C 
BRANCH  13  14
ATOM     14  C   UNL     1      24.678  65.182  76.523  1.00  0.00     0.004 C 
BRANCH  14  15
ATOM     15  C   UNL     1      25.980  65.494  75.761  1.00  0.00     0.000 C 
BRANCH  15  16
ATOM     16  C   UNL     1      26.183  66.998  75.507  1.00  0.00    -0.000 C 
BRANCH  16  17
ATOM     17  C   UNL     1      25.295  67.870  76.408  1.00  0.00    -0.003 C 
ATOM     18  C   UNL     1      24.321  68.741  75.615  1.00  0.00     0.004 C 
ENDBRANCH  16  17
ENDBRANCH  15  16
ENDBRANCH  14  15
ENDBRANCH  13  14
ENDBRANCH  12  13
ENDBRANCH  10  11
ENDBRANCH   1  10
TORSDOF 13
ENDMDL
MODEL 7
REMARK VINA RESULT:    -3.857      3.424      5.817
REMARK INTER + INTRA:          -7.559
REMARK INTER:                  -5.602
REMARK INTRA:                  -1.957
REMARK UNBOUND:                -0.770
REMARK SMILES CCCCCCC=CCCCCCCCC(=O)[O-]
REMARK SMILES IDX 10 1 11 2 12 3 13 4 14 5 15 6 16 7 17 8 18 9 9 10 8 11 7 12
REMARK SMILES IDX 6 13 5 14 4 15 3 16 2 17 1 18
REMARK H PARENT
REMARK Flexibility Score: inf
ROOT
ATOM      1  C   UNL     1      30.810  57.072  83.280  1.00  0.00     0.004 C 
ENDROOT
BRANCH   1   2
ATOM      2  C   UNL     1      31.985  57.256  84.254  1.00  0.00     0.000 C 
BRANCH   2   3
ATOM      3  C   UNL     1      31.534  57.324  85.721  1.00  0.00     0.000 C 
BRANCH   3   4
ATOM      4  C   UNL     1      30.008  57.440  85.822  1.00  0.00     0.000 C 
BRANCH   4   5
ATOM      5  C   UNL     1      29.592  58.830  86.318  1.00  0.00     0.006 C 
BRANCH   5   6
ATOM      6  C   UNL     1      28.075  58.913  86.508  1.00  0.00     0.053 C 
BRANCH   6   7
ATOM      7  C   UNL     1      27.730  59.952  87.528  1.00  0.00     0.041 C 
ATOM      8  O   UNL     1      27.025  59.649  88.526  1.00  0.00    -0.550 OA
ATOM      9  O   UNL     1      28.228  61.243  87.401  1.00  0.00    -0.550 OA
ENDBRANCH   6   7
ENDBRANCH   5   6
ENDBRANCH   4   5
ENDBRANCH   3   4
ENDBRANCH   2   3
ENDBRANCH   1   2
BRANCH   1  10
ATOM     10  C   UNL     1      30.776  58.150  82.187  1.00  0.00     0.027 C 
BRANCH  10  11
ATOM     11  C   UNL     1      29.877  59.292  82.577  1.00  0.00    -0.031 C 
ATOM     12  C   UNL     1      28.556  59.121  82.737  1.00  0.00    -0.031 C 
BRANCH  12  13
ATOM     13  C   UNL     1      27.649  60.265  83.105  1.00  0.00     0.027 C 
BRANCH  13  14
ATOM     14  C   UNL     1      27.630  61.381  82.045  1.00  0.00     0.004 C 
BRANCH  14  15
ATOM     15  C   UNL     1      26.955  60.978  80.720  1.00  0.00     0.000 C 
BRANCH  15  16
ATOM     16  C   UNL     1      27.674  61.541  79.482  1.00  0.00    -0.000 C 
BRANCH  16  17
ATOM     17  C   UNL     1      28.681  60.546  78.885  1.00  0.00    -0.003 C 
ATOM     18  C   UNL     1      28.237  59.091  79.036  1.00  0.00     0.004 C 
ENDBRANCH  16  17
ENDBRANCH  15  16
ENDBRANCH  14  15
ENDBRANCH  13  14
ENDBRANCH  12  13
ENDBRANCH  10  11
ENDBRANCH   1  10
TORSDOF 13
ENDMDL
MODEL 8
REMARK VINA RESULT:    -3.780      3.869      6.965
REMARK INTER + INTRA:          -7.423
REMARK INTER:                  -5.935
REMARK INTRA:                  -1.488
REMARK UNBOUND:                -0.770
REMARK SMILES CCCCCCC=CCCCCCCCC(=O)[O-]
REMARK SMILES IDX 10 1 11 2 12 3 13 4 14 5 15 6 16 7 17 8 18 9 9 10 8 11 7 12
REMARK SMILES IDX 6 13 5 14 4 15 3 16 2 17 1 18
REMARK H PARENT
REMARK Flexibility Score: inf
ROOT
ATOM      1  C   UNL     1      28.018  58.863  87.461  1.00  0.00     0.004 C 
ENDROOT
BRANCH   1   2
ATOM      2  C   UNL     1      28.730  57.502  87.478  1.00  0.00     0.000 C 
BRANCH   2   3
ATOM      3  C   UNL     1      29.930  57.448  86.520  1.00  0.00     0.000 C 
BRANCH   3   4
ATOM      4  C   UNL     1      29.853  58.573  85.481  1.00  0.00     0.000 C 
BRANCH   4   5
ATOM      5  C   UNL     1      29.600  58.011  84.077  1.00  0.00     0.006 C 
BRANCH   5   6
ATOM      6  C   UNL     1      30.027  59.012  83.000  1.00  0.00     0.053 C 
BRANCH   6   7
ATOM      7  C   UNL     1      30.900  58.348  81.982  1.00  0.00     0.041 C 
ATOM      8  O   UNL     1      30.596  58.394  80.761  1.00  0.00    -0.550 OA
ATOM      9  O   UNL     1      32.073  57.718  82.377  1.00  0.00    -0.550 OA
ENDBRANCH   6   7
ENDBRANCH   5   6
ENDBRANCH   4   5
ENDBRANCH   3   4
ENDBRANCH   2   3
ENDBRANCH   1   2
BRANCH   1  10
ATOM     10  C   UNL     1      26.493  58.730  87.335  1.00  0.00     0.027 C 
BRANCH  10  11
ATOM     11  C   UNL     1      25.969  59.542  86.183  1.00  0.00    -0.031 C 
ATOM     12  C   UNL     1      26.685  60.542  85.647  1.00  0.00    -0.031 C 
BRANCH  12  13
ATOM     13  C   UNL     1      26.156  61.373  84.509  1.00  0.00     0.027 C 
BRANCH  13  14
ATOM     14  C   UNL     1      26.605  60.857  83.129  1.00  0.00     0.004 C 
BRANCH  14  15
ATOM     15  C   UNL     1      27.611  61.778  82.411  1.00  0.00     0.000 C 
BRANCH  15  16
ATOM     16  C   UNL     1      27.207  62.094  80.961  1.00  0.00    -0.000 C 
BRANCH  16  17
ATOM     17  C   UNL     1      25.729  62.493  80.837  1.00  0.00    -0.003 C 
ATOM     18  C   UNL     1      25.164  62.250  79.438  1.00  0.00     0.004 C 
ENDBRANCH  16  17
ENDBRANCH  15  16
ENDBRANCH  14  15
ENDBRANCH  13  14
ENDBRANCH  12  13
ENDBRANCH  10  11
ENDBRANCH   1  10
TORSDOF 13
ENDMDL
MODEL 9
REMARK VINA RESULT:    -3.761      4.178      6.231
REMARK INTER + INTRA:          -7.390
REMARK INTER:                  -4.880
REMARK INTRA:                  -2.510
REMARK UNBOUND:                -0.770
REMARK SMILES CCCCCCC=CCCCCCCCC(=O)[O-]
REMARK SMILES IDX 10 1 11 2 12 3 13 4 14 5 15 6 16 7 17 8 18 9 9 10 8 11 7 12
REMARK SMILES IDX 6 13 5 14 4 15 3 16 2 17 1 18
REMARK H PARENT
REMARK Flexibility Score: inf
ROOT
ATOM      1  C   UNL     1      30.006  58.603  81.680  1.00  0.00     0.004 C 
ENDROOT
BRANCH   1   2
ATOM      2  C   UNL     1      30.330  58.934  83.145  1.00  0.00     0.000 C 
BRANCH   2   3
ATOM      3  C   UNL     1      30.944  57.745  83.900  1.00  0.00     0.000 C 
BRANCH   3   4
ATOM      4  C   UNL     1      30.574  57.788  85.388  1.00  0.00     0.000 C 
BRANCH   4   5
ATOM      5  C   UNL     1      29.397  58.739  85.636  1.00  0.00     0.006 C 
BRANCH   5   6
ATOM      6  C   UNL     1      28.654  58.368  86.922  1.00  0.00     0.053 C 
BRANCH   6   7
ATOM      7  C   UNL     1      28.036  59.583  87.540  1.00  0.00     0.041 C 
ATOM      8  O   UNL     1      28.519  60.723  87.312  1.00  0.00    -0.550 OA
ATOM      9  O   UNL     1      26.900  59.460  88.329  1.00  0.00    -0.550 OA
ENDBRANCH   6   7
ENDBRANCH   5   6
ENDBRANCH   4   5
ENDBRANCH   3   4
ENDBRANCH   2   3
ENDBRANCH   1   2
BRANCH   1  10
ATOM     10  C   UNL     1      28.861  57.588  81.544  1.00  0.00     0.027 C 
BRANCH  10  11
ATOM     11  C   UNL     1      27.554  58.179  81.997  1.00  0.00    -0.031 C 
ATOM     12  C   UNL     1      26.930  57.738  83.100  1.00  0.00    -0.031 C 
BRANCH  12  13
ATOM     13  C   UNL     1      25.611  58.310  83.545  1.00  0.00     0.027 C 
BRANCH  13  14
ATOM     14  C   UNL     1      25.756  59.337  84.684  1.00  0.00     0.004 C 
BRANCH  14  15
ATOM     15  C   UNL     1      25.785  60.802  84.208  1.00  0.00     0.000 C 
BRANCH  15  16
ATOM     16  C   UNL     1      27.211  61.364  84.080  1.00  0.00    -0.000 C 
BRANCH  16  17
ATOM     17  C   UNL     1      27.587  61.685  82.625  1.00  0.00    -0.003 C 
ATOM     18  C   UNL     1      26.379  61.690  81.688  1.00  0.00     0.004 C 
ENDBRANCH  16  17
ENDBRANCH  15  16
ENDBRANCH  14  15
ENDBRANCH  13  14
ENDBRANCH  12  13
ENDBRANCH  10  11
ENDBRANCH   1  10
TORSDOF 13
ENDMDL
