MODEL 1
REMARK VINA RESULT:    -5.622      0.000      0.000
REMARK INTER + INTRA:         -10.253
REMARK INTER:                  -7.923
REMARK INTRA:                  -2.329
REMARK UNBOUND:                -2.329
REMARK SMILES C=CC(=C)CCC=C(C)CCC=C(C)C
REMARK SMILES IDX 8 1 7 2 9 3 10 4 11 5 12 6 14 7 13 8 15 9 6 10 5 11 3 12
REMARK SMILES IDX 4 13 2 14 1 15
REMARK H PARENT
REMARK Flexibility Score: inf
ROOT
ATOM      1  C   UNL     1     111.471 110.877 109.704  1.00  0.00    -0.077 C 
ATOM      2  C   UNL     1     110.317 110.230 109.987  1.00  0.00    -0.028 C 
ATOM      3  C   UNL     1     112.433 110.236 108.739  1.00  0.00     0.039 C 
ENDROOT
BRANCH   1   4
ATOM      4  C   UNL     1     111.871 112.181 110.367  1.00  0.00     0.034 C 
BRANCH   4   5
ATOM      5  C   UNL     1     113.194 112.018 111.122  1.00  0.00     0.032 C 
BRANCH   5   6
ATOM      6  C   UNL     1     112.955 111.954 112.610  1.00  0.00    -0.028 C 
ATOM      7  C   UNL     1     112.730 110.907 114.822  1.00  0.00     0.039 C 
ATOM      8  C   UNL     1     112.940 110.812 113.333  1.00  0.00    -0.080 C 
ATOM      9  C   UNL     1     113.110 109.455 112.690  1.00  0.00     0.039 C 
ENDBRANCH   5   6
ENDBRANCH   4   5
ENDBRANCH   1   4
BRANCH   2  10
ATOM     10  C   UNL     1     109.252 110.740 110.924  1.00  0.00     0.032 C 
BRANCH  10  11
ATOM     11  C   UNL     1     109.439 110.157 112.330  1.00  0.00     0.039 C 
BRANCH  11  12
ATOM     12  C   UNL     1     109.245 111.225 113.384  1.00  0.00    -0.055 C 
ATOM     13  C   UNL     1     109.235 112.509 113.012  1.00  0.00     0.012 C 
BRANCH  12  14
ATOM     14  C   UNL     1     109.115 110.900 114.829  1.00  0.00    -0.005 C 
ATOM     15  C   UNL     1     109.143 109.662 115.321  1.00  0.00     0.009 C 
ENDBRANCH  12  14
ENDBRANCH  11  12
ENDBRANCH  10  11
ENDBRANCH   2  10
TORSDOF 7
ENDMDL
MODEL 2
REMARK VINA RESULT:    -5.602      0.902      3.825
REMARK INTER + INTRA:         -10.224
REMARK INTER:                  -7.956
REMARK INTRA:                  -2.268
REMARK UNBOUND:                -2.329
REMARK SMILES C=CC(=C)CCC=C(C)CCC=C(C)C
REMARK SMILES IDX 8 1 7 2 9 3 10 4 11 5 12 6 14 7 13 8 15 9 6 10 5 11 3 12
REMARK SMILES IDX 4 13 2 14 1 15
REMARK H PARENT
REMARK Flexibility Score: inf
ROOT
ATOM      1  C   UNL     1     110.838 111.701 109.989  1.00  0.00    -0.077 C 
ATOM      2  C   UNL     1     111.967 112.340 110.374  1.00  0.00    -0.028 C 
ATOM      3  C   UNL     1     109.850 112.448 109.131  1.00  0.00     0.039 C 
ENDROOT
BRANCH   1   4
ATOM      4  C   UNL     1     110.491 110.296 110.438  1.00  0.00     0.034 C 
BRANCH   4   5
ATOM      5  C   UNL     1     109.144 110.281 111.169  1.00  0.00     0.032 C 
BRANCH   5   6
ATOM      6  C   UNL     1     109.346 110.303 112.663  1.00  0.00    -0.028 C 
ATOM      7  C   UNL     1     109.491 111.284 114.911  1.00  0.00     0.039 C 
ATOM      8  C   UNL     1     109.312 111.421 113.422  1.00  0.00    -0.080 C 
ATOM      9  C   UNL     1     109.118 112.793 112.818  1.00  0.00     0.039 C 
ENDBRANCH   5   6
ENDBRANCH   4   5
ENDBRANCH   1   4
BRANCH   2  10
ATOM     10  C   UNL     1     113.052 111.732 111.225  1.00  0.00     0.032 C 
BRANCH  10  11
ATOM     11  C   UNL     1     112.887 112.140 112.694  1.00  0.00     0.039 C 
BRANCH  11  12
ATOM     12  C   UNL     1     113.027 110.940 113.603  1.00  0.00    -0.055 C 
ATOM     13  C   UNL     1     113.050 109.717 113.064  1.00  0.00     0.012 C 
BRANCH  12  14
ATOM     14  C   UNL     1     113.088 111.068 115.084  1.00  0.00    -0.005 C 
ATOM     15  C   UNL     1     113.192 112.230 115.728  1.00  0.00     0.009 C 
ENDBRANCH  12  14
ENDBRANCH  11  12
ENDBRANCH  10  11
ENDBRANCH   2  10
TORSDOF 7
ENDMDL
MODEL 3
REMARK VINA RESULT:    -5.568      1.220      5.119
REMARK INTER + INTRA:         -10.175
REMARK INTER:                  -7.843
REMARK INTRA:                  -2.333
REMARK UNBOUND:                -2.329
REMARK SMILES C=CC(=C)CCC=C(C)CCC=C(C)C
REMARK SMILES IDX 8 1 7 2 9 3 10 4 11 5 12 6 14 7 13 8 15 9 6 10 5 11 3 12
REMARK SMILES IDX 4 13 2 14 1 15
REMARK H PARENT
REMARK Flexibility Score: inf
ROOT
ATOM      1  C   UNL     1     110.805 110.720 115.102  1.00  0.00    -0.077 C 
ATOM      2  C   UNL     1     111.828 109.886 114.806  1.00  0.00    -0.028 C 
ATOM      3  C   UNL     1     109.716 110.221 116.015  1.00  0.00     0.039 C 
ENDROOT
BRANCH   1   4
ATOM      4  C   UNL     1     110.670 112.105 114.502  1.00  0.00     0.034 C 
BRANCH   4   5
ATOM      5  C   UNL     1     109.316 112.260 113.800  1.00  0.00     0.032 C 
BRANCH   5   6
ATOM      6  C   UNL     1     109.505 112.556 112.334  1.00  0.00    -0.028 C 
ATOM      7  C   UNL     1     109.579 112.090 109.923  1.00  0.00     0.039 C 
ATOM      8  C   UNL     1     109.405 111.637 111.349  1.00  0.00    -0.080 C 
ATOM      9  C   UNL     1     109.142 110.177 111.640  1.00  0.00     0.039 C 
ENDBRANCH   5   6
ENDBRANCH   4   5
ENDBRANCH   1   4
BRANCH   2  10
ATOM     10  C   UNL     1     112.994 110.235 113.916  1.00  0.00     0.032 C 
BRANCH  10  11
ATOM     11  C   UNL     1     112.921 109.461 112.594  1.00  0.00     0.039 C 
BRANCH  11  12
ATOM     12  C   UNL     1     112.837 110.411 111.420  1.00  0.00    -0.055 C 
ATOM     13  C   UNL     1     112.568 109.920 110.207  1.00  0.00     0.012 C 
BRANCH  12  14
ATOM     14  C   UNL     1     113.095 111.869 111.559  1.00  0.00    -0.005 C 
ATOM     15  C   UNL     1     113.124 112.721 110.534  1.00  0.00     0.009 C 
ENDBRANCH  12  14
ENDBRANCH  11  12
ENDBRANCH  10  11
ENDBRANCH   2  10
TORSDOF 7
ENDMDL
MODEL 4
REMARK VINA RESULT:    -5.560      2.905      4.769
REMARK INTER + INTRA:         -10.164
REMARK INTER:                  -7.877
REMARK INTRA:                  -2.288
REMARK UNBOUND:                -2.329
REMARK SMILES C=CC(=C)CCC=C(C)CCC=C(C)C
REMARK SMILES IDX 8 1 7 2 9 3 10 4 11 5 12 6 14 7 13 8 15 9 6 10 5 11 3 12
REMARK SMILES IDX 4 13 2 14 1 15
REMARK H PARENT
REMARK Flexibility Score: inf
ROOT
ATOM      1  C   UNL     1     111.446 110.758 104.971  1.00  0.00    -0.077 C 
ATOM      2  C   UNL     1     110.330 110.044 105.249  1.00  0.00    -0.028 C 
ATOM      3  C   UNL     1     112.465 110.157 104.039  1.00  0.00     0.039 C 
ENDROOT
BRANCH   1   4
ATOM      4  C   UNL     1     111.748 112.099 105.609  1.00  0.00     0.034 C 
BRANCH   4   5
ATOM      5  C   UNL     1     113.095 112.059 106.338  1.00  0.00     0.032 C 
BRANCH   5   6
ATOM      6  C   UNL     1     112.892 111.998 107.831  1.00  0.00    -0.028 C 
ATOM      7  C   UNL     1     112.761 110.962 110.056  1.00  0.00     0.039 C 
ATOM      8  C   UNL     1     112.942 110.863 108.564  1.00  0.00    -0.080 C 
ATOM      9  C   UNL     1     113.157 109.509 107.928  1.00  0.00     0.039 C 
ENDBRANCH   5   6
ENDBRANCH   4   5
ENDBRANCH   1   4
BRANCH   2  10
ATOM     10  C   UNL     1     109.217 110.506 106.155  1.00  0.00     0.032 C 
BRANCH  10  11
ATOM     11  C   UNL     1     109.458 110.040 107.596  1.00  0.00     0.039 C 
BRANCH  11  12
ATOM     12  C   UNL     1     109.204 111.166 108.573  1.00  0.00    -0.055 C 
ATOM     13  C   UNL     1     109.116 112.418 108.112  1.00  0.00     0.012 C 
BRANCH  12  14
ATOM     14  C   UNL     1     109.101 110.938 110.039  1.00  0.00    -0.005 C 
ATOM     15  C   UNL     1     109.060 109.731 110.604  1.00  0.00     0.009 C 
ENDBRANCH  12  14
ENDBRANCH  11  12
ENDBRANCH  10  11
ENDBRANCH   2  10
TORSDOF 7
ENDMDL
MODEL 5
REMARK VINA RESULT:    -5.540      3.210      6.083
REMARK INTER + INTRA:         -10.137
REMARK INTER:                  -7.835
REMARK INTRA:                  -2.302
REMARK UNBOUND:                -2.329
REMARK SMILES C=CC(=C)CCC=C(C)CCC=C(C)C
REMARK SMILES IDX 8 1 7 2 9 3 10 4 11 5 12 6 14 7 13 8 15 9 6 10 5 11 3 12
REMARK SMILES IDX 4 13 2 14 1 15
REMARK H PARENT
REMARK Flexibility Score: inf
ROOT
ATOM      1  C   UNL     1     111.688 111.521 110.023  1.00  0.00    -0.077 C 
ATOM      2  C   UNL     1     110.599 112.310 109.872  1.00  0.00    -0.028 C 
ATOM      3  C   UNL     1     112.869 112.068 110.781  1.00  0.00     0.039 C 
ENDROOT
BRANCH   1   4
ATOM      4  C   UNL     1     111.800 110.141 109.405  1.00  0.00     0.034 C 
BRANCH   4   5
ATOM      5  C   UNL     1     113.104 110.010 108.612  1.00  0.00     0.032 C 
BRANCH   5   6
ATOM      6  C   UNL     1     112.820 109.711 107.162  1.00  0.00    -0.028 C 
ATOM      7  C   UNL     1     112.585 110.174 104.760  1.00  0.00     0.039 C 
ATOM      8  C   UNL     1     112.851 110.629 106.171  1.00  0.00    -0.080 C 
ATOM      9  C   UNL     1     113.128 112.090 106.443  1.00  0.00     0.039 C 
ENDBRANCH   5   6
ENDBRANCH   4   5
ENDBRANCH   1   4
BRANCH   2  10
ATOM     10  C   UNL     1     109.339 111.909 109.148  1.00  0.00     0.032 C 
BRANCH  10  11
ATOM     11  C   UNL     1     109.189 112.696 107.841  1.00  0.00     0.039 C 
BRANCH  11  12
ATOM     12  C   UNL     1     109.366 111.786 106.644  1.00  0.00    -0.055 C 
ATOM     13  C   UNL     1     109.635 112.328 105.452  1.00  0.00     0.012 C 
BRANCH  12  14
ATOM     14  C   UNL     1     109.199 110.312 106.737  1.00  0.00    -0.005 C 
ATOM     15  C   UNL     1     109.077 109.507 105.681  1.00  0.00     0.009 C 
ENDBRANCH  12  14
ENDBRANCH  11  12
ENDBRANCH  10  11
ENDBRANCH   2  10
TORSDOF 7
ENDMDL
MODEL 6
REMARK VINA RESULT:    -5.538      1.231      4.016
REMARK INTER + INTRA:         -10.133
REMARK INTER:                  -7.819
REMARK INTRA:                  -2.314
REMARK UNBOUND:                -2.329
REMARK SMILES C=CC(=C)CCC=C(C)CCC=C(C)C
REMARK SMILES IDX 8 1 7 2 9 3 10 4 11 5 12 6 14 7 13 8 15 9 6 10 5 11 3 12
REMARK SMILES IDX 4 13 2 14 1 15
REMARK H PARENT
REMARK Flexibility Score: inf
ROOT
ATOM      1  C   UNL     1     111.923 111.476 114.791  1.00  0.00    -0.077 C 
ATOM      2  C   UNL     1     110.863 112.312 114.698  1.00  0.00    -0.028 C 
ATOM      3  C   UNL     1     113.173 111.976 115.466  1.00  0.00     0.039 C 
ENDROOT
BRANCH   1   4
ATOM      4  C   UNL     1     111.933 110.086 114.185  1.00  0.00     0.034 C 
BRANCH   4   5
ATOM      5  C   UNL     1     113.181 109.884 113.318  1.00  0.00     0.032 C 
BRANCH   5   6
ATOM      6  C   UNL     1     112.800 109.673 111.875  1.00  0.00    -0.028 C 
ATOM      7  C   UNL     1     112.456 110.267 109.515  1.00  0.00     0.039 C 
ATOM      8  C   UNL     1     112.825 110.637 110.928  1.00  0.00    -0.080 C 
ATOM      9  C   UNL     1     113.193 112.067 111.251  1.00  0.00     0.039 C 
ENDBRANCH   5   6
ENDBRANCH   4   5
ENDBRANCH   1   4
BRANCH   2  10
ATOM     10  C   UNL     1     109.544 111.962 114.060  1.00  0.00     0.032 C 
BRANCH  10  11
ATOM     11  C   UNL     1     109.331 112.766 112.772  1.00  0.00     0.039 C 
BRANCH  11  12
ATOM     12  C   UNL     1     109.410 111.866 111.559  1.00  0.00    -0.055 C 
ATOM     13  C   UNL     1     109.656 112.409 110.362  1.00  0.00     0.012 C 
BRANCH  12  14
ATOM     14  C   UNL     1     109.172 110.400 111.641  1.00  0.00    -0.005 C 
ATOM     15  C   UNL     1     109.030 109.607 110.579  1.00  0.00     0.009 C 
ENDBRANCH  12  14
ENDBRANCH  11  12
ENDBRANCH  10  11
ENDBRANCH   2  10
TORSDOF 7
ENDMDL
MODEL 7
REMARK VINA RESULT:    -5.526      1.815      5.758
REMARK INTER + INTRA:         -10.116
REMARK INTER:                  -7.825
REMARK INTRA:                  -2.291
REMARK UNBOUND:                -2.329
REMARK SMILES C=CC(=C)CCC=C(C)CCC=C(C)C
REMARK SMILES IDX 8 1 7 2 9 3 10 4 11 5 12 6 14 7 13 8 15 9 6 10 5 11 3 12
REMARK SMILES IDX 4 13 2 14 1 15
REMARK H PARENT
REMARK Flexibility Score: inf
ROOT
ATOM      1  C   UNL     1     110.850 111.484 112.330  1.00  0.00    -0.077 C 
ATOM      2  C   UNL     1     111.975 112.178 112.037  1.00  0.00    -0.028 C 
ATOM      3  C   UNL     1     109.907 112.052 113.358  1.00  0.00     0.039 C 
ENDROOT
BRANCH   1   4
ATOM      4  C   UNL     1     110.533 110.131 111.723  1.00  0.00     0.034 C 
BRANCH   4   5
ATOM      5  C   UNL     1     109.156 110.150 111.052  1.00  0.00     0.032 C 
BRANCH   5   6
ATOM      6  C   UNL     1     109.268 109.786 109.593  1.00  0.00    -0.028 C 
ATOM      7  C   UNL     1     109.483 110.171 107.176  1.00  0.00     0.039 C 
ATOM      8  C   UNL     1     109.330 110.683 108.584  1.00  0.00    -0.080 C 
ATOM      9  C   UNL     1     109.234 112.172 108.829  1.00  0.00     0.039 C 
ENDBRANCH   5   6
ENDBRANCH   4   5
ENDBRANCH   1   4
BRANCH   2  10
ATOM     10  C   UNL     1     113.013 111.749 111.031  1.00  0.00     0.032 C 
BRANCH  10  11
ATOM     11  C   UNL     1     112.850 112.523 109.718  1.00  0.00     0.039 C 
BRANCH  11  12
ATOM     12  C   UNL     1     112.938 111.590 108.530  1.00  0.00    -0.055 C 
ATOM     13  C   UNL     1     112.856 112.099 107.297  1.00  0.00     0.012 C 
BRANCH  12  14
ATOM     14  C   UNL     1     113.062 110.116 108.687  1.00  0.00    -0.005 C 
ATOM     15  C   UNL     1     113.050 109.255 107.669  1.00  0.00     0.009 C 
ENDBRANCH  12  14
ENDBRANCH  11  12
ENDBRANCH  10  11
ENDBRANCH   2  10
TORSDOF 7
ENDMDL
MODEL 8
REMARK VINA RESULT:    -5.480      1.744      4.608
REMARK INTER + INTRA:         -10.052
REMARK INTER:                  -7.950
REMARK INTRA:                  -2.103
REMARK UNBOUND:                -2.329
REMARK SMILES C=CC(=C)CCC=C(C)CCC=C(C)C
REMARK SMILES IDX 8 1 7 2 9 3 10 4 11 5 12 6 14 7 13 8 15 9 6 10 5 11 3 12
REMARK SMILES IDX 4 13 2 14 1 15
REMARK H PARENT
REMARK Flexibility Score: inf
ROOT
ATOM      1  C   UNL     1     111.845 111.345 112.173  1.00  0.00    -0.077 C 
ATOM      2  C   UNL     1     110.714 110.612 112.288  1.00  0.00    -0.028 C 
ATOM      3  C   UNL     1     113.000 111.026 113.086  1.00  0.00     0.039 C 
ENDROOT
BRANCH   1   4
ATOM      4  C   UNL     1     111.977 112.515 111.219  1.00  0.00     0.034 C 
BRANCH   4   5
ATOM      5  C   UNL     1     113.211 112.347 110.326  1.00  0.00     0.032 C 
BRANCH   5   6
ATOM      6  C   UNL     1     113.168 111.025 109.601  1.00  0.00    -0.028 C 
ATOM      7  C   UNL     1     113.042 109.505 107.674  1.00  0.00     0.039 C 
ATOM      8  C   UNL     1     113.025 110.891 108.263  1.00  0.00    -0.080 C 
ATOM      9  C   UNL     1     112.834 112.084 107.355  1.00  0.00     0.039 C 
ENDBRANCH   5   6
ENDBRANCH   4   5
ENDBRANCH   1   4
BRANCH   2  10
ATOM     10  C   UNL     1     109.476 110.802 111.448  1.00  0.00     0.032 C 
BRANCH  10  11
ATOM     11  C   UNL     1     109.505 109.883 110.221  1.00  0.00     0.039 C 
BRANCH  11  12
ATOM     12  C   UNL     1     109.425 110.691 108.944  1.00  0.00    -0.055 C 
ATOM     13  C   UNL     1     109.420 110.051 107.771  1.00  0.00     0.012 C 
BRANCH  12  14
ATOM     14  C   UNL     1     109.402 112.178 108.946  1.00  0.00    -0.005 C 
ATOM     15  C   UNL     1     109.097 112.920 107.881  1.00  0.00     0.009 C 
ENDBRANCH  12  14
ENDBRANCH  11  12
ENDBRANCH  10  11
ENDBRANCH   2  10
TORSDOF 7
ENDMDL
MODEL 9
REMARK VINA RESULT:    -5.461      1.579      5.706
REMARK INTER + INTRA:         -10.025
REMARK INTER:                  -7.652
REMARK INTRA:                  -2.373
REMARK UNBOUND:                -2.329
REMARK SMILES C=CC(=C)CCC=C(C)CCC=C(C)C
REMARK SMILES IDX 8 1 7 2 9 3 10 4 11 5 12 6 14 7 13 8 15 9 6 10 5 11 3 12
REMARK SMILES IDX 4 13 2 14 1 15
REMARK H PARENT
REMARK Flexibility Score: inf
ROOT
ATOM      1  C   UNL     1     110.670 111.387 116.936  1.00  0.00    -0.077 C 
ATOM      2  C   UNL     1     111.821 112.084 116.794  1.00  0.00    -0.028 C 
ATOM      3  C   UNL     1     109.627 111.914 117.886  1.00  0.00     0.039 C 
ENDROOT
BRANCH   1   4
ATOM      4  C   UNL     1     110.413 110.066 116.238  1.00  0.00     0.034 C 
BRANCH   4   5
ATOM      5  C   UNL     1     109.067 110.095 115.507  1.00  0.00     0.032 C 
BRANCH   5   6
ATOM      6  C   UNL     1     109.258 109.862 114.029  1.00  0.00    -0.028 C 
ATOM      7  C   UNL     1     109.573 110.461 111.667  1.00  0.00     0.039 C 
ATOM      8  C   UNL     1     109.339 110.845 113.105  1.00  0.00    -0.080 C 
ATOM      9  C   UNL     1     109.187 112.303 113.472  1.00  0.00     0.039 C 
ENDBRANCH   5   6
ENDBRANCH   4   5
ENDBRANCH   1   4
BRANCH   2  10
ATOM     10  C   UNL     1     112.956 111.694 115.882  1.00  0.00     0.032 C 
BRANCH  10  11
ATOM     11  C   UNL     1     112.890 112.478 114.566  1.00  0.00     0.039 C 
BRANCH  11  12
ATOM     12  C   UNL     1     112.956 111.540 113.380  1.00  0.00    -0.055 C 
ATOM     13  C   UNL     1     112.924 112.052 112.146  1.00  0.00     0.012 C 
BRANCH  12  14
ATOM     14  C   UNL     1     113.002 110.062 113.538  1.00  0.00    -0.005 C 
ATOM     15  C   UNL     1     113.004 109.203 112.519  1.00  0.00     0.009 C 
ENDBRANCH  12  14
ENDBRANCH  11  12
ENDBRANCH  10  11
ENDBRANCH   2  10
TORSDOF 7
ENDMDL
