MODEL 1
REMARK VINA RESULT:    -6.405      0.000      0.000
REMARK INTER + INTRA:          -8.764
REMARK INTER:                  -7.902
REMARK INTRA:                  -0.862
REMARK UNBOUND:                -0.862
REMARK SMILES CC(C)=CCC[C@H](C)c1ccc(C)cc1
REMARK SMILES IDX 6 1 7 2 8 3 9 4 13 5 12 6 11 7 14 8 10 9 15 10 5 11 4 12
REMARK SMILES IDX 2 13 1 14 3 15
REMARK H PARENT
REMARK Flexibility Score: inf
ROOT
ATOM      1  C   UNL     1      46.540   8.420   6.330  1.00  0.00     0.012 C 
ENDROOT
BRANCH   1   2
ATOM      2  C   UNL     1      46.093   7.563   5.120  1.00  0.00     0.016 C 
ATOM      3  C   UNL     1      45.237   6.359   5.544  1.00  0.00     0.013 C 
BRANCH   2   4
ATOM      4  C   UNL     1      47.303   7.094   4.330  1.00  0.00    -0.045 A 
ATOM      5  C   UNL     1      50.730   5.777   2.055  1.00  0.00     0.044 C 
ATOM      6  C   UNL     1      49.558   6.251   2.863  1.00  0.00    -0.051 A 
ATOM      7  C   UNL     1      48.851   7.399   2.477  1.00  0.00     0.004 A 
ATOM      8  C   UNL     1      49.120   5.512   3.972  1.00  0.00     0.004 A 
ATOM      9  C   UNL     1      47.737   7.820   3.208  1.00  0.00     0.004 A 
ATOM     10  C   UNL     1      48.006   5.934   4.704  1.00  0.00     0.004 A 
ENDBRANCH   2   4
ENDBRANCH   1   2
BRANCH   1  11
ATOM     11  C   UNL     1      46.061   9.881   6.266  1.00  0.00     0.028 C 
BRANCH  11  12
ATOM     12  C   UNL     1      45.610  10.277   4.879  1.00  0.00    -0.028 C 
ATOM     13  C   UNL     1      44.311  10.349   4.518  1.00  0.00    -0.080 C 
ATOM     14  C   UNL     1      43.203  10.026   5.491  1.00  0.00     0.039 C 
ATOM     15  C   UNL     1      43.974  10.761   3.109  1.00  0.00     0.039 C 
ENDBRANCH  11  12
ENDBRANCH   1  11
TORSDOF 4
ENDMDL
MODEL 2
REMARK VINA RESULT:    -6.328      1.268      6.105
REMARK INTER + INTRA:          -8.670
REMARK INTER:                  -7.930
REMARK INTRA:                  -0.740
REMARK UNBOUND:                -0.862
REMARK SMILES CC(C)=CCC[C@H](C)c1ccc(C)cc1
REMARK SMILES IDX 6 1 7 2 8 3 9 4 13 5 12 6 11 7 14 8 10 9 15 10 5 11 4 12
REMARK SMILES IDX 2 13 1 14 3 15
REMARK H PARENT
REMARK Flexibility Score: inf
ROOT
ATOM      1  C   UNL     1      47.480   7.456   2.941  1.00  0.00     0.012 C 
ENDROOT
BRANCH   1   2
ATOM      2  C   UNL     1      47.206   7.342   4.462  1.00  0.00     0.016 C 
ATOM      3  C   UNL     1      47.003   5.886   4.909  1.00  0.00     0.013 C 
BRANCH   2   4
ATOM      4  C   UNL     1      45.999   8.181   4.844  1.00  0.00    -0.045 A 
ATOM      5  C   UNL     1      42.585  10.579   5.962  1.00  0.00     0.044 C 
ATOM      6  C   UNL     1      43.774   9.763   5.548  1.00  0.00    -0.051 A 
ATOM      7  C   UNL     1      45.057  10.107   5.997  1.00  0.00     0.004 A 
ATOM      8  C   UNL     1      43.603   8.613   4.765  1.00  0.00     0.004 A 
ATOM      9  C   UNL     1      46.161   9.327   5.642  1.00  0.00     0.004 A 
ATOM     10  C   UNL     1      44.707   7.832   4.410  1.00  0.00     0.004 A 
ENDBRANCH   2   4
ENDBRANCH   1   2
BRANCH   1  11
ATOM     11  C   UNL     1      48.850   8.068   2.601  1.00  0.00     0.028 C 
BRANCH  11  12
ATOM     12  C   UNL     1      49.965   7.476   3.433  1.00  0.00    -0.028 C 
ATOM     13  C   UNL     1      50.626   6.351   3.086  1.00  0.00    -0.080 C 
ATOM     14  C   UNL     1      50.284   5.591   1.827  1.00  0.00     0.039 C 
ATOM     15  C   UNL     1      51.726   5.852   3.986  1.00  0.00     0.039 C 
ENDBRANCH  11  12
ENDBRANCH   1  11
TORSDOF 4
ENDMDL
MODEL 3
REMARK VINA RESULT:    -6.259      1.864      5.737
REMARK INTER + INTRA:          -8.585
REMARK INTER:                  -7.772
REMARK INTRA:                  -0.813
REMARK UNBOUND:                -0.862
REMARK SMILES CC(C)=CCC[C@H](C)c1ccc(C)cc1
REMARK SMILES IDX 6 1 7 2 8 3 9 4 13 5 12 6 11 7 14 8 10 9 15 10 5 11 4 12
REMARK SMILES IDX 2 13 1 14 3 15
REMARK H PARENT
REMARK Flexibility Score: inf
ROOT
ATOM      1  C   UNL     1      47.707   7.710   3.076  1.00  0.00     0.012 C 
ENDROOT
BRANCH   1   2
ATOM      2  C   UNL     1      47.306   7.445   4.549  1.00  0.00     0.016 C 
ATOM      3  C   UNL     1      47.059   5.953   4.824  1.00  0.00     0.013 C 
BRANCH   2   4
ATOM      4  C   UNL     1      46.076   8.256   4.914  1.00  0.00    -0.045 A 
ATOM      5  C   UNL     1      42.594  10.578   5.984  1.00  0.00     0.044 C 
ATOM      6  C   UNL     1      43.805   9.788   5.586  1.00  0.00    -0.051 A 
ATOM      7  C   UNL     1      45.081  10.190   6.007  1.00  0.00     0.004 A 
ATOM      8  C   UNL     1      43.665   8.604   4.848  1.00  0.00     0.004 A 
ATOM      9  C   UNL     1      46.207   9.435   5.668  1.00  0.00     0.004 A 
ATOM     10  C   UNL     1      44.791   7.848   4.509  1.00  0.00     0.004 A 
ENDBRANCH   2   4
ENDBRANCH   1   2
BRANCH   1  11
ATOM     11  C   UNL     1      49.221   7.616   2.819  1.00  0.00     0.028 C 
BRANCH  11  12
ATOM     12  C   UNL     1      49.959   8.857   3.269  1.00  0.00    -0.028 C 
ATOM     13  C   UNL     1      50.694   8.907   4.401  1.00  0.00    -0.080 C 
ATOM     14  C   UNL     1      50.825   7.710   5.311  1.00  0.00     0.039 C 
ATOM     15  C   UNL     1      51.392  10.195   4.752  1.00  0.00     0.039 C 
ENDBRANCH  11  12
ENDBRANCH   1  11
TORSDOF 4
ENDMDL
MODEL 4
REMARK VINA RESULT:    -6.216      1.535      2.305
REMARK INTER + INTRA:          -8.532
REMARK INTER:                  -7.171
REMARK INTRA:                  -1.361
REMARK UNBOUND:                -0.862
REMARK SMILES CC(C)=CCC[C@H](C)c1ccc(C)cc1
REMARK SMILES IDX 6 1 7 2 8 3 9 4 13 5 12 6 11 7 14 8 10 9 15 10 5 11 4 12
REMARK SMILES IDX 2 13 1 14 3 15
REMARK H PARENT
REMARK Flexibility Score: inf
ROOT
ATOM      1  C   UNL     1      44.982   6.754   4.827  1.00  0.00     0.012 C 
ENDROOT
BRANCH   1   2
ATOM      2  C   UNL     1      46.318   6.396   5.524  1.00  0.00     0.016 C 
ATOM      3  C   UNL     1      46.276   6.670   7.036  1.00  0.00     0.013 C 
BRANCH   2   4
ATOM      4  C   UNL     1      47.467   7.158   4.886  1.00  0.00    -0.045 A 
ATOM      5  C   UNL     1      50.738   9.341   3.101  1.00  0.00     0.044 C 
ATOM      6  C   UNL     1      49.618   8.556   3.717  1.00  0.00    -0.051 A 
ATOM      7  C   UNL     1      49.568   8.365   5.105  1.00  0.00     0.004 A 
ATOM      8  C   UNL     1      48.576   8.066   2.917  1.00  0.00     0.004 A 
ATOM      9  C   UNL     1      48.506   7.666   5.684  1.00  0.00     0.004 A 
ATOM     10  C   UNL     1      47.513   7.367   3.495  1.00  0.00     0.004 A 
ENDBRANCH   2   4
ENDBRANCH   1   2
BRANCH   1  11
ATOM     11  C   UNL     1      44.255   7.955   5.457  1.00  0.00     0.028 C 
BRANCH  11  12
ATOM     12  C   UNL     1      43.861   8.992   4.429  1.00  0.00    -0.028 C 
ATOM     13  C   UNL     1      44.581  10.111   4.198  1.00  0.00    -0.080 C 
ATOM     14  C   UNL     1      45.844  10.410   4.969  1.00  0.00     0.039 C 
ATOM     15  C   UNL     1      44.099  11.075   3.146  1.00  0.00     0.039 C 
ENDBRANCH  11  12
ENDBRANCH   1  11
TORSDOF 4
ENDMDL
MODEL 5
REMARK VINA RESULT:    -6.112      1.987      5.913
REMARK INTER + INTRA:          -8.403
REMARK INTER:                  -7.653
REMARK INTRA:                  -0.750
REMARK UNBOUND:                -0.862
REMARK SMILES CC(C)=CCC[C@H](C)c1ccc(C)cc1
REMARK SMILES IDX 6 1 7 2 8 3 9 4 13 5 12 6 11 7 14 8 10 9 15 10 5 11 4 12
REMARK SMILES IDX 2 13 1 14 3 15
REMARK H PARENT
REMARK Flexibility Score: inf
ROOT
ATOM      1  C   UNL     1      47.466   6.259   4.561  1.00  0.00     0.012 C 
ENDROOT
BRANCH   1   2
ATOM      2  C   UNL     1      46.947   7.313   3.551  1.00  0.00     0.016 C 
ATOM      3  C   UNL     1      48.066   8.241   3.053  1.00  0.00     0.013 C 
BRANCH   2   4
ATOM      4  C   UNL     1      45.826   8.129   4.169  1.00  0.00    -0.045 A 
ATOM      5  C   UNL     1      42.659  10.478   5.933  1.00  0.00     0.044 C 
ATOM      6  C   UNL     1      43.743   9.661   5.294  1.00  0.00    -0.051 A 
ATOM      7  C   UNL     1      44.831  10.292   4.674  1.00  0.00     0.004 A 
ATOM      8  C   UNL     1      43.711   8.262   5.371  1.00  0.00     0.004 A 
ATOM      9  C   UNL     1      45.860   9.532   4.110  1.00  0.00     0.004 A 
ATOM     10  C   UNL     1      44.740   7.501   4.807  1.00  0.00     0.004 A 
ENDBRANCH   2   4
ENDBRANCH   1   2
BRANCH   1  11
ATOM     11  C   UNL     1      49.000   6.184   4.647  1.00  0.00     0.028 C 
BRANCH  11  12
ATOM     12  C   UNL     1      49.503   6.314   6.067  1.00  0.00    -0.028 C 
ATOM     13  C   UNL     1      50.346   7.291   6.464  1.00  0.00    -0.080 C 
ATOM     14  C   UNL     1      50.858   8.333   5.499  1.00  0.00     0.039 C 
ATOM     15  C   UNL     1      50.780   7.330   7.907  1.00  0.00     0.039 C 
ENDBRANCH  11  12
ENDBRANCH   1  11
TORSDOF 4
ENDMDL
MODEL 6
REMARK VINA RESULT:    -6.073      2.279      5.975
REMARK INTER + INTRA:          -8.355
REMARK INTER:                  -7.654
REMARK INTRA:                  -0.701
REMARK UNBOUND:                -0.862
REMARK SMILES CC(C)=CCC[C@H](C)c1ccc(C)cc1
REMARK SMILES IDX 6 1 7 2 8 3 9 4 13 5 12 6 11 7 14 8 10 9 15 10 5 11 4 12
REMARK SMILES IDX 2 13 1 14 3 15
REMARK H PARENT
REMARK Flexibility Score: inf
ROOT
ATOM      1  C   UNL     1      48.328   7.593   5.361  1.00  0.00     0.012 C 
ENDROOT
BRANCH   1   2
ATOM      2  C   UNL     1      47.156   7.401   4.366  1.00  0.00     0.016 C 
ATOM      3  C   UNL     1      47.550   7.767   2.926  1.00  0.00     0.013 C 
BRANCH   2   4
ATOM      4  C   UNL     1      45.954   8.218   4.804  1.00  0.00    -0.045 A 
ATOM      5  C   UNL     1      42.514  10.530   6.020  1.00  0.00     0.044 C 
ATOM      6  C   UNL     1      43.706   9.711   5.624  1.00  0.00    -0.051 A 
ATOM      7  C   UNL     1      43.545   8.566   4.830  1.00  0.00     0.004 A 
ATOM      8  C   UNL     1      44.997  10.120   5.987  1.00  0.00     0.004 A 
ATOM      9  C   UNL     1      44.658   7.822   4.429  1.00  0.00     0.004 A 
ATOM     10  C   UNL     1      46.111   9.377   5.587  1.00  0.00     0.004 A 
ENDBRANCH   2   4
ENDBRANCH   1   2
BRANCH   1  11
ATOM     11  C   UNL     1      49.698   7.179   4.794  1.00  0.00     0.028 C 
BRANCH  11  12
ATOM     12  C   UNL     1      50.829   7.998   5.372  1.00  0.00    -0.028 C 
ATOM     13  C   UNL     1      51.341   9.086   4.758  1.00  0.00    -0.080 C 
ATOM     14  C   UNL     1      50.813   9.561   3.425  1.00  0.00     0.039 C 
ATOM     15  C   UNL     1      52.466   9.832   5.427  1.00  0.00     0.039 C 
ENDBRANCH  11  12
ENDBRANCH   1  11
TORSDOF 4
ENDMDL
MODEL 7
REMARK VINA RESULT:    -5.977      1.175      2.049
REMARK INTER + INTRA:          -8.236
REMARK INTER:                  -7.469
REMARK INTRA:                  -0.767
REMARK UNBOUND:                -0.862
REMARK SMILES CC(C)=CCC[C@H](C)c1ccc(C)cc1
REMARK SMILES IDX 6 1 7 2 8 3 9 4 13 5 12 6 11 7 14 8 10 9 15 10 5 11 4 12
REMARK SMILES IDX 2 13 1 14 3 15
REMARK H PARENT
REMARK Flexibility Score: inf
ROOT
ATOM      1  C   UNL     1      46.885   8.811   4.519  1.00  0.00     0.012 C 
ENDROOT
BRANCH   1   2
ATOM      2  C   UNL     1      46.828   7.311   4.137  1.00  0.00     0.016 C 
ATOM      3  C   UNL     1      46.196   6.452   5.244  1.00  0.00     0.013 C 
BRANCH   2   4
ATOM      4  C   UNL     1      48.219   6.798   3.807  1.00  0.00    -0.045 A 
ATOM      5  C   UNL     1      52.178   5.326   2.901  1.00  0.00     0.044 C 
ATOM      6  C   UNL     1      50.791   5.820   3.192  1.00  0.00    -0.051 A 
ATOM      7  C   UNL     1      49.989   5.160   4.135  1.00  0.00     0.004 A 
ATOM      8  C   UNL     1      50.313   6.984   2.575  1.00  0.00     0.004 A 
ATOM      9  C   UNL     1      48.712   5.641   4.434  1.00  0.00     0.004 A 
ATOM     10  C   UNL     1      49.035   7.466   2.874  1.00  0.00     0.004 A 
ENDBRANCH   2   4
ENDBRANCH   1   2
BRANCH   1  11
ATOM     11  C   UNL     1      45.828   9.673   3.805  1.00  0.00     0.028 C 
BRANCH  11  12
ATOM     12  C   UNL     1      44.807  10.240   4.765  1.00  0.00    -0.028 C 
ATOM     13  C   UNL     1      43.609   9.661   4.995  1.00  0.00    -0.080 C 
ATOM     14  C   UNL     1      43.199   8.389   4.292  1.00  0.00     0.039 C 
ATOM     15  C   UNL     1      42.669  10.310   5.977  1.00  0.00     0.039 C 
ENDBRANCH  11  12
ENDBRANCH   1  11
TORSDOF 4
ENDMDL
MODEL 8
REMARK VINA RESULT:    -5.808      2.595      3.457
REMARK INTER + INTRA:          -8.028
REMARK INTER:                  -7.134
REMARK INTRA:                  -0.894
REMARK UNBOUND:                -0.862
REMARK SMILES CC(C)=CCC[C@H](C)c1ccc(C)cc1
REMARK SMILES IDX 6 1 7 2 8 3 9 4 13 5 12 6 11 7 14 8 10 9 15 10 5 11 4 12
REMARK SMILES IDX 2 13 1 14 3 15
REMARK H PARENT
REMARK Flexibility Score: inf
ROOT
ATOM      1  C   UNL     1      46.595   6.528   4.755  1.00  0.00     0.012 C 
ENDROOT
BRANCH   1   2
ATOM      2  C   UNL     1      47.279   7.917   4.705  1.00  0.00     0.016 C 
ATOM      3  C   UNL     1      47.458   8.426   3.266  1.00  0.00     0.013 C 
BRANCH   2   4
ATOM      4  C   UNL     1      48.621   7.870   5.414  1.00  0.00    -0.045 A 
ATOM      5  C   UNL     1      52.420   7.730   7.465  1.00  0.00     0.044 C 
ATOM      6  C   UNL     1      51.109   7.753   6.737  1.00  0.00    -0.051 A 
ATOM      7  C   UNL     1      49.981   7.133   7.294  1.00  0.00     0.004 A 
ATOM      8  C   UNL     1      50.984   8.452   5.528  1.00  0.00     0.004 A 
ATOM      9  C   UNL     1      48.749   7.185   6.635  1.00  0.00     0.004 A 
ATOM     10  C   UNL     1      49.753   8.504   4.868  1.00  0.00     0.004 A 
ENDBRANCH   2   4
ENDBRANCH   1   2
BRANCH   1  11
ATOM     11  C   UNL     1      45.192   6.550   5.387  1.00  0.00     0.028 C 
BRANCH  11  12
ATOM     12  C   UNL     1      44.762   7.945   5.781  1.00  0.00    -0.028 C 
ATOM     13  C   UNL     1      43.873   8.671   5.070  1.00  0.00    -0.080 C 
ATOM     14  C   UNL     1      43.244   8.132   3.807  1.00  0.00     0.039 C 
ATOM     15  C   UNL     1      43.510  10.050   5.557  1.00  0.00     0.039 C 
ENDBRANCH  11  12
ENDBRANCH   1  11
TORSDOF 4
ENDMDL
MODEL 9
REMARK VINA RESULT:    -5.757      3.109      6.244
REMARK INTER + INTRA:          -7.966
REMARK INTER:                  -7.424
REMARK INTRA:                  -0.542
REMARK UNBOUND:                -0.862
REMARK SMILES CC(C)=CCC[C@H](C)c1ccc(C)cc1
REMARK SMILES IDX 6 1 7 2 8 3 9 4 13 5 12 6 11 7 14 8 10 9 15 10 5 11 4 12
REMARK SMILES IDX 2 13 1 14 3 15
REMARK H PARENT
REMARK Flexibility Score: inf
ROOT
ATOM      1  C   UNL     1      48.889   7.342   6.870  1.00  0.00     0.012 C 
ENDROOT
BRANCH   1   2
ATOM      2  C   UNL     1      47.707   6.541   6.269  1.00  0.00     0.016 C 
ATOM      3  C   UNL     1      48.094   5.821   4.968  1.00  0.00     0.013 C 
BRANCH   2   4
ATOM      4  C   UNL     1      46.518   7.455   6.029  1.00  0.00    -0.045 A 
ATOM      5  C   UNL     1      43.125  10.032   5.319  1.00  0.00     0.044 C 
ATOM      6  C   UNL     1      44.294   9.133   5.595  1.00  0.00    -0.051 A 
ATOM      7  C   UNL     1      44.208   7.759   5.326  1.00  0.00     0.004 A 
ATOM      8  C   UNL     1      45.503   9.669   6.059  1.00  0.00     0.004 A 
ATOM      9  C   UNL     1      45.308   6.926   5.547  1.00  0.00     0.004 A 
ATOM     10  C   UNL     1      46.604   8.837   6.281  1.00  0.00     0.004 A 
ENDBRANCH   2   4
ENDBRANCH   1   2
BRANCH   1  11
ATOM     11  C   UNL     1      50.262   6.684   6.647  1.00  0.00     0.028 C 
BRANCH  11  12
ATOM     12  C   UNL     1      51.351   7.700   6.391  1.00  0.00    -0.028 C 
ATOM     13  C   UNL     1      52.154   8.182   7.364  1.00  0.00    -0.080 C 
ATOM     14  C   UNL     1      52.010   7.735   8.799  1.00  0.00     0.039 C 
ATOM     15  C   UNL     1      53.213   9.189   6.996  1.00  0.00     0.039 C 
ENDBRANCH  11  12
ENDBRANCH   1  11
TORSDOF 4
ENDMDL
