MODEL 1
REMARK VINA RESULT:    -3.066      0.000      0.000
REMARK INTER + INTRA:          -3.155
REMARK INTER:                  -3.155
REMARK INTRA:                   0.000
REMARK UNBOUND:                 0.000
REMARK SMILES Oc1ccc2[nH]ccc2c1
REMARK SMILES IDX 3 1 4 2 5 3 9 4 8 5 7 6 6 7 10 8 2 9 1 11
REMARK H PARENT 6 10 1 12
REMARK Flexibility Score: inf
ROOT
ATOM      1  C   UNL     1     111.280 110.652 102.155  1.00  0.00     0.048 A 
ATOM      2  C   UNL     1     110.806 111.976 102.193  1.00  0.00     0.030 A 
ATOM      3  C   UNL     1     111.639 112.979 101.703  1.00  0.00     0.046 A 
ATOM      4  C   UNL     1     112.881 112.700 101.198  1.00  0.00     0.003 A 
ATOM      5  C   UNL     1     113.443 113.895 100.802  1.00  0.00     0.028 A 
ATOM      6  C   UNL     1     112.487 114.861 101.097  1.00  0.00     0.083 A 
ATOM      7  N   UNL     1     111.386 114.297 101.646  1.00  0.00    -0.361 N 
ATOM      8  C   UNL     1     113.380 111.401 101.146  1.00  0.00     0.056 A 
ATOM      9  C   UNL     1     112.562 110.361 101.634  1.00  0.00     0.116 A 
ATOM     10  H   UNL     1     110.521 114.789 101.961  1.00  0.00     0.166 HD
ENDROOT
BRANCH   9  11
ATOM     11  O   UNL     1     113.007 109.041 101.607  1.00  0.00    -0.508 OA
ATOM     12  H   UNL     1     112.494 108.320 101.113  1.00  0.00     0.293 HD
ENDBRANCH   9  11
TORSDOF 1
ENDMDL
MODEL 2
REMARK VINA RESULT:    -3.064      9.117     10.364
REMARK INTER + INTRA:          -3.153
REMARK INTER:                  -3.153
REMARK INTRA:                   0.000
REMARK UNBOUND:                 0.000
REMARK SMILES Oc1ccc2[nH]ccc2c1
REMARK SMILES IDX 3 1 4 2 5 3 9 4 8 5 7 6 6 7 10 8 2 9 1 11
REMARK H PARENT 6 10 1 12
REMARK Flexibility Score: inf
ROOT
ATOM      1  C   UNL     1     103.888 111.308 102.148  1.00  0.00     0.048 A 
ATOM      2  C   UNL     1     102.567 110.825 102.188  1.00  0.00     0.030 A 
ATOM      3  C   UNL     1     101.557 111.652 101.700  1.00  0.00     0.046 A 
ATOM      4  C   UNL     1     101.828 112.896 101.193  1.00  0.00     0.003 A 
ATOM      5  C   UNL     1     100.629 113.449 100.799  1.00  0.00     0.028 A 
ATOM      6  C   UNL     1      99.669 112.487 101.096  1.00  0.00     0.083 A 
ATOM      7  N   UNL     1     100.241 111.391 101.645  1.00  0.00    -0.361 N 
ATOM      8  C   UNL     1     103.124 113.403 101.139  1.00  0.00     0.056 A 
ATOM      9  C   UNL     1     104.170 112.591 101.626  1.00  0.00     0.116 A 
ATOM     10  H   UNL     1      99.755 110.522 101.960  1.00  0.00     0.166 HD
ENDROOT
BRANCH   9  11
ATOM     11  O   UNL     1     105.487 113.044 101.597  1.00  0.00    -0.508 OA
ATOM     12  H   UNL     1     105.711 114.025 101.720  1.00  0.00     0.293 HD
ENDBRANCH   9  11
TORSDOF 1
ENDMDL
MODEL 3
REMARK VINA RESULT:    -3.055     12.882     14.616
REMARK INTER + INTRA:          -3.144
REMARK INTER:                  -3.144
REMARK INTRA:                   0.000
REMARK UNBOUND:                 0.000
REMARK SMILES Oc1ccc2[nH]ccc2c1
REMARK SMILES IDX 3 1 4 2 5 3 9 4 8 5 7 6 6 7 10 8 2 9 1 11
REMARK H PARENT 6 10 1 12
REMARK Flexibility Score: inf
ROOT
ATOM      1  C   UNL     1     103.325 103.865 102.150  1.00  0.00     0.048 A 
ATOM      2  C   UNL     1     103.824 102.549 102.171  1.00  0.00     0.030 A 
ATOM      3  C   UNL     1     102.999 101.532 101.696  1.00  0.00     0.046 A 
ATOM      4  C   UNL     1     101.741 101.790 101.220  1.00  0.00     0.003 A 
ATOM      5  C   UNL     1     101.193 100.586 100.832  1.00  0.00     0.028 A 
ATOM      6  C   UNL     1     102.174  99.637 101.101  1.00  0.00     0.083 A 
ATOM      7  N   UNL     1     103.275 100.219 101.627  1.00  0.00    -0.361 N 
ATOM      8  C   UNL     1     101.216 103.079 101.185  1.00  0.00     0.056 A 
ATOM      9  C   UNL     1     102.026 104.133 101.659  1.00  0.00     0.116 A 
ATOM     10  H   UNL     1     104.157  99.743 101.920  1.00  0.00     0.166 HD
ENDROOT
BRANCH   9  11
ATOM     11  O   UNL     1     101.556 105.444 101.649  1.00  0.00    -0.508 OA
ATOM     12  H   UNL     1     100.580 105.657 101.821  1.00  0.00     0.293 HD
ENDBRANCH   9  11
TORSDOF 1
ENDMDL
MODEL 4
REMARK VINA RESULT:    -3.032      2.588      3.582
REMARK INTER + INTRA:          -3.121
REMARK INTER:                  -3.121
REMARK INTRA:                   0.000
REMARK UNBOUND:                 0.000
REMARK SMILES Oc1ccc2[nH]ccc2c1
REMARK SMILES IDX 3 1 4 2 5 3 9 4 8 5 7 6 6 7 10 8 2 9 1 11
REMARK H PARENT 6 10 1 12
REMARK Flexibility Score: inf
ROOT
ATOM      1  C   UNL     1     110.693 112.629 102.221  1.00  0.00     0.048 A 
ATOM      2  C   UNL     1     110.831 111.231 102.303  1.00  0.00     0.030 A 
ATOM      3  C   UNL     1     112.002 110.662 101.807  1.00  0.00     0.046 A 
ATOM      4  C   UNL     1     112.996 111.426 101.255  1.00  0.00     0.003 A 
ATOM      5  C   UNL     1     114.005 110.572 100.865  1.00  0.00     0.028 A 
ATOM      6  C   UNL     1     113.557 109.301 101.210  1.00  0.00     0.083 A 
ATOM      7  N   UNL     1     112.334 109.361 101.785  1.00  0.00    -0.361 N 
ATOM      8  C   UNL     1     112.891 112.812 101.159  1.00  0.00     0.056 A 
ATOM      9  C   UNL     1     111.718 113.420 101.652  1.00  0.00     0.116 A 
ATOM     10  H   UNL     1     111.767 108.558 102.138  1.00  0.00     0.166 HD
ENDROOT
BRANCH   9  11
ATOM     11  O   UNL     1     111.557 114.802 101.584  1.00  0.00    -0.508 OA
ATOM     12  H   UNL     1     111.229 115.336 102.381  1.00  0.00     0.293 HD
ENDBRANCH   9  11
TORSDOF 1
ENDMDL
MODEL 5
REMARK VINA RESULT:    -3.028      8.974     10.277
REMARK INTER + INTRA:          -3.116
REMARK INTER:                  -3.116
REMARK INTRA:                   0.000
REMARK UNBOUND:                 0.000
REMARK SMILES Oc1ccc2[nH]ccc2c1
REMARK SMILES IDX 3 1 4 2 5 3 9 4 8 5 7 6 6 7 10 8 2 9 1 11
REMARK H PARENT 6 10 1 12
REMARK Flexibility Score: inf
ROOT
ATOM      1  C   UNL     1     110.694 103.412 102.086  1.00  0.00     0.048 A 
ATOM      2  C   UNL     1     112.023 103.873 102.072  1.00  0.00     0.030 A 
ATOM      3  C   UNL     1     113.012 102.994 101.637  1.00  0.00     0.046 A 
ATOM      4  C   UNL     1     112.715 101.719 101.233  1.00  0.00     0.003 A 
ATOM      5  C   UNL     1     113.899 101.116 100.869  1.00  0.00     0.028 A 
ATOM      6  C   UNL     1     114.878 102.082 101.077  1.00  0.00     0.083 A 
ATOM      7  N   UNL     1     114.332 103.227 101.545  1.00  0.00    -0.361 N 
ATOM      8  C   UNL     1     111.410 101.231 101.235  1.00  0.00     0.056 A 
ATOM      9  C   UNL     1     110.384 102.096 101.670  1.00  0.00     0.116 A 
ATOM     10  H   UNL     1     114.836 104.110 101.785  1.00  0.00     0.166 HD
ENDROOT
BRANCH   9  11
ATOM     11  O   UNL     1     109.060 101.665 101.693  1.00  0.00    -0.508 OA
ATOM     12  H   UNL     1     108.471 101.809 102.505  1.00  0.00     0.293 HD
ENDBRANCH   9  11
TORSDOF 1
ENDMDL
MODEL 6
REMARK VINA RESULT:    -2.986      3.223      4.880
REMARK INTER + INTRA:          -3.073
REMARK INTER:                  -3.073
REMARK INTRA:                   0.000
REMARK UNBOUND:                 0.000
REMARK SMILES Oc1ccc2[nH]ccc2c1
REMARK SMILES IDX 3 1 4 2 5 3 9 4 8 5 7 6 6 7 10 8 2 9 1 11
REMARK H PARENT 6 10 1 12
REMARK Flexibility Score: inf
ROOT
ATOM      1  C   UNL     1     110.716 112.382 102.146  1.00  0.00     0.048 A 
ATOM      2  C   UNL     1     111.558 111.262 102.010  1.00  0.00     0.030 A 
ATOM      3  C   UNL     1     110.960 110.012 101.874  1.00  0.00     0.046 A 
ATOM      4  C   UNL     1     109.598 109.861 101.869  1.00  0.00     0.003 A 
ATOM      5  C   UNL     1     109.332 108.517 101.719  1.00  0.00     0.028 A 
ATOM      6  C   UNL     1     110.580 107.908 101.639  1.00  0.00     0.083 A 
ATOM      7  N   UNL     1     111.571 108.824 101.733  1.00  0.00    -0.361 N 
ATOM      8  C   UNL     1     108.737 110.948 102.001  1.00  0.00     0.056 A 
ATOM      9  C   UNL     1     109.310 112.230 102.142  1.00  0.00     0.116 A 
ATOM     10  H   UNL     1     112.598 108.641 101.702  1.00  0.00     0.166 HD
ENDROOT
BRANCH   9  11
ATOM     11  O   UNL     1     108.499 113.354 102.277  1.00  0.00    -0.508 OA
ATOM     12  H   UNL     1     107.499 113.307 102.121  1.00  0.00     0.293 HD
ENDBRANCH   9  11
TORSDOF 1
ENDMDL
MODEL 7
REMARK VINA RESULT:    -2.985      7.408      8.728
REMARK INTER + INTRA:          -3.072
REMARK INTER:                  -3.072
REMARK INTRA:                   0.000
REMARK UNBOUND:                 0.000
REMARK SMILES Oc1ccc2[nH]ccc2c1
REMARK SMILES IDX 3 1 4 2 5 3 9 4 8 5 7 6 6 7 10 8 2 9 1 11
REMARK H PARENT 6 10 1 12
REMARK Flexibility Score: inf
ROOT
ATOM      1  C   UNL     1     112.390 103.713 102.164  1.00  0.00     0.048 A 
ATOM      2  C   UNL     1     111.286 102.856 102.001  1.00  0.00     0.030 A 
ATOM      3  C   UNL     1     110.029 103.436 101.844  1.00  0.00     0.046 A 
ATOM      4  C   UNL     1     109.858 104.795 101.847  1.00  0.00     0.003 A 
ATOM      5  C   UNL     1     108.514 105.042 101.673  1.00  0.00     0.028 A 
ATOM      6  C   UNL     1     107.924 103.786 101.571  1.00  0.00     0.083 A 
ATOM      7  N   UNL     1     108.854 102.808 101.675  1.00  0.00    -0.361 N 
ATOM      8  C   UNL     1     110.929 105.671 102.007  1.00  0.00     0.056 A 
ATOM      9  C   UNL     1     112.216 105.117 102.168  1.00  0.00     0.116 A 
ATOM     10  H   UNL     1     108.688 101.778 101.634  1.00  0.00     0.166 HD
ENDROOT
BRANCH   9  11
ATOM     11  O   UNL     1     113.326 105.943 102.331  1.00  0.00    -0.508 OA
ATOM     12  H   UNL     1     114.269 105.592 102.209  1.00  0.00     0.293 HD
ENDBRANCH   9  11
TORSDOF 1
ENDMDL
MODEL 8
REMARK VINA RESULT:    -2.961      9.966     11.308
REMARK INTER + INTRA:          -3.048
REMARK INTER:                  -3.048
REMARK INTRA:                   0.000
REMARK UNBOUND:                 0.000
REMARK SMILES Oc1ccc2[nH]ccc2c1
REMARK SMILES IDX 3 1 4 2 5 3 9 4 8 5 7 6 6 7 10 8 2 9 1 11
REMARK H PARENT 6 10 1 12
REMARK Flexibility Score: inf
ROOT
ATOM      1  C   UNL     1     103.670 102.379 102.189  1.00  0.00     0.048 A 
ATOM      2  C   UNL     1     102.851 103.510 102.017  1.00  0.00     0.030 A 
ATOM      3  C   UNL     1     103.474 104.745 101.853  1.00  0.00     0.046 A 
ATOM      4  C   UNL     1     104.838 104.869 101.857  1.00  0.00     0.003 A 
ATOM      5  C   UNL     1     105.131 106.204 101.674  1.00  0.00     0.028 A 
ATOM      6  C   UNL     1     103.897 106.835 101.567  1.00  0.00     0.083 A 
ATOM      7  N   UNL     1     102.888 105.941 101.675  1.00  0.00    -0.361 N 
ATOM      8  C   UNL     1     105.677 103.770 102.025  1.00  0.00     0.056 A 
ATOM      9  C   UNL     1     105.078 102.504 102.194  1.00  0.00     0.116 A 
ATOM     10  H   UNL     1     101.864 106.142 101.631  1.00  0.00     0.166 HD
ENDROOT
BRANCH   9  11
ATOM     11  O   UNL     1     105.866 101.368 102.366  1.00  0.00    -0.508 OA
ATOM     12  H   UNL     1     105.581 100.467 102.000  1.00  0.00     0.293 HD
ENDBRANCH   9  11
TORSDOF 1
ENDMDL
MODEL 9
REMARK VINA RESULT:    -2.959      3.124      4.042
REMARK INTER + INTRA:          -3.046
REMARK INTER:                  -3.046
REMARK INTRA:                   0.000
REMARK UNBOUND:                 0.000
REMARK SMILES Oc1ccc2[nH]ccc2c1
REMARK SMILES IDX 3 1 4 2 5 3 9 4 8 5 7 6 6 7 10 8 2 9 1 11
REMARK H PARENT 6 10 1 12
REMARK Flexibility Score: inf
ROOT
ATOM      1  C   UNL     1     108.591 110.979 102.073  1.00  0.00     0.048 A 
ATOM      2  C   UNL     1     109.306 109.782 101.885  1.00  0.00     0.030 A 
ATOM      3  C   UNL     1     110.689 109.866 101.743  1.00  0.00     0.046 A 
ATOM      4  C   UNL     1     111.345 111.068 101.782  1.00  0.00     0.003 A 
ATOM      5  C   UNL     1     112.688 110.810 101.613  1.00  0.00     0.028 A 
ATOM      6  C   UNL     1     112.778 109.429 101.474  1.00  0.00     0.083 A 
ATOM      7  N   UNL     1     111.555 108.857 101.555  1.00  0.00    -0.361 N 
ATOM      8  C   UNL     1     110.668 112.271 101.967  1.00  0.00     0.056 A 
ATOM      9  C   UNL     1     109.265 112.222 102.115  1.00  0.00     0.116 A 
ATOM     10  H   UNL     1     111.333 107.839 101.485  1.00  0.00     0.166 HD
ENDROOT
BRANCH   9  11
ATOM     11  O   UNL     1     108.534 113.392 102.303  1.00  0.00    -0.508 OA
ATOM     12  H   UNL     1     108.990 114.271 102.517  1.00  0.00     0.293 HD
ENDBRANCH   9  11
TORSDOF 1
ENDMDL
