MODEL 1
REMARK VINA RESULT:    -7.289      0.000      0.000
REMARK INTER + INTRA:         -12.644
REMARK INTER:                 -11.337
REMARK INTRA:                  -1.307
REMARK UNBOUND:                -1.307
REMARK SMILES COc1cc(CNC(=O)CCCCC=CC(C)C)ccc1O
REMARK SMILES IDX 11 1 12 2 13 3 14 4 15 5 16 6 17 7 18 8 10 9 8 10 9 11 7 12
REMARK SMILES IDX 6 14 5 15 4 16 19 17 3 18 20 19 21 20 2 21 1 22 22 23
REMARK H PARENT 7 13 22 24
REMARK Flexibility Score: inf
ROOT
ATOM      1  C   UNL     1     -11.324 -27.366 -10.118  1.00  0.00     0.010 C 
ENDROOT
BRANCH   1   2
ATOM      2  C   UNL     1     -12.683 -26.697  -9.851  1.00  0.00     0.005 C 
BRANCH   2   3
ATOM      3  C   UNL     1     -13.856 -27.670 -10.047  1.00  0.00     0.027 C 
BRANCH   3   4
ATOM      4  C   UNL     1     -14.477 -27.553 -11.412  1.00  0.00    -0.031 C 
ATOM      5  C   UNL     1     -13.839 -26.948 -12.427  1.00  0.00    -0.028 C 
BRANCH   5   6
ATOM      6  C   UNL     1     -14.465 -26.846 -13.800  1.00  0.00     0.005 C 
ATOM      7  C   UNL     1     -15.778 -27.637 -13.853  1.00  0.00     0.012 C 
ATOM      8  C   UNL     1     -14.710 -25.379 -14.168  1.00  0.00     0.012 C 
ENDBRANCH   5   6
ENDBRANCH   3   4
ENDBRANCH   2   3
ENDBRANCH   1   2
BRANCH   1   9
ATOM      9  C   UNL     1     -11.067 -28.555  -9.184  1.00  0.00     0.100 C 
BRANCH   9  10
ATOM     10  C   UNL     1     -10.799 -29.818  -9.951  1.00  0.00     0.220 C 
ATOM     11  O   UNL     1     -10.020 -30.683  -9.467  1.00  0.00    -0.275 OA
ATOM     12  N   UNL     1     -11.397 -30.020 -11.239  1.00  0.00    -0.352 N 
ATOM     13  H   UNL     1     -11.999 -29.269 -11.645  1.00  0.00     0.163 HD
BRANCH  12  14
ATOM     14  C   UNL     1     -11.170 -31.229 -12.029  1.00  0.00     0.151 C 
BRANCH  14  15
ATOM     15  C   UNL     1     -12.306 -31.442 -12.994  1.00  0.00    -0.025 A 
ATOM     16  C   UNL     1     -12.396 -32.628 -13.741  1.00  0.00     0.056 A 
ATOM     17  C   UNL     1     -13.299 -30.463 -13.131  1.00  0.00     0.009 A 
ATOM     18  C   UNL     1     -13.471 -32.834 -14.628  1.00  0.00     0.160 A 
ATOM     19  C   UNL     1     -14.367 -30.662 -14.008  1.00  0.00     0.050 A 
ATOM     20  C   UNL     1     -14.456 -31.843 -14.756  1.00  0.00     0.157 A 
BRANCH  18  21
ATOM     21  O   UNL     1     -13.596 -34.004 -15.394  1.00  0.00    -0.493 OA
ATOM     22  C   UNL     1     -13.772 -35.308 -14.850  1.00  0.00     0.278 C 
ENDBRANCH  18  21
BRANCH  20  23
ATOM     23  O   UNL     1     -15.523 -32.041 -15.630  1.00  0.00    -0.504 OA
ATOM     24  H   UNL     1     -15.640 -32.910 -16.138  1.00  0.00     0.293 HD
ENDBRANCH  20  23
ENDBRANCH  14  15
ENDBRANCH  12  14
ENDBRANCH   9  10
ENDBRANCH   1   9
TORSDOF 10
ENDMDL
MODEL 2
REMARK VINA RESULT:    -7.018      2.190      5.241
REMARK INTER + INTRA:         -12.223
REMARK INTER:                 -11.017
REMARK INTRA:                  -1.206
REMARK UNBOUND:                -1.307
REMARK SMILES COc1cc(CNC(=O)CCCCC=CC(C)C)ccc1O
REMARK SMILES IDX 11 1 12 2 13 3 14 4 15 5 16 6 17 7 18 8 10 9 8 10 9 11 7 12
REMARK SMILES IDX 6 14 5 15 4 16 19 17 3 18 20 19 21 20 2 21 1 22 22 23
REMARK H PARENT 7 13 22 24
REMARK Flexibility Score: inf
ROOT
ATOM      1  C   UNL     1     -14.529 -26.117 -13.263  1.00  0.00     0.010 C 
ENDROOT
BRANCH   1   2
ATOM      2  C   UNL     1     -13.602 -26.787 -12.233  1.00  0.00     0.005 C 
BRANCH   2   3
ATOM      3  C   UNL     1     -14.378 -27.326 -11.021  1.00  0.00     0.027 C 
BRANCH   3   4
ATOM      4  C   UNL     1     -13.627 -27.138  -9.731  1.00  0.00    -0.031 C 
ATOM      5  C   UNL     1     -13.353 -25.917  -9.245  1.00  0.00    -0.028 C 
BRANCH   5   6
ATOM      6  C   UNL     1     -12.611 -25.737  -7.941  1.00  0.00     0.005 C 
ATOM      7  C   UNL     1     -11.107 -25.966  -8.141  1.00  0.00     0.012 C 
ATOM      8  C   UNL     1     -12.866 -24.340  -7.368  1.00  0.00     0.012 C 
ENDBRANCH   5   6
ENDBRANCH   3   4
ENDBRANCH   2   3
ENDBRANCH   1   2
BRANCH   1   9
ATOM      9  C   UNL     1     -15.488 -27.118 -13.920  1.00  0.00     0.100 C 
BRANCH   9  10
ATOM     10  C   UNL     1     -14.758 -28.310 -14.469  1.00  0.00     0.220 C 
ATOM     11  O   UNL     1     -13.966 -28.159 -15.437  1.00  0.00    -0.275 OA
ATOM     12  N   UNL     1     -14.991 -29.614 -13.918  1.00  0.00    -0.352 N 
ATOM     13  H   UNL     1     -15.690 -29.726 -13.150  1.00  0.00     0.163 HD
BRANCH  12  14
ATOM     14  C   UNL     1     -14.310 -30.808 -14.415  1.00  0.00     0.151 C 
BRANCH  14  15
ATOM     15  C   UNL     1     -13.130 -31.137 -13.539  1.00  0.00    -0.025 A 
ATOM     16  C   UNL     1     -12.760 -30.282 -12.488  1.00  0.00     0.056 A 
ATOM     17  C   UNL     1     -12.410 -32.320 -13.753  1.00  0.00     0.009 A 
ATOM     18  C   UNL     1     -11.668 -30.603 -11.656  1.00  0.00     0.160 A 
ATOM     19  C   UNL     1     -11.329 -32.644 -12.932  1.00  0.00     0.050 A 
ATOM     20  C   UNL     1     -10.956 -31.790 -11.885  1.00  0.00     0.157 A 
BRANCH  18  21
ATOM     21  O   UNL     1     -11.264 -29.775 -10.597  1.00  0.00    -0.493 OA
ATOM     22  C   UNL     1     -10.501 -28.582 -10.753  1.00  0.00     0.278 C 
ENDBRANCH  18  21
BRANCH  20  23
ATOM     23  O   UNL     1      -9.876 -32.114 -11.065  1.00  0.00    -0.504 OA
ATOM     24  H   UNL     1      -8.929 -31.846 -11.304  1.00  0.00     0.293 HD
ENDBRANCH  20  23
ENDBRANCH  14  15
ENDBRANCH  12  14
ENDBRANCH   9  10
ENDBRANCH   1   9
TORSDOF 10
ENDMDL
MODEL 3
REMARK VINA RESULT:    -6.827      2.580      5.852
REMARK INTER + INTRA:         -11.925
REMARK INTER:                 -10.541
REMARK INTRA:                  -1.384
REMARK UNBOUND:                -1.307
REMARK SMILES COc1cc(CNC(=O)CCCCC=CC(C)C)ccc1O
REMARK SMILES IDX 11 1 12 2 13 3 14 4 15 5 16 6 17 7 18 8 10 9 8 10 9 11 7 12
REMARK SMILES IDX 6 14 5 15 4 16 19 17 3 18 20 19 21 20 2 21 1 22 22 23
REMARK H PARENT 7 13 22 24
REMARK Flexibility Score: inf
ROOT
ATOM      1  C   UNL     1     -11.305 -32.743 -12.951  1.00  0.00     0.010 C 
ENDROOT
BRANCH   1   2
ATOM      2  C   UNL     1     -12.216 -31.513 -13.113  1.00  0.00     0.005 C 
BRANCH   2   3
ATOM      3  C   UNL     1     -13.446 -31.812 -13.983  1.00  0.00     0.027 C 
BRANCH   3   4
ATOM      4  C   UNL     1     -14.274 -30.585 -14.248  1.00  0.00    -0.031 C 
ATOM      5  C   UNL     1     -13.748 -29.352 -14.181  1.00  0.00    -0.028 C 
BRANCH   5   6
ATOM      6  C   UNL     1     -14.584 -28.124 -14.463  1.00  0.00     0.005 C 
ATOM      7  C   UNL     1     -15.908 -28.186 -13.691  1.00  0.00     0.012 C 
ATOM      8  C   UNL     1     -13.811 -26.854 -14.094  1.00  0.00     0.012 C 
ENDBRANCH   5   6
ENDBRANCH   3   4
ENDBRANCH   2   3
ENDBRANCH   1   2
BRANCH   1   9
ATOM      9  C   UNL     1      -9.902 -32.367 -12.459  1.00  0.00     0.100 C 
BRANCH   9  10
ATOM     10  C   UNL     1      -9.949 -31.634 -11.150  1.00  0.00     0.220 C 
ATOM     11  O   UNL     1      -9.983 -32.290 -10.074  1.00  0.00    -0.275 OA
ATOM     12  N   UNL     1      -9.990 -30.201 -11.127  1.00  0.00    -0.352 N 
ATOM     13  H   UNL     1     -10.012 -29.677 -12.031  1.00  0.00     0.163 HD
BRANCH  12  14
ATOM     14  C   UNL     1     -10.038 -29.437  -9.882  1.00  0.00     0.151 C 
BRANCH  14  15
ATOM     15  C   UNL     1     -11.317 -28.647  -9.804  1.00  0.00    -0.025 A 
ATOM     16  C   UNL     1     -11.496 -27.673  -8.807  1.00  0.00     0.056 A 
ATOM     17  C   UNL     1     -12.330 -28.862 -10.748  1.00  0.00     0.009 A 
ATOM     18  C   UNL     1     -12.686 -26.920  -8.749  1.00  0.00     0.160 A 
ATOM     19  C   UNL     1     -13.510 -28.118 -10.696  1.00  0.00     0.050 A 
ATOM     20  C   UNL     1     -13.691 -27.149  -9.700  1.00  0.00     0.157 A 
BRANCH  18  21
ATOM     21  O   UNL     1     -12.905 -25.940  -7.768  1.00  0.00    -0.493 OA
ATOM     22  C   UNL     1     -12.317 -24.643  -7.779  1.00  0.00     0.278 C 
ENDBRANCH  18  21
BRANCH  20  23
ATOM     23  O   UNL     1     -14.870 -26.407  -9.649  1.00  0.00    -0.504 OA
ATOM     24  H   UNL     1     -14.907 -25.500  -9.200  1.00  0.00     0.293 HD
ENDBRANCH  20  23
ENDBRANCH  14  15
ENDBRANCH  12  14
ENDBRANCH   9  10
ENDBRANCH   1   9
TORSDOF 10
ENDMDL
MODEL 4
REMARK VINA RESULT:    -6.755      2.029      4.542
REMARK INTER + INTRA:         -11.813
REMARK INTER:                 -11.030
REMARK INTRA:                  -0.783
REMARK UNBOUND:                -1.307
REMARK SMILES COc1cc(CNC(=O)CCCCC=CC(C)C)ccc1O
REMARK SMILES IDX 11 1 12 2 13 3 14 4 15 5 16 6 17 7 18 8 10 9 8 10 9 11 7 12
REMARK SMILES IDX 6 14 5 15 4 16 19 17 3 18 20 19 21 20 2 21 1 22 22 23
REMARK H PARENT 7 13 22 24
REMARK Flexibility Score: inf
ROOT
ATOM      1  C   UNL     1     -14.541 -26.296 -12.574  1.00  0.00     0.010 C 
ENDROOT
BRANCH   1   2
ATOM      2  C   UNL     1     -13.292 -27.004 -12.018  1.00  0.00     0.005 C 
BRANCH   2   3
ATOM      3  C   UNL     1     -13.617 -27.878 -10.798  1.00  0.00     0.027 C 
BRANCH   3   4
ATOM      4  C   UNL     1     -12.903 -27.418  -9.556  1.00  0.00    -0.031 C 
ATOM      5  C   UNL     1     -13.130 -26.208  -9.019  1.00  0.00    -0.028 C 
BRANCH   5   6
ATOM      6  C   UNL     1     -12.419 -25.759  -7.764  1.00  0.00     0.005 C 
ATOM      7  C   UNL     1     -10.899 -25.861  -7.940  1.00  0.00     0.012 C 
ATOM      8  C   UNL     1     -12.819 -24.324  -7.406  1.00  0.00     0.012 C 
ENDBRANCH   5   6
ENDBRANCH   3   4
ENDBRANCH   2   3
ENDBRANCH   1   2
BRANCH   1   9
ATOM      9  C   UNL     1     -14.550 -26.251 -14.107  1.00  0.00     0.100 C 
BRANCH   9  10
ATOM     10  C   UNL     1     -14.707 -27.620 -14.704  1.00  0.00     0.220 C 
ATOM     11  O   UNL     1     -14.417 -27.804 -15.917  1.00  0.00    -0.275 OA
ATOM     12  N   UNL     1     -15.217 -28.698 -13.908  1.00  0.00    -0.352 N 
ATOM     13  H   UNL     1     -15.500 -28.514 -12.920  1.00  0.00     0.163 HD
BRANCH  12  14
ATOM     14  C   UNL     1     -15.392 -30.050 -14.438  1.00  0.00     0.151 C 
BRANCH  14  15
ATOM     15  C   UNL     1     -14.229 -30.919 -14.042  1.00  0.00    -0.025 A 
ATOM     16  C   UNL     1     -14.137 -32.243 -14.503  1.00  0.00     0.056 A 
ATOM     17  C   UNL     1     -13.212 -30.399 -13.230  1.00  0.00     0.009 A 
ATOM     18  C   UNL     1     -13.036 -33.049 -14.148  1.00  0.00     0.160 A 
ATOM     19  C   UNL     1     -12.119 -31.192 -12.876  1.00  0.00     0.050 A 
ATOM     20  C   UNL     1     -12.028 -32.514 -13.332  1.00  0.00     0.157 A 
BRANCH  18  21
ATOM     21  O   UNL     1     -12.908 -34.376 -14.585  1.00  0.00    -0.493 OA
ATOM     22  C   UNL     1     -13.877 -35.063 -15.371  1.00  0.00     0.278 C 
ENDBRANCH  18  21
BRANCH  20  23
ATOM     23  O   UNL     1     -10.936 -33.304 -12.979  1.00  0.00    -0.504 OA
ATOM     24  H   UNL     1     -10.013 -33.137 -13.363  1.00  0.00     0.293 HD
ENDBRANCH  20  23
ENDBRANCH  14  15
ENDBRANCH  12  14
ENDBRANCH   9  10
ENDBRANCH   1   9
TORSDOF 10
ENDMDL
MODEL 5
REMARK VINA RESULT:    -6.754      1.898      2.943
REMARK INTER + INTRA:         -11.811
REMARK INTER:                 -10.944
REMARK INTRA:                  -0.868
REMARK UNBOUND:                -1.307
REMARK SMILES COc1cc(CNC(=O)CCCCC=CC(C)C)ccc1O
REMARK SMILES IDX 11 1 12 2 13 3 14 4 15 5 16 6 17 7 18 8 10 9 8 10 9 11 7 12
REMARK SMILES IDX 6 14 5 15 4 16 19 17 3 18 20 19 21 20 2 21 1 22 22 23
REMARK H PARENT 7 13 22 24
REMARK Flexibility Score: inf
ROOT
ATOM      1  C   UNL     1     -12.797 -26.404  -8.154  1.00  0.00     0.010 C 
ENDROOT
BRANCH   1   2
ATOM      2  C   UNL     1     -13.578 -26.203  -9.464  1.00  0.00     0.005 C 
BRANCH   2   3
ATOM      3  C   UNL     1     -14.008 -27.538 -10.092  1.00  0.00     0.027 C 
BRANCH   3   4
ATOM      4  C   UNL     1     -14.555 -27.369 -11.483  1.00  0.00    -0.031 C 
ATOM      5  C   UNL     1     -13.766 -27.032 -12.515  1.00  0.00    -0.028 C 
BRANCH   5   6
ATOM      6  C   UNL     1     -14.322 -26.877 -13.912  1.00  0.00     0.005 C 
ATOM      7  C   UNL     1     -15.507 -27.825 -14.129  1.00  0.00     0.012 C 
ATOM      8  C   UNL     1     -14.747 -25.426 -14.160  1.00  0.00     0.012 C 
ENDBRANCH   5   6
ENDBRANCH   3   4
ENDBRANCH   2   3
ENDBRANCH   1   2
BRANCH   1   9
ATOM      9  C   UNL     1     -11.288 -26.203  -8.339  1.00  0.00     0.100 C 
BRANCH   9  10
ATOM     10  C   UNL     1     -10.552 -27.512  -8.363  1.00  0.00     0.220 C 
ATOM     11  O   UNL     1      -9.876 -27.860  -7.357  1.00  0.00    -0.275 OA
ATOM     12  N   UNL     1     -10.589 -28.339  -9.534  1.00  0.00    -0.352 N 
ATOM     13  H   UNL     1     -11.113 -28.009 -10.375  1.00  0.00     0.163 HD
BRANCH  12  14
ATOM     14  C   UNL     1      -9.890 -29.621  -9.611  1.00  0.00     0.151 C 
BRANCH  14  15
ATOM     15  C   UNL     1     -10.462 -30.459 -10.723  1.00  0.00    -0.025 A 
ATOM     16  C   UNL     1     -11.565 -30.006 -11.466  1.00  0.00     0.056 A 
ATOM     17  C   UNL     1      -9.875 -31.692 -11.041  1.00  0.00     0.009 A 
ATOM     18  C   UNL     1     -12.085 -30.784 -12.520  1.00  0.00     0.160 A 
ATOM     19  C   UNL     1     -10.386 -32.466 -12.084  1.00  0.00     0.050 A 
ATOM     20  C   UNL     1     -11.488 -32.016 -12.824  1.00  0.00     0.157 A 
BRANCH  18  21
ATOM     21  O   UNL     1     -13.186 -30.368 -13.284  1.00  0.00    -0.493 OA
ATOM     22  C   UNL     1     -14.335 -31.168 -13.545  1.00  0.00     0.278 C 
ENDBRANCH  18  21
BRANCH  20  23
ATOM     23  O   UNL     1     -11.996 -32.790 -13.866  1.00  0.00    -0.504 OA
ATOM     24  H   UNL     1     -12.753 -33.447 -13.719  1.00  0.00     0.293 HD
ENDBRANCH  20  23
ENDBRANCH  14  15
ENDBRANCH  12  14
ENDBRANCH   9  10
ENDBRANCH   1   9
TORSDOF 10
ENDMDL
MODEL 6
REMARK VINA RESULT:    -6.659      1.992      5.410
REMARK INTER + INTRA:         -11.663
REMARK INTER:                 -10.537
REMARK INTRA:                  -1.127
REMARK UNBOUND:                -1.307
REMARK SMILES COc1cc(CNC(=O)CCCCC=CC(C)C)ccc1O
REMARK SMILES IDX 11 1 12 2 13 3 14 4 15 5 16 6 17 7 18 8 10 9 8 10 9 11 7 12
REMARK SMILES IDX 6 14 5 15 4 16 19 17 3 18 20 19 21 20 2 21 1 22 22 23
REMARK H PARENT 7 13 22 24
REMARK Flexibility Score: inf
ROOT
ATOM      1  C   UNL     1     -10.089 -30.837  -9.950  1.00  0.00     0.010 C 
ENDROOT
BRANCH   1   2
ATOM      2  C   UNL     1      -9.997 -30.641 -11.474  1.00  0.00     0.005 C 
BRANCH   2   3
ATOM      3  C   UNL     1     -10.239 -31.949 -12.242  1.00  0.00     0.027 C 
BRANCH   3   4
ATOM      4  C   UNL     1     -11.614 -32.012 -12.850  1.00  0.00    -0.031 C 
ATOM      5  C   UNL     1     -12.063 -33.118 -13.463  1.00  0.00    -0.028 C 
BRANCH   5   6
ATOM      6  C   UNL     1     -13.451 -33.177 -14.059  1.00  0.00     0.005 C 
ATOM      7  C   UNL     1     -13.734 -31.921 -14.893  1.00  0.00     0.012 C 
ATOM      8  C   UNL     1     -13.610 -34.435 -14.919  1.00  0.00     0.012 C 
ENDBRANCH   5   6
ENDBRANCH   3   4
ENDBRANCH   2   3
ENDBRANCH   1   2
BRANCH   1   9
ATOM      9  C   UNL     1      -9.875 -29.527  -9.181  1.00  0.00     0.100 C 
BRANCH   9  10
ATOM     10  C   UNL     1     -10.767 -28.431  -9.689  1.00  0.00     0.220 C 
ATOM     11  O   UNL     1     -10.319 -27.610 -10.534  1.00  0.00    -0.275 OA
ATOM     12  N   UNL     1     -12.104 -28.300  -9.188  1.00  0.00    -0.352 N 
ATOM     13  H   UNL     1     -12.440 -28.959  -8.451  1.00  0.00     0.163 HD
BRANCH  12  14
ATOM     14  C   UNL     1     -13.014 -27.251  -9.646  1.00  0.00     0.151 C 
BRANCH  14  15
ATOM     15  C   UNL     1     -13.702 -27.676 -10.916  1.00  0.00    -0.025 A 
ATOM     16  C   UNL     1     -14.286 -26.722 -11.766  1.00  0.00     0.056 A 
ATOM     17  C   UNL     1     -13.738 -29.031 -11.272  1.00  0.00     0.009 A 
ATOM     18  C   UNL     1     -14.911 -27.121 -12.965  1.00  0.00     0.160 A 
ATOM     19  C   UNL     1     -14.355 -29.431 -12.458  1.00  0.00     0.050 A 
ATOM     20  C   UNL     1     -14.941 -28.481 -13.305  1.00  0.00     0.157 A 
BRANCH  18  21
ATOM     21  O   UNL     1     -15.508 -26.200 -13.840  1.00  0.00    -0.493 OA
ATOM     22  C   UNL     1     -14.802 -25.446 -14.821  1.00  0.00     0.278 C 
ENDBRANCH  18  21
BRANCH  20  23
ATOM     23  O   UNL     1     -15.556 -28.882 -14.490  1.00  0.00    -0.504 OA
ATOM     24  H   UNL     1     -16.343 -28.375 -14.877  1.00  0.00     0.293 HD
ENDBRANCH  20  23
ENDBRANCH  14  15
ENDBRANCH  12  14
ENDBRANCH   9  10
ENDBRANCH   1   9
TORSDOF 10
ENDMDL
MODEL 7
REMARK VINA RESULT:    -6.619      2.339      7.006
REMARK INTER + INTRA:         -11.602
REMARK INTER:                 -10.790
REMARK INTRA:                  -0.812
REMARK UNBOUND:                -1.307
REMARK SMILES COc1cc(CNC(=O)CCCCC=CC(C)C)ccc1O
REMARK SMILES IDX 11 1 12 2 13 3 14 4 15 5 16 6 17 7 18 8 10 9 8 10 9 11 7 12
REMARK SMILES IDX 6 14 5 15 4 16 19 17 3 18 20 19 21 20 2 21 1 22 22 23
REMARK H PARENT 7 13 22 24
REMARK Flexibility Score: inf
ROOT
ATOM      1  C   UNL     1     -14.729 -30.629 -13.725  1.00  0.00     0.010 C 
ENDROOT
BRANCH   1   2
ATOM      2  C   UNL     1     -13.433 -31.305 -13.245  1.00  0.00     0.005 C 
BRANCH   2   3
ATOM      3  C   UNL     1     -12.892 -32.314 -14.269  1.00  0.00     0.027 C 
BRANCH   3   4
ATOM      4  C   UNL     1     -13.824 -33.477 -14.476  1.00  0.00    -0.031 C 
ATOM      5  C   UNL     1     -13.476 -34.534 -15.227  1.00  0.00    -0.028 C 
BRANCH   5   6
ATOM      6  C   UNL     1     -14.414 -35.704 -15.419  1.00  0.00     0.005 C 
ATOM      7  C   UNL     1     -15.101 -35.625 -16.788  1.00  0.00     0.012 C 
ATOM      8  C   UNL     1     -13.653 -37.027 -15.279  1.00  0.00     0.012 C 
ENDBRANCH   5   6
ENDBRANCH   3   4
ENDBRANCH   2   3
ENDBRANCH   1   2
BRANCH   1   9
ATOM      9  C   UNL     1     -14.458 -29.334 -14.500  1.00  0.00     0.100 C 
BRANCH   9  10
ATOM     10  C   UNL     1     -13.995 -28.230 -13.594  1.00  0.00     0.220 C 
ATOM     11  O   UNL     1     -13.165 -27.384 -14.023  1.00  0.00    -0.275 OA
ATOM     12  N   UNL     1     -14.467 -28.161 -12.242  1.00  0.00    -0.352 N 
ATOM     13  H   UNL     1     -15.116 -28.901 -11.890  1.00  0.00     0.163 HD
BRANCH  12  14
ATOM     14  C   UNL     1     -14.049 -27.110 -11.317  1.00  0.00     0.151 C 
BRANCH  14  15
ATOM     15  C   UNL     1     -13.008 -27.637 -10.365  1.00  0.00    -0.025 A 
ATOM     16  C   UNL     1     -12.308 -28.820 -10.654  1.00  0.00     0.056 A 
ATOM     17  C   UNL     1     -12.713 -26.930  -9.191  1.00  0.00     0.009 A 
ATOM     18  C   UNL     1     -11.320 -29.300  -9.770  1.00  0.00     0.160 A 
ATOM     19  C   UNL     1     -11.735 -27.400  -8.314  1.00  0.00     0.050 A 
ATOM     20  C   UNL     1     -11.038 -28.582  -8.600  1.00  0.00     0.157 A 
BRANCH  18  21
ATOM     21  O   UNL     1     -10.601 -30.479 -10.022  1.00  0.00    -0.493 OA
ATOM     22  C   UNL     1     -10.225 -30.932 -11.319  1.00  0.00     0.278 C 
ENDBRANCH  18  21
BRANCH  20  23
ATOM     23  O   UNL     1     -10.061 -29.050  -7.723  1.00  0.00    -0.504 OA
ATOM     24  H   UNL     1     -10.183 -29.002  -6.718  1.00  0.00     0.293 HD
ENDBRANCH  20  23
ENDBRANCH  14  15
ENDBRANCH  12  14
ENDBRANCH   9  10
ENDBRANCH   1   9
TORSDOF 10
ENDMDL
MODEL 8
REMARK VINA RESULT:    -6.615      2.346      5.931
REMARK INTER + INTRA:         -11.595
REMARK INTER:                 -10.405
REMARK INTRA:                  -1.190
REMARK UNBOUND:                -1.307
REMARK SMILES COc1cc(CNC(=O)CCCCC=CC(C)C)ccc1O
REMARK SMILES IDX 11 1 12 2 13 3 14 4 15 5 16 6 17 7 18 8 10 9 8 10 9 11 7 12
REMARK SMILES IDX 6 14 5 15 4 16 19 17 3 18 20 19 21 20 2 21 1 22 22 23
REMARK H PARENT 7 13 22 24
REMARK Flexibility Score: inf
ROOT
ATOM      1  C   UNL     1     -10.109 -32.753 -12.951  1.00  0.00     0.010 C 
ENDROOT
BRANCH   1   2
ATOM      2  C   UNL     1     -10.222 -32.300 -11.485  1.00  0.00     0.005 C 
BRANCH   2   3
ATOM      3  C   UNL     1     -10.157 -30.772 -11.344  1.00  0.00     0.027 C 
BRANCH   3   4
ATOM      4  C   UNL     1     -10.539 -30.305  -9.966  1.00  0.00    -0.031 C 
ATOM      5  C   UNL     1     -10.672 -29.002  -9.675  1.00  0.00    -0.028 C 
BRANCH   5   6
ATOM      6  C   UNL     1     -11.069 -28.542  -8.290  1.00  0.00     0.005 C 
ATOM      7  C   UNL     1     -10.029 -28.988  -7.256  1.00  0.00     0.012 C 
ATOM      8  C   UNL     1     -11.234 -27.019  -8.259  1.00  0.00     0.012 C 
ENDBRANCH   5   6
ENDBRANCH   3   4
ENDBRANCH   2   3
ENDBRANCH   1   2
BRANCH   1   9
ATOM      9  C   UNL     1     -11.125 -33.847 -13.303  1.00  0.00     0.100 C 
BRANCH   9  10
ATOM     10  C   UNL     1     -12.450 -33.267 -13.704  1.00  0.00     0.220 C 
ATOM     11  O   UNL     1     -13.365 -34.035 -14.108  1.00  0.00    -0.275 OA
ATOM     12  N   UNL     1     -12.659 -31.849 -13.662  1.00  0.00    -0.352 N 
ATOM     13  H   UNL     1     -11.872 -31.226 -13.373  1.00  0.00     0.163 HD
BRANCH  12  14
ATOM     14  C   UNL     1     -13.928 -31.231 -14.043  1.00  0.00     0.151 C 
BRANCH  14  15
ATOM     15  C   UNL     1     -14.113 -29.928 -13.313  1.00  0.00    -0.025 A 
ATOM     16  C   UNL     1     -14.732 -28.836 -13.945  1.00  0.00     0.056 A 
ATOM     17  C   UNL     1     -13.690 -29.806 -11.982  1.00  0.00     0.009 A 
ATOM     18  C   UNL     1     -14.922 -27.623 -13.252  1.00  0.00     0.160 A 
ATOM     19  C   UNL     1     -13.877 -28.608 -11.291  1.00  0.00     0.050 A 
ATOM     20  C   UNL     1     -14.492 -27.517 -11.922  1.00  0.00     0.157 A 
BRANCH  18  21
ATOM     21  O   UNL     1     -15.535 -26.510 -13.848  1.00  0.00    -0.493 OA
ATOM     22  C   UNL     1     -14.834 -25.471 -14.525  1.00  0.00     0.278 C 
ENDBRANCH  18  21
BRANCH  20  23
ATOM     23  O   UNL     1     -14.678 -26.321 -11.230  1.00  0.00    -0.504 OA
ATOM     24  H   UNL     1     -13.897 -25.730 -10.971  1.00  0.00     0.293 HD
ENDBRANCH  20  23
ENDBRANCH  14  15
ENDBRANCH  12  14
ENDBRANCH   9  10
ENDBRANCH   1   9
TORSDOF 10
ENDMDL
MODEL 9
REMARK VINA RESULT:    -6.612      2.367      5.839
REMARK INTER + INTRA:         -11.590
REMARK INTER:                 -10.306
REMARK INTRA:                  -1.284
REMARK UNBOUND:                -1.307
REMARK SMILES COc1cc(CNC(=O)CCCCC=CC(C)C)ccc1O
REMARK SMILES IDX 11 1 12 2 13 3 14 4 15 5 16 6 17 7 18 8 10 9 8 10 9 11 7 12
REMARK SMILES IDX 6 14 5 15 4 16 19 17 3 18 20 19 21 20 2 21 1 22 22 23
REMARK H PARENT 7 13 22 24
REMARK Flexibility Score: inf
ROOT
ATOM      1  C   UNL     1     -12.501 -30.899 -13.369  1.00  0.00     0.010 C 
ENDROOT
BRANCH   1   2
ATOM      2  C   UNL     1     -13.788 -31.531 -13.927  1.00  0.00     0.005 C 
BRANCH   2   3
ATOM      3  C   UNL     1     -14.945 -30.522 -13.999  1.00  0.00     0.027 C 
BRANCH   3   4
ATOM      4  C   UNL     1     -14.542 -29.153 -13.523  1.00  0.00    -0.031 C 
ATOM      5  C   UNL     1     -15.097 -28.040 -14.028  1.00  0.00    -0.028 C 
BRANCH   5   6
ATOM      6  C   UNL     1     -14.696 -26.668 -13.534  1.00  0.00     0.005 C 
ATOM      7  C   UNL     1     -13.199 -26.631 -13.203  1.00  0.00     0.012 C 
ATOM      8  C   UNL     1     -15.037 -25.603 -14.581  1.00  0.00     0.012 C 
ENDBRANCH   5   6
ENDBRANCH   3   4
ENDBRANCH   2   3
ENDBRANCH   1   2
BRANCH   1   9
ATOM      9  C   UNL     1     -11.482 -31.954 -12.920  1.00  0.00     0.100 C 
BRANCH   9  10
ATOM     10  C   UNL     1     -10.704 -31.500 -11.718  1.00  0.00     0.220 C 
ATOM     11  O   UNL     1      -9.875 -32.286 -11.185  1.00  0.00    -0.275 OA
ATOM     12  N   UNL     1     -10.931 -30.198 -11.163  1.00  0.00    -0.352 N 
ATOM     13  H   UNL     1     -11.659 -29.581 -11.589  1.00  0.00     0.163 HD
BRANCH  12  14
ATOM     14  C   UNL     1     -10.203 -29.706  -9.995  1.00  0.00     0.151 C 
BRANCH  14  15
ATOM     15  C   UNL     1     -10.893 -28.496  -9.422  1.00  0.00    -0.025 A 
ATOM     16  C   UNL     1     -12.173 -28.126  -9.868  1.00  0.00     0.056 A 
ATOM     17  C   UNL     1     -10.268 -27.746  -8.417  1.00  0.00     0.009 A 
ATOM     18  C   UNL     1     -12.825 -27.004  -9.315  1.00  0.00     0.160 A 
ATOM     19  C   UNL     1     -10.910 -26.636  -7.866  1.00  0.00     0.050 A 
ATOM     20  C   UNL     1     -12.185 -26.263  -8.311  1.00  0.00     0.157 A 
BRANCH  18  21
ATOM     21  O   UNL     1     -14.102 -26.600  -9.734  1.00  0.00    -0.493 OA
ATOM     22  C   UNL     1     -15.166 -27.492 -10.053  1.00  0.00     0.278 C 
ENDBRANCH  18  21
BRANCH  20  23
ATOM     23  O   UNL     1     -12.825 -25.154  -7.760  1.00  0.00    -0.504 OA
ATOM     24  H   UNL     1     -12.643 -24.855  -6.809  1.00  0.00     0.293 HD
ENDBRANCH  20  23
ENDBRANCH  14  15
ENDBRANCH  12  14
ENDBRANCH   9  10
ENDBRANCH   1   9
TORSDOF 10
ENDMDL
