MODEL 1
REMARK VINA RESULT:    -3.902      0.000      0.000
REMARK INTER + INTRA:          -8.694
REMARK INTER:                  -7.324
REMARK INTRA:                  -1.370
REMARK UNBOUND:                -1.370
REMARK SMILES O=C([O-])CCCCCCCCCCCCCCC(=O)[O-]
REMARK SMILES IDX 10 1 9 2 8 3 7 4 6 5 5 6 4 7 2 8 1 9 3 10 11 11 12 12 13 13
REMARK SMILES IDX 14 14 15 15 16 16 17 17 18 18 19 19 20 20
REMARK H PARENT
REMARK Flexibility Score: inf
ROOT
ATOM      1  C   UNL     1      58.533   1.849  96.622  1.00  0.00     0.000 C 
ENDROOT
BRANCH   1   2
ATOM      2  C   UNL     1      58.340   3.365  96.492  1.00  0.00     0.000 C 
BRANCH   2   3
ATOM      3  C   UNL     1      59.522   4.127  97.111  1.00  0.00     0.000 C 
BRANCH   3   4
ATOM      4  C   UNL     1      59.493   5.629  96.786  1.00  0.00     0.000 C 
BRANCH   4   5
ATOM      5  C   UNL     1      60.811   6.124  96.165  1.00  0.00     0.000 C 
BRANCH   5   6
ATOM      6  C   UNL     1      61.071   7.613  96.446  1.00  0.00     0.006 C 
BRANCH   6   7
ATOM      7  C   UNL     1      59.778   8.402  96.688  1.00  0.00     0.053 C 
BRANCH   7   8
ATOM      8  C   UNL     1      59.412   9.192  95.471  1.00  0.00     0.041 C 
ATOM      9  O   UNL     1      60.260   9.946  94.928  1.00  0.00    -0.550 OA
ATOM     10  O   UNL     1      58.122   9.128  94.963  1.00  0.00    -0.550 OA
ENDBRANCH   7   8
ENDBRANCH   6   7
ENDBRANCH   5   6
ENDBRANCH   4   5
ENDBRANCH   3   4
ENDBRANCH   2   3
ENDBRANCH   1   2
BRANCH   1  11
ATOM     11  C   UNL     1      60.021   1.498  96.785  1.00  0.00     0.000 C 
BRANCH  11  12
ATOM     12  C   UNL     1      60.282  -0.016  96.728  1.00  0.00     0.000 C 
BRANCH  12  13
ATOM     13  C   UNL     1      61.123  -0.423  95.506  1.00  0.00     0.000 C 
BRANCH  13  14
ATOM     14  C   UNL     1      60.301  -1.157  94.430  1.00  0.00     0.000 C 
BRANCH  14  15
ATOM     15  C   UNL     1      59.348  -0.263  93.615  1.00  0.00     0.000 C 
BRANCH  15  16
ATOM     16  C   UNL     1      57.866  -0.572  93.876  1.00  0.00     0.006 C 
BRANCH  16  17
ATOM     17  C   UNL     1      57.713  -1.772  94.815  1.00  0.00     0.053 C 
BRANCH  17  18
ATOM     18  C   UNL     1      56.831  -1.424  95.971  1.00  0.00     0.041 C 
ATOM     19  O   UNL     1      57.041  -1.930  97.105  1.00  0.00    -0.550 OA
ATOM     20  O   UNL     1      55.747  -0.574  95.787  1.00  0.00    -0.550 OA
ENDBRANCH  17  18
ENDBRANCH  16  17
ENDBRANCH  15  16
ENDBRANCH  14  15
ENDBRANCH  13  14
ENDBRANCH  12  13
ENDBRANCH  11  12
ENDBRANCH   1  11
TORSDOF 15
ENDMDL
MODEL 2
REMARK VINA RESULT:    -3.890      2.676      3.235
REMARK INTER + INTRA:          -8.671
REMARK INTER:                  -7.269
REMARK INTRA:                  -1.402
REMARK UNBOUND:                -1.370
REMARK SMILES O=C([O-])CCCCCCCCCCCCCCC(=O)[O-]
REMARK SMILES IDX 10 1 9 2 8 3 7 4 6 5 5 6 4 7 2 8 1 9 3 10 11 11 12 12 13 13
REMARK SMILES IDX 14 14 15 15 16 16 17 17 18 18 19 19 20 20
REMARK H PARENT
REMARK Flexibility Score: inf
ROOT
ATOM      1  C   UNL     1      59.629   1.659  96.905  1.00  0.00     0.000 C 
ENDROOT
BRANCH   1   2
ATOM      2  C   UNL     1      58.364   1.358  96.092  1.00  0.00     0.000 C 
BRANCH   2   3
ATOM      3  C   UNL     1      57.742   2.650  95.542  1.00  0.00     0.000 C 
BRANCH   3   4
ATOM      4  C   UNL     1      57.932   3.847  96.488  1.00  0.00     0.000 C 
BRANCH   4   5
ATOM      5  C   UNL     1      58.522   5.076  95.774  1.00  0.00     0.000 C 
BRANCH   5   6
ATOM      6  C   UNL     1      59.402   5.930  96.701  1.00  0.00     0.006 C 
BRANCH   6   7
ATOM      7  C   UNL     1      60.819   6.127  96.148  1.00  0.00     0.053 C 
BRANCH   7   8
ATOM      8  C   UNL     1      60.829   7.201  95.106  1.00  0.00     0.041 C 
ATOM      9  O   UNL     1      60.722   8.409  95.441  1.00  0.00    -0.550 OA
ATOM     10  O   UNL     1      60.913   6.863  93.762  1.00  0.00    -0.550 OA
ENDBRANCH   7   8
ENDBRANCH   6   7
ENDBRANCH   5   6
ENDBRANCH   4   5
ENDBRANCH   3   4
ENDBRANCH   2   3
ENDBRANCH   1   2
BRANCH   1  11
ATOM     11  C   UNL     1      60.660   0.529  96.754  1.00  0.00     0.000 C 
BRANCH  11  12
ATOM     12  C   UNL     1      60.144  -0.634  95.891  1.00  0.00     0.000 C 
BRANCH  12  13
ATOM     13  C   UNL     1      61.125  -1.018  94.770  1.00  0.00     0.000 C 
BRANCH  13  14
ATOM     14  C   UNL     1      60.416  -1.535  93.504  1.00  0.00     0.000 C 
BRANCH  14  15
ATOM     15  C   UNL     1      59.898  -0.441  92.552  1.00  0.00     0.000 C 
BRANCH  15  16
ATOM     16  C   UNL     1      58.390  -0.548  92.281  1.00  0.00     0.006 C 
BRANCH  16  17
ATOM     17  C   UNL     1      57.733   0.836  92.280  1.00  0.00     0.053 C 
BRANCH  17  18
ATOM     18  C   UNL     1      57.271   1.195  90.903  1.00  0.00     0.041 C 
ATOM     19  O   UNL     1      57.103   0.297  90.036  1.00  0.00    -0.550 OA
ATOM     20  O   UNL     1      57.070   2.527  90.562  1.00  0.00    -0.550 OA
ENDBRANCH  17  18
ENDBRANCH  16  17
ENDBRANCH  15  16
ENDBRANCH  14  15
ENDBRANCH  13  14
ENDBRANCH  12  13
ENDBRANCH  11  12
ENDBRANCH   1  11
TORSDOF 15
ENDMDL
MODEL 3
REMARK VINA RESULT:    -3.822      1.671      2.414
REMARK INTER + INTRA:          -8.544
REMARK INTER:                  -6.942
REMARK INTRA:                  -1.602
REMARK UNBOUND:                -1.370
REMARK SMILES O=C([O-])CCCCCCCCCCCCCCC(=O)[O-]
REMARK SMILES IDX 10 1 9 2 8 3 7 4 6 5 5 6 4 7 2 8 1 9 3 10 11 11 12 12 13 13
REMARK SMILES IDX 14 14 15 15 16 16 17 17 18 18 19 19 20 20
REMARK H PARENT
REMARK Flexibility Score: inf
ROOT
ATOM      1  C   UNL     1      57.541   2.820  95.396  1.00  0.00     0.000 C 
ENDROOT
BRANCH   1   2
ATOM      2  C   UNL     1      56.367   3.603  95.997  1.00  0.00     0.000 C 
BRANCH   2   3
ATOM      3  C   UNL     1      56.862   4.846  96.753  1.00  0.00     0.000 C 
BRANCH   3   4
ATOM      4  C   UNL     1      57.948   5.613  95.982  1.00  0.00     0.000 C 
BRANCH   4   5
ATOM      5  C   UNL     1      59.152   5.982  96.867  1.00  0.00     0.000 C 
BRANCH   5   6
ATOM      6  C   UNL     1      60.440   6.186  96.054  1.00  0.00     0.006 C 
BRANCH   6   7
ATOM      7  C   UNL     1      61.088   7.552  96.310  1.00  0.00     0.053 C 
BRANCH   7   8
ATOM      8  C   UNL     1      60.944   8.433  95.109  1.00  0.00     0.041 C 
ATOM      9  O   UNL     1      60.684   9.657  95.249  1.00  0.00    -0.550 OA
ATOM     10  O   UNL     1      61.055   7.893  93.835  1.00  0.00    -0.550 OA
ENDBRANCH   7   8
ENDBRANCH   6   7
ENDBRANCH   5   6
ENDBRANCH   4   5
ENDBRANCH   3   4
ENDBRANCH   2   3
ENDBRANCH   1   2
BRANCH   1  11
ATOM     11  C   UNL     1      58.042   1.745  96.374  1.00  0.00     0.000 C 
BRANCH  11  12
ATOM     12  C   UNL     1      59.356   2.139  97.067  1.00  0.00     0.000 C 
BRANCH  12  13
ATOM     13  C   UNL     1      60.438   1.052  96.942  1.00  0.00     0.000 C 
BRANCH  13  14
ATOM     14  C   UNL     1      59.936  -0.211  96.218  1.00  0.00     0.000 C 
BRANCH  14  15
ATOM     15  C   UNL     1      60.731  -0.601  94.958  1.00  0.00     0.000 C 
BRANCH  15  16
ATOM     16  C   UNL     1      59.897  -0.509  93.671  1.00  0.00     0.006 C 
BRANCH  16  17
ATOM     17  C   UNL     1      58.468  -1.010  93.906  1.00  0.00     0.053 C 
BRANCH  17  18
ATOM     18  C   UNL     1      57.487  -0.164  93.158  1.00  0.00     0.041 C 
ATOM     19  O   UNL     1      57.887   0.803  92.458  1.00  0.00    -0.550 OA
ATOM     20  O   UNL     1      56.125  -0.415  93.271  1.00  0.00    -0.550 OA
ENDBRANCH  17  18
ENDBRANCH  16  17
ENDBRANCH  15  16
ENDBRANCH  14  15
ENDBRANCH  13  14
ENDBRANCH  12  13
ENDBRANCH  11  12
ENDBRANCH   1  11
TORSDOF 15
ENDMDL
MODEL 4
REMARK VINA RESULT:    -3.790      2.124      7.890
REMARK INTER + INTRA:          -8.483
REMARK INTER:                  -7.171
REMARK INTRA:                  -1.311
REMARK UNBOUND:                -1.370
REMARK SMILES O=C([O-])CCCCCCCCCCCCCCC(=O)[O-]
REMARK SMILES IDX 10 1 9 2 8 3 7 4 6 5 5 6 4 7 2 8 1 9 3 10 11 11 12 12 13 13
REMARK SMILES IDX 14 14 15 15 16 16 17 17 18 18 19 19 20 20
REMARK H PARENT
REMARK Flexibility Score: inf
ROOT
ATOM      1  C   UNL     1      59.413   1.739  96.770  1.00  0.00     0.000 C 
ENDROOT
BRANCH   1   2
ATOM      2  C   UNL     1      60.405   0.569  96.746  1.00  0.00     0.000 C 
BRANCH   2   3
ATOM      3  C   UNL     1      59.942  -0.526  95.773  1.00  0.00     0.000 C 
BRANCH   3   4
ATOM      4  C   UNL     1      61.071  -1.014  94.852  1.00  0.00     0.000 C 
BRANCH   4   5
ATOM      5  C   UNL     1      60.576  -1.338  93.431  1.00  0.00     0.000 C 
BRANCH   5   6
ATOM      6  C   UNL     1      59.615  -0.269  92.884  1.00  0.00     0.006 C 
BRANCH   6   7
ATOM      7  C   UNL     1      58.187  -0.799  92.705  1.00  0.00     0.053 C 
BRANCH   7   8
ATOM      8  C   UNL     1      57.262   0.312  92.319  1.00  0.00     0.041 C 
ATOM      9  O   UNL     1      57.444   1.473  92.770  1.00  0.00    -0.550 OA
ATOM     10  O   UNL     1      56.173   0.055  91.497  1.00  0.00    -0.550 OA
ENDBRANCH   7   8
ENDBRANCH   6   7
ENDBRANCH   5   6
ENDBRANCH   4   5
ENDBRANCH   3   4
ENDBRANCH   2   3
ENDBRANCH   1   2
BRANCH   1  11
ATOM     11  C   UNL     1      58.019   1.285  96.307  1.00  0.00     0.000 C 
BRANCH  11  12
ATOM     12  C   UNL     1      57.052   2.462  96.096  1.00  0.00     0.000 C 
BRANCH  12  13
ATOM     13  C   UNL     1      57.785   3.780  95.790  1.00  0.00     0.000 C 
BRANCH  13  14
ATOM     14  C   UNL     1      57.406   4.915  96.759  1.00  0.00     0.000 C 
BRANCH  14  15
ATOM     15  C   UNL     1      58.513   5.955  97.013  1.00  0.00     0.000 C 
BRANCH  15  16
ATOM     16  C   UNL     1      59.612   5.933  95.940  1.00  0.00     0.006 C 
BRANCH  16  17
ATOM     17  C   UNL     1      60.884   6.622  96.444  1.00  0.00     0.053 C 
BRANCH  17  18
ATOM     18  C   UNL     1      60.930   8.043  95.977  1.00  0.00     0.041 C 
ATOM     19  O   UNL     1      60.835   8.311  94.751  1.00  0.00    -0.550 OA
ATOM     20  O   UNL     1      61.125   9.069  96.893  1.00  0.00    -0.550 OA
ENDBRANCH  17  18
ENDBRANCH  16  17
ENDBRANCH  15  16
ENDBRANCH  14  15
ENDBRANCH  13  14
ENDBRANCH  12  13
ENDBRANCH  11  12
ENDBRANCH   1  11
TORSDOF 15
ENDMDL
MODEL 5
REMARK VINA RESULT:    -3.789      2.146      8.313
REMARK INTER + INTRA:          -8.481
REMARK INTER:                  -7.076
REMARK INTRA:                  -1.405
REMARK UNBOUND:                -1.370
REMARK SMILES O=C([O-])CCCCCCCCCCCCCCC(=O)[O-]
REMARK SMILES IDX 10 1 9 2 8 3 7 4 6 5 5 6 4 7 2 8 1 9 3 10 11 11 12 12 13 13
REMARK SMILES IDX 14 14 15 15 16 16 17 17 18 18 19 19 20 20
REMARK H PARENT
REMARK Flexibility Score: inf
ROOT
ATOM      1  C   UNL     1      57.382   2.345  95.276  1.00  0.00     0.000 C 
ENDROOT
BRANCH   1   2
ATOM      2  C   UNL     1      57.936   1.357  96.310  1.00  0.00     0.000 C 
BRANCH   2   3
ATOM      3  C   UNL     1      59.191   1.920  96.994  1.00  0.00     0.000 C 
BRANCH   3   4
ATOM      4  C   UNL     1      60.410   0.997  96.845  1.00  0.00     0.000 C 
BRANCH   4   5
ATOM      5  C   UNL     1      60.050  -0.360  96.215  1.00  0.00     0.000 C 
BRANCH   5   6
ATOM      6  C   UNL     1      60.860  -0.652  94.941  1.00  0.00     0.006 C 
BRANCH   6   7
ATOM      7  C   UNL     1      59.977  -0.742  93.690  1.00  0.00     0.053 C 
BRANCH   7   8
ATOM      8  C   UNL     1      59.553  -2.156  93.449  1.00  0.00     0.041 C 
ATOM      9  O   UNL     1      58.415  -2.548  93.817  1.00  0.00    -0.550 OA
ATOM     10  O   UNL     1      60.432  -3.053  92.857  1.00  0.00    -0.550 OA
ENDBRANCH   7   8
ENDBRANCH   6   7
ENDBRANCH   5   6
ENDBRANCH   4   5
ENDBRANCH   3   4
ENDBRANCH   2   3
ENDBRANCH   1   2
BRANCH   1  11
ATOM     11  C   UNL     1      57.161   3.730  95.906  1.00  0.00     0.000 C 
BRANCH  11  12
ATOM     12  C   UNL     1      57.991   4.830  95.226  1.00  0.00     0.000 C 
BRANCH  12  13
ATOM     13  C   UNL     1      58.571   5.839  96.233  1.00  0.00     0.000 C 
BRANCH  13  14
ATOM     14  C   UNL     1      60.057   5.583  96.549  1.00  0.00     0.000 C 
BRANCH  14  15
ATOM     15  C   UNL     1      61.021   6.695  96.096  1.00  0.00     0.000 C 
BRANCH  15  16
ATOM     16  C   UNL     1      61.125   6.813  94.568  1.00  0.00     0.006 C 
BRANCH  16  17
ATOM     17  C   UNL     1      60.614   8.174  94.086  1.00  0.00     0.053 C 
BRANCH  17  18
ATOM     18  C   UNL     1      59.477   7.999  93.130  1.00  0.00     0.041 C 
ATOM     19  O   UNL     1      59.262   6.878  92.599  1.00  0.00    -0.550 OA
ATOM     20  O   UNL     1      58.682   9.086  92.789  1.00  0.00    -0.550 OA
ENDBRANCH  17  18
ENDBRANCH  16  17
ENDBRANCH  15  16
ENDBRANCH  14  15
ENDBRANCH  13  14
ENDBRANCH  12  13
ENDBRANCH  11  12
ENDBRANCH   1  11
TORSDOF 15
ENDMDL
MODEL 6
REMARK VINA RESULT:    -3.770      2.696      7.198
REMARK INTER + INTRA:          -8.446
REMARK INTER:                  -6.995
REMARK INTRA:                  -1.450
REMARK UNBOUND:                -1.370
REMARK SMILES O=C([O-])CCCCCCCCCCCCCCC(=O)[O-]
REMARK SMILES IDX 10 1 9 2 8 3 7 4 6 5 5 6 4 7 2 8 1 9 3 10 11 11 12 12 13 13
REMARK SMILES IDX 14 14 15 15 16 16 17 17 18 18 19 19 20 20
REMARK H PARENT
REMARK Flexibility Score: inf
ROOT
ATOM      1  C   UNL     1      60.058  -0.752  95.776  1.00  0.00     0.000 C 
ENDROOT
BRANCH   1   2
ATOM      2  C   UNL     1      61.005  -1.072  94.612  1.00  0.00     0.000 C 
BRANCH   2   3
ATOM      3  C   UNL     1      60.397  -2.131  93.681  1.00  0.00     0.000 C 
BRANCH   3   4
ATOM      4  C   UNL     1      60.157  -1.601  92.259  1.00  0.00     0.000 C 
BRANCH   4   5
ATOM      5  C   UNL     1      59.575  -0.177  92.250  1.00  0.00     0.000 C 
BRANCH   5   6
ATOM      6  C   UNL     1      58.064  -0.155  92.536  1.00  0.00     0.006 C 
BRANCH   6   7
ATOM      7  C   UNL     1      57.493   1.267  92.572  1.00  0.00     0.053 C 
BRANCH   7   8
ATOM      8  C   UNL     1      56.996   1.666  91.218  1.00  0.00     0.041 C 
ATOM      9  O   UNL     1      56.658   0.786  90.383  1.00  0.00    -0.550 OA
ATOM     10  O   UNL     1      56.947   3.007  90.863  1.00  0.00    -0.550 OA
ENDBRANCH   7   8
ENDBRANCH   6   7
ENDBRANCH   5   6
ENDBRANCH   4   5
ENDBRANCH   3   4
ENDBRANCH   2   3
ENDBRANCH   1   2
BRANCH   1  11
ATOM     11  C   UNL     1      60.733   0.185  96.791  1.00  0.00     0.000 C 
BRANCH  11  12
ATOM     12  C   UNL     1      59.973   1.508  96.973  1.00  0.00     0.000 C 
BRANCH  12  13
ATOM     13  C   UNL     1      58.742   1.613  96.056  1.00  0.00     0.000 C 
BRANCH  13  14
ATOM     14  C   UNL     1      57.766   2.723  96.487  1.00  0.00     0.000 C 
BRANCH  14  15
ATOM     15  C   UNL     1      57.477   3.791  95.415  1.00  0.00     0.000 C 
BRANCH  15  16
ATOM     16  C   UNL     1      57.777   5.218  95.894  1.00  0.00     0.006 C 
BRANCH  16  17
ATOM     17  C   UNL     1      59.169   5.303  96.528  1.00  0.00     0.053 C 
BRANCH  17  18
ATOM     18  C   UNL     1      59.889   6.524  96.049  1.00  0.00     0.041 C 
ATOM     19  O   UNL     1      60.518   6.502  94.958  1.00  0.00    -0.550 OA
ATOM     20  O   UNL     1      59.905   7.673  96.830  1.00  0.00    -0.550 OA
ENDBRANCH  17  18
ENDBRANCH  16  17
ENDBRANCH  15  16
ENDBRANCH  14  15
ENDBRANCH  13  14
ENDBRANCH  12  13
ENDBRANCH  11  12
ENDBRANCH   1  11
TORSDOF 15
ENDMDL
MODEL 7
REMARK VINA RESULT:    -3.747      1.595      3.142
REMARK INTER + INTRA:          -8.402
REMARK INTER:                  -7.029
REMARK INTRA:                  -1.373
REMARK UNBOUND:                -1.370
REMARK SMILES O=C([O-])CCCCCCCCCCCCCCC(=O)[O-]
REMARK SMILES IDX 10 1 9 2 8 3 7 4 6 5 5 6 4 7 2 8 1 9 3 10 11 11 12 12 13 13
REMARK SMILES IDX 14 14 15 15 16 16 17 17 18 18 19 19 20 20
REMARK H PARENT
REMARK Flexibility Score: inf
ROOT
ATOM      1  C   UNL     1      60.043  -0.576  95.728  1.00  0.00     0.000 C 
ENDROOT
BRANCH   1   2
ATOM      2  C   UNL     1      60.745   0.300  96.773  1.00  0.00     0.000 C 
BRANCH   2   3
ATOM      3  C   UNL     1      59.957   1.595  97.026  1.00  0.00     0.000 C 
BRANCH   3   4
ATOM      4  C   UNL     1      58.543   1.552  96.427  1.00  0.00     0.000 C 
BRANCH   4   5
ATOM      5  C   UNL     1      57.992   2.955  96.113  1.00  0.00     0.000 C 
BRANCH   5   6
ATOM      6  C   UNL     1      58.852   4.075  96.720  1.00  0.00     0.006 C 
BRANCH   6   7
ATOM      7  C   UNL     1      58.735   5.393  95.945  1.00  0.00     0.053 C 
BRANCH   7   8
ATOM      8  C   UNL     1      59.777   6.363  96.403  1.00  0.00     0.041 C 
ATOM      9  O   UNL     1      60.997   6.122  96.207  1.00  0.00    -0.550 OA
ATOM     10  O   UNL     1      59.404   7.513  97.085  1.00  0.00    -0.550 OA
ENDBRANCH   7   8
ENDBRANCH   6   7
ENDBRANCH   5   6
ENDBRANCH   4   5
ENDBRANCH   3   4
ENDBRANCH   2   3
ENDBRANCH   1   2
BRANCH   1  11
ATOM     11  C   UNL     1      61.027  -1.015  94.631  1.00  0.00     0.000 C 
BRANCH  11  12
ATOM     12  C   UNL     1      60.383  -1.046  93.235  1.00  0.00     0.000 C 
BRANCH  12  13
ATOM     13  C   UNL     1      59.032  -0.310  93.192  1.00  0.00     0.000 C 
BRANCH  13  14
ATOM     14  C   UNL     1      57.986  -1.030  92.322  1.00  0.00     0.000 C 
BRANCH  14  15
ATOM     15  C   UNL     1      56.873  -1.754  93.103  1.00  0.00     0.000 C 
BRANCH  15  16
ATOM     16  C   UNL     1      57.418  -2.785  94.103  1.00  0.00     0.006 C 
BRANCH  16  17
ATOM     17  C   UNL     1      56.303  -3.306  95.016  1.00  0.00     0.053 C 
BRANCH  17  18
ATOM     18  C   UNL     1      56.021  -2.326  96.110  1.00  0.00     0.041 C 
ATOM     19  O   UNL     1      56.969  -1.792  96.743  1.00  0.00    -0.550 OA
ATOM     20  O   UNL     1      54.708  -2.035  96.461  1.00  0.00    -0.550 OA
ENDBRANCH  17  18
ENDBRANCH  16  17
ENDBRANCH  15  16
ENDBRANCH  14  15
ENDBRANCH  13  14
ENDBRANCH  12  13
ENDBRANCH  11  12
ENDBRANCH   1  11
TORSDOF 15
ENDMDL
MODEL 8
REMARK VINA RESULT:    -3.745      4.177      5.956
REMARK INTER + INTRA:          -8.399
REMARK INTER:                  -6.142
REMARK INTRA:                  -2.257
REMARK UNBOUND:                -1.370
REMARK SMILES O=C([O-])CCCCCCCCCCCCCCC(=O)[O-]
REMARK SMILES IDX 10 1 9 2 8 3 7 4 6 5 5 6 4 7 2 8 1 9 3 10 11 11 12 12 13 13
REMARK SMILES IDX 14 14 15 15 16 16 17 17 18 18 19 19 20 20
REMARK H PARENT
REMARK Flexibility Score: inf
ROOT
ATOM      1  C   UNL     1      60.461  -0.314  96.565  1.00  0.00     0.000 C 
ENDROOT
BRANCH   1   2
ATOM      2  C   UNL     1      61.031  -0.622  95.174  1.00  0.00     0.000 C 
BRANCH   2   3
ATOM      3  C   UNL     1      60.118  -1.589  94.406  1.00  0.00     0.000 C 
BRANCH   3   4
ATOM      4  C   UNL     1      60.493  -1.701  92.919  1.00  0.00     0.000 C 
BRANCH   4   5
ATOM      5  C   UNL     1      59.298  -1.432  91.987  1.00  0.00     0.000 C 
BRANCH   5   6
ATOM      6  C   UNL     1      58.939   0.061  91.905  1.00  0.00     0.006 C 
BRANCH   6   7
ATOM      7  C   UNL     1      57.463   0.293  91.559  1.00  0.00     0.053 C 
BRANCH   7   8
ATOM      8  C   UNL     1      57.231   1.724  91.190  1.00  0.00     0.041 C 
ATOM      9  O   UNL     1      57.203   2.070  89.980  1.00  0.00    -0.550 OA
ATOM     10  O   UNL     1      57.088   2.683  92.184  1.00  0.00    -0.550 OA
ENDBRANCH   7   8
ENDBRANCH   6   7
ENDBRANCH   5   6
ENDBRANCH   4   5
ENDBRANCH   3   4
ENDBRANCH   2   3
ENDBRANCH   1   2
BRANCH   1  11
ATOM     11  C   UNL     1      60.267   1.199  96.755  1.00  0.00     0.000 C 
BRANCH  11  12
ATOM     12  C   UNL     1      58.785   1.606  96.800  1.00  0.00     0.000 C 
BRANCH  12  13
ATOM     13  C   UNL     1      58.129   1.593  95.408  1.00  0.00     0.000 C 
BRANCH  13  14
ATOM     14  C   UNL     1      57.123   0.441  95.231  1.00  0.00     0.000 C 
BRANCH  14  15
ATOM     15  C   UNL     1      56.672  -0.240  96.537  1.00  0.00     0.000 C 
BRANCH  15  16
ATOM     16  C   UNL     1      57.053  -1.727  96.600  1.00  0.00     0.006 C 
BRANCH  16  17
ATOM     17  C   UNL     1      56.647  -2.452  95.313  1.00  0.00     0.053 C 
BRANCH  17  18
ATOM     18  C   UNL     1      55.629  -3.508  95.605  1.00  0.00     0.041 C 
ATOM     19  O   UNL     1      55.926  -4.725  95.486  1.00  0.00    -0.550 OA
ATOM     20  O   UNL     1      54.337  -3.146  95.966  1.00  0.00    -0.550 OA
ENDBRANCH  17  18
ENDBRANCH  16  17
ENDBRANCH  15  16
ENDBRANCH  14  15
ENDBRANCH  13  14
ENDBRANCH  12  13
ENDBRANCH  11  12
ENDBRANCH   1  11
TORSDOF 15
ENDMDL
MODEL 9
REMARK VINA RESULT:    -3.702      1.944      2.532
REMARK INTER + INTRA:          -8.318
REMARK INTER:                  -7.333
REMARK INTRA:                  -0.985
REMARK UNBOUND:                -1.370
REMARK SMILES O=C([O-])CCCCCCCCCCCCCCC(=O)[O-]
REMARK SMILES IDX 10 1 9 2 8 3 7 4 6 5 5 6 4 7 2 8 1 9 3 10 11 11 12 12 13 13
REMARK SMILES IDX 14 14 15 15 16 16 17 17 18 18 19 19 20 20
REMARK H PARENT
REMARK Flexibility Score: inf
ROOT
ATOM      1  C   UNL     1      57.729   2.993  95.574  1.00  0.00     0.000 C 
ENDROOT
BRANCH   1   2
ATOM      2  C   UNL     1      57.333   4.462  95.771  1.00  0.00     0.000 C 
BRANCH   2   3
ATOM      3  C   UNL     1      57.832   4.990  97.124  1.00  0.00     0.000 C 
BRANCH   3   4
ATOM      4  C   UNL     1      58.767   6.200  96.977  1.00  0.00     0.000 C 
BRANCH   4   5
ATOM      5  C   UNL     1      60.136   5.820  96.385  1.00  0.00     0.000 C 
BRANCH   5   6
ATOM      6  C   UNL     1      60.954   7.049  95.954  1.00  0.00     0.006 C 
BRANCH   6   7
ATOM      7  C   UNL     1      60.423   8.352  96.564  1.00  0.00     0.053 C 
BRANCH   7   8
ATOM      8  C   UNL     1      59.994   9.297  95.486  1.00  0.00     0.041 C 
ATOM      9  O   UNL     1      60.736  10.258  95.155  1.00  0.00    -0.550 OA
ATOM     10  O   UNL     1      58.756   9.142  94.878  1.00  0.00    -0.550 OA
ENDBRANCH   7   8
ENDBRANCH   6   7
ENDBRANCH   5   6
ENDBRANCH   4   5
ENDBRANCH   3   4
ENDBRANCH   2   3
ENDBRANCH   1   2
BRANCH   1  11
ATOM     11  C   UNL     1      58.337   2.412  96.861  1.00  0.00     0.000 C 
BRANCH  11  12
ATOM     12  C   UNL     1      59.870   2.309  96.798  1.00  0.00     0.000 C 
BRANCH  12  13
ATOM     13  C   UNL     1      60.377   0.880  97.059  1.00  0.00     0.000 C 
BRANCH  13  14
ATOM     14  C   UNL     1      59.793  -0.151  96.075  1.00  0.00     0.000 C 
BRANCH  14  15
ATOM     15  C   UNL     1      60.735  -0.569  94.931  1.00  0.00     0.000 C 
BRANCH  15  16
ATOM     16  C   UNL     1      60.056  -0.537  93.553  1.00  0.00     0.006 C 
BRANCH  16  17
ATOM     17  C   UNL     1      60.468  -1.749  92.711  1.00  0.00     0.053 C 
BRANCH  17  18
ATOM     18  C   UNL     1      59.444  -2.833  92.817  1.00  0.00     0.041 C 
ATOM     19  O   UNL     1      58.219  -2.562  92.704  1.00  0.00    -0.550 OA
ATOM     20  O   UNL     1      59.838  -4.138  93.088  1.00  0.00    -0.550 OA
ENDBRANCH  17  18
ENDBRANCH  16  17
ENDBRANCH  15  16
ENDBRANCH  14  15
ENDBRANCH  13  14
ENDBRANCH  12  13
ENDBRANCH  11  12
ENDBRANCH   1  11
TORSDOF 15
ENDMDL
