MODEL 1
REMARK VINA RESULT:    -3.636      0.000      0.000
REMARK INTER + INTRA:          -5.118
REMARK INTER:                  -4.699
REMARK INTRA:                  -0.420
REMARK UNBOUND:                -0.420
REMARK SMILES CCCCCCC(=O)[O-]
REMARK SMILES IDX 5 1 6 2 7 3 8 4 9 5 4 6 3 7 2 8 1 9
REMARK H PARENT
REMARK Flexibility Score: inf
ROOT
ATOM      1  C   UNL     1      11.452 -19.208 -13.369  1.00  0.00     0.006 C 
ENDROOT
BRANCH   1   2
ATOM      2  C   UNL     1      11.135 -19.109 -14.866  1.00  0.00     0.053 C 
BRANCH   2   3
ATOM      3  C   UNL     1      12.258 -19.635 -15.707  1.00  0.00     0.041 C 
ATOM      4  O   UNL     1      12.134 -19.708 -16.958  1.00  0.00    -0.550 OA
ATOM      5  O   UNL     1      13.430 -20.074 -15.105  1.00  0.00    -0.550 OA
ENDBRANCH   2   3
ENDBRANCH   1   2
BRANCH   1   6
ATOM      6  C   UNL     1      11.652 -17.829 -12.724  1.00  0.00     0.000 C 
BRANCH   6   7
ATOM      7  C   UNL     1      13.116 -17.384 -12.820  1.00  0.00    -0.000 C 
BRANCH   7   8
ATOM      8  C   UNL     1      13.271 -16.213 -13.798  1.00  0.00    -0.003 C 
ATOM      9  C   UNL     1      14.209 -16.574 -14.946  1.00  0.00     0.004 C 
ENDBRANCH   7   8
ENDBRANCH   6   7
ENDBRANCH   1   6
TORSDOF 5
ENDMDL
MODEL 2
REMARK VINA RESULT:    -3.619      4.451      6.071
REMARK INTER + INTRA:          -5.096
REMARK INTER:                  -4.940
REMARK INTRA:                  -0.156
REMARK UNBOUND:                -0.420
REMARK SMILES CCCCCCC(=O)[O-]
REMARK SMILES IDX 5 1 6 2 7 3 8 4 9 5 4 6 3 7 2 8 1 9
REMARK H PARENT
REMARK Flexibility Score: inf
ROOT
ATOM      1  C   UNL     1      12.020 -22.767 -13.972  1.00  0.00     0.006 C 
ENDROOT
BRANCH   1   2
ATOM      2  C   UNL     1      11.492 -21.766 -15.007  1.00  0.00     0.053 C 
BRANCH   2   3
ATOM      3  C   UNL     1      11.736 -20.349 -14.583  1.00  0.00     0.041 C 
ATOM      4  O   UNL     1      11.278 -19.395 -15.265  1.00  0.00    -0.550 OA
ATOM      5  O   UNL     1      12.499 -20.084 -13.452  1.00  0.00    -0.550 OA
ENDBRANCH   2   3
ENDBRANCH   1   2
BRANCH   1   6
ATOM      6  C   UNL     1      11.002 -23.875 -13.662  1.00  0.00     0.000 C 
BRANCH   6   7
ATOM      7  C   UNL     1      11.395 -25.190 -14.343  1.00  0.00    -0.000 C 
BRANCH   7   8
ATOM      8  C   UNL     1      12.857 -25.547 -14.050  1.00  0.00    -0.003 C 
ATOM      9  C   UNL     1      13.145 -27.009 -14.378  1.00  0.00     0.004 C 
ENDBRANCH   7   8
ENDBRANCH   6   7
ENDBRANCH   1   6
TORSDOF 5
ENDMDL
MODEL 3
REMARK VINA RESULT:    -3.618      2.353      3.936
REMARK INTER + INTRA:          -5.096
REMARK INTER:                  -4.740
REMARK INTRA:                  -0.355
REMARK UNBOUND:                -0.420
REMARK SMILES CCCCCCC(=O)[O-]
REMARK SMILES IDX 5 1 6 2 7 3 8 4 9 5 4 6 3 7 2 8 1 9
REMARK H PARENT
REMARK Flexibility Score: inf
ROOT
ATOM      1  C   UNL     1      13.649 -19.007 -15.130  1.00  0.00     0.006 C 
ENDROOT
BRANCH   1   2
ATOM      2  C   UNL     1      14.218 -17.671 -15.624  1.00  0.00     0.053 C 
BRANCH   2   3
ATOM      3  C   UNL     1      14.395 -16.695 -14.501  1.00  0.00     0.041 C 
ATOM      4  O   UNL     1      15.545 -16.447 -14.053  1.00  0.00    -0.550 OA
ATOM      5  O   UNL     1      13.286 -16.084 -13.930  1.00  0.00    -0.550 OA
ENDBRANCH   2   3
ENDBRANCH   1   2
BRANCH   1   6
ATOM      6  C   UNL     1      12.243 -19.283 -15.685  1.00  0.00     0.000 C 
BRANCH   6   7
ATOM      7  C   UNL     1      11.173 -19.047 -14.613  1.00  0.00    -0.000 C 
BRANCH   7   8
ATOM      8  C   UNL     1      11.683 -19.457 -13.227  1.00  0.00    -0.003 C 
ATOM      9  C   UNL     1      11.025 -18.625 -12.129  1.00  0.00     0.004 C 
ENDBRANCH   7   8
ENDBRANCH   6   7
ENDBRANCH   1   6
TORSDOF 5
ENDMDL
MODEL 4
REMARK VINA RESULT:    -3.604      4.164      5.108
REMARK INTER + INTRA:          -5.077
REMARK INTER:                  -4.937
REMARK INTRA:                  -0.140
REMARK UNBOUND:                -0.420
REMARK SMILES CCCCCCC(=O)[O-]
REMARK SMILES IDX 5 1 6 2 7 3 8 4 9 5 4 6 3 7 2 8 1 9
REMARK H PARENT
REMARK Flexibility Score: inf
ROOT
ATOM      1  C   UNL     1      11.614 -23.002 -13.817  1.00  0.00     0.006 C 
ENDROOT
BRANCH   1   2
ATOM      2  C   UNL     1      11.313 -24.474 -14.125  1.00  0.00     0.053 C 
BRANCH   2   3
ATOM      3  C   UNL     1      12.548 -25.321 -14.052  1.00  0.00     0.041 C 
ATOM      4  O   UNL     1      13.660 -24.797 -13.783  1.00  0.00    -0.550 OA
ATOM      5  O   UNL     1      12.472 -26.683 -14.313  1.00  0.00    -0.550 OA
ENDBRANCH   2   3
ENDBRANCH   1   2
BRANCH   1   6
ATOM      6  C   UNL     1      11.454 -22.104 -15.053  1.00  0.00     0.000 C 
BRANCH   6   7
ATOM      7  C   UNL     1      12.239 -20.798 -14.889  1.00  0.00    -0.000 C 
BRANCH   7   8
ATOM      8  C   UNL     1      11.343 -19.581 -15.147  1.00  0.00    -0.003 C 
ATOM      9  C   UNL     1      11.198 -18.728 -13.889  1.00  0.00     0.004 C 
ENDBRANCH   7   8
ENDBRANCH   6   7
ENDBRANCH   1   6
TORSDOF 5
ENDMDL
MODEL 5
REMARK VINA RESULT:    -3.584      3.106      4.781
REMARK INTER + INTRA:          -5.051
REMARK INTER:                  -4.851
REMARK INTRA:                  -0.200
REMARK UNBOUND:                -0.420
REMARK SMILES CCCCCCC(=O)[O-]
REMARK SMILES IDX 5 1 6 2 7 3 8 4 9 5 4 6 3 7 2 8 1 9
REMARK H PARENT
REMARK Flexibility Score: inf
ROOT
ATOM      1  C   UNL     1      11.681 -20.899 -15.127  1.00  0.00     0.006 C 
ENDROOT
BRANCH   1   2
ATOM      2  C   UNL     1      11.361 -19.401 -15.053  1.00  0.00     0.053 C 
BRANCH   2   3
ATOM      3  C   UNL     1      12.598 -18.562 -15.162  1.00  0.00     0.041 C 
ATOM      4  O   UNL     1      13.366 -18.691 -16.151  1.00  0.00    -0.550 OA
ATOM      5  O   UNL     1      12.919 -17.663 -14.153  1.00  0.00    -0.550 OA
ENDBRANCH   2   3
ENDBRANCH   1   2
BRANCH   1   6
ATOM      6  C   UNL     1      12.406 -21.402 -13.870  1.00  0.00     0.000 C 
BRANCH   6   7
ATOM      7  C   UNL     1      12.599 -22.922 -13.916  1.00  0.00    -0.000 C 
BRANCH   7   8
ATOM      8  C   UNL     1      11.266 -23.637 -14.166  1.00  0.00    -0.003 C 
ATOM      9  C   UNL     1      11.453 -25.152 -14.208  1.00  0.00     0.004 C 
ENDBRANCH   7   8
ENDBRANCH   6   7
ENDBRANCH   1   6
TORSDOF 5
ENDMDL
MODEL 6
REMARK VINA RESULT:    -3.573      2.016      3.482
REMARK INTER + INTRA:          -5.036
REMARK INTER:                  -4.695
REMARK INTRA:                  -0.342
REMARK UNBOUND:                -0.420
REMARK SMILES CCCCCCC(=O)[O-]
REMARK SMILES IDX 5 1 6 2 7 3 8 4 9 5 4 6 3 7 2 8 1 9
REMARK H PARENT
REMARK Flexibility Score: inf
ROOT
ATOM      1  C   UNL     1      11.539 -19.182 -13.434  1.00  0.00     0.006 C 
ENDROOT
BRANCH   1   2
ATOM      2  C   UNL     1      11.774 -17.758 -12.914  1.00  0.00     0.053 C 
BRANCH   2   3
ATOM      3  C   UNL     1      13.124 -17.240 -13.307  1.00  0.00     0.041 C 
ATOM      4  O   UNL     1      13.244 -16.079 -13.779  1.00  0.00    -0.550 OA
ATOM      5  O   UNL     1      14.244 -18.053 -13.183  1.00  0.00    -0.550 OA
ENDBRANCH   2   3
ENDBRANCH   1   2
BRANCH   1   6
ATOM      6  C   UNL     1      11.106 -19.199 -14.907  1.00  0.00     0.000 C 
BRANCH   6   7
ATOM      7  C   UNL     1      11.777 -20.351 -15.665  1.00  0.00    -0.000 C 
BRANCH   7   8
ATOM      8  C   UNL     1      12.426 -19.852 -16.961  1.00  0.00    -0.003 C 
ATOM      9  C   UNL     1      13.418 -18.726 -16.683  1.00  0.00     0.004 C 
ENDBRANCH   7   8
ENDBRANCH   6   7
ENDBRANCH   1   6
TORSDOF 5
ENDMDL
MODEL 7
REMARK VINA RESULT:    -3.543      2.446      4.282
REMARK INTER + INTRA:          -4.998
REMARK INTER:                  -4.639
REMARK INTRA:                  -0.359
REMARK UNBOUND:                -0.420
REMARK SMILES CCCCCCC(=O)[O-]
REMARK SMILES IDX 5 1 6 2 7 3 8 4 9 5 4 6 3 7 2 8 1 9
REMARK H PARENT
REMARK Flexibility Score: inf
ROOT
ATOM      1  C   UNL     1      14.182 -16.765 -14.992  1.00  0.00     0.006 C 
ENDROOT
BRANCH   1   2
ATOM      2  C   UNL     1      13.334 -16.296 -13.804  1.00  0.00     0.053 C 
BRANCH   2   3
ATOM      3  C   UNL     1      13.726 -16.989 -12.534  1.00  0.00     0.041 C 
ATOM      4  O   UNL     1      14.888 -16.851 -12.070  1.00  0.00    -0.550 OA
ATOM      5  O   UNL     1      12.816 -17.812 -11.882  1.00  0.00    -0.550 OA
ENDBRANCH   2   3
ENDBRANCH   1   2
BRANCH   1   6
ATOM      6  C   UNL     1      14.108 -18.286 -15.197  1.00  0.00     0.000 C 
BRANCH   6   7
ATOM      7  C   UNL     1      13.201 -18.637 -16.382  1.00  0.00    -0.000 C 
BRANCH   7   8
ATOM      8  C   UNL     1      12.163 -19.694 -15.986  1.00  0.00    -0.003 C 
ATOM      9  C   UNL     1      11.245 -19.178 -14.881  1.00  0.00     0.004 C 
ENDBRANCH   7   8
ENDBRANCH   6   7
ENDBRANCH   1   6
TORSDOF 5
ENDMDL
MODEL 8
REMARK VINA RESULT:    -3.528      2.204      4.116
REMARK INTER + INTRA:          -4.979
REMARK INTER:                  -4.665
REMARK INTRA:                  -0.314
REMARK UNBOUND:                -0.420
REMARK SMILES CCCCCCC(=O)[O-]
REMARK SMILES IDX 5 1 6 2 7 3 8 4 9 5 4 6 3 7 2 8 1 9
REMARK H PARENT
REMARK Flexibility Score: inf
ROOT
ATOM      1  C   UNL     1      11.314 -19.037 -13.731  1.00  0.00     0.006 C 
ENDROOT
BRANCH   1   2
ATOM      2  C   UNL     1      11.925 -17.656 -13.467  1.00  0.00     0.053 C 
BRANCH   2   3
ATOM      3  C   UNL     1      13.339 -17.571 -13.955  1.00  0.00     0.041 C 
ATOM      4  O   UNL     1      14.213 -18.358 -13.506  1.00  0.00    -0.550 OA
ATOM      5  O   UNL     1      13.696 -16.601 -14.883  1.00  0.00    -0.550 OA
ENDBRANCH   2   3
ENDBRANCH   1   2
BRANCH   1   6
ATOM      6  C   UNL     1      11.361 -19.421 -15.218  1.00  0.00     0.000 C 
BRANCH   6   7
ATOM      7  C   UNL     1      11.730 -20.898 -15.393  1.00  0.00    -0.000 C 
BRANCH   7   8
ATOM      8  C   UNL     1      12.048 -21.550 -14.043  1.00  0.00    -0.003 C 
ATOM      9  C   UNL     1      11.612 -23.013 -14.020  1.00  0.00     0.004 C 
ENDBRANCH   7   8
ENDBRANCH   6   7
ENDBRANCH   1   6
TORSDOF 5
ENDMDL
MODEL 9
REMARK VINA RESULT:    -3.509      1.899      3.437
REMARK INTER + INTRA:          -4.954
REMARK INTER:                  -4.592
REMARK INTRA:                  -0.362
REMARK UNBOUND:                -0.420
REMARK SMILES CCCCCCC(=O)[O-]
REMARK SMILES IDX 5 1 6 2 7 3 8 4 9 5 4 6 3 7 2 8 1 9
REMARK H PARENT
REMARK Flexibility Score: inf
ROOT
ATOM      1  C   UNL     1      12.890 -17.974 -12.818  1.00  0.00     0.006 C 
ENDROOT
BRANCH   1   2
ATOM      2  C   UNL     1      13.110 -16.673 -13.600  1.00  0.00     0.053 C 
BRANCH   2   3
ATOM      3  C   UNL     1      14.334 -16.744 -14.461  1.00  0.00     0.041 C 
ATOM      4  O   UNL     1      14.249 -17.139 -15.653  1.00  0.00    -0.550 OA
ATOM      5  O   UNL     1      15.575 -16.404 -13.935  1.00  0.00    -0.550 OA
ENDBRANCH   2   3
ENDBRANCH   1   2
BRANCH   1   6
ATOM      6  C   UNL     1      11.440 -18.472 -12.913  1.00  0.00     0.000 C 
BRANCH   6   7
ATOM      7  C   UNL     1      11.053 -18.765 -14.367  1.00  0.00    -0.000 C 
BRANCH   7   8
ATOM      8  C   UNL     1      11.771 -20.016 -14.886  1.00  0.00    -0.003 C 
ATOM      9  C   UNL     1      12.084 -19.895 -16.375  1.00  0.00     0.004 C 
ENDBRANCH   7   8
ENDBRANCH   6   7
ENDBRANCH   1   6
TORSDOF 5
ENDMDL
