MODEL 1
REMARK VINA RESULT:    -3.587      0.000      0.000
REMARK INTER + INTRA:          -3.587
REMARK INTER:                  -3.587
REMARK INTRA:                   0.000
REMARK UNBOUND:                 0.000
REMARK SMILES O=C1CCCCC1
REMARK SMILES IDX 5 1 4 2 3 3 2 4 1 5 7 6 6 7
REMARK H PARENT
REMARK Flexibility Score: inf
ROOT
ATOM      1  C   UNL     1     117.971 115.290 111.746  1.00  0.00     0.001 C 
ATOM      2  C   UNL     1     116.537 114.860 111.402  1.00  0.00     0.008 C 
ATOM      3  C   UNL     1     115.502 115.722 112.136  1.00  0.00     0.075 C 
ATOM      4  C   UNL     1     115.800 117.182 111.938  1.00  0.00     0.132 C 
ATOM      5  O   UNL     1     114.896 117.968 111.696  1.00  0.00    -0.300 OA
ATOM      6  C   UNL     1     117.206 117.678 112.131  1.00  0.00     0.075 C 
ATOM      7  C   UNL     1     118.199 116.769 111.397  1.00  0.00     0.008 C 
ENDROOT
TORSDOF 0
ENDMDL
MODEL 2
REMARK VINA RESULT:    -3.569      1.340      2.275
REMARK INTER + INTRA:          -3.569
REMARK INTER:                  -3.569
REMARK INTRA:                   0.000
REMARK UNBOUND:                 0.000
REMARK SMILES O=C1CCCCC1
REMARK SMILES IDX 5 1 4 2 3 3 2 4 1 5 7 6 6 7
REMARK H PARENT
REMARK Flexibility Score: inf
ROOT
ATOM      1  C   UNL     1     117.897 117.946 111.738  1.00  0.00     0.001 C 
ATOM      2  C   UNL     1     118.293 116.505 111.382  1.00  0.00     0.008 C 
ATOM      3  C   UNL     1     117.429 115.485 112.135  1.00  0.00     0.075 C 
ATOM      4  C   UNL     1     115.970 115.810 111.971  1.00  0.00     0.132 C 
ATOM      5  O   UNL     1     115.163 114.921 111.748  1.00  0.00    -0.300 OA
ATOM      6  C   UNL     1     115.505 117.224 112.178  1.00  0.00     0.075 C 
ATOM      7  C   UNL     1     116.415 118.202 111.423  1.00  0.00     0.008 C 
ENDROOT
TORSDOF 0
ENDMDL
MODEL 3
REMARK VINA RESULT:    -3.556      1.852      3.246
REMARK INTER + INTRA:          -3.556
REMARK INTER:                  -3.556
REMARK INTRA:                   0.000
REMARK UNBOUND:                 0.000
REMARK SMILES O=C1CCCCC1
REMARK SMILES IDX 5 1 4 2 3 3 2 4 1 5 7 6 6 7
REMARK H PARENT
REMARK Flexibility Score: inf
ROOT
ATOM      1  C   UNL     1     115.237 117.905 111.749  1.00  0.00     0.001 C 
ATOM      2  C   UNL     1     116.678 118.292 111.384  1.00  0.00     0.008 C 
ATOM      3  C   UNL     1     117.697 117.417 112.125  1.00  0.00     0.075 C 
ATOM      4  C   UNL     1     117.360 115.962 111.956  1.00  0.00     0.132 C 
ATOM      5  O   UNL     1     118.242 115.149 111.721  1.00  0.00    -0.300 OA
ATOM      6  C   UNL     1     115.944 115.506 112.170  1.00  0.00     0.075 C 
ATOM      7  C   UNL     1     114.968 116.427 111.428  1.00  0.00     0.008 C 
ENDROOT
TORSDOF 0
ENDMDL
MODEL 4
REMARK VINA RESULT:    -3.547      1.356      2.297
REMARK INTER + INTRA:          -3.547
REMARK INTER:                  -3.547
REMARK INTRA:                   0.000
REMARK UNBOUND:                 0.000
REMARK SMILES O=C1CCCCC1
REMARK SMILES IDX 5 1 4 2 3 3 2 4 1 5 7 6 6 7
REMARK H PARENT
REMARK Flexibility Score: inf
ROOT
ATOM      1  C   UNL     1     115.321 115.201 111.766  1.00  0.00     0.001 C 
ATOM      2  C   UNL     1     114.897 116.633 111.406  1.00  0.00     0.008 C 
ATOM      3  C   UNL     1     115.756 117.672 112.139  1.00  0.00     0.075 C 
ATOM      4  C   UNL     1     117.217 117.369 111.955  1.00  0.00     0.132 C 
ATOM      5  O   UNL     1     118.007 118.269 111.713  1.00  0.00    -0.300 OA
ATOM      6  C   UNL     1     117.708 115.964 112.163  1.00  0.00     0.075 C 
ATOM      7  C   UNL     1     116.802 114.967 111.430  1.00  0.00     0.008 C 
ENDROOT
TORSDOF 0
ENDMDL
MODEL 5
REMARK VINA RESULT:    -3.406      0.869      2.162
REMARK INTER + INTRA:          -3.406
REMARK INTER:                  -3.406
REMARK INTRA:                   0.000
REMARK UNBOUND:                 0.000
REMARK SMILES O=C1CCCCC1
REMARK SMILES IDX 5 1 4 2 3 3 2 4 1 5 7 6 6 7
REMARK H PARENT
REMARK Flexibility Score: inf
ROOT
ATOM      1  C   UNL     1     117.709 116.117 111.815  1.00  0.00     0.001 C 
ATOM      2  C   UNL     1     117.781 117.639 112.005  1.00  0.00     0.008 C 
ATOM      3  C   UNL     1     116.649 118.351 111.253  1.00  0.00     0.075 C 
ATOM      4  C   UNL     1     115.324 117.724 111.585  1.00  0.00     0.132 C 
ATOM      5  O   UNL     1     114.349 118.427 111.808  1.00  0.00    -0.300 OA
ATOM      6  C   UNL     1     115.189 116.228 111.549  1.00  0.00     0.075 C 
ATOM      7  C   UNL     1     116.357 115.568 112.294  1.00  0.00     0.008 C 
ENDROOT
TORSDOF 0
ENDMDL
MODEL 6
REMARK VINA RESULT:    -3.403      1.546      2.456
REMARK INTER + INTRA:          -3.403
REMARK INTER:                  -3.403
REMARK INTRA:                   0.000
REMARK UNBOUND:                 0.000
REMARK SMILES O=C1CCCCC1
REMARK SMILES IDX 5 1 4 2 3 3 2 4 1 5 7 6 6 7
REMARK H PARENT
REMARK Flexibility Score: inf
ROOT
ATOM      1  C   UNL     1     117.322 117.442 111.938  1.00  0.00     0.001 C 
ATOM      2  C   UNL     1     115.827 117.631 112.234  1.00  0.00     0.008 C 
ATOM      3  C   UNL     1     114.967 116.653 111.423  1.00  0.00     0.075 C 
ATOM      4  C   UNL     1     115.481 115.249 111.580  1.00  0.00     0.132 C 
ATOM      5  O   UNL     1     114.701 114.324 111.751  1.00  0.00    -0.300 OA
ATOM      6  C   UNL     1     116.953 114.984 111.431  1.00  0.00     0.075 C 
ATOM      7  C   UNL     1     117.764 116.002 112.242  1.00  0.00     0.008 C 
ENDROOT
TORSDOF 0
ENDMDL
MODEL 7
REMARK VINA RESULT:    -3.396      1.937      2.733
REMARK INTER + INTRA:          -3.396
REMARK INTER:                  -3.396
REMARK INTRA:                   0.000
REMARK UNBOUND:                 0.000
REMARK SMILES O=C1CCCCC1
REMARK SMILES IDX 5 1 4 2 3 3 2 4 1 5 7 6 6 7
REMARK H PARENT
REMARK Flexibility Score: inf
ROOT
ATOM      1  C   UNL     1     115.654 117.272 111.835  1.00  0.00     0.001 C 
ATOM      2  C   UNL     1     115.510 115.775 112.149  1.00  0.00     0.008 C 
ATOM      3  C   UNL     1     116.539 114.939 111.378  1.00  0.00     0.075 C 
ATOM      4  C   UNL     1     117.920 115.505 111.565  1.00  0.00     0.132 C 
ATOM      5  O   UNL     1     118.867 114.761 111.774  1.00  0.00    -0.300 OA
ATOM      6  C   UNL     1     118.137 116.983 111.400  1.00  0.00     0.075 C 
ATOM      7  C   UNL     1     117.068 117.769 112.171  1.00  0.00     0.008 C 
ENDROOT
TORSDOF 0
ENDMDL
MODEL 8
REMARK VINA RESULT:    -3.373      1.457      2.397
REMARK INTER + INTRA:          -3.373
REMARK INTER:                  -3.373
REMARK INTRA:                   0.000
REMARK UNBOUND:                 0.000
REMARK SMILES O=C1CCCCC1
REMARK SMILES IDX 5 1 4 2 3 3 2 4 1 5 7 6 6 7
REMARK H PARENT
REMARK Flexibility Score: inf
ROOT
ATOM      1  C   UNL     1     116.287 115.278 111.759  1.00  0.00     0.001 C 
ATOM      2  C   UNL     1     117.815 115.321 111.909  1.00  0.00     0.008 C 
ATOM      3  C   UNL     1     118.414 116.541 111.198  1.00  0.00     0.075 C 
ATOM      4  C   UNL     1     117.692 117.794 111.611  1.00  0.00     0.132 C 
ATOM      5  O   UNL     1     118.321 118.811 111.865  1.00  0.00    -0.300 OA
ATOM      6  C   UNL     1     116.189 117.809 111.616  1.00  0.00     0.075 C 
ATOM      7  C   UNL     1     115.645 116.558 112.317  1.00  0.00     0.008 C 
ENDROOT
TORSDOF 0
ENDMDL
MODEL 9
REMARK VINA RESULT:    -3.092      1.955      2.497
REMARK INTER + INTRA:          -3.092
REMARK INTER:                  -3.092
REMARK INTRA:                   0.000
REMARK UNBOUND:                 0.000
REMARK SMILES O=C1CCCCC1
REMARK SMILES IDX 5 1 4 2 3 3 2 4 1 5 7 6 6 7
REMARK H PARENT
REMARK Flexibility Score: inf
ROOT
ATOM      1  C   UNL     1     116.692 116.831 110.759  1.00  0.00     0.001 C 
ATOM      2  C   UNL     1     115.976 117.772 111.740  1.00  0.00     0.008 C 
ATOM      3  C   UNL     1     115.678 117.071 113.072  1.00  0.00     0.075 C 
ATOM      4  C   UNL     1     116.919 116.409 113.605  1.00  0.00     0.132 C 
ATOM      5  O   UNL     1     117.200 116.494 114.791  1.00  0.00    -0.300 OA
ATOM      6  C   UNL     1     117.756 115.566 112.684  1.00  0.00     0.075 C 
ATOM      7  C   UNL     1     118.003 116.304 111.362  1.00  0.00     0.008 C 
ENDROOT
TORSDOF 0
ENDMDL
