MODEL 1
REMARK VINA RESULT:    -6.203      0.000      0.000
REMARK INTER + INTRA:          -7.914
REMARK INTER:                  -7.472
REMARK INTRA:                  -0.442
REMARK UNBOUND:                -0.442
REMARK SMILES O=c1c(O)c(-c2ccc(O)cc2O)oc2cc(O)cc(O)c12
REMARK SMILES IDX 5 1 3 2 2 3 1 4 22 5 20 6 19 7 17 8 16 9 15 10 14 11 6 12
REMARK SMILES IDX 8 13 7 14 9 15 11 16 12 17 10 18 13 20 4 22 21 24 18 26
REMARK H PARENT 10 19 13 21 4 23 21 25 18 27
REMARK Flexibility Score: inf
ROOT
ATOM      1  C   UNL     1      15.447  -7.403 -31.364  1.00  0.00     0.184 A 
ATOM      2  C   UNL     1      14.940  -7.289 -32.672  1.00  0.00     0.208 A 
ATOM      3  C   UNL     1      15.842  -7.169 -33.741  1.00  0.00     0.238 A 
ATOM      4  O   UNL     1      15.400  -7.058 -34.917  1.00  0.00    -0.285 OA
ATOM      5  C   UNL     1      17.229  -7.183 -33.487  1.00  0.00     0.111 A 
ATOM      6  C   UNL     1      18.204  -7.071 -34.507  1.00  0.00     0.134 A 
ATOM      7  C   UNL     1      19.567  -7.101 -34.173  1.00  0.00     0.093 A 
ATOM      8  C   UNL     1      19.971  -7.239 -32.841  1.00  0.00     0.123 A 
ATOM      9  C   UNL     1      19.014  -7.348 -31.832  1.00  0.00     0.094 A 
ATOM     10  C   UNL     1      17.651  -7.320 -32.143  1.00  0.00     0.146 A 
ATOM     11  O   UNL     1      16.762  -7.423 -31.162  1.00  0.00    -0.451 OA
ENDROOT
BRANCH   1  12
ATOM     12  C   UNL     1      14.554  -7.514 -30.188  1.00  0.00     0.063 A 
ATOM     13  C   UNL     1      12.914  -6.527 -28.683  1.00  0.00     0.047 A 
ATOM     14  C   UNL     1      13.736  -6.434 -29.809  1.00  0.00     0.020 A 
ATOM     15  C   UNL     1      12.903  -7.694 -27.915  1.00  0.00     0.119 A 
ATOM     16  C   UNL     1      13.722  -8.770 -28.275  1.00  0.00     0.093 A 
ATOM     17  C   UNL     1      14.549  -8.686 -29.405  1.00  0.00     0.130 A 
BRANCH  15  18
ATOM     18  O   UNL     1      12.077  -7.772 -26.796  1.00  0.00    -0.508 OA
ATOM     19  H   UNL     1      11.207  -7.256 -26.742  1.00  0.00     0.293 HD
ENDBRANCH  15  18
BRANCH  17  20
ATOM     20  O   UNL     1      15.357  -9.769 -29.756  1.00  0.00    -0.507 OA
ATOM     21  H   UNL     1      16.367  -9.721 -29.688  1.00  0.00     0.293 HD
ENDBRANCH  17  20
ENDBRANCH   1  12
BRANCH   2  22
ATOM     22  O   UNL     1      13.562  -7.319 -32.898  1.00  0.00    -0.502 OA
ATOM     23  H   UNL     1      13.110  -6.715 -33.574  1.00  0.00     0.293 HD
ENDBRANCH   2  22
BRANCH   6  24
ATOM     24  O   UNL     1      17.832  -6.933 -35.845  1.00  0.00    -0.507 OA
ATOM     25  H   UNL     1      17.236  -7.611 -36.305  1.00  0.00     0.293 HD
ENDBRANCH   6  24
BRANCH   8  26
ATOM     26  O   UNL     1      21.324  -7.268 -32.509  1.00  0.00    -0.508 OA
ATOM     27  H   UNL     1      22.013  -6.762 -33.052  1.00  0.00     0.293 HD
ENDBRANCH   8  26
TORSDOF 6
ENDMDL
MODEL 2
REMARK VINA RESULT:    -6.090      1.885      6.732
REMARK INTER + INTRA:          -7.779
REMARK INTER:                  -7.356
REMARK INTRA:                  -0.423
REMARK UNBOUND:                -0.442
REMARK SMILES O=c1c(O)c(-c2ccc(O)cc2O)oc2cc(O)cc(O)c12
REMARK SMILES IDX 5 1 3 2 2 3 1 4 22 5 20 6 19 7 17 8 16 9 15 10 14 11 6 12
REMARK SMILES IDX 8 13 7 14 9 15 11 16 12 17 10 18 13 20 4 22 21 24 18 26
REMARK H PARENT 10 19 13 21 4 23 21 25 18 27
REMARK Flexibility Score: inf
ROOT
ATOM      1  C   UNL     1      16.724  -6.733 -31.135  1.00  0.00     0.184 A 
ATOM      2  C   UNL     1      16.140  -5.504 -30.773  1.00  0.00     0.208 A 
ATOM      3  C   UNL     1      15.048  -5.505 -29.891  1.00  0.00     0.238 A 
ATOM      4  O   UNL     1      14.512  -4.411 -29.566  1.00  0.00    -0.285 OA
ATOM      5  C   UNL     1      14.572  -6.727 -29.373  1.00  0.00     0.111 A 
ATOM      6  C   UNL     1      13.481  -6.816 -28.476  1.00  0.00     0.134 A 
ATOM      7  C   UNL     1      13.071  -8.070 -28.000  1.00  0.00     0.093 A 
ATOM      8  C   UNL     1      13.731  -9.236 -28.403  1.00  0.00     0.123 A 
ATOM      9  C   UNL     1      14.807  -9.154 -29.289  1.00  0.00     0.094 A 
ATOM     10  C   UNL     1      15.231  -7.914 -29.776  1.00  0.00     0.146 A 
ATOM     11  O   UNL     1      16.255  -7.866 -30.619  1.00  0.00    -0.451 OA
ENDROOT
BRANCH   1  12
ATOM     12  C   UNL     1      17.865  -6.808 -32.075  1.00  0.00     0.063 A 
ATOM     13  C   UNL     1      18.718  -7.003 -34.347  1.00  0.00     0.047 A 
ATOM     14  C   UNL     1      17.642  -6.904 -33.461  1.00  0.00     0.020 A 
ATOM     15  C   UNL     1      20.028  -7.018 -33.864  1.00  0.00     0.119 A 
ATOM     16  C   UNL     1      20.262  -6.937 -32.486  1.00  0.00     0.093 A 
ATOM     17  C   UNL     1      19.188  -6.835 -31.589  1.00  0.00     0.130 A 
BRANCH  15  18
ATOM     18  O   UNL     1      21.091  -7.116 -34.760  1.00  0.00    -0.508 OA
ATOM     19  H   UNL     1      21.884  -6.489 -34.712  1.00  0.00     0.293 HD
ENDBRANCH  15  18
BRANCH  17  20
ATOM     20  O   UNL     1      19.434  -6.749 -30.218  1.00  0.00    -0.507 OA
ATOM     21  H   UNL     1      19.190  -7.502 -29.586  1.00  0.00     0.293 HD
ENDBRANCH  17  20
ENDBRANCH   1  12
BRANCH   2  22
ATOM     22  O   UNL     1      16.658  -4.306 -31.269  1.00  0.00    -0.502 OA
ATOM     23  H   UNL     1      16.081  -3.488 -31.423  1.00  0.00     0.293 HD
ENDBRANCH   2  22
BRANCH   6  24
ATOM     24  O   UNL     1      12.803  -5.671 -28.055  1.00  0.00    -0.507 OA
ATOM     25  H   UNL     1      12.687  -4.866 -28.660  1.00  0.00     0.293 HD
ENDBRANCH   6  24
BRANCH   8  26
ATOM     26  O   UNL     1      13.325 -10.482 -27.931  1.00  0.00    -0.508 OA
ATOM     27  H   UNL     1      13.158 -11.258 -28.561  1.00  0.00     0.293 HD
ENDBRANCH   8  26
TORSDOF 6
ENDMDL
MODEL 3
REMARK VINA RESULT:    -6.028      0.718      1.458
REMARK INTER + INTRA:          -7.703
REMARK INTER:                  -7.410
REMARK INTRA:                  -0.294
REMARK UNBOUND:                -0.442
REMARK SMILES O=c1c(O)c(-c2ccc(O)cc2O)oc2cc(O)cc(O)c12
REMARK SMILES IDX 5 1 3 2 2 3 1 4 22 5 20 6 19 7 17 8 16 9 15 10 14 11 6 12
REMARK SMILES IDX 8 13 7 14 9 15 11 16 12 17 10 18 13 20 4 22 21 24 18 26
REMARK H PARENT 10 19 13 21 4 23 21 25 18 27
REMARK Flexibility Score: inf
ROOT
ATOM      1  C   UNL     1      15.519  -7.400 -31.333  1.00  0.00     0.184 A 
ATOM      2  C   UNL     1      14.981  -7.277 -32.629  1.00  0.00     0.208 A 
ATOM      3  C   UNL     1      15.858  -7.148 -33.718  1.00  0.00     0.238 A 
ATOM      4  O   UNL     1      15.388  -7.029 -34.882  1.00  0.00    -0.285 OA
ATOM      5  C   UNL     1      17.250  -7.163 -33.497  1.00  0.00     0.111 A 
ATOM      6  C   UNL     1      18.201  -7.044 -34.538  1.00  0.00     0.134 A 
ATOM      7  C   UNL     1      19.571  -7.075 -34.237  1.00  0.00     0.093 A 
ATOM      8  C   UNL     1      20.007  -7.223 -32.916  1.00  0.00     0.123 A 
ATOM      9  C   UNL     1      19.073  -7.340 -31.885  1.00  0.00     0.094 A 
ATOM     10  C   UNL     1      17.703  -7.310 -32.164  1.00  0.00     0.146 A 
ATOM     11  O   UNL     1      16.838  -7.421 -31.163  1.00  0.00    -0.451 OA
ENDROOT
BRANCH   1  12
ATOM     12  C   UNL     1      14.653  -7.520 -30.138  1.00  0.00     0.063 A 
ATOM     13  C   UNL     1      13.703  -8.868 -28.347  1.00  0.00     0.047 A 
ATOM     14  C   UNL     1      14.541  -8.747 -29.459  1.00  0.00     0.020 A 
ATOM     15  C   UNL     1      12.959  -7.772 -27.904  1.00  0.00     0.119 A 
ATOM     16  C   UNL     1      13.052  -6.550 -28.580  1.00  0.00     0.093 A 
ATOM     17  C   UNL     1      13.893  -6.418 -29.695  1.00  0.00     0.130 A 
BRANCH  15  18
ATOM     18  O   UNL     1      12.128  -7.909 -26.794  1.00  0.00    -0.508 OA
ATOM     19  H   UNL     1      11.813  -8.818 -26.477  1.00  0.00     0.293 HD
ENDBRANCH  15  18
BRANCH  17  20
ATOM     20  O   UNL     1      13.982  -5.192 -30.357  1.00  0.00    -0.507 OA
ATOM     21  H   UNL     1      14.869  -4.722 -30.486  1.00  0.00     0.293 HD
ENDBRANCH  17  20
ENDBRANCH   1  12
BRANCH   2  22
ATOM     22  O   UNL     1      13.598  -7.306 -32.822  1.00  0.00    -0.502 OA
ATOM     23  H   UNL     1      13.136  -8.058 -33.317  1.00  0.00     0.293 HD
ENDBRANCH   2  22
BRANCH   6  24
ATOM     24  O   UNL     1      17.797  -6.896 -35.866  1.00  0.00    -0.507 OA
ATOM     25  H   UNL     1      17.111  -7.512 -36.287  1.00  0.00     0.293 HD
ENDBRANCH   6  24
BRANCH   8  26
ATOM     26  O   UNL     1      21.367  -7.255 -32.616  1.00  0.00    -0.508 OA
ATOM     27  H   UNL     1      21.778  -6.605 -31.956  1.00  0.00     0.293 HD
ENDBRANCH   8  26
TORSDOF 6
ENDMDL
MODEL 4
REMARK VINA RESULT:    -5.783      1.565      3.304
REMARK INTER + INTRA:          -7.409
REMARK INTER:                  -6.932
REMARK INTRA:                  -0.477
REMARK UNBOUND:                -0.442
REMARK SMILES O=c1c(O)c(-c2ccc(O)cc2O)oc2cc(O)cc(O)c12
REMARK SMILES IDX 5 1 3 2 2 3 1 4 22 5 20 6 19 7 17 8 16 9 15 10 14 11 6 12
REMARK SMILES IDX 8 13 7 14 9 15 11 16 12 17 10 18 13 20 4 22 21 24 18 26
REMARK H PARENT 10 19 13 21 4 23 21 25 18 27
REMARK Flexibility Score: inf
ROOT
ATOM      1  C   UNL     1      16.220  -7.585 -31.337  1.00  0.00     0.184 A 
ATOM      2  C   UNL     1      17.589  -7.323 -31.141  1.00  0.00     0.208 A 
ATOM      3  C   UNL     1      18.381  -6.983 -32.249  1.00  0.00     0.238 A 
ATOM      4  O   UNL     1      19.610  -6.754 -32.086  1.00  0.00    -0.285 OA
ATOM      5  C   UNL     1      17.791  -6.895 -33.526  1.00  0.00     0.111 A 
ATOM      6  C   UNL     1      18.516  -6.555 -34.693  1.00  0.00     0.134 A 
ATOM      7  C   UNL     1      17.854  -6.481 -35.927  1.00  0.00     0.093 A 
ATOM      8  C   UNL     1      16.482  -6.739 -36.017  1.00  0.00     0.123 A 
ATOM      9  C   UNL     1      15.762  -7.076 -34.869  1.00  0.00     0.094 A 
ATOM     10  C   UNL     1      16.403  -7.157 -33.629  1.00  0.00     0.146 A 
ATOM     11  O   UNL     1      15.695  -7.482 -32.555  1.00  0.00    -0.451 OA
ENDROOT
BRANCH   1  12
ATOM     12  C   UNL     1      15.330  -7.967 -30.217  1.00  0.00     0.063 A 
ATOM     13  C   UNL     1      14.512  -9.639 -28.647  1.00  0.00     0.047 A 
ATOM     14  C   UNL     1      15.371  -9.269 -29.685  1.00  0.00     0.020 A 
ATOM     15  C   UNL     1      13.594  -8.720 -28.133  1.00  0.00     0.119 A 
ATOM     16  C   UNL     1      13.535  -7.426 -28.664  1.00  0.00     0.093 A 
ATOM     17  C   UNL     1      14.395  -7.045 -29.704  1.00  0.00     0.130 A 
BRANCH  15  18
ATOM     18  O   UNL     1      12.745  -9.103 -27.097  1.00  0.00    -0.508 OA
ATOM     19  H   UNL     1      11.745  -9.189 -27.236  1.00  0.00     0.293 HD
ENDBRANCH  15  18
BRANCH  17  20
ATOM     20  O   UNL     1      14.330  -5.750 -30.220  1.00  0.00    -0.507 OA
ATOM     21  H   UNL     1      13.793  -5.537 -31.052  1.00  0.00     0.293 HD
ENDBRANCH  17  20
ENDBRANCH   1  12
BRANCH   2  22
ATOM     22  O   UNL     1      18.139  -7.378 -29.858  1.00  0.00    -0.502 OA
ATOM     23  H   UNL     1      17.835  -6.765 -29.111  1.00  0.00     0.293 HD
ENDBRANCH   2  22
BRANCH   6  24
ATOM     24  O   UNL     1      19.885  -6.291 -34.636  1.00  0.00    -0.507 OA
ATOM     25  H   UNL     1      20.316  -5.581 -35.216  1.00  0.00     0.293 HD
ENDBRANCH   6  24
BRANCH   8  26
ATOM     26  O   UNL     1      15.823  -6.666 -37.242  1.00  0.00    -0.508 OA
ATOM     27  H   UNL     1      15.455  -5.789 -37.593  1.00  0.00     0.293 HD
ENDBRANCH   8  26
TORSDOF 6
ENDMDL
MODEL 5
REMARK VINA RESULT:    -5.747      1.990      6.649
REMARK INTER + INTRA:          -7.365
REMARK INTER:                  -7.082
REMARK INTRA:                  -0.283
REMARK UNBOUND:                -0.442
REMARK SMILES O=c1c(O)c(-c2ccc(O)cc2O)oc2cc(O)cc(O)c12
REMARK SMILES IDX 5 1 3 2 2 3 1 4 22 5 20 6 19 7 17 8 16 9 15 10 14 11 6 12
REMARK SMILES IDX 8 13 7 14 9 15 11 16 12 17 10 18 13 20 4 22 21 24 18 26
REMARK H PARENT 10 19 13 21 4 23 21 25 18 27
REMARK Flexibility Score: inf
ROOT
ATOM      1  C   UNL     1      15.983  -6.063 -30.987  1.00  0.00     0.184 A 
ATOM      2  C   UNL     1      15.299  -4.975 -31.563  1.00  0.00     0.208 A 
ATOM      3  C   UNL     1      14.007  -4.669 -31.107  1.00  0.00     0.238 A 
ATOM      4  O   UNL     1      13.381  -3.702 -31.620  1.00  0.00    -0.285 OA
ATOM      5  C   UNL     1      13.430  -5.440 -30.077  1.00  0.00     0.111 A 
ATOM      6  C   UNL     1      12.136  -5.196 -29.558  1.00  0.00     0.134 A 
ATOM      7  C   UNL     1      11.636  -6.004 -28.526  1.00  0.00     0.093 A 
ATOM      8  C   UNL     1      12.404  -7.051 -28.005  1.00  0.00     0.123 A 
ATOM      9  C   UNL     1      13.680  -7.297 -28.514  1.00  0.00     0.094 A 
ATOM     10  C   UNL     1      14.197  -6.503 -29.543  1.00  0.00     0.146 A 
ATOM     11  O   UNL     1      15.413  -6.762 -30.010  1.00  0.00    -0.451 OA
ENDROOT
BRANCH   1  12
ATOM     12  C   UNL     1      17.341  -6.454 -31.432  1.00  0.00     0.063 A 
ATOM     13  C   UNL     1      19.738  -6.584 -31.028  1.00  0.00     0.047 A 
ATOM     14  C   UNL     1      18.453  -6.241 -30.597  1.00  0.00     0.020 A 
ATOM     15  C   UNL     1      19.932  -7.133 -32.297  1.00  0.00     0.119 A 
ATOM     16  C   UNL     1      18.833  -7.336 -33.141  1.00  0.00     0.093 A 
ATOM     17  C   UNL     1      17.540  -6.997 -32.717  1.00  0.00     0.130 A 
BRANCH  15  18
ATOM     18  O   UNL     1      21.218  -7.470 -32.711  1.00  0.00    -0.508 OA
ATOM     19  H   UNL     1      21.812  -6.805 -33.193  1.00  0.00     0.293 HD
ENDBRANCH  15  18
BRANCH  17  20
ATOM     20  O   UNL     1      16.453  -7.210 -33.566  1.00  0.00    -0.507 OA
ATOM     21  H   UNL     1      15.677  -7.804 -33.297  1.00  0.00     0.293 HD
ENDBRANCH  17  20
ENDBRANCH   1  12
BRANCH   2  22
ATOM     22  O   UNL     1      15.910  -4.204 -32.553  1.00  0.00    -0.502 OA
ATOM     23  H   UNL     1      16.597  -3.491 -32.339  1.00  0.00     0.293 HD
ENDBRANCH   2  22
BRANCH   6  24
ATOM     24  O   UNL     1      11.347  -4.159 -30.056  1.00  0.00    -0.507 OA
ATOM     25  H   UNL     1      11.485  -3.197 -29.769  1.00  0.00     0.293 HD
ENDBRANCH   6  24
BRANCH   8  26
ATOM     26  O   UNL     1      11.908  -7.855 -26.980  1.00  0.00    -0.508 OA
ATOM     27  H   UNL     1      12.526  -8.392 -26.384  1.00  0.00     0.293 HD
ENDBRANCH   8  26
TORSDOF 6
ENDMDL
MODEL 6
REMARK VINA RESULT:    -5.740      2.046      6.837
REMARK INTER + INTRA:          -7.357
REMARK INTER:                  -6.887
REMARK INTRA:                  -0.470
REMARK UNBOUND:                -0.442
REMARK SMILES O=c1c(O)c(-c2ccc(O)cc2O)oc2cc(O)cc(O)c12
REMARK SMILES IDX 5 1 3 2 2 3 1 4 22 5 20 6 19 7 17 8 16 9 15 10 14 11 6 12
REMARK SMILES IDX 8 13 7 14 9 15 11 16 12 17 10 18 13 20 4 22 21 24 18 26
REMARK H PARENT 10 19 13 21 4 23 21 25 18 27
REMARK Flexibility Score: inf
ROOT
ATOM      1  C   UNL     1      15.991  -6.592 -30.603  1.00  0.00     0.184 A 
ATOM      2  C   UNL     1      15.389  -7.603 -29.830  1.00  0.00     0.208 A 
ATOM      3  C   UNL     1      14.149  -7.347 -29.225  1.00  0.00     0.238 A 
ATOM      4  O   UNL     1      13.604  -8.242 -28.523  1.00  0.00    -0.285 OA
ATOM      5  C   UNL     1      13.526  -6.096 -29.415  1.00  0.00     0.111 A 
ATOM      6  C   UNL     1      12.276  -5.759 -28.844  1.00  0.00     0.134 A 
ATOM      7  C   UNL     1      11.717  -4.495 -29.087  1.00  0.00     0.093 A 
ATOM      8  C   UNL     1      12.386  -3.564 -29.890  1.00  0.00     0.123 A 
ATOM      9  C   UNL     1      13.619  -3.891 -30.454  1.00  0.00     0.094 A 
ATOM     10  C   UNL     1      14.193  -5.145 -30.223  1.00  0.00     0.146 A 
ATOM     11  O   UNL     1      15.369  -5.428 -30.770  1.00  0.00    -0.451 OA
ENDROOT
BRANCH   1  12
ATOM     12  C   UNL     1      17.306  -6.787 -31.255  1.00  0.00     0.063 A 
ATOM     13  C   UNL     1      19.739  -6.760 -31.150  1.00  0.00     0.047 A 
ATOM     14  C   UNL     1      18.497  -6.604 -30.528  1.00  0.00     0.020 A 
ATOM     15  C   UNL     1      19.810  -7.090 -32.505  1.00  0.00     0.119 A 
ATOM     16  C   UNL     1      18.632  -7.262 -33.242  1.00  0.00     0.093 A 
ATOM     17  C   UNL     1      17.381  -7.109 -32.626  1.00  0.00     0.130 A 
BRANCH  15  18
ATOM     18  O   UNL     1      21.056  -7.243 -33.110  1.00  0.00    -0.508 OA
ATOM     19  H   UNL     1      21.606  -8.085 -32.985  1.00  0.00     0.293 HD
ENDBRANCH  15  18
BRANCH  17  20
ATOM     20  O   UNL     1      16.214  -7.289 -33.370  1.00  0.00    -0.507 OA
ATOM     21  H   UNL     1      16.242  -7.459 -34.368  1.00  0.00     0.293 HD
ENDBRANCH  17  20
ENDBRANCH   1  12
BRANCH   2  22
ATOM     22  O   UNL     1      16.010  -8.846 -29.692  1.00  0.00    -0.502 OA
ATOM     23  H   UNL     1      15.961  -9.560 -30.410  1.00  0.00     0.293 HD
ENDBRANCH   2  22
BRANCH   6  24
ATOM     24  O   UNL     1      11.585  -6.667 -28.041  1.00  0.00    -0.507 OA
ATOM     25  H   UNL     1      12.022  -7.512 -27.692  1.00  0.00     0.293 HD
ENDBRANCH   6  24
BRANCH   8  26
ATOM     26  O   UNL     1      11.832  -2.308 -30.132  1.00  0.00    -0.508 OA
ATOM     27  H   UNL     1      12.364  -1.458 -29.984  1.00  0.00     0.293 HD
ENDBRANCH   8  26
TORSDOF 6
ENDMDL
MODEL 7
REMARK VINA RESULT:    -5.549      2.344      7.189
REMARK INTER + INTRA:          -7.127
REMARK INTER:                  -6.691
REMARK INTRA:                  -0.435
REMARK UNBOUND:                -0.442
REMARK SMILES O=c1c(O)c(-c2ccc(O)cc2O)oc2cc(O)cc(O)c12
REMARK SMILES IDX 5 1 3 2 2 3 1 4 22 5 20 6 19 7 17 8 16 9 15 10 14 11 6 12
REMARK SMILES IDX 8 13 7 14 9 15 11 16 12 17 10 18 13 20 4 22 21 24 18 26
REMARK H PARENT 10 19 13 21 4 23 21 25 18 27
REMARK Flexibility Score: inf
ROOT
ATOM      1  C   UNL     1      17.049  -5.891 -30.951  1.00  0.00     0.184 A 
ATOM      2  C   UNL     1      17.205  -5.095 -29.800  1.00  0.00     0.208 A 
ATOM      3  C   UNL     1      16.086  -4.845 -28.990  1.00  0.00     0.238 A 
ATOM      4  O   UNL     1      16.213  -4.127 -27.962  1.00  0.00    -0.285 OA
ATOM      5  C   UNL     1      14.839  -5.406 -29.333  1.00  0.00     0.111 A 
ATOM      6  C   UNL     1      13.664  -5.207 -28.570  1.00  0.00     0.134 A 
ATOM      7  C   UNL     1      12.461  -5.806 -28.973  1.00  0.00     0.093 A 
ATOM      8  C   UNL     1      12.412  -6.600 -30.124  1.00  0.00     0.123 A 
ATOM      9  C   UNL     1      13.568  -6.798 -30.882  1.00  0.00     0.094 A 
ATOM     10  C   UNL     1      14.776  -6.209 -30.497  1.00  0.00     0.146 A 
ATOM     11  O   UNL     1      15.859  -6.413 -31.237  1.00  0.00    -0.451 OA
ENDROOT
BRANCH   1  12
ATOM     12  C   UNL     1      18.181  -6.180 -31.860  1.00  0.00     0.063 A 
ATOM     13  C   UNL     1      20.240  -7.384 -32.350  1.00  0.00     0.047 A 
ATOM     14  C   UNL     1      19.155  -7.131 -31.506  1.00  0.00     0.020 A 
ATOM     15  C   UNL     1      20.373  -6.686 -33.552  1.00  0.00     0.119 A 
ATOM     16  C   UNL     1      19.417  -5.728 -33.909  1.00  0.00     0.093 A 
ATOM     17  C   UNL     1      18.324  -5.469 -33.069  1.00  0.00     0.130 A 
BRANCH  15  18
ATOM     18  O   UNL     1      21.459  -6.951 -34.384  1.00  0.00    -0.508 OA
ATOM     19  H   UNL     1      22.303  -6.393 -34.346  1.00  0.00     0.293 HD
ENDBRANCH  15  18
BRANCH  17  20
ATOM     20  O   UNL     1      17.374  -4.515 -33.438  1.00  0.00    -0.507 OA
ATOM     21  H   UNL     1      16.398  -4.755 -33.555  1.00  0.00     0.293 HD
ENDBRANCH  17  20
ENDBRANCH   1  12
BRANCH   2  22
ATOM     22  O   UNL     1      18.461  -4.586 -29.463  1.00  0.00    -0.502 OA
ATOM     23  H   UNL     1      18.576  -3.711 -28.965  1.00  0.00     0.293 HD
ENDBRANCH   2  22
BRANCH   6  24
ATOM     24  O   UNL     1      13.682  -4.421 -27.416  1.00  0.00    -0.507 OA
ATOM     25  H   UNL     1      13.929  -3.439 -27.443  1.00  0.00     0.293 HD
ENDBRANCH   6  24
BRANCH   8  26
ATOM     26  O   UNL     1      11.218  -7.196 -30.526  1.00  0.00    -0.508 OA
ATOM     27  H   UNL     1      10.337  -6.698 -30.479  1.00  0.00     0.293 HD
ENDBRANCH   8  26
TORSDOF 6
ENDMDL
MODEL 8
REMARK VINA RESULT:    -5.530      2.031      2.354
REMARK INTER + INTRA:          -7.104
REMARK INTER:                  -6.674
REMARK INTRA:                  -0.430
REMARK UNBOUND:                -0.442
REMARK SMILES O=c1c(O)c(-c2ccc(O)cc2O)oc2cc(O)cc(O)c12
REMARK SMILES IDX 5 1 3 2 2 3 1 4 22 5 20 6 19 7 17 8 16 9 15 10 14 11 6 12
REMARK SMILES IDX 8 13 7 14 9 15 11 16 12 17 10 18 13 20 4 22 21 24 18 26
REMARK H PARENT 10 19 13 21 4 23 21 25 18 27
REMARK Flexibility Score: inf
ROOT
ATOM      1  C   UNL     1      15.922  -7.155 -30.971  1.00  0.00     0.184 A 
ATOM      2  C   UNL     1      15.746  -7.484 -32.328  1.00  0.00     0.208 A 
ATOM      3  C   UNL     1      16.525  -6.825 -33.292  1.00  0.00     0.238 A 
ATOM      4  O   UNL     1      16.370  -7.105 -34.512  1.00  0.00    -0.285 OA
ATOM      5  C   UNL     1      17.475  -5.867 -32.884  1.00  0.00     0.111 A 
ATOM      6  C   UNL     1      18.303  -5.162 -33.790  1.00  0.00     0.134 A 
ATOM      7  C   UNL     1      19.230  -4.228 -33.304  1.00  0.00     0.093 A 
ATOM      8  C   UNL     1      19.345  -3.987 -31.931  1.00  0.00     0.123 A 
ATOM      9  C   UNL     1      18.530  -4.678 -31.033  1.00  0.00     0.094 A 
ATOM     10  C   UNL     1      17.599  -5.613 -31.497  1.00  0.00     0.146 A 
ATOM     11  O   UNL     1      16.836  -6.254 -30.621  1.00  0.00    -0.451 OA
ENDROOT
BRANCH   1  12
ATOM     12  C   UNL     1      15.121  -7.796 -29.902  1.00  0.00     0.063 A 
ATOM     13  C   UNL     1      14.577  -9.752 -28.558  1.00  0.00     0.047 A 
ATOM     14  C   UNL     1      15.352  -9.138 -29.546  1.00  0.00     0.020 A 
ATOM     15  C   UNL     1      13.559  -9.041 -27.920  1.00  0.00     0.119 A 
ATOM     16  C   UNL     1      13.312  -7.710 -28.276  1.00  0.00     0.093 A 
ATOM     17  C   UNL     1      14.085  -7.085 -29.265  1.00  0.00     0.130 A 
BRANCH  15  18
ATOM     18  O   UNL     1      12.796  -9.667 -26.936  1.00  0.00    -0.508 OA
ATOM     19  H   UNL     1      12.945  -9.480 -25.951  1.00  0.00     0.293 HD
ENDBRANCH  15  18
BRANCH  17  20
ATOM     20  O   UNL     1      13.833  -5.755 -29.606  1.00  0.00    -0.507 OA
ATOM     21  H   UNL     1      13.329  -5.510 -30.450  1.00  0.00     0.293 HD
ENDBRANCH  17  20
ENDBRANCH   1  12
BRANCH   2  22
ATOM     22  O   UNL     1      14.826  -8.466 -32.701  1.00  0.00    -0.502 OA
ATOM     23  H   UNL     1      13.826  -8.344 -32.589  1.00  0.00     0.293 HD
ENDBRANCH   2  22
BRANCH   6  24
ATOM     24  O   UNL     1      18.213  -5.382 -35.165  1.00  0.00    -0.507 OA
ATOM     25  H   UNL     1      18.949  -5.849 -35.680  1.00  0.00     0.293 HD
ENDBRANCH   6  24
BRANCH   8  26
ATOM     26  O   UNL     1      20.266  -3.060 -31.447  1.00  0.00    -0.508 OA
ATOM     27  H   UNL     1      21.193  -2.976 -31.848  1.00  0.00     0.293 HD
ENDBRANCH   8  26
TORSDOF 6
ENDMDL
MODEL 9
REMARK VINA RESULT:    -5.469      3.024      7.010
REMARK INTER + INTRA:          -7.030
REMARK INTER:                  -6.556
REMARK INTRA:                  -0.474
REMARK UNBOUND:                -0.442
REMARK SMILES O=c1c(O)c(-c2ccc(O)cc2O)oc2cc(O)cc(O)c12
REMARK SMILES IDX 5 1 3 2 2 3 1 4 22 5 20 6 19 7 17 8 16 9 15 10 14 11 6 12
REMARK SMILES IDX 8 13 7 14 9 15 11 16 12 17 10 18 13 20 4 22 21 24 18 26
REMARK H PARENT 10 19 13 21 4 23 21 25 18 27
REMARK Flexibility Score: inf
ROOT
ATOM      1  C   UNL     1      17.195  -5.773 -30.646  1.00  0.00     0.184 A 
ATOM      2  C   UNL     1      15.991  -6.503 -30.625  1.00  0.00     0.208 A 
ATOM      3  C   UNL     1      15.026  -6.193 -29.654  1.00  0.00     0.238 A 
ATOM      4  O   UNL     1      13.948  -6.846 -29.620  1.00  0.00    -0.285 OA
ATOM      5  C   UNL     1      15.271  -5.151 -28.736  1.00  0.00     0.111 A 
ATOM      6  C   UNL     1      14.350  -4.772 -27.731  1.00  0.00     0.134 A 
ATOM      7  C   UNL     1      14.665  -3.718 -26.859  1.00  0.00     0.093 A 
ATOM      8  C   UNL     1      15.882  -3.038 -26.975  1.00  0.00     0.123 A 
ATOM      9  C   UNL     1      16.794  -3.408 -27.964  1.00  0.00     0.094 A 
ATOM     10  C   UNL     1      16.500  -4.456 -28.842  1.00  0.00     0.146 A 
ATOM     11  O   UNL     1      17.387  -4.789 -29.771  1.00  0.00    -0.451 OA
ENDROOT
BRANCH   1  12
ATOM     12  C   UNL     1      18.264  -6.059 -31.630  1.00  0.00     0.063 A 
ATOM     13  C   UNL     1      20.191  -7.373 -32.330  1.00  0.00     0.047 A 
ATOM     14  C   UNL     1      19.163  -7.120 -31.417  1.00  0.00     0.020 A 
ATOM     15  C   UNL     1      20.341  -6.567 -33.461  1.00  0.00     0.119 A 
ATOM     16  C   UNL     1      19.460  -5.500 -33.676  1.00  0.00     0.093 A 
ATOM     17  C   UNL     1      18.425  -5.240 -32.766  1.00  0.00     0.130 A 
BRANCH  15  18
ATOM     18  O   UNL     1      21.368  -6.833 -34.363  1.00  0.00    -0.508 OA
ATOM     19  H   UNL     1      21.433  -7.721 -34.847  1.00  0.00     0.293 HD
ENDBRANCH  15  18
BRANCH  17  20
ATOM     20  O   UNL     1      17.550  -4.177 -32.995  1.00  0.00    -0.507 OA
ATOM     21  H   UNL     1      17.677  -3.543 -33.774  1.00  0.00     0.293 HD
ENDBRANCH  17  20
ENDBRANCH   1  12
BRANCH   2  22
ATOM     22  O   UNL     1      15.759  -7.503 -31.572  1.00  0.00    -0.502 OA
ATOM     23  H   UNL     1      14.850  -7.934 -31.694  1.00  0.00     0.293 HD
ENDBRANCH   2  22
BRANCH   6  24
ATOM     24  O   UNL     1      13.128  -5.431 -27.591  1.00  0.00    -0.507 OA
ATOM     25  H   UNL     1      13.076  -6.429 -27.425  1.00  0.00     0.293 HD
ENDBRANCH   6  24
BRANCH   8  26
ATOM     26  O   UNL     1      16.196  -1.991 -26.110  1.00  0.00    -0.508 OA
ATOM     27  H   UNL     1      16.520  -1.097 -26.458  1.00  0.00     0.293 HD
ENDBRANCH   8  26
TORSDOF 6
ENDMDL
