MODEL 1
REMARK VINA RESULT:    -5.464      0.000      0.000
REMARK INTER + INTRA:          -6.543
REMARK INTER:                  -6.262
REMARK INTRA:                  -0.281
REMARK UNBOUND:                -0.281
REMARK SMILES COC(=O)c1ccccc1O
REMARK SMILES IDX 5 1 6 2 7 3 8 4 9 5 10 6 3 7 4 8 2 9 1 10 11 11
REMARK H PARENT 11 12
REMARK Flexibility Score: inf
ROOT
ATOM      1  C   UNL     1      -7.629  20.150  70.573  1.00  0.00     0.101 A 
ATOM      2  C   UNL     1      -7.432  19.093  69.666  1.00  0.00     0.019 A 
ATOM      3  C   UNL     1      -6.958  19.340  68.376  1.00  0.00     0.001 A 
ATOM      4  C   UNL     1      -6.674  20.644  67.973  1.00  0.00     0.004 A 
ATOM      5  C   UNL     1      -6.882  21.707  68.853  1.00  0.00     0.047 A 
ATOM      6  C   UNL     1      -7.378  21.478  70.143  1.00  0.00     0.130 A 
ENDROOT
BRANCH   1   7
ATOM      7  C   UNL     1      -8.053  19.832  71.953  1.00  0.00     0.341 C 
ATOM      8  O   UNL     1      -8.398  18.653  72.245  1.00  0.00    -0.246 OA
BRANCH   7   9
ATOM      9  O   UNL     1      -8.014  20.816  72.946  1.00  0.00    -0.465 OA
ATOM     10  C   UNL     1      -9.125  21.104  73.786  1.00  0.00     0.282 C 
ENDBRANCH   7   9
ENDBRANCH   1   7
BRANCH   6  11
ATOM     11  O   UNL     1      -7.639  22.589  70.947  1.00  0.00    -0.507 OA
ATOM     12  H   UNL     1      -7.898  22.523  71.922  1.00  0.00     0.293 HD
ENDBRANCH   6  11
TORSDOF 3
ENDMDL
MODEL 2
REMARK VINA RESULT:    -5.302      1.136      2.154
REMARK INTER + INTRA:          -6.357
REMARK INTER:                  -6.164
REMARK INTRA:                  -0.193
REMARK UNBOUND:                -0.281
REMARK SMILES COC(=O)c1ccccc1O
REMARK SMILES IDX 5 1 6 2 7 3 8 4 9 5 10 6 3 7 4 8 2 9 1 10 11 11
REMARK H PARENT 11 12
REMARK Flexibility Score: inf
ROOT
ATOM      1  C   UNL     1      -7.620  20.252  70.209  1.00  0.00     0.101 A 
ATOM      2  C   UNL     1      -7.471  21.638  70.015  1.00  0.00     0.019 A 
ATOM      3  C   UNL     1      -7.305  22.164  68.733  1.00  0.00     0.001 A 
ATOM      4  C   UNL     1      -7.287  21.316  67.626  1.00  0.00     0.004 A 
ATOM      5  C   UNL     1      -7.413  19.937  67.801  1.00  0.00     0.047 A 
ATOM      6  C   UNL     1      -7.557  19.391  69.084  1.00  0.00     0.130 A 
ENDROOT
BRANCH   1   7
ATOM      7  C   UNL     1      -7.874  19.749  71.576  1.00  0.00     0.341 C 
ATOM      8  O   UNL     1      -8.007  18.509  71.771  1.00  0.00    -0.246 OA
BRANCH   7   9
ATOM      9  O   UNL     1      -7.907  20.636  72.658  1.00  0.00    -0.465 OA
ATOM     10  C   UNL     1      -9.120  21.065  73.262  1.00  0.00     0.282 C 
ENDBRANCH   7   9
ENDBRANCH   1   7
BRANCH   6  11
ATOM     11  O   UNL     1      -7.600  18.001  69.199  1.00  0.00    -0.507 OA
ATOM     12  H   UNL     1      -8.425  17.450  69.001  1.00  0.00     0.293 HD
ENDBRANCH   6  11
TORSDOF 3
ENDMDL
MODEL 3
REMARK VINA RESULT:    -5.054      1.624      2.912
REMARK INTER + INTRA:          -6.073
REMARK INTER:                  -5.796
REMARK INTRA:                  -0.277
REMARK UNBOUND:                -0.281
REMARK SMILES COC(=O)c1ccccc1O
REMARK SMILES IDX 5 1 6 2 7 3 8 4 9 5 10 6 3 7 4 8 2 9 1 10 11 11
REMARK H PARENT 11 12
REMARK Flexibility Score: inf
ROOT
ATOM      1  C   UNL     1      -7.528  20.535  68.879  1.00  0.00     0.101 A 
ATOM      2  C   UNL     1      -7.604  21.603  67.966  1.00  0.00     0.019 A 
ATOM      3  C   UNL     1      -7.678  21.364  66.592  1.00  0.00     0.001 A 
ATOM      4  C   UNL     1      -7.678  20.055  66.110  1.00  0.00     0.004 A 
ATOM      5  C   UNL     1      -7.583  18.984  67.000  1.00  0.00     0.047 A 
ATOM      6  C   UNL     1      -7.485  19.208  68.379  1.00  0.00     0.130 A 
ENDROOT
BRANCH   1   7
ATOM      7  C   UNL     1      -7.534  20.835  70.326  1.00  0.00     0.341 C 
ATOM      8  O   UNL     1      -7.218  21.990  70.726  1.00  0.00    -0.246 OA
BRANCH   7   9
ATOM      9  O   UNL     1      -7.947  19.865  71.245  1.00  0.00    -0.465 OA
ATOM     10  C   UNL     1      -8.696  20.180  72.411  1.00  0.00     0.282 C 
ENDBRANCH   7   9
ENDBRANCH   1   7
BRANCH   6  11
ATOM     11  O   UNL     1      -7.313  18.098  69.209  1.00  0.00    -0.507 OA
ATOM     12  H   UNL     1      -6.851  17.249  68.914  1.00  0.00     0.293 HD
ENDBRANCH   6  11
TORSDOF 3
ENDMDL
MODEL 4
REMARK VINA RESULT:    -5.007      2.463      4.800
REMARK INTER + INTRA:          -6.020
REMARK INTER:                  -5.717
REMARK INTRA:                  -0.303
REMARK UNBOUND:                -0.281
REMARK SMILES COC(=O)c1ccccc1O
REMARK SMILES IDX 5 1 6 2 7 3 8 4 9 5 10 6 3 7 4 8 2 9 1 10 11 11
REMARK H PARENT 11 12
REMARK Flexibility Score: inf
ROOT
ATOM      1  C   UNL     1      -7.567  20.443  69.166  1.00  0.00     0.101 A 
ATOM      2  C   UNL     1      -7.796  21.431  70.141  1.00  0.00     0.019 A 
ATOM      3  C   UNL     1      -8.003  21.080  71.476  1.00  0.00     0.001 A 
ATOM      4  C   UNL     1      -7.985  19.739  71.857  1.00  0.00     0.004 A 
ATOM      5  C   UNL     1      -7.779  18.744  70.900  1.00  0.00     0.047 A 
ATOM      6  C   UNL     1      -7.592  19.079  69.552  1.00  0.00     0.130 A 
ENDROOT
BRANCH   1   7
ATOM      7  C   UNL     1      -7.271  20.867  67.780  1.00  0.00     0.341 C 
ATOM      8  O   UNL     1      -7.578  22.033  67.405  1.00  0.00    -0.246 OA
BRANCH   7   9
ATOM      9  O   UNL     1      -6.599  20.005  66.908  1.00  0.00    -0.465 OA
ATOM     10  C   UNL     1      -6.932  19.894  65.531  1.00  0.00     0.282 C 
ENDBRANCH   7   9
ENDBRANCH   1   7
BRANCH   6  11
ATOM     11  O   UNL     1      -7.470  18.035  68.633  1.00  0.00    -0.507 OA
ATOM     12  H   UNL     1      -6.684  17.399  68.614  1.00  0.00     0.293 HD
ENDBRANCH   6  11
TORSDOF 3
ENDMDL
MODEL 5
REMARK VINA RESULT:    -4.997      3.969      5.906
REMARK INTER + INTRA:          -6.008
REMARK INTER:                  -5.703
REMARK INTRA:                  -0.305
REMARK UNBOUND:                -0.281
REMARK SMILES COC(=O)c1ccccc1O
REMARK SMILES IDX 5 1 6 2 7 3 8 4 9 5 10 6 3 7 4 8 2 9 1 10 11 11
REMARK H PARENT 11 12
REMARK Flexibility Score: inf
ROOT
ATOM      1  C   UNL     1      -7.596  20.634  66.448  1.00  0.00     0.101 A 
ATOM      2  C   UNL     1      -8.026  21.957  66.662  1.00  0.00     0.019 A 
ATOM      3  C   UNL     1      -7.661  22.645  67.821  1.00  0.00     0.001 A 
ATOM      4  C   UNL     1      -6.864  22.024  68.781  1.00  0.00     0.004 A 
ATOM      5  C   UNL     1      -6.445  20.706  68.595  1.00  0.00     0.047 A 
ATOM      6  C   UNL     1      -6.821  19.994  67.448  1.00  0.00     0.130 A 
ENDROOT
BRANCH   1   7
ATOM      7  C   UNL     1      -7.938  19.974  65.169  1.00  0.00     0.341 C 
ATOM      8  O   UNL     1      -8.263  18.754  65.163  1.00  0.00    -0.246 OA
BRANCH   7   9
ATOM      9  O   UNL     1      -7.962  20.711  63.981  1.00  0.00    -0.465 OA
ATOM     10  C   UNL     1      -6.791  20.986  63.224  1.00  0.00     0.282 C 
ENDBRANCH   7   9
ENDBRANCH   1   7
BRANCH   6  11
ATOM     11  O   UNL     1      -6.436  18.655  67.358  1.00  0.00    -0.507 OA
ATOM     12  H   UNL     1      -5.980  18.260  66.546  1.00  0.00     0.293 HD
ENDBRANCH   6  11
TORSDOF 3
ENDMDL
MODEL 6
REMARK VINA RESULT:    -4.962      1.920      3.894
REMARK INTER + INTRA:          -5.968
REMARK INTER:                  -5.668
REMARK INTRA:                  -0.300
REMARK UNBOUND:                -0.281
REMARK SMILES COC(=O)c1ccccc1O
REMARK SMILES IDX 5 1 6 2 7 3 8 4 9 5 10 6 3 7 4 8 2 9 1 10 11 11
REMARK H PARENT 11 12
REMARK Flexibility Score: inf
ROOT
ATOM      1  C   UNL     1      -7.326  20.564  69.718  1.00  0.00     0.101 A 
ATOM      2  C   UNL     1      -7.488  19.183  69.931  1.00  0.00     0.019 A 
ATOM      3  C   UNL     1      -7.934  18.699  71.162  1.00  0.00     0.001 A 
ATOM      4  C   UNL     1      -8.226  19.586  72.197  1.00  0.00     0.004 A 
ATOM      5  C   UNL     1      -8.052  20.958  72.011  1.00  0.00     0.047 A 
ATOM      6  C   UNL     1      -7.584  21.458  70.789  1.00  0.00     0.130 A 
ENDROOT
BRANCH   1   7
ATOM      7  C   UNL     1      -6.931  21.035  68.373  1.00  0.00     0.341 C 
ATOM      8  O   UNL     1      -6.377  20.234  67.569  1.00  0.00    -0.246 OA
BRANCH   7   9
ATOM      9  O   UNL     1      -7.223  22.342  67.970  1.00  0.00    -0.465 OA
ATOM     10  C   UNL     1      -8.099  22.634  66.890  1.00  0.00     0.282 C 
ENDBRANCH   7   9
ENDBRANCH   1   7
BRANCH   6  11
ATOM     11  O   UNL     1      -7.357  22.832  70.691  1.00  0.00    -0.507 OA
ATOM     12  H   UNL     1      -6.783  23.349  71.344  1.00  0.00     0.293 HD
ENDBRANCH   6  11
TORSDOF 3
ENDMDL
MODEL 7
REMARK VINA RESULT:    -4.944      1.933      2.585
REMARK INTER + INTRA:          -5.947
REMARK INTER:                  -5.687
REMARK INTRA:                  -0.261
REMARK UNBOUND:                -0.281
REMARK SMILES COC(=O)c1ccccc1O
REMARK SMILES IDX 5 1 6 2 7 3 8 4 9 5 10 6 3 7 4 8 2 9 1 10 11 11
REMARK H PARENT 11 12
REMARK Flexibility Score: inf
ROOT
ATOM      1  C   UNL     1      -7.690  21.488  68.808  1.00  0.00     0.101 A 
ATOM      2  C   UNL     1      -8.051  21.248  67.469  1.00  0.00     0.019 A 
ATOM      3  C   UNL     1      -8.150  22.302  66.558  1.00  0.00     0.001 A 
ATOM      4  C   UNL     1      -7.890  23.608  66.970  1.00  0.00     0.004 A 
ATOM      5  C   UNL     1      -7.550  23.867  68.299  1.00  0.00     0.047 A 
ATOM      6  C   UNL     1      -7.469  22.824  69.230  1.00  0.00     0.130 A 
ENDROOT
BRANCH   1   7
ATOM      7  C   UNL     1      -7.518  20.333  69.715  1.00  0.00     0.341 C 
ATOM      8  O   UNL     1      -7.427  19.169  69.234  1.00  0.00    -0.246 OA
BRANCH   7   9
ATOM      9  O   UNL     1      -7.395  20.533  71.094  1.00  0.00    -0.465 OA
ATOM     10  C   UNL     1      -8.182  19.829  72.045  1.00  0.00     0.282 C 
ENDBRANCH   7   9
ENDBRANCH   1   7
BRANCH   6  11
ATOM     11  O   UNL     1      -7.202  23.157  70.559  1.00  0.00    -0.507 OA
ATOM     12  H   UNL     1      -6.554  22.645  71.142  1.00  0.00     0.293 HD
ENDBRANCH   6  11
TORSDOF 3
ENDMDL
MODEL 8
REMARK VINA RESULT:    -4.889      2.361      4.405
REMARK INTER + INTRA:          -5.884
REMARK INTER:                  -5.615
REMARK INTRA:                  -0.269
REMARK UNBOUND:                -0.281
REMARK SMILES COC(=O)c1ccccc1O
REMARK SMILES IDX 5 1 6 2 7 3 8 4 9 5 10 6 3 7 4 8 2 9 1 10 11 11
REMARK H PARENT 11 12
REMARK Flexibility Score: inf
ROOT
ATOM      1  C   UNL     1      -7.673  20.591  69.377  1.00  0.00     0.101 A 
ATOM      2  C   UNL     1      -8.135  21.390  70.439  1.00  0.00     0.019 A 
ATOM      3  C   UNL     1      -8.363  20.837  71.701  1.00  0.00     0.001 A 
ATOM      4  C   UNL     1      -8.134  19.479  71.920  1.00  0.00     0.004 A 
ATOM      5  C   UNL     1      -7.696  18.667  70.873  1.00  0.00     0.047 A 
ATOM      6  C   UNL     1      -7.483  19.202  69.596  1.00  0.00     0.130 A 
ENDROOT
BRANCH   1   7
ATOM      7  C   UNL     1      -7.367  21.236  68.083  1.00  0.00     0.341 C 
ATOM      8  O   UNL     1      -7.361  20.545  67.026  1.00  0.00    -0.246 OA
BRANCH   7   9
ATOM      9  O   UNL     1      -7.146  22.616  68.018  1.00  0.00    -0.465 OA
ATOM     10  C   UNL     1      -7.953  23.487  67.236  1.00  0.00     0.282 C 
ENDBRANCH   7   9
ENDBRANCH   1   7
BRANCH   6  11
ATOM     11  O   UNL     1      -7.121  18.323  68.574  1.00  0.00    -0.507 OA
ATOM     12  H   UNL     1      -7.062  18.594  67.602  1.00  0.00     0.293 HD
ENDBRANCH   6  11
TORSDOF 3
ENDMDL
MODEL 9
REMARK VINA RESULT:    -4.884      1.553      3.722
REMARK INTER + INTRA:          -5.879
REMARK INTER:                  -5.582
REMARK INTRA:                  -0.297
REMARK UNBOUND:                -0.281
REMARK SMILES COC(=O)c1ccccc1O
REMARK SMILES IDX 5 1 6 2 7 3 8 4 9 5 10 6 3 7 4 8 2 9 1 10 11 11
REMARK H PARENT 11 12
REMARK Flexibility Score: inf
ROOT
ATOM      1  C   UNL     1      -7.772  21.518  70.032  1.00  0.00     0.101 A 
ATOM      2  C   UNL     1      -7.428  20.666  68.967  1.00  0.00     0.019 A 
ATOM      3  C   UNL     1      -7.371  19.282  69.150  1.00  0.00     0.001 A 
ATOM      4  C   UNL     1      -7.656  18.731  70.398  1.00  0.00     0.004 A 
ATOM      5  C   UNL     1      -7.980  19.562  71.472  1.00  0.00     0.047 A 
ATOM      6  C   UNL     1      -8.020  20.953  71.310  1.00  0.00     0.130 A 
ENDROOT
BRANCH   1   7
ATOM      7  C   UNL     1      -7.899  22.968  69.770  1.00  0.00     0.341 C 
ATOM      8  O   UNL     1      -8.761  23.643  70.399  1.00  0.00    -0.246 OA
BRANCH   7   9
ATOM      9  O   UNL     1      -7.030  23.600  68.875  1.00  0.00    -0.465 OA
ATOM     10  C   UNL     1      -7.489  24.341  67.753  1.00  0.00     0.282 C 
ENDBRANCH   7   9
ENDBRANCH   1   7
BRANCH   6  11
ATOM     11  O   UNL     1      -8.272  21.734  72.439  1.00  0.00    -0.507 OA
ATOM     12  H   UNL     1      -8.021  21.452  73.378  1.00  0.00     0.293 HD
ENDBRANCH   6  11
TORSDOF 3
ENDMDL
