MODEL 1
REMARK VINA RESULT:    -3.628      0.000      0.000
REMARK INTER + INTRA:          -9.565
REMARK INTER:                  -7.022
REMARK INTRA:                  -2.543
REMARK UNBOUND:                -2.543
REMARK SMILES CCCCCCCCCCCCCCCCCC(=O)[O-]
REMARK SMILES IDX 10 1 11 2 12 3 13 4 14 5 15 6 16 7 17 8 18 9 19 10 20 11
REMARK SMILES IDX 9 12 8 13 7 14 6 15 5 16 4 17 3 18 2 19 1 20
REMARK H PARENT
REMARK Flexibility Score: inf
ROOT
ATOM      1  C   UNL     1      -7.074   2.654  -0.491  1.00  0.00     0.000 C 
ENDROOT
BRANCH   1   2
ATOM      2  C   UNL     1      -6.219   3.188  -1.654  1.00  0.00     0.000 C 
BRANCH   2   3
ATOM      3  C   UNL     1      -5.038   4.055  -1.180  1.00  0.00     0.000 C 
BRANCH   3   4
ATOM      4  C   UNL     1      -3.652   3.384  -1.265  1.00  0.00     0.000 C 
BRANCH   4   5
ATOM      5  C   UNL     1      -3.217   2.618  -0.000  1.00  0.00     0.000 C 
BRANCH   5   6
ATOM      6  C   UNL     1      -3.266   3.439   1.305  1.00  0.00     0.000 C 
BRANCH   6   7
ATOM      7  C   UNL     1      -4.432   3.090   2.252  1.00  0.00     0.006 C 
BRANCH   7   8
ATOM      8  C   UNL     1      -5.349   4.276   2.593  1.00  0.00     0.053 C 
BRANCH   8   9
ATOM      9  C   UNL     1      -5.213   4.695   4.024  1.00  0.00     0.041 C 
ATOM     10  O   UNL     1      -4.139   5.204   4.437  1.00  0.00    -0.550 OA
ATOM     11  O   UNL     1      -6.287   4.554   4.895  1.00  0.00    -0.550 OA
ENDBRANCH   8   9
ENDBRANCH   7   8
ENDBRANCH   6   7
ENDBRANCH   5   6
ENDBRANCH   4   5
ENDBRANCH   3   4
ENDBRANCH   2   3
ENDBRANCH   1   2
BRANCH   1  12
ATOM     12  C   UNL     1      -7.069   1.117  -0.397  1.00  0.00     0.000 C 
BRANCH  12  13
ATOM     13  C   UNL     1      -6.464   0.533   0.894  1.00  0.00    -0.000 C 
BRANCH  13  14
ATOM     14  C   UNL     1      -5.170  -0.258   0.649  1.00  0.00    -0.000 C 
BRANCH  14  15
ATOM     15  C   UNL     1      -5.366  -1.777   0.787  1.00  0.00    -0.000 C 
BRANCH  15  16
ATOM     16  C   UNL     1      -6.576  -2.169   1.661  1.00  0.00    -0.000 C 
BRANCH  16  17
ATOM     17  C   UNL     1      -7.618  -2.988   0.878  1.00  0.00    -0.000 C 
BRANCH  17  18
ATOM     18  C   UNL     1      -7.407  -2.896  -0.649  1.00  0.00    -0.000 C 
BRANCH  18  19
ATOM     19  C   UNL     1      -8.588  -2.252  -1.396  1.00  0.00    -0.003 C 
ATOM     20  C   UNL     1      -9.622  -1.632  -0.459  1.00  0.00     0.004 C 
ENDBRANCH  18  19
ENDBRANCH  17  18
ENDBRANCH  16  17
ENDBRANCH  15  16
ENDBRANCH  14  15
ENDBRANCH  13  14
ENDBRANCH  12  13
ENDBRANCH   1  12
TORSDOF 16
ENDMDL
MODEL 2
REMARK VINA RESULT:    -3.520      1.217      2.425
REMARK INTER + INTRA:          -9.355
REMARK INTER:                  -7.367
REMARK INTRA:                  -1.989
REMARK UNBOUND:                -2.543
REMARK SMILES CCCCCCCCCCCCCCCCCC(=O)[O-]
REMARK SMILES IDX 10 1 11 2 12 3 13 4 14 5 15 6 16 7 17 8 18 9 19 10 20 11
REMARK SMILES IDX 9 12 8 13 7 14 6 15 5 16 4 17 3 18 2 19 1 20
REMARK H PARENT
REMARK Flexibility Score: inf
ROOT
ATOM      1  C   UNL     1      -4.985   3.310  -0.957  1.00  0.00     0.000 C 
ENDROOT
BRANCH   1   2
ATOM      2  C   UNL     1      -3.550   2.795  -0.755  1.00  0.00     0.000 C 
BRANCH   2   3
ATOM      3  C   UNL     1      -3.079   2.894   0.708  1.00  0.00     0.000 C 
BRANCH   3   4
ATOM      4  C   UNL     1      -3.712   4.037   1.528  1.00  0.00     0.000 C 
BRANCH   4   5
ATOM      5  C   UNL     1      -4.172   3.648   2.946  1.00  0.00     0.000 C 
BRANCH   5   6
ATOM      6  C   UNL     1      -5.632   4.018   3.279  1.00  0.00     0.000 C 
BRANCH   6   7
ATOM      7  C   UNL     1      -5.932   5.529   3.311  1.00  0.00     0.006 C 
BRANCH   7   8
ATOM      8  C   UNL     1      -6.132   6.108   4.722  1.00  0.00     0.053 C 
BRANCH   8   9
ATOM      9  C   UNL     1      -4.858   6.117   5.509  1.00  0.00     0.041 C 
ATOM     10  O   UNL     1      -4.811   5.579   6.646  1.00  0.00    -0.550 OA
ATOM     11  O   UNL     1      -3.713   6.690   4.971  1.00  0.00    -0.550 OA
ENDBRANCH   8   9
ENDBRANCH   7   8
ENDBRANCH   6   7
ENDBRANCH   5   6
ENDBRANCH   4   5
ENDBRANCH   3   4
ENDBRANCH   2   3
ENDBRANCH   1   2
BRANCH   1  12
ATOM     12  C   UNL     1      -6.036   2.185  -0.936  1.00  0.00     0.000 C 
BRANCH  12  13
ATOM     13  C   UNL     1      -6.761   1.978   0.407  1.00  0.00    -0.000 C 
BRANCH  13  14
ATOM     14  C   UNL     1      -6.129   0.873   1.269  1.00  0.00    -0.000 C 
BRANCH  14  15
ATOM     15  C   UNL     1      -5.327  -0.142   0.438  1.00  0.00    -0.000 C 
BRANCH  15  16
ATOM     16  C   UNL     1      -5.361  -1.576   1.010  1.00  0.00    -0.000 C 
BRANCH  16  17
ATOM     17  C   UNL     1      -6.787  -2.154   1.046  1.00  0.00    -0.000 C 
BRANCH  17  18
ATOM     18  C   UNL     1      -7.449  -2.165  -0.348  1.00  0.00    -0.000 C 
BRANCH  18  19
ATOM     19  C   UNL     1      -7.130  -3.424  -1.172  1.00  0.00    -0.003 C 
ATOM     20  C   UNL     1      -8.042  -3.592  -2.385  1.00  0.00     0.004 C 
ENDBRANCH  18  19
ENDBRANCH  17  18
ENDBRANCH  16  17
ENDBRANCH  15  16
ENDBRANCH  14  15
ENDBRANCH  13  14
ENDBRANCH  12  13
ENDBRANCH   1  12
TORSDOF 16
ENDMDL
MODEL 3
REMARK VINA RESULT:    -3.513      1.314      3.189
REMARK INTER + INTRA:          -9.342
REMARK INTER:                  -6.988
REMARK INTRA:                  -2.354
REMARK UNBOUND:                -2.543
REMARK SMILES CCCCCCCCCCCCCCCCCC(=O)[O-]
REMARK SMILES IDX 10 1 11 2 12 3 13 4 14 5 15 6 16 7 17 8 18 9 19 10 20 11
REMARK SMILES IDX 9 12 8 13 7 14 6 15 5 16 4 17 3 18 2 19 1 20
REMARK H PARENT
REMARK Flexibility Score: inf
ROOT
ATOM      1  C   UNL     1      -4.153   4.147  -1.305  1.00  0.00     0.000 C 
ENDROOT
BRANCH   1   2
ATOM      2  C   UNL     1      -3.230   2.939  -1.065  1.00  0.00     0.000 C 
BRANCH   2   3
ATOM      3  C   UNL     1      -3.056   2.605   0.428  1.00  0.00     0.000 C 
BRANCH   3   4
ATOM      4  C   UNL     1      -3.432   3.739   1.404  1.00  0.00     0.000 C 
BRANCH   4   5
ATOM      5  C   UNL     1      -4.548   3.393   2.409  1.00  0.00     0.000 C 
BRANCH   5   6
ATOM      6  C   UNL     1      -5.019   4.571   3.287  1.00  0.00     0.000 C 
BRANCH   6   7
ATOM      7  C   UNL     1      -6.498   4.513   3.718  1.00  0.00     0.006 C 
BRANCH   7   8
ATOM      8  C   UNL     1      -6.896   3.221   4.451  1.00  0.00     0.053 C 
BRANCH   8   9
ATOM      9  C   UNL     1      -7.088   3.447   5.919  1.00  0.00     0.041 C 
ATOM     10  O   UNL     1      -7.439   2.497   6.667  1.00  0.00    -0.550 OA
ATOM     11  O   UNL     1      -6.845   4.700   6.467  1.00  0.00    -0.550 OA
ENDBRANCH   8   9
ENDBRANCH   7   8
ENDBRANCH   6   7
ENDBRANCH   5   6
ENDBRANCH   4   5
ENDBRANCH   3   4
ENDBRANCH   2   3
ENDBRANCH   1   2
BRANCH   1  12
ATOM     12  C   UNL     1      -5.567   3.742  -1.759  1.00  0.00     0.000 C 
BRANCH  12  13
ATOM     13  C   UNL     1      -6.707   4.113  -0.791  1.00  0.00    -0.000 C 
BRANCH  13  14
ATOM     14  C   UNL     1      -7.249   2.907  -0.007  1.00  0.00    -0.000 C 
BRANCH  14  15
ATOM     15  C   UNL     1      -6.582   1.584  -0.416  1.00  0.00    -0.000 C 
BRANCH  15  16
ATOM     16  C   UNL     1      -6.413   0.587   0.750  1.00  0.00    -0.000 C 
BRANCH  16  17
ATOM     17  C   UNL     1      -5.094  -0.200   0.656  1.00  0.00    -0.000 C 
BRANCH  17  18
ATOM     18  C   UNL     1      -5.326  -1.718   0.507  1.00  0.00    -0.000 C 
BRANCH  18  19
ATOM     19  C   UNL     1      -6.812  -2.111   0.436  1.00  0.00    -0.003 C 
ATOM     20  C   UNL     1      -7.126  -3.058  -0.720  1.00  0.00     0.004 C 
ENDBRANCH  18  19
ENDBRANCH  17  18
ENDBRANCH  16  17
ENDBRANCH  15  16
ENDBRANCH  14  15
ENDBRANCH  13  14
ENDBRANCH  12  13
ENDBRANCH   1  12
TORSDOF 16
ENDMDL
MODEL 4
REMARK VINA RESULT:    -3.459      4.039      6.155
REMARK INTER + INTRA:          -9.238
REMARK INTER:                  -6.083
REMARK INTRA:                  -3.155
REMARK UNBOUND:                -2.543
REMARK SMILES CCCCCCCCCCCCCCCCCC(=O)[O-]
REMARK SMILES IDX 10 1 11 2 12 3 13 4 14 5 15 6 16 7 17 8 18 9 19 10 20 11
REMARK SMILES IDX 9 12 8 13 7 14 6 15 5 16 4 17 3 18 2 19 1 20
REMARK H PARENT
REMARK Flexibility Score: inf
ROOT
ATOM      1  C   UNL     1      -5.175   1.149   0.246  1.00  0.00     0.000 C 
ENDROOT
BRANCH   1   2
ATOM      2  C   UNL     1      -6.478   1.610  -0.429  1.00  0.00     0.000 C 
BRANCH   2   3
ATOM      3  C   UNL     1      -6.261   2.765  -1.424  1.00  0.00     0.000 C 
BRANCH   3   4
ATOM      4  C   UNL     1      -6.781   4.141  -0.958  1.00  0.00     0.000 C 
BRANCH   4   5
ATOM      5  C   UNL     1      -6.090   5.355  -1.608  1.00  0.00     0.000 C 
BRANCH   5   6
ATOM      6  C   UNL     1      -5.236   5.029  -2.850  1.00  0.00     0.000 C 
BRANCH   6   7
ATOM      7  C   UNL     1      -3.724   5.277  -2.687  1.00  0.00     0.006 C 
BRANCH   7   8
ATOM      8  C   UNL     1      -2.846   4.041  -2.938  1.00  0.00     0.053 C 
BRANCH   8   9
ATOM      9  C   UNL     1      -2.039   4.173  -4.193  1.00  0.00     0.041 C 
ATOM     10  O   UNL     1      -2.578   3.992  -5.316  1.00  0.00    -0.550 OA
ATOM     11  O   UNL     1      -0.698   4.530  -4.123  1.00  0.00    -0.550 OA
ENDBRANCH   8   9
ENDBRANCH   7   8
ENDBRANCH   6   7
ENDBRANCH   5   6
ENDBRANCH   4   5
ENDBRANCH   3   4
ENDBRANCH   2   3
ENDBRANCH   1   2
BRANCH   1  12
ATOM     12  C   UNL     1      -3.951   1.983  -0.176  1.00  0.00     0.000 C 
BRANCH  12  13
ATOM     13  C   UNL     1      -3.261   2.769   0.955  1.00  0.00    -0.000 C 
BRANCH  13  14
ATOM     14  C   UNL     1      -3.543   4.279   0.899  1.00  0.00    -0.000 C 
BRANCH  14  15
ATOM     15  C   UNL     1      -4.622   4.720   1.900  1.00  0.00    -0.000 C 
BRANCH  15  16
ATOM     16  C   UNL     1      -4.593   3.935   3.230  1.00  0.00    -0.000 C 
BRANCH  16  17
ATOM     17  C   UNL     1      -5.996   3.781   3.844  1.00  0.00    -0.000 C 
BRANCH  17  18
ATOM     18  C   UNL     1      -6.817   2.668   3.157  1.00  0.00    -0.000 C 
BRANCH  18  19
ATOM     19  C   UNL     1      -8.114   3.173   2.504  1.00  0.00    -0.003 C 
ATOM     20  C   UNL     1      -8.249   4.694   2.539  1.00  0.00     0.004 C 
ENDBRANCH  18  19
ENDBRANCH  17  18
ENDBRANCH  16  17
ENDBRANCH  15  16
ENDBRANCH  14  15
ENDBRANCH  13  14
ENDBRANCH  12  13
ENDBRANCH   1  12
TORSDOF 16
ENDMDL
MODEL 5
REMARK VINA RESULT:    -3.364      2.735      5.199
REMARK INTER + INTRA:          -9.053
REMARK INTER:                  -6.436
REMARK INTRA:                  -2.617
REMARK UNBOUND:                -2.543
REMARK SMILES CCCCCCCCCCCCCCCCCC(=O)[O-]
REMARK SMILES IDX 10 1 11 2 12 3 13 4 14 5 15 6 16 7 17 8 18 9 19 10 20 11
REMARK SMILES IDX 9 12 8 13 7 14 6 15 5 16 4 17 3 18 2 19 1 20
REMARK H PARENT
REMARK Flexibility Score: inf
ROOT
ATOM      1  C   UNL     1      -3.424   2.229   0.111  1.00  0.00     0.000 C 
ENDROOT
BRANCH   1   2
ATOM      2  C   UNL     1      -3.234   3.244   1.252  1.00  0.00     0.000 C 
BRANCH   2   3
ATOM      3  C   UNL     1      -3.686   4.666   0.869  1.00  0.00     0.000 C 
BRANCH   3   4
ATOM      4  C   UNL     1      -4.671   5.331   1.852  1.00  0.00     0.000 C 
BRANCH   4   5
ATOM      5  C   UNL     1      -6.162   5.074   1.558  1.00  0.00     0.000 C 
BRANCH   5   6
ATOM      6  C   UNL     1      -6.797   3.930   2.375  1.00  0.00     0.000 C 
BRANCH   6   7
ATOM      7  C   UNL     1      -6.037   3.545   3.660  1.00  0.00     0.006 C 
BRANCH   7   8
ATOM      8  C   UNL     1      -6.878   3.627   4.945  1.00  0.00     0.053 C 
BRANCH   8   9
ATOM      9  C   UNL     1      -6.382   4.695   5.870  1.00  0.00     0.041 C 
ATOM     10  O   UNL     1      -5.748   4.387   6.914  1.00  0.00    -0.550 OA
ATOM     11  O   UNL     1      -6.590   6.033   5.562  1.00  0.00    -0.550 OA
ENDBRANCH   8   9
ENDBRANCH   7   8
ENDBRANCH   6   7
ENDBRANCH   5   6
ENDBRANCH   4   5
ENDBRANCH   3   4
ENDBRANCH   2   3
ENDBRANCH   1   2
BRANCH   1  12
ATOM     12  C   UNL     1      -4.480   1.155   0.432  1.00  0.00     0.000 C 
BRANCH  12  13
ATOM     13  C   UNL     1      -5.906   1.456  -0.065  1.00  0.00    -0.000 C 
BRANCH  13  14
ATOM     14  C   UNL     1      -5.949   2.537  -1.157  1.00  0.00    -0.000 C 
BRANCH  14  15
ATOM     15  C   UNL     1      -7.382   2.942  -1.538  1.00  0.00    -0.000 C 
BRANCH  15  16
ATOM     16  C   UNL     1      -7.458   4.230  -2.386  1.00  0.00    -0.000 C 
BRANCH  16  17
ATOM     17  C   UNL     1      -6.102   4.952  -2.469  1.00  0.00    -0.000 C 
BRANCH  17  18
ATOM     18  C   UNL     1      -5.635   5.157  -3.926  1.00  0.00    -0.000 C 
BRANCH  18  19
ATOM     19  C   UNL     1      -4.138   4.875  -4.139  1.00  0.00    -0.003 C 
ATOM     20  C   UNL     1      -3.394   4.580  -2.839  1.00  0.00     0.004 C 
ENDBRANCH  18  19
ENDBRANCH  17  18
ENDBRANCH  16  17
ENDBRANCH  15  16
ENDBRANCH  14  15
ENDBRANCH  13  14
ENDBRANCH  12  13
ENDBRANCH   1  12
TORSDOF 16
ENDMDL
MODEL 6
REMARK VINA RESULT:    -3.335      3.714      7.443
REMARK INTER + INTRA:          -8.997
REMARK INTER:                  -7.133
REMARK INTRA:                  -1.864
REMARK UNBOUND:                -2.543
REMARK SMILES CCCCCCCCCCCCCCCCCC(=O)[O-]
REMARK SMILES IDX 10 1 11 2 12 3 13 4 14 5 15 6 16 7 17 8 18 9 19 10 20 11
REMARK SMILES IDX 9 12 8 13 7 14 6 15 5 16 4 17 3 18 2 19 1 20
REMARK H PARENT
REMARK Flexibility Score: inf
ROOT
ATOM      1  C   UNL     1      -5.810   3.230  -1.528  1.00  0.00     0.000 C 
ENDROOT
BRANCH   1   2
ATOM      2  C   UNL     1      -6.746   2.822  -0.377  1.00  0.00     0.000 C 
BRANCH   2   3
ATOM      3  C   UNL     1      -7.049   1.313  -0.357  1.00  0.00     0.000 C 
BRANCH   3   4
ATOM      4  C   UNL     1      -6.554   0.558   0.894  1.00  0.00     0.000 C 
BRANCH   4   5
ATOM      5  C   UNL     1      -5.231  -0.211   0.713  1.00  0.00     0.000 C 
BRANCH   5   6
ATOM      6  C   UNL     1      -5.390  -1.717   0.417  1.00  0.00     0.000 C 
BRANCH   6   7
ATOM      7  C   UNL     1      -6.819  -2.269   0.590  1.00  0.00     0.006 C 
BRANCH   7   8
ATOM      8  C   UNL     1      -7.578  -2.492  -0.728  1.00  0.00     0.053 C 
BRANCH   8   9
ATOM      9  C   UNL     1      -7.403  -3.887  -1.245  1.00  0.00     0.041 C 
ATOM     10  O   UNL     1      -7.884  -4.863  -0.611  1.00  0.00    -0.550 OA
ATOM     11  O   UNL     1      -6.739  -4.106  -2.444  1.00  0.00    -0.550 OA
ENDBRANCH   8   9
ENDBRANCH   7   8
ENDBRANCH   6   7
ENDBRANCH   5   6
ENDBRANCH   4   5
ENDBRANCH   3   4
ENDBRANCH   2   3
ENDBRANCH   1   2
BRANCH   1  12
ATOM     12  C   UNL     1      -4.487   3.845  -1.037  1.00  0.00     0.000 C 
BRANCH  12  13
ATOM     13  C   UNL     1      -3.381   2.838  -0.672  1.00  0.00    -0.000 C 
BRANCH  13  14
ATOM     14  C   UNL     1      -3.140   2.729   0.843  1.00  0.00    -0.000 C 
BRANCH  14  15
ATOM     15  C   UNL     1      -3.784   3.881   1.631  1.00  0.00    -0.000 C 
BRANCH  15  16
ATOM     16  C   UNL     1      -4.852   3.419   2.645  1.00  0.00    -0.000 C 
BRANCH  16  17
ATOM     17  C   UNL     1      -5.002   4.402   3.820  1.00  0.00    -0.000 C 
BRANCH  17  18
ATOM     18  C   UNL     1      -4.667   5.854   3.415  1.00  0.00    -0.000 C 
BRANCH  18  19
ATOM     19  C   UNL     1      -4.543   6.814   4.610  1.00  0.00    -0.003 C 
ATOM     20  C   UNL     1      -4.250   6.097   5.926  1.00  0.00     0.004 C 
ENDBRANCH  18  19
ENDBRANCH  17  18
ENDBRANCH  16  17
ENDBRANCH  15  16
ENDBRANCH  14  15
ENDBRANCH  13  14
ENDBRANCH  12  13
ENDBRANCH   1  12
TORSDOF 16
ENDMDL
MODEL 7
REMARK VINA RESULT:    -3.327      2.050      4.663
REMARK INTER + INTRA:          -8.982
REMARK INTER:                  -6.668
REMARK INTRA:                  -2.313
REMARK UNBOUND:                -2.543
REMARK SMILES CCCCCCCCCCCCCCCCCC(=O)[O-]
REMARK SMILES IDX 10 1 11 2 12 3 13 4 14 5 15 6 16 7 17 8 18 9 19 10 20 11
REMARK SMILES IDX 9 12 8 13 7 14 6 15 5 16 4 17 3 18 2 19 1 20
REMARK H PARENT
REMARK Flexibility Score: inf
ROOT
ATOM      1  C   UNL     1      -3.409   4.039   1.610  1.00  0.00     0.000 C 
ENDROOT
BRANCH   1   2
ATOM      2  C   UNL     1      -4.127   3.835   2.955  1.00  0.00     0.000 C 
BRANCH   2   3
ATOM      3  C   UNL     1      -5.640   3.599   2.796  1.00  0.00     0.000 C 
BRANCH   3   4
ATOM      4  C   UNL     1      -6.444   3.571   4.113  1.00  0.00     0.000 C 
BRANCH   4   5
ATOM      5  C   UNL     1      -6.064   4.660   5.135  1.00  0.00     0.000 C 
BRANCH   5   6
ATOM      6  C   UNL     1      -6.803   6.003   4.957  1.00  0.00     0.000 C 
BRANCH   6   7
ATOM      7  C   UNL     1      -5.913   7.257   5.071  1.00  0.00     0.006 C 
BRANCH   7   8
ATOM      8  C   UNL     1      -4.433   7.018   4.730  1.00  0.00     0.053 C 
BRANCH   8   9
ATOM      9  C   UNL     1      -4.085   7.522   3.363  1.00  0.00     0.041 C 
ATOM     10  O   UNL     1      -2.886   7.541   2.980  1.00  0.00    -0.550 OA
ATOM     11  O   UNL     1      -5.090   7.937   2.499  1.00  0.00    -0.550 OA
ENDBRANCH   8   9
ENDBRANCH   7   8
ENDBRANCH   6   7
ENDBRANCH   5   6
ENDBRANCH   4   5
ENDBRANCH   3   4
ENDBRANCH   2   3
ENDBRANCH   1   2
BRANCH   1  12
ATOM     12  C   UNL     1      -3.316   2.748   0.776  1.00  0.00     0.000 C 
BRANCH  12  13
ATOM     13  C   UNL     1      -3.621   2.903  -0.726  1.00  0.00    -0.000 C 
BRANCH  13  14
ATOM     14  C   UNL     1      -4.650   4.007  -1.021  1.00  0.00    -0.000 C 
BRANCH  14  15
ATOM     15  C   UNL     1      -6.099   3.537  -0.820  1.00  0.00    -0.000 C 
BRANCH  15  16
ATOM     16  C   UNL     1      -6.290   2.015  -0.998  1.00  0.00    -0.000 C 
BRANCH  16  17
ATOM     17  C   UNL     1      -7.215   1.416   0.076  1.00  0.00    -0.000 C 
BRANCH  17  18
ATOM     18  C   UNL     1      -6.437   0.607   1.135  1.00  0.00    -0.000 C 
BRANCH  18  19
ATOM     19  C   UNL     1      -5.287  -0.229   0.549  1.00  0.00    -0.003 C 
ATOM     20  C   UNL     1      -5.373  -1.708   0.921  1.00  0.00     0.004 C 
ENDBRANCH  18  19
ENDBRANCH  17  18
ENDBRANCH  16  17
ENDBRANCH  15  16
ENDBRANCH  14  15
ENDBRANCH  13  14
ENDBRANCH  12  13
ENDBRANCH   1  12
TORSDOF 16
ENDMDL
MODEL 8
REMARK VINA RESULT:    -3.324      3.414      5.561
REMARK INTER + INTRA:          -8.975
REMARK INTER:                  -6.517
REMARK INTRA:                  -2.458
REMARK UNBOUND:                -2.543
REMARK SMILES CCCCCCCCCCCCCCCCCC(=O)[O-]
REMARK SMILES IDX 10 1 11 2 12 3 13 4 14 5 15 6 16 7 17 8 18 9 19 10 20 11
REMARK SMILES IDX 9 12 8 13 7 14 6 15 5 16 4 17 3 18 2 19 1 20
REMARK H PARENT
REMARK Flexibility Score: inf
ROOT
ATOM      1  C   UNL     1      -4.985   3.226   2.490  1.00  0.00     0.000 C 
ENDROOT
BRANCH   1   2
ATOM      2  C   UNL     1      -3.881   3.834   1.606  1.00  0.00     0.000 C 
BRANCH   2   3
ATOM      3  C   UNL     1      -3.152   2.781   0.751  1.00  0.00     0.000 C 
BRANCH   3   4
ATOM      4  C   UNL     1      -3.397   2.882  -0.768  1.00  0.00     0.000 C 
BRANCH   4   5
ATOM      5  C   UNL     1      -4.347   4.014  -1.204  1.00  0.00     0.000 C 
BRANCH   5   6
ATOM      6  C   UNL     1      -3.656   5.224  -1.865  1.00  0.00     0.000 C 
BRANCH   6   7
ATOM      7  C   UNL     1      -4.036   5.469  -3.339  1.00  0.00     0.006 C 
BRANCH   7   8
ATOM      8  C   UNL     1      -3.334   4.535  -4.339  1.00  0.00     0.053 C 
BRANCH   8   9
ATOM      9  C   UNL     1      -1.878   4.373  -4.026  1.00  0.00     0.041 C 
ATOM     10  O   UNL     1      -1.433   3.263  -3.633  1.00  0.00    -0.550 OA
ATOM     11  O   UNL     1      -1.006   5.440  -4.203  1.00  0.00    -0.550 OA
ENDBRANCH   8   9
ENDBRANCH   7   8
ENDBRANCH   6   7
ENDBRANCH   5   6
ENDBRANCH   4   5
ENDBRANCH   3   4
ENDBRANCH   2   3
ENDBRANCH   1   2
BRANCH   1  12
ATOM     12  C   UNL     1      -6.106   4.227   2.824  1.00  0.00     0.000 C 
BRANCH  12  13
ATOM     13  C   UNL     1      -6.821   4.853   1.612  1.00  0.00    -0.000 C 
BRANCH  13  14
ATOM     14  C   UNL     1      -7.975   3.989   1.080  1.00  0.00    -0.000 C 
BRANCH  14  15
ATOM     15  C   UNL     1      -7.857   3.702  -0.426  1.00  0.00    -0.000 C 
BRANCH  15  16
ATOM     16  C   UNL     1      -8.028   2.211  -0.789  1.00  0.00    -0.000 C 
BRANCH  16  17
ATOM     17  C   UNL     1      -6.702   1.436  -0.703  1.00  0.00    -0.000 C 
BRANCH  17  18
ATOM     18  C   UNL     1      -6.629   0.538   0.550  1.00  0.00    -0.000 C 
BRANCH  18  19
ATOM     19  C   UNL     1      -5.261  -0.139   0.745  1.00  0.00    -0.003 C 
ATOM     20  C   UNL     1      -5.319  -1.658   0.599  1.00  0.00     0.004 C 
ENDBRANCH  18  19
ENDBRANCH  17  18
ENDBRANCH  16  17
ENDBRANCH  15  16
ENDBRANCH  14  15
ENDBRANCH  13  14
ENDBRANCH  12  13
ENDBRANCH   1  12
TORSDOF 16
ENDMDL
MODEL 9
REMARK VINA RESULT:    -3.301      5.122      8.665
REMARK INTER + INTRA:          -8.932
REMARK INTER:                  -7.575
REMARK INTRA:                  -1.357
REMARK UNBOUND:                -2.543
REMARK SMILES CCCCCCCCCCCCCCCCCC(=O)[O-]
REMARK SMILES IDX 10 1 11 2 12 3 13 4 14 5 15 6 16 7 17 8 18 9 19 10 20 11
REMARK SMILES IDX 9 12 8 13 7 14 6 15 5 16 4 17 3 18 2 19 1 20
REMARK H PARENT
REMARK Flexibility Score: inf
ROOT
ATOM      1  C   UNL     1      -5.241  -0.511   0.774  1.00  0.00     0.000 C 
ENDROOT
BRANCH   1   2
ATOM      2  C   UNL     1      -5.777  -1.900   0.386  1.00  0.00     0.000 C 
BRANCH   2   3
ATOM      3  C   UNL     1      -7.315  -1.976   0.404  1.00  0.00     0.000 C 
BRANCH   3   4
ATOM      4  C   UNL     1      -7.965  -2.482  -0.900  1.00  0.00     0.000 C 
BRANCH   4   5
ATOM      5  C   UNL     1      -7.624  -3.936  -1.280  1.00  0.00     0.000 C 
BRANCH   5   6
ATOM      6  C   UNL     1      -6.944  -4.106  -2.654  1.00  0.00     0.000 C 
BRANCH   6   7
ATOM      7  C   UNL     1      -5.647  -4.941  -2.641  1.00  0.00     0.006 C 
BRANCH   7   8
ATOM      8  C   UNL     1      -5.843  -6.424  -2.995  1.00  0.00     0.053 C 
BRANCH   8   9
ATOM      9  C   UNL     1      -4.548  -7.094  -3.333  1.00  0.00     0.041 C 
ATOM     10  O   UNL     1      -4.148  -7.138  -4.526  1.00  0.00    -0.550 OA
ATOM     11  O   UNL     1      -3.764  -7.641  -2.325  1.00  0.00    -0.550 OA
ENDBRANCH   8   9
ENDBRANCH   7   8
ENDBRANCH   6   7
ENDBRANCH   5   6
ENDBRANCH   4   5
ENDBRANCH   3   4
ENDBRANCH   2   3
ENDBRANCH   1   2
BRANCH   1  12
ATOM     12  C   UNL     1      -6.172   0.636   0.337  1.00  0.00     0.000 C 
BRANCH  12  13
ATOM     13  C   UNL     1      -5.489   1.801  -0.403  1.00  0.00    -0.000 C 
BRANCH  13  14
ATOM     14  C   UNL     1      -4.001   1.951  -0.048  1.00  0.00    -0.000 C 
BRANCH  14  15
ATOM     15  C   UNL     1      -3.476   3.377  -0.282  1.00  0.00    -0.000 C 
BRANCH  15  16
ATOM     16  C   UNL     1      -3.782   4.350   0.878  1.00  0.00    -0.000 C 
BRANCH  16  17
ATOM     17  C   UNL     1      -3.803   3.638   2.242  1.00  0.00    -0.000 C 
BRANCH  17  18
ATOM     18  C   UNL     1      -4.688   4.371   3.272  1.00  0.00    -0.000 C 
BRANCH  18  19
ATOM     19  C   UNL     1      -5.917   3.560   3.717  1.00  0.00    -0.003 C 
ATOM     20  C   UNL     1      -6.967   3.414   2.618  1.00  0.00     0.004 C 
ENDBRANCH  18  19
ENDBRANCH  17  18
ENDBRANCH  16  17
ENDBRANCH  15  16
ENDBRANCH  14  15
ENDBRANCH  13  14
ENDBRANCH  12  13
ENDBRANCH   1  12
TORSDOF 16
ENDMDL
