MODEL 1
REMARK VINA RESULT:    -4.673      0.000      0.000
REMARK INTER + INTRA:          -5.308
REMARK INTER:                  -5.083
REMARK INTRA:                  -0.224
REMARK UNBOUND:                -0.224
REMARK SMILES O=C([O-])c1ccccc1O
REMARK SMILES IDX 4 1 9 2 5 3 8 4 6 5 7 6 2 7 1 8 3 9 10 10
REMARK H PARENT 10 11
REMARK Flexibility Score: inf
ROOT
ATOM      1  C   UNL     1      24.547 -34.842  21.811  1.00  0.00     0.039 A 
ATOM      2  C   UNL     1      24.287 -33.896  20.791  1.00  0.00     0.124 A 
ATOM      3  C   UNL     1      25.709 -34.693  22.594  1.00  0.00     0.014 A 
ATOM      4  C   UNL     1      25.180 -32.834  20.577  1.00  0.00     0.047 A 
ATOM      5  C   UNL     1      26.590 -33.631  22.370  1.00  0.00     0.001 A 
ATOM      6  C   UNL     1      26.325 -32.703  21.363  1.00  0.00     0.004 A 
ENDROOT
BRANCH   1   7
ATOM      7  C   UNL     1      23.629 -35.981  22.072  1.00  0.00     0.075 C 
ATOM      8  O   UNL     1      23.562 -36.492  23.222  1.00  0.00    -0.545 OA
ATOM      9  O   UNL     1      22.829 -36.505  21.064  1.00  0.00    -0.545 OA
ENDBRANCH   1   7
BRANCH   2  10
ATOM     10  O   UNL     1      23.150 -34.003  19.991  1.00  0.00    -0.507 OA
ATOM     11  H   UNL     1      23.213 -34.202  18.999  1.00  0.00     0.293 HD
ENDBRANCH   2  10
TORSDOF 2
ENDMDL
MODEL 2
REMARK VINA RESULT:    -4.554      1.270      2.134
REMARK INTER + INTRA:          -5.178
REMARK INTER:                  -4.926
REMARK INTRA:                  -0.252
REMARK UNBOUND:                -0.224
REMARK SMILES O=C([O-])c1ccccc1O
REMARK SMILES IDX 4 1 9 2 5 3 8 4 6 5 7 6 2 7 1 8 3 9 10 10
REMARK H PARENT 10 11
REMARK Flexibility Score: inf
ROOT
ATOM      1  C   UNL     1      25.404 -34.656  22.622  1.00  0.00     0.039 A 
ATOM      2  C   UNL     1      24.430 -34.760  21.601  1.00  0.00     0.124 A 
ATOM      3  C   UNL     1      26.381 -33.645  22.528  1.00  0.00     0.014 A 
ATOM      4  C   UNL     1      24.452 -33.864  20.520  1.00  0.00     0.047 A 
ATOM      5  C   UNL     1      26.391 -32.760  21.447  1.00  0.00     0.001 A 
ATOM      6  C   UNL     1      25.427 -32.870  20.444  1.00  0.00     0.004 A 
ENDROOT
BRANCH   1   7
ATOM      7  C   UNL     1      25.419 -35.583  23.784  1.00  0.00     0.075 C 
ATOM      8  O   UNL     1      26.477 -36.189  24.101  1.00  0.00    -0.545 OA
ATOM      9  O   UNL     1      24.276 -35.801  24.543  1.00  0.00    -0.545 OA
ENDBRANCH   1   7
BRANCH   2  10
ATOM     10  O   UNL     1      23.444 -35.744  21.651  1.00  0.00    -0.507 OA
ATOM     11  H   UNL     1      23.661 -36.704  21.893  1.00  0.00     0.293 HD
ENDBRANCH   2  10
TORSDOF 2
ENDMDL
MODEL 3
REMARK VINA RESULT:    -4.517      2.578      3.199
REMARK INTER + INTRA:          -5.137
REMARK INTER:                  -4.883
REMARK INTRA:                  -0.255
REMARK UNBOUND:                -0.224
REMARK SMILES O=C([O-])c1ccccc1O
REMARK SMILES IDX 4 1 9 2 5 3 8 4 6 5 7 6 2 7 1 8 3 9 10 10
REMARK H PARENT 10 11
REMARK Flexibility Score: inf
ROOT
ATOM      1  C   UNL     1      24.659 -33.486  23.113  1.00  0.00     0.039 A 
ATOM      2  C   UNL     1      25.561 -32.417  22.894  1.00  0.00     0.124 A 
ATOM      3  C   UNL     1      24.247 -34.262  22.012  1.00  0.00     0.014 A 
ATOM      4  C   UNL     1      26.026 -32.149  21.597  1.00  0.00     0.047 A 
ATOM      5  C   UNL     1      24.717 -33.984  20.726  1.00  0.00     0.001 A 
ATOM      6  C   UNL     1      25.606 -32.929  20.520  1.00  0.00     0.004 A 
ENDROOT
BRANCH   1   7
ATOM      7  C   UNL     1      24.141 -33.805  24.469  1.00  0.00     0.075 C 
ATOM      8  O   UNL     1      24.101 -34.999  24.870  1.00  0.00    -0.545 OA
ATOM      9  O   UNL     1      23.694 -32.803  25.322  1.00  0.00    -0.545 OA
ENDBRANCH   1   7
BRANCH   2  10
ATOM     10  O   UNL     1      25.996 -31.621  23.953  1.00  0.00    -0.507 OA
ATOM     11  H   UNL     1      26.445 -30.726  23.798  1.00  0.00     0.293 HD
ENDBRANCH   2  10
TORSDOF 2
ENDMDL
MODEL 4
REMARK VINA RESULT:    -4.512      3.507      4.665
REMARK INTER + INTRA:          -5.132
REMARK INTER:                  -4.978
REMARK INTRA:                  -0.154
REMARK UNBOUND:                -0.224
REMARK SMILES O=C([O-])c1ccccc1O
REMARK SMILES IDX 4 1 9 2 5 3 8 4 6 5 7 6 2 7 1 8 3 9 10 10
REMARK H PARENT 10 11
REMARK Flexibility Score: inf
ROOT
ATOM      1  C   UNL     1      25.097 -31.782  23.384  1.00  0.00     0.039 A 
ATOM      2  C   UNL     1      24.634 -32.960  24.018  1.00  0.00     0.124 A 
ATOM      3  C   UNL     1      25.915 -31.904  22.243  1.00  0.00     0.014 A 
ATOM      4  C   UNL     1      24.992 -34.217  23.507  1.00  0.00     0.047 A 
ATOM      5  C   UNL     1      26.264 -33.162  21.745  1.00  0.00     0.001 A 
ATOM      6  C   UNL     1      25.803 -34.317  22.377  1.00  0.00     0.004 A 
ENDROOT
BRANCH   1   7
ATOM      7  C   UNL     1      24.743 -30.431  23.890  1.00  0.00     0.075 C 
ATOM      8  O   UNL     1      25.369 -29.416  23.484  1.00  0.00    -0.545 OA
ATOM      9  O   UNL     1      23.721 -30.255  24.815  1.00  0.00    -0.545 OA
ENDBRANCH   1   7
BRANCH   2  10
ATOM     10  O   UNL     1      23.822 -32.889  25.150  1.00  0.00    -0.507 OA
ATOM     11  H   UNL     1      22.826 -33.071  25.104  1.00  0.00     0.293 HD
ENDBRANCH   2  10
TORSDOF 2
ENDMDL
MODEL 5
REMARK VINA RESULT:    -4.464      5.012      5.707
REMARK INTER + INTRA:          -5.080
REMARK INTER:                  -4.868
REMARK INTRA:                  -0.212
REMARK UNBOUND:                -0.224
REMARK SMILES O=C([O-])c1ccccc1O
REMARK SMILES IDX 4 1 9 2 5 3 8 4 6 5 7 6 2 7 1 8 3 9 10 10
REMARK H PARENT 10 11
REMARK Flexibility Score: inf
ROOT
ATOM      1  C   UNL     1      24.355 -30.618  24.622  1.00  0.00     0.039 A 
ATOM      2  C   UNL     1      25.230 -30.388  23.533  1.00  0.00     0.124 A 
ATOM      3  C   UNL     1      23.912 -31.932  24.869  1.00  0.00     0.014 A 
ATOM      4  C   UNL     1      25.637 -31.460  22.724  1.00  0.00     0.047 A 
ATOM      5  C   UNL     1      24.325 -32.990  24.056  1.00  0.00     0.001 A 
ATOM      6  C   UNL     1      25.187 -32.754  22.985  1.00  0.00     0.004 A 
ENDROOT
BRANCH   1   7
ATOM      7  C   UNL     1      23.899 -29.513  25.504  1.00  0.00     0.075 C 
ATOM      8  O   UNL     1      23.825 -28.336  25.062  1.00  0.00    -0.545 OA
ATOM      9  O   UNL     1      23.546 -29.749  26.827  1.00  0.00    -0.545 OA
ENDBRANCH   1   7
BRANCH   2  10
ATOM     10  O   UNL     1      25.695 -29.104  23.250  1.00  0.00    -0.507 OA
ATOM     11  H   UNL     1      25.140 -28.440  22.722  1.00  0.00     0.293 HD
ENDBRANCH   2  10
TORSDOF 2
ENDMDL
MODEL 6
REMARK VINA RESULT:    -4.446      3.772      4.321
REMARK INTER + INTRA:          -5.061
REMARK INTER:                  -4.850
REMARK INTRA:                  -0.210
REMARK UNBOUND:                -0.224
REMARK SMILES O=C([O-])c1ccccc1O
REMARK SMILES IDX 4 1 9 2 5 3 8 4 6 5 7 6 2 7 1 8 3 9 10 10
REMARK H PARENT 10 11
REMARK Flexibility Score: inf
ROOT
ATOM      1  C   UNL     1      24.688 -32.068  23.995  1.00  0.00     0.039 A 
ATOM      2  C   UNL     1      25.415 -31.388  22.989  1.00  0.00     0.124 A 
ATOM      3  C   UNL     1      24.571 -33.470  23.918  1.00  0.00     0.014 A 
ATOM      4  C   UNL     1      26.002 -32.113  21.940  1.00  0.00     0.047 A 
ATOM      5  C   UNL     1      25.161 -34.179  22.869  1.00  0.00     0.001 A 
ATOM      6  C   UNL     1      25.875 -33.501  21.881  1.00  0.00     0.004 A 
ENDROOT
BRANCH   1   7
ATOM      7  C   UNL     1      24.050 -31.341  25.123  1.00  0.00     0.075 C 
ATOM      8  O   UNL     1      23.774 -31.945  26.194  1.00  0.00    -0.545 OA
ATOM      9  O   UNL     1      23.745 -29.989  25.026  1.00  0.00    -0.545 OA
ENDBRANCH   1   7
BRANCH   2  10
ATOM     10  O   UNL     1      25.557 -30.002  23.023  1.00  0.00    -0.507 OA
ATOM     11  H   UNL     1      26.451 -29.553  22.864  1.00  0.00     0.293 HD
ENDBRANCH   2  10
TORSDOF 2
ENDMDL
MODEL 7
REMARK VINA RESULT:    -4.434      0.866      2.368
REMARK INTER + INTRA:          -5.047
REMARK INTER:                  -4.837
REMARK INTRA:                  -0.210
REMARK UNBOUND:                -0.224
REMARK SMILES O=C([O-])c1ccccc1O
REMARK SMILES IDX 4 1 9 2 5 3 8 4 6 5 7 6 2 7 1 8 3 9 10 10
REMARK H PARENT 10 11
REMARK Flexibility Score: inf
ROOT
ATOM      1  C   UNL     1      24.465 -34.857  21.466  1.00  0.00     0.039 A 
ATOM      2  C   UNL     1      25.432 -34.818  22.499  1.00  0.00     0.124 A 
ATOM      3  C   UNL     1      24.477 -33.843  20.488  1.00  0.00     0.014 A 
ATOM      4  C   UNL     1      26.378 -33.781  22.533  1.00  0.00     0.047 A 
ATOM      5  C   UNL     1      25.424 -32.817  20.533  1.00  0.00     0.001 A 
ATOM      6  C   UNL     1      26.373 -32.786  21.555  1.00  0.00     0.004 A 
ENDROOT
BRANCH   1   7
ATOM      7  C   UNL     1      23.446 -35.936  21.391  1.00  0.00     0.075 C 
ATOM      8  O   UNL     1      22.883 -36.204  20.296  1.00  0.00    -0.545 OA
ATOM      9  O   UNL     1      23.091 -36.669  22.517  1.00  0.00    -0.545 OA
ENDBRANCH   1   7
BRANCH   2  10
ATOM     10  O   UNL     1      25.460 -35.799  23.489  1.00  0.00    -0.507 OA
ATOM     11  H   UNL     1      24.820 -35.782  24.275  1.00  0.00     0.293 HD
ENDBRANCH   2  10
TORSDOF 2
ENDMDL
MODEL 8
REMARK VINA RESULT:    -4.413      3.264      4.200
REMARK INTER + INTRA:          -5.024
REMARK INTER:                  -4.811
REMARK INTRA:                  -0.213
REMARK UNBOUND:                -0.224
REMARK SMILES O=C([O-])c1ccccc1O
REMARK SMILES IDX 4 1 9 2 5 3 8 4 6 5 7 6 2 7 1 8 3 9 10 10
REMARK H PARENT 10 11
REMARK Flexibility Score: inf
ROOT
ATOM      1  C   UNL     1      25.406 -32.370  23.216  1.00  0.00     0.039 A 
ATOM      2  C   UNL     1      24.442 -32.844  24.139  1.00  0.00     0.124 A 
ATOM      3  C   UNL     1      25.599 -30.981  23.090  1.00  0.00     0.014 A 
ATOM      4  C   UNL     1      23.702 -31.931  24.907  1.00  0.00     0.047 A 
ATOM      5  C   UNL     1      24.856 -30.084  23.861  1.00  0.00     0.001 A 
ATOM      6  C   UNL     1      23.909 -30.559  24.768  1.00  0.00     0.004 A 
ENDROOT
BRANCH   1   7
ATOM      7  C   UNL     1      26.211 -33.301  22.383  1.00  0.00     0.075 C 
ATOM      8  O   UNL     1      26.724 -32.904  21.302  1.00  0.00    -0.545 OA
ATOM      9  O   UNL     1      26.418 -34.619  22.772  1.00  0.00    -0.545 OA
ENDBRANCH   1   7
BRANCH   2  10
ATOM     10  O   UNL     1      24.216 -34.211  24.297  1.00  0.00    -0.507 OA
ATOM     11  H   UNL     1      23.303 -34.621  24.142  1.00  0.00     0.293 HD
ENDBRANCH   2  10
TORSDOF 2
ENDMDL
MODEL 9
REMARK VINA RESULT:    -4.349      1.906      3.416
REMARK INTER + INTRA:          -4.955
REMARK INTER:                  -4.711
REMARK INTRA:                  -0.244
REMARK UNBOUND:                -0.224
REMARK SMILES O=C([O-])c1ccccc1O
REMARK SMILES IDX 4 1 9 2 5 3 8 4 6 5 7 6 2 7 1 8 3 9 10 10
REMARK H PARENT 10 11
REMARK Flexibility Score: inf
ROOT
ATOM      1  C   UNL     1      25.310 -33.864  21.812  1.00  0.00     0.039 A 
ATOM      2  C   UNL     1      24.152 -34.443  21.240  1.00  0.00     0.124 A 
ATOM      3  C   UNL     1      26.033 -34.600  22.772  1.00  0.00     0.014 A 
ATOM      4  C   UNL     1      23.744 -35.727  21.635  1.00  0.00     0.047 A 
ATOM      5  C   UNL     1      25.616 -35.877  23.155  1.00  0.00     0.001 A 
ATOM      6  C   UNL     1      24.473 -36.440  22.587  1.00  0.00     0.004 A 
ENDROOT
BRANCH   1   7
ATOM      7  C   UNL     1      25.778 -32.508  21.424  1.00  0.00     0.075 C 
ATOM      8  O   UNL     1      25.950 -31.620  22.300  1.00  0.00    -0.545 OA
ATOM      9  O   UNL     1      26.037 -32.190  20.096  1.00  0.00    -0.545 OA
ENDBRANCH   1   7
BRANCH   2  10
ATOM     10  O   UNL     1      23.405 -33.753  20.286  1.00  0.00    -0.507 OA
ATOM     11  H   UNL     1      23.621 -32.796  20.030  1.00  0.00     0.293 HD
ENDBRANCH   2  10
TORSDOF 2
ENDMDL
