MODEL 1
REMARK VINA RESULT:    -4.386      0.000      0.000
REMARK INTER + INTRA:          -4.740
REMARK INTER:                  -4.642
REMARK INTRA:                  -0.098
REMARK UNBOUND:                -0.098
REMARK SMILES C=C(C)[C@H]1CC=C(C)C(=O)C1
REMARK SMILES IDX 8 1 7 2 6 3 5 4 4 5 11 6 9 7 10 8 2 9 1 10 3 11
REMARK H PARENT
REMARK Flexibility Score: inf
ROOT
ATOM      1  C   UNL     1      16.360  32.627  28.989  1.00  0.00     0.048 C 
ATOM      2  C   UNL     1      17.675  31.981  29.326  1.00  0.00    -0.012 C 
ATOM      3  C   UNL     1      17.727  30.674  29.635  1.00  0.00    -0.019 C 
ATOM      4  C   UNL     1      19.008  30.002  30.056  1.00  0.00     0.036 C 
ATOM      5  C   UNL     1      20.230  30.670  29.399  1.00  0.00     0.025 C 
ATOM      6  C   UNL     1      20.238  32.182  29.696  1.00  0.00     0.089 C 
ATOM      7  C   UNL     1      18.913  32.800  29.342  1.00  0.00     0.158 C 
ATOM      8  O   UNL     1      18.857  34.036  29.100  1.00  0.00    -0.295 OA
ENDROOT
BRANCH   5   9
ATOM      9  C   UNL     1      21.529  30.010  29.837  1.00  0.00    -0.077 C 
ATOM     10  C   UNL     1      22.305  30.597  30.762  1.00  0.00     0.008 C 
ATOM     11  C   UNL     1      21.976  28.691  29.255  1.00  0.00     0.039 C 
ENDBRANCH   5   9
TORSDOF 1
ENDMDL
MODEL 2
REMARK VINA RESULT:    -4.341      7.799     10.206
REMARK INTER + INTRA:          -4.693
REMARK INTER:                  -4.596
REMARK INTRA:                  -0.097
REMARK UNBOUND:                -0.098
REMARK SMILES C=C(C)[C@H]1CC=C(C)C(=O)C1
REMARK SMILES IDX 8 1 7 2 6 3 5 4 4 5 11 6 9 7 10 8 2 9 1 10 3 11
REMARK H PARENT
REMARK Flexibility Score: inf
ROOT
ATOM      1  C   UNL     1      31.287  34.105  27.857  1.00  0.00     0.048 C 
ATOM      2  C   UNL     1      30.231  33.343  28.609  1.00  0.00    -0.012 C 
ATOM      3  C   UNL     1      29.025  33.896  28.827  1.00  0.00    -0.019 C 
ATOM      4  C   UNL     1      27.964  33.205  29.643  1.00  0.00     0.036 C 
ATOM      5  C   UNL     1      28.082  31.673  29.526  1.00  0.00     0.025 C 
ATOM      6  C   UNL     1      29.502  31.214  29.906  1.00  0.00     0.089 C 
ATOM      7  C   UNL     1      30.535  31.989  29.133  1.00  0.00     0.158 C 
ATOM      8  O   UNL     1      31.682  31.491  28.971  1.00  0.00    -0.295 OA
ENDROOT
BRANCH   5   9
ATOM      9  C   UNL     1      27.026  30.967  30.365  1.00  0.00    -0.077 C 
ATOM     10  C   UNL     1      27.217  30.794  31.683  1.00  0.00     0.008 C 
ATOM     11  C   UNL     1      25.749  30.451  29.749  1.00  0.00     0.039 C 
ENDBRANCH   5   9
TORSDOF 1
ENDMDL
MODEL 3
REMARK VINA RESULT:    -4.226      2.012      4.479
REMARK INTER + INTRA:          -4.571
REMARK INTER:                  -4.475
REMARK INTRA:                  -0.096
REMARK UNBOUND:                -0.098
REMARK SMILES C=C(C)[C@H]1CC=C(C)C(=O)C1
REMARK SMILES IDX 8 1 7 2 6 3 5 4 4 5 11 6 9 7 10 8 2 9 1 10 3 11
REMARK H PARENT
REMARK Flexibility Score: inf
ROOT
ATOM      1  C   UNL     1      22.578  33.654  29.769  1.00  0.00     0.048 C 
ATOM      2  C   UNL     1      21.140  33.216  29.789  1.00  0.00    -0.012 C 
ATOM      3  C   UNL     1      20.154  34.125  29.689  1.00  0.00    -0.019 C 
ATOM      4  C   UNL     1      18.700  33.743  29.785  1.00  0.00     0.036 C 
ATOM      5  C   UNL     1      18.465  32.314  29.257  1.00  0.00     0.025 C 
ATOM      6  C   UNL     1      19.381  31.315  29.988  1.00  0.00     0.089 C 
ATOM      7  C   UNL     1      20.812  31.777  29.945  1.00  0.00     0.158 C 
ATOM      8  O   UNL     1      21.735  30.930  30.088  1.00  0.00    -0.295 OA
ENDROOT
BRANCH   5   9
ATOM      9  C   UNL     1      17.001  31.913  29.370  1.00  0.00    -0.077 C 
ATOM     10  C   UNL     1      16.037  32.839  29.240  1.00  0.00     0.008 C 
ATOM     11  C   UNL     1      16.595  30.483  29.625  1.00  0.00     0.039 C 
ENDBRANCH   5   9
TORSDOF 1
ENDMDL
MODEL 4
REMARK VINA RESULT:    -4.192      7.626     10.230
REMARK INTER + INTRA:          -4.535
REMARK INTER:                  -4.444
REMARK INTRA:                  -0.091
REMARK UNBOUND:                -0.098
REMARK SMILES C=C(C)[C@H]1CC=C(C)C(=O)C1
REMARK SMILES IDX 8 1 7 2 6 3 5 4 4 5 11 6 9 7 10 8 2 9 1 10 3 11
REMARK H PARENT
REMARK Flexibility Score: inf
ROOT
ATOM      1  C   UNL     1      31.649  33.375  28.151  1.00  0.00     0.048 C 
ATOM      2  C   UNL     1      30.613  32.652  28.966  1.00  0.00    -0.012 C 
ATOM      3  C   UNL     1      30.954  31.566  29.683  1.00  0.00    -0.019 C 
ATOM      4  C   UNL     1      29.936  30.763  30.450  1.00  0.00     0.036 C 
ATOM      5  C   UNL     1      28.776  31.652  30.935  1.00  0.00     0.025 C 
ATOM      6  C   UNL     1      28.148  32.408  29.749  1.00  0.00     0.089 C 
ATOM      7  C   UNL     1      29.207  33.127  28.957  1.00  0.00     0.158 C 
ATOM      8  O   UNL     1      28.878  34.115  28.247  1.00  0.00    -0.295 OA
ENDROOT
BRANCH   5   9
ATOM      9  C   UNL     1      27.733  30.843  31.693  1.00  0.00    -0.077 C 
ATOM     10  C   UNL     1      28.002  30.384  32.926  1.00  0.00     0.008 C 
ATOM     11  C   UNL     1      26.383  30.540  31.091  1.00  0.00     0.039 C 
ENDBRANCH   5   9
TORSDOF 1
ENDMDL
MODEL 5
REMARK VINA RESULT:    -4.123      4.649      6.175
REMARK INTER + INTRA:          -4.462
REMARK INTER:                  -4.366
REMARK INTRA:                  -0.096
REMARK UNBOUND:                -0.098
REMARK SMILES C=C(C)[C@H]1CC=C(C)C(=O)C1
REMARK SMILES IDX 8 1 7 2 6 3 5 4 4 5 11 6 9 7 10 8 2 9 1 10 3 11
REMARK H PARENT
REMARK Flexibility Score: inf
ROOT
ATOM      1  C   UNL     1      21.631  28.070  29.759  1.00  0.00     0.048 C 
ATOM      2  C   UNL     1      22.910  28.831  29.976  1.00  0.00    -0.012 C 
ATOM      3  C   UNL     1      22.972  29.795  30.912  1.00  0.00    -0.019 C 
ATOM      4  C   UNL     1      24.204  30.637  31.111  1.00  0.00     0.036 C 
ATOM      5  C   UNL     1      25.480  29.851  30.752  1.00  0.00     0.025 C 
ATOM      6  C   UNL     1      25.380  29.293  29.320  1.00  0.00     0.089 C 
ATOM      7  C   UNL     1      24.095  28.532  29.136  1.00  0.00     0.158 C 
ATOM      8  O   UNL     1      24.022  27.662  28.226  1.00  0.00    -0.295 OA
ENDROOT
BRANCH   5   9
ATOM      9  C   UNL     1      26.728  30.704  30.931  1.00  0.00    -0.077 C 
ATOM     10  C   UNL     1      26.969  31.729  30.099  1.00  0.00     0.008 C 
ATOM     11  C   UNL     1      27.717  30.427  32.037  1.00  0.00     0.039 C 
ENDBRANCH   5   9
TORSDOF 1
ENDMDL
MODEL 6
REMARK VINA RESULT:    -4.077      1.811      2.752
REMARK INTER + INTRA:          -4.413
REMARK INTER:                  -4.316
REMARK INTRA:                  -0.097
REMARK UNBOUND:                -0.098
REMARK SMILES C=C(C)[C@H]1CC=C(C)C(=O)C1
REMARK SMILES IDX 8 1 7 2 6 3 5 4 4 5 11 6 9 7 10 8 2 9 1 10 3 11
REMARK H PARENT
REMARK Flexibility Score: inf
ROOT
ATOM      1  C   UNL     1      16.340  32.605  29.071  1.00  0.00     0.048 C 
ATOM      2  C   UNL     1      17.829  32.579  29.275  1.00  0.00    -0.012 C 
ATOM      3  C   UNL     1      18.516  33.730  29.389  1.00  0.00    -0.019 C 
ATOM      4  C   UNL     1      20.017  33.756  29.514  1.00  0.00     0.036 C 
ATOM      5  C   UNL     1      20.538  32.493  30.226  1.00  0.00     0.025 C 
ATOM      6  C   UNL     1      20.034  31.227  29.509  1.00  0.00     0.089 C 
ATOM      7  C   UNL     1      18.542  31.279  29.326  1.00  0.00     0.158 C 
ATOM      8  O   UNL     1      17.904  30.202  29.171  1.00  0.00    -0.295 OA
ENDROOT
BRANCH   5   9
ATOM      9  C   UNL     1      22.056  32.503  30.338  1.00  0.00    -0.077 C 
ATOM     10  C   UNL     1      22.710  31.399  30.735  1.00  0.00     0.008 C 
ATOM     11  C   UNL     1      22.861  33.735  30.007  1.00  0.00     0.039 C 
ENDBRANCH   5   9
TORSDOF 1
ENDMDL
MODEL 7
REMARK VINA RESULT:    -4.056      2.339      3.197
REMARK INTER + INTRA:          -4.390
REMARK INTER:                  -4.298
REMARK INTRA:                  -0.092
REMARK UNBOUND:                -0.098
REMARK SMILES C=C(C)[C@H]1CC=C(C)C(=O)C1
REMARK SMILES IDX 8 1 7 2 6 3 5 4 4 5 11 6 9 7 10 8 2 9 1 10 3 11
REMARK H PARENT
REMARK Flexibility Score: inf
ROOT
ATOM      1  C   UNL     1      15.246  30.110  29.494  1.00  0.00     0.048 C 
ATOM      2  C   UNL     1      16.507  30.873  29.790  1.00  0.00    -0.012 C 
ATOM      3  C   UNL     1      17.699  30.382  29.410  1.00  0.00    -0.019 C 
ATOM      4  C   UNL     1      18.994  31.070  29.755  1.00  0.00     0.036 C 
ATOM      5  C   UNL     1      18.804  32.596  29.856  1.00  0.00     0.025 C 
ATOM      6  C   UNL     1      17.681  32.931  30.854  1.00  0.00     0.089 C 
ATOM      7  C   UNL     1      16.431  32.158  30.528  1.00  0.00     0.158 C 
ATOM      8  O   UNL     1      15.318  32.595  30.927  1.00  0.00    -0.295 OA
ENDROOT
BRANCH   5   9
ATOM      9  C   UNL     1      20.104  33.296  30.225  1.00  0.00    -0.077 C 
ATOM     10  C   UNL     1      21.151  33.261  29.384  1.00  0.00     0.008 C 
ATOM     11  C   UNL     1      20.252  34.044  31.527  1.00  0.00     0.039 C 
ENDBRANCH   5   9
TORSDOF 1
ENDMDL
MODEL 8
REMARK VINA RESULT:    -4.030      9.701     12.258
REMARK INTER + INTRA:          -4.363
REMARK INTER:                  -4.274
REMARK INTRA:                  -0.089
REMARK UNBOUND:                -0.098
REMARK SMILES C=C(C)[C@H]1CC=C(C)C(=O)C1
REMARK SMILES IDX 8 1 7 2 6 3 5 4 4 5 11 6 9 7 10 8 2 9 1 10 3 11
REMARK H PARENT
REMARK Flexibility Score: inf
ROOT
ATOM      1  C   UNL     1      34.291  33.733  29.510  1.00  0.00     0.048 C 
ATOM      2  C   UNL     1      32.825  33.405  29.565  1.00  0.00    -0.012 C 
ATOM      3  C   UNL     1      32.089  33.776  30.627  1.00  0.00    -0.019 C 
ATOM      4  C   UNL     1      30.636  33.400  30.764  1.00  0.00     0.036 C 
ATOM      5  C   UNL     1      29.962  33.276  29.384  1.00  0.00     0.025 C 
ATOM      6  C   UNL     1      30.739  32.288  28.494  1.00  0.00     0.089 C 
ATOM      7  C   UNL     1      32.199  32.647  28.454  1.00  0.00     0.158 C 
ATOM      8  O   UNL     1      32.900  32.257  27.481  1.00  0.00    -0.295 OA
ENDROOT
BRANCH   5   9
ATOM      9  C   UNL     1      28.498  32.876  29.514  1.00  0.00    -0.077 C 
ATOM     10  C   UNL     1      27.563  33.810  29.750  1.00  0.00     0.008 C 
ATOM     11  C   UNL     1      28.062  31.438  29.379  1.00  0.00     0.039 C 
ENDBRANCH   5   9
TORSDOF 1
ENDMDL
MODEL 9
REMARK VINA RESULT:    -3.998      9.278     11.792
REMARK INTER + INTRA:          -4.329
REMARK INTER:                  -4.243
REMARK INTRA:                  -0.087
REMARK UNBOUND:                -0.098
REMARK SMILES C=C(C)[C@H]1CC=C(C)C(=O)C1
REMARK SMILES IDX 8 1 7 2 6 3 5 4 4 5 11 6 9 7 10 8 2 9 1 10 3 11
REMARK H PARENT
REMARK Flexibility Score: inf
ROOT
ATOM      1  C   UNL     1      33.289  33.428  27.736  1.00  0.00     0.048 C 
ATOM      2  C   UNL     1      31.989  33.370  28.488  1.00  0.00    -0.012 C 
ATOM      3  C   UNL     1      30.855  33.809  27.914  1.00  0.00    -0.019 C 
ATOM      4  C   UNL     1      29.544  33.846  28.656  1.00  0.00     0.036 C 
ATOM      5  C   UNL     1      29.471  32.725  29.711  1.00  0.00     0.025 C 
ATOM      6  C   UNL     1      30.682  32.802  30.660  1.00  0.00     0.089 C 
ATOM      7  C   UNL     1      31.966  32.851  29.878  1.00  0.00     0.158 C 
ATOM      8  O   UNL     1      33.037  32.485  30.434  1.00  0.00    -0.295 OA
ENDROOT
BRANCH   5   9
ATOM      9  C   UNL     1      28.158  32.769  30.479  1.00  0.00    -0.077 C 
ATOM     10  C   UNL     1      27.194  31.871  30.220  1.00  0.00     0.008 C 
ATOM     11  C   UNL     1      27.905  33.808  31.544  1.00  0.00     0.039 C 
ENDBRANCH   5   9
TORSDOF 1
ENDMDL
