MODEL 1
REMARK VINA RESULT:    -5.565      0.000      0.000
REMARK INTER + INTRA:          -6.739
REMARK INTER:                  -6.540
REMARK INTRA:                  -0.199
REMARK UNBOUND:                -0.199
REMARK SMILES O=c1c(O)c(-c2ccc(O)cc2)oc2cc(O)cc(O)c12
REMARK SMILES IDX 5 1 3 2 2 3 1 4 21 5 19 6 18 7 16 8 15 9 14 10 13 11 6 12
REMARK SMILES IDX 7 13 8 14 9 15 12 16 11 17 10 18 4 20 20 22 17 24
REMARK H PARENT 10 19 4 21 20 23 17 25
REMARK Flexibility Score: inf
ROOT
ATOM      1  C   UNL     1      72.338 -79.773  32.480  1.00  0.00     0.180 A 
ATOM      2  C   UNL     1      71.459 -79.056  33.310  1.00  0.00     0.208 A 
ATOM      3  C   UNL     1      70.581 -79.765  34.146  1.00  0.00     0.238 A 
ATOM      4  O   UNL     1      69.759 -79.119  34.847  1.00  0.00    -0.285 OA
ATOM      5  C   UNL     1      70.603 -81.180  34.151  1.00  0.00     0.111 A 
ATOM      6  C   UNL     1      69.785 -82.001  34.986  1.00  0.00     0.134 A 
ATOM      7  C   UNL     1      69.799 -83.390  34.815  1.00  0.00     0.093 A 
ATOM      8  C   UNL     1      70.647 -83.993  33.883  1.00  0.00     0.123 A 
ATOM      9  C   UNL     1      71.493 -83.205  33.105  1.00  0.00     0.094 A 
ATOM     10  C   UNL     1      71.476 -81.814  33.228  1.00  0.00     0.146 A 
ATOM     11  O   UNL     1      72.290 -81.099  32.460  1.00  0.00    -0.452 OA
ENDROOT
BRANCH   1  12
ATOM     12  C   UNL     1      73.310 -79.096  31.591  1.00  0.00     0.021 A 
ATOM     13  C   UNL     1      72.893 -78.413  30.434  1.00  0.00     0.016 A 
ATOM     14  C   UNL     1      73.826 -77.760  29.623  1.00  0.00     0.047 A 
ATOM     15  C   UNL     1      75.186 -77.770  29.965  1.00  0.00     0.115 A 
ATOM     16  C   UNL     1      74.672 -79.083  31.937  1.00  0.00     0.016 A 
ATOM     17  C   UNL     1      75.603 -78.430  31.124  1.00  0.00     0.047 A 
BRANCH  15  18
ATOM     18  O   UNL     1      76.125 -77.125  29.164  1.00  0.00    -0.508 OA
ATOM     19  H   UNL     1      76.551 -77.588  28.369  1.00  0.00     0.293 HD
ENDBRANCH  15  18
ENDBRANCH   1  12
BRANCH   2  20
ATOM     20  O   UNL     1      71.438 -77.659  33.272  1.00  0.00    -0.502 OA
ATOM     21  H   UNL     1      72.102 -77.091  33.784  1.00  0.00     0.293 HD
ENDBRANCH   2  20
BRANCH   6  22
ATOM     22  O   UNL     1      68.971 -81.505  36.008  1.00  0.00    -0.507 OA
ATOM     23  H   UNL     1      68.927 -80.538  36.291  1.00  0.00     0.293 HD
ENDBRANCH   6  22
BRANCH   8  24
ATOM     24  O   UNL     1      70.665 -85.378  33.730  1.00  0.00    -0.508 OA
ATOM     25  H   UNL     1      71.227 -85.970  34.329  1.00  0.00     0.293 HD
ENDBRANCH   8  24
TORSDOF 5
ENDMDL
MODEL 2
REMARK VINA RESULT:    -4.828      1.348      6.432
REMARK INTER + INTRA:          -5.873
REMARK INTER:                  -5.755
REMARK INTRA:                  -0.118
REMARK UNBOUND:                -0.199
REMARK SMILES O=c1c(O)c(-c2ccc(O)cc2)oc2cc(O)cc(O)c12
REMARK SMILES IDX 5 1 3 2 2 3 1 4 21 5 19 6 18 7 16 8 15 9 14 10 13 11 6 12
REMARK SMILES IDX 7 13 8 14 9 15 12 16 11 17 10 18 4 20 20 22 17 24
REMARK H PARENT 10 19 4 21 20 23 17 25
REMARK Flexibility Score: inf
ROOT
ATOM      1  C   UNL     1      71.373 -80.664  32.551  1.00  0.00     0.180 A 
ATOM      2  C   UNL     1      70.532 -79.632  33.001  1.00  0.00     0.208 A 
ATOM      3  C   UNL     1      70.827 -78.307  32.639  1.00  0.00     0.238 A 
ATOM      4  O   UNL     1      70.102 -77.382  33.090  1.00  0.00    -0.285 OA
ATOM      5  C   UNL     1      71.948 -78.033  31.820  1.00  0.00     0.111 A 
ATOM      6  C   UNL     1      72.317 -76.734  31.359  1.00  0.00     0.134 A 
ATOM      7  C   UNL     1      73.519 -76.564  30.660  1.00  0.00     0.093 A 
ATOM      8  C   UNL     1      74.332 -77.657  30.350  1.00  0.00     0.123 A 
ATOM      9  C   UNL     1      73.950 -78.938  30.743  1.00  0.00     0.094 A 
ATOM     10  C   UNL     1      72.775 -79.134  31.472  1.00  0.00     0.146 A 
ATOM     11  O   UNL     1      72.453 -80.369  31.838  1.00  0.00    -0.452 OA
ENDROOT
BRANCH   1  12
ATOM     12  C   UNL     1      71.114 -82.086  32.869  1.00  0.00     0.021 A 
ATOM     13  C   UNL     1      71.149 -82.559  34.194  1.00  0.00     0.016 A 
ATOM     14  C   UNL     1      70.876 -83.902  34.474  1.00  0.00     0.047 A 
ATOM     15  C   UNL     1      70.553 -84.786  33.435  1.00  0.00     0.115 A 
ATOM     16  C   UNL     1      70.768 -82.975  31.837  1.00  0.00     0.016 A 
ATOM     17  C   UNL     1      70.497 -84.317  32.119  1.00  0.00     0.047 A 
BRANCH  15  18
ATOM     18  O   UNL     1      70.281 -86.125  33.701  1.00  0.00    -0.508 OA
ATOM     19  H   UNL     1      70.939 -86.710  34.204  1.00  0.00     0.293 HD
ENDBRANCH  15  18
ENDBRANCH   1  12
BRANCH   2  20
ATOM     20  O   UNL     1      69.444 -79.921  33.829  1.00  0.00    -0.502 OA
ATOM     21  H   UNL     1      69.524 -79.967  34.837  1.00  0.00     0.293 HD
ENDBRANCH   2  20
BRANCH   6  22
ATOM     22  O   UNL     1      71.531 -75.591  31.535  1.00  0.00    -0.507 OA
ATOM     23  H   UNL     1      70.526 -75.565  31.449  1.00  0.00     0.293 HD
ENDBRANCH   6  22
BRANCH   8  24
ATOM     24  O   UNL     1      75.519 -77.481  29.641  1.00  0.00    -0.508 OA
ATOM     25  H   UNL     1      75.534 -77.022  28.738  1.00  0.00     0.293 HD
ENDBRANCH   8  24
TORSDOF 5
ENDMDL
