MODEL 1
REMARK VINA RESULT:    -3.874      0.000      0.000
REMARK INTER + INTRA:          -5.703
REMARK INTER:                  -5.233
REMARK INTRA:                  -0.470
REMARK UNBOUND:                -0.470
REMARK SMILES O=C[C@H](O)[C@H](O)[C@@H](O)CO
REMARK SMILES IDX 7 1 9 2 10 3 5 5 3 6 2 7 1 8 4 9 6 11 8 13
REMARK H PARENT 10 4 4 10 6 12 8 14
REMARK Flexibility Score: inf
ROOT
ATOM      1  C   UNL     1       1.412   7.163  -9.033  1.00  0.00     0.171 C 
ENDROOT
BRANCH   1   2
ATOM      2  C   UNL     1       2.276   8.434  -8.923  1.00  0.00     0.190 C 
BRANCH   2   3
ATOM      3  O   UNL     1       2.342   8.877  -7.596  1.00  0.00    -0.394 OA
ATOM      4  H   UNL     1       1.952   8.152  -7.043  1.00  0.00     0.210 HD
ENDBRANCH   2   3
ENDBRANCH   1   2
BRANCH   1   5
ATOM      5  C   UNL     1       1.656   6.121  -7.908  1.00  0.00     0.181 C 
BRANCH   5   6
ATOM      6  C   UNL     1       0.818   6.342  -6.619  1.00  0.00     0.209 C 
BRANCH   6   7
ATOM      7  C   UNL     1       1.268   5.489  -5.463  1.00  0.00     0.258 C 
ATOM      8  O   UNL     1       2.365   5.652  -4.952  1.00  0.00    -0.300 OA
ENDBRANCH   6   7
BRANCH   6   9
ATOM      9  O   UNL     1      -0.532   6.052  -6.877  1.00  0.00    -0.383 OA
ATOM     10  H   UNL     1      -0.557   5.499  -7.702  1.00  0.00     0.211 HD
ENDBRANCH   6   9
ENDBRANCH   5   6
BRANCH   5  11
ATOM     11  O   UNL     1       3.025   6.038  -7.596  1.00  0.00    -0.387 OA
ATOM     12  H   UNL     1       3.481   5.641  -8.384  1.00  0.00     0.211 HD
ENDBRANCH   5  11
ENDBRANCH   1   5
BRANCH   1  13
ATOM     13  O   UNL     1       0.047   7.495  -9.085  1.00  0.00    -0.388 OA
ATOM     14  H   UNL     1      -0.458   6.640  -9.094  1.00  0.00     0.211 HD
ENDBRANCH   1  13
TORSDOF 8
ENDMDL
MODEL 2
REMARK VINA RESULT:    -3.826     11.806     12.821
REMARK INTER + INTRA:          -5.638
REMARK INTER:                  -5.336
REMARK INTRA:                  -0.302
REMARK UNBOUND:                -0.470
REMARK SMILES O=C[C@H](O)[C@H](O)[C@@H](O)CO
REMARK SMILES IDX 7 1 9 2 10 3 5 5 3 6 2 7 1 8 4 9 6 11 8 13
REMARK H PARENT 10 4 4 10 6 12 8 14
REMARK Flexibility Score: inf
ROOT
ATOM      1  C   UNL     1       4.281  -6.456  -8.102  1.00  0.00     0.171 C 
ENDROOT
BRANCH   1   2
ATOM      2  C   UNL     1       5.211  -5.774  -9.125  1.00  0.00     0.190 C 
BRANCH   2   3
ATOM      3  O   UNL     1       5.762  -4.603  -8.591  1.00  0.00    -0.394 OA
ATOM      4  H   UNL     1       5.627  -4.656  -7.610  1.00  0.00     0.210 HD
ENDBRANCH   2   3
ENDBRANCH   1   2
BRANCH   1   5
ATOM      5  C   UNL     1       2.769  -6.193  -8.334  1.00  0.00     0.181 C 
BRANCH   5   6
ATOM      6  C   UNL     1       2.275  -4.788  -7.894  1.00  0.00     0.209 C 
BRANCH   6   7
ATOM      7  C   UNL     1       2.837  -4.348  -6.568  1.00  0.00     0.258 C 
ATOM      8  O   UNL     1       2.437  -4.837  -5.523  1.00  0.00    -0.300 OA
ENDBRANCH   6   7
BRANCH   6   9
ATOM      9  O   UNL     1       0.874  -4.787  -7.796  1.00  0.00    -0.383 OA
ATOM     10  H   UNL     1       0.548  -4.010  -8.322  1.00  0.00     0.211 HD
ENDBRANCH   6   9
ENDBRANCH   5   6
BRANCH   5  11
ATOM     11  O   UNL     1       1.991  -7.198  -7.731  1.00  0.00    -0.387 OA
ATOM     12  H   UNL     1       2.610  -7.930  -7.471  1.00  0.00     0.211 HD
ENDBRANCH   5  11
ENDBRANCH   1   5
BRANCH   1  13
ATOM     13  O   UNL     1       4.522  -7.840  -8.061  1.00  0.00    -0.388 OA
ATOM     14  H   UNL     1       5.208  -8.034  -8.754  1.00  0.00     0.211 HD
ENDBRANCH   1  13
TORSDOF 8
ENDMDL
MODEL 3
REMARK VINA RESULT:    -3.782     11.864     13.050
REMARK INTER + INTRA:          -5.579
REMARK INTER:                  -4.872
REMARK INTRA:                  -0.707
REMARK UNBOUND:                -0.470
REMARK SMILES O=C[C@H](O)[C@H](O)[C@@H](O)CO
REMARK SMILES IDX 7 1 9 2 10 3 5 5 3 6 2 7 1 8 4 9 6 11 8 13
REMARK H PARENT 10 4 4 10 6 12 8 14
REMARK Flexibility Score: inf
ROOT
ATOM      1  C   UNL     1       2.632  -5.432  -7.940  1.00  0.00     0.171 C 
ENDROOT
BRANCH   1   2
ATOM      2  C   UNL     1       2.144  -4.458  -6.850  1.00  0.00     0.190 C 
BRANCH   2   3
ATOM      3  O   UNL     1       2.765  -4.733  -5.624  1.00  0.00    -0.394 OA
ATOM      4  H   UNL     1       3.543  -4.121  -5.566  1.00  0.00     0.210 HD
ENDBRANCH   2   3
ENDBRANCH   1   2
BRANCH   1   5
ATOM      5  C   UNL     1       4.136  -5.291  -8.301  1.00  0.00     0.181 C 
BRANCH   5   6
ATOM      6  C   UNL     1       5.001  -6.545  -7.999  1.00  0.00     0.209 C 
BRANCH   6   7
ATOM      7  C   UNL     1       6.464  -6.232  -7.833  1.00  0.00     0.258 C 
ATOM      8  O   UNL     1       7.003  -5.371  -8.511  1.00  0.00    -0.300 OA
ENDBRANCH   6   7
BRANCH   6   9
ATOM      9  O   UNL     1       4.868  -7.475  -9.043  1.00  0.00    -0.383 OA
ATOM     10  H   UNL     1       5.182  -7.027  -9.872  1.00  0.00     0.211 HD
ENDBRANCH   6   9
ENDBRANCH   5   6
BRANCH   5  11
ATOM     11  O   UNL     1       4.690  -4.152  -7.688  1.00  0.00    -0.387 OA
ATOM     12  H   UNL     1       5.096  -4.450  -6.832  1.00  0.00     0.211 HD
ENDBRANCH   5  11
ENDBRANCH   1   5
BRANCH   1  13
ATOM     13  O   UNL     1       2.353  -6.761  -7.577  1.00  0.00    -0.388 OA
ATOM     14  H   UNL     1       3.101  -7.065  -6.998  1.00  0.00     0.211 HD
ENDBRANCH   1  13
TORSDOF 8
ENDMDL
MODEL 4
REMARK VINA RESULT:    -3.715     15.573     16.989
REMARK INTER + INTRA:          -5.489
REMARK INTER:                  -4.749
REMARK INTRA:                  -0.739
REMARK UNBOUND:                -0.470
REMARK SMILES O=C[C@H](O)[C@H](O)[C@@H](O)CO
REMARK SMILES IDX 7 1 9 2 10 3 5 5 3 6 2 7 1 8 4 9 6 11 8 13
REMARK H PARENT 10 4 4 10 6 12 8 14
REMARK Flexibility Score: inf
ROOT
ATOM      1  C   UNL     1       9.576  -0.407   5.656  1.00  0.00     0.171 C 
ENDROOT
BRANCH   1   2
ATOM      2  C   UNL     1       9.232   1.087   5.496  1.00  0.00     0.190 C 
BRANCH   2   3
ATOM      3  O   UNL     1       8.384   1.287   4.400  1.00  0.00    -0.394 OA
ATOM      4  H   UNL     1       8.008   2.199   4.505  1.00  0.00     0.210 HD
ENDBRANCH   2   3
ENDBRANCH   1   2
BRANCH   1   5
ATOM      5  C   UNL     1       8.385  -1.370   5.407  1.00  0.00     0.181 C 
BRANCH   5   6
ATOM      6  C   UNL     1       8.513  -2.759   6.091  1.00  0.00     0.209 C 
BRANCH   6   7
ATOM      7  C   UNL     1       8.959  -3.847   5.151  1.00  0.00     0.258 C 
ATOM      8  O   UNL     1      10.000  -3.745   4.521  1.00  0.00    -0.300 OA
ENDBRANCH   6   7
BRANCH   6   9
ATOM      9  O   UNL     1       7.274  -3.133   6.637  1.00  0.00    -0.383 OA
ATOM     10  H   UNL     1       6.868  -2.314   7.024  1.00  0.00     0.211 HD
ENDBRANCH   6   9
ENDBRANCH   5   6
BRANCH   5  11
ATOM     11  O   UNL     1       8.147  -1.522   4.029  1.00  0.00    -0.387 OA
ATOM     12  H   UNL     1       8.276  -2.483   3.815  1.00  0.00     0.211 HD
ENDBRANCH   5  11
ENDBRANCH   1   5
BRANCH   1  13
ATOM     13  O   UNL     1      10.654  -0.758   4.824  1.00  0.00    -0.388 OA
ATOM     14  H   UNL     1      11.454  -0.283   5.173  1.00  0.00     0.211 HD
ENDBRANCH   1  13
TORSDOF 8
ENDMDL
MODEL 5
REMARK VINA RESULT:    -3.672     12.545     13.726
REMARK INTER + INTRA:          -5.431
REMARK INTER:                  -4.770
REMARK INTRA:                  -0.661
REMARK UNBOUND:                -0.470
REMARK SMILES O=C[C@H](O)[C@H](O)[C@@H](O)CO
REMARK SMILES IDX 7 1 9 2 10 3 5 5 3 6 2 7 1 8 4 9 6 11 8 13
REMARK H PARENT 10 4 4 10 6 12 8 14
REMARK Flexibility Score: inf
ROOT
ATOM      1  C   UNL     1       5.836  -6.296  -8.312  1.00  0.00     0.171 C 
ENDROOT
BRANCH   1   2
ATOM      2  C   UNL     1       6.448  -7.658  -8.698  1.00  0.00     0.190 C 
BRANCH   2   3
ATOM      3  O   UNL     1       6.208  -8.611  -7.701  1.00  0.00    -0.394 OA
ATOM      4  H   UNL     1       6.344  -9.496  -8.126  1.00  0.00     0.210 HD
ENDBRANCH   2   3
ENDBRANCH   1   2
BRANCH   1   5
ATOM      5  C   UNL     1       4.289  -6.235  -8.417  1.00  0.00     0.181 C 
BRANCH   5   6
ATOM      6  C   UNL     1       3.614  -5.170  -7.510  1.00  0.00     0.209 C 
BRANCH   6   7
ATOM      7  C   UNL     1       2.205  -4.841  -7.926  1.00  0.00     0.258 C 
ATOM      8  O   UNL     1       1.344  -5.707  -7.969  1.00  0.00    -0.300 OA
ENDBRANCH   6   7
BRANCH   6   9
ATOM      9  O   UNL     1       4.365  -3.983  -7.534  1.00  0.00    -0.383 OA
ATOM     10  H   UNL     1       4.257  -3.553  -6.645  1.00  0.00     0.211 HD
ENDBRANCH   6   9
ENDBRANCH   5   6
BRANCH   5  11
ATOM     11  O   UNL     1       3.724  -7.503  -8.190  1.00  0.00    -0.387 OA
ATOM     12  H   UNL     1       2.749  -7.368  -8.054  1.00  0.00     0.211 HD
ENDBRANCH   5  11
ENDBRANCH   1   5
BRANCH   1  13
ATOM     13  O   UNL     1       6.241  -5.922  -7.019  1.00  0.00    -0.388 OA
ATOM     14  H   UNL     1       5.421  -5.650  -6.528  1.00  0.00     0.211 HD
ENDBRANCH   1  13
TORSDOF 8
ENDMDL
MODEL 6
REMARK VINA RESULT:    -3.583      1.615      2.410
REMARK INTER + INTRA:          -5.310
REMARK INTER:                  -4.870
REMARK INTRA:                  -0.440
REMARK UNBOUND:                -0.470
REMARK SMILES O=C[C@H](O)[C@H](O)[C@@H](O)CO
REMARK SMILES IDX 7 1 9 2 10 3 5 5 3 6 2 7 1 8 4 9 6 11 8 13
REMARK H PARENT 10 4 4 10 6 12 8 14
REMARK Flexibility Score: inf
ROOT
ATOM      1  C   UNL     1       0.344   8.140  -8.839  1.00  0.00     0.171 C 
ENDROOT
BRANCH   1   2
ATOM      2  C   UNL     1      -0.010   9.635  -8.966  1.00  0.00     0.190 C 
BRANCH   2   3
ATOM      3  O   UNL     1      -0.542  10.124  -7.766  1.00  0.00    -0.394 OA
ATOM      4  H   UNL     1      -1.310   9.537  -7.545  1.00  0.00     0.210 HD
ENDBRANCH   2   3
ENDBRANCH   1   2
BRANCH   1   5
ATOM      5  C   UNL     1       1.797   7.862  -8.371  1.00  0.00     0.181 C 
BRANCH   5   6
ATOM      6  C   UNL     1       2.119   6.368  -8.091  1.00  0.00     0.209 C 
BRANCH   6   7
ATOM      7  C   UNL     1       2.190   6.039  -6.624  1.00  0.00     0.258 C 
ATOM      8  O   UNL     1       3.254   6.060  -6.026  1.00  0.00    -0.300 OA
ENDBRANCH   6   7
BRANCH   6   9
ATOM      9  O   UNL     1       3.352   6.033  -8.674  1.00  0.00    -0.383 OA
ATOM     10  H   UNL     1       3.322   5.061  -8.878  1.00  0.00     0.211 HD
ENDBRANCH   6   9
ENDBRANCH   5   6
BRANCH   5  11
ATOM     11  O   UNL     1       2.120   8.651  -7.252  1.00  0.00    -0.387 OA
ATOM     12  H   UNL     1       3.104   8.592  -7.127  1.00  0.00     0.211 HD
ENDBRANCH   5  11
ENDBRANCH   1   5
BRANCH   1  13
ATOM     13  O   UNL     1      -0.564   7.488  -7.986  1.00  0.00    -0.388 OA
ATOM     14  H   UNL     1      -1.306   8.126  -7.814  1.00  0.00     0.211 HD
ENDBRANCH   1  13
TORSDOF 8
ENDMDL
MODEL 7
REMARK VINA RESULT:    -3.411     12.696     13.840
REMARK INTER + INTRA:          -5.078
REMARK INTER:                  -4.559
REMARK INTRA:                  -0.519
REMARK UNBOUND:                -0.470
REMARK SMILES O=C[C@H](O)[C@H](O)[C@@H](O)CO
REMARK SMILES IDX 7 1 9 2 10 3 5 5 3 6 2 7 1 8 4 9 6 11 8 13
REMARK H PARENT 10 4 4 10 6 12 8 14
REMARK Flexibility Score: inf
ROOT
ATOM      1  C   UNL     1       3.893  -5.448  -7.562  1.00  0.00     0.171 C 
ENDROOT
BRANCH   1   2
ATOM      2  C   UNL     1       2.490  -5.797  -8.098  1.00  0.00     0.190 C 
BRANCH   2   3
ATOM      3  O   UNL     1       2.164  -7.128  -7.809  1.00  0.00    -0.394 OA
ATOM      4  H   UNL     1       1.837  -7.135  -6.873  1.00  0.00     0.210 HD
ENDBRANCH   2   3
ENDBRANCH   1   2
BRANCH   1   5
ATOM      5  C   UNL     1       5.057  -5.827  -8.516  1.00  0.00     0.181 C 
BRANCH   5   6
ATOM      6  C   UNL     1       5.877  -7.074  -8.085  1.00  0.00     0.209 C 
BRANCH   6   7
ATOM      7  C   UNL     1       7.052  -7.354  -8.984  1.00  0.00     0.258 C 
ATOM      8  O   UNL     1       8.085  -6.711  -8.886  1.00  0.00    -0.300 OA
ENDBRANCH   6   7
BRANCH   6   9
ATOM      9  O   UNL     1       5.048  -8.208  -8.083  1.00  0.00    -0.383 OA
ATOM     10  H   UNL     1       4.206  -7.953  -8.545  1.00  0.00     0.211 HD
ENDBRANCH   6   9
ENDBRANCH   5   6
BRANCH   5  11
ATOM     11  O   UNL     1       5.909  -4.727  -8.724  1.00  0.00    -0.387 OA
ATOM     12  H   UNL     1       6.644  -5.035  -9.317  1.00  0.00     0.211 HD
ENDBRANCH   5  11
ENDBRANCH   1   5
BRANCH   1  13
ATOM     13  O   UNL     1       3.972  -4.084  -7.233  1.00  0.00    -0.388 OA
ATOM     14  H   UNL     1       4.155  -4.033  -6.258  1.00  0.00     0.211 HD
ENDBRANCH   1  13
TORSDOF 8
ENDMDL
