MODEL 1
REMARK VINA RESULT:    -3.982      0.000      0.000
REMARK INTER + INTRA:          -7.500
REMARK INTER:                  -6.309
REMARK INTRA:                  -1.191
REMARK UNBOUND:                -1.191
REMARK SMILES C=CCCCCCCCCCCC
REMARK SMILES IDX 7 1 8 2 9 3 10 4 11 5 12 6 13 7 6 8 5 9 4 10 3 11 2 12 1 13
REMARK H PARENT
REMARK Flexibility Score: inf
ROOT
ATOM      1  C   UNL     1      31.654   8.911  32.981  1.00  0.00     0.000 C 
ENDROOT
BRANCH   1   2
ATOM      2  C   UNL     1      32.964   9.654  32.676  1.00  0.00     0.000 C 
BRANCH   2   3
ATOM      3  C   UNL     1      32.999  11.066  33.285  1.00  0.00    -0.000 C 
BRANCH   3   4
ATOM      4  C   UNL     1      32.336  12.084  32.348  1.00  0.00    -0.000 C 
BRANCH   4   5
ATOM      5  C   UNL     1      33.043  12.118  30.985  1.00  0.00    -0.000 C 
BRANCH   5   6
ATOM      6  C   UNL     1      32.057  12.091  29.808  1.00  0.00    -0.003 C 
ATOM      7  C   UNL     1      31.984  10.724  29.127  1.00  0.00     0.004 C 
ENDBRANCH   5   6
ENDBRANCH   4   5
ENDBRANCH   3   4
ENDBRANCH   2   3
ENDBRANCH   1   2
BRANCH   1   8
ATOM      8  C   UNL     1      31.885   7.450  33.395  1.00  0.00     0.000 C 
BRANCH   8   9
ATOM      9  C   UNL     1      30.872   7.014  34.460  1.00  0.00     0.000 C 
BRANCH   9  10
ATOM     10  C   UNL     1      31.496   7.042  35.860  1.00  0.00     0.004 C 
BRANCH  10  11
ATOM     11  C   UNL     1      30.806   8.083  36.750  1.00  0.00     0.027 C 
BRANCH  11  12
ATOM     12  C   UNL     1      31.597   9.361  36.809  1.00  0.00    -0.035 C 
ATOM     13  C   UNL     1      31.097  10.518  36.368  1.00  0.00     0.004 C 
ENDBRANCH  11  12
ENDBRANCH  10  11
ENDBRANCH   9  10
ENDBRANCH   8   9
ENDBRANCH   1   8
TORSDOF 10
ENDMDL
MODEL 2
REMARK VINA RESULT:    -3.966      1.395      2.831
REMARK INTER + INTRA:          -7.475
REMARK INTER:                  -5.735
REMARK INTRA:                  -1.739
REMARK UNBOUND:                -1.191
REMARK SMILES C=CCCCCCCCCCCC
REMARK SMILES IDX 7 1 8 2 9 3 10 4 11 5 12 6 13 7 6 8 5 9 4 10 3 11 2 12 1 13
REMARK H PARENT
REMARK Flexibility Score: inf
ROOT
ATOM      1  C   UNL     1      30.252   6.889  34.323  1.00  0.00     0.000 C 
ENDROOT
BRANCH   1   2
ATOM      2  C   UNL     1      31.516   7.370  33.594  1.00  0.00     0.000 C 
BRANCH   2   3
ATOM      3  C   UNL     1      31.265   7.670  32.108  1.00  0.00    -0.000 C 
BRANCH   3   4
ATOM      4  C   UNL     1      31.645   9.117  31.769  1.00  0.00    -0.000 C 
BRANCH   4   5
ATOM      5  C   UNL     1      32.652   9.673  32.787  1.00  0.00    -0.000 C 
BRANCH   5   6
ATOM      6  C   UNL     1      33.121  11.093  32.437  1.00  0.00    -0.003 C 
ATOM      7  C   UNL     1      31.988  12.119  32.482  1.00  0.00     0.004 C 
ENDBRANCH   5   6
ENDBRANCH   4   5
ENDBRANCH   3   4
ENDBRANCH   2   3
ENDBRANCH   1   2
BRANCH   1   8
ATOM      8  C   UNL     1      30.497   6.609  35.813  1.00  0.00     0.000 C 
BRANCH   8   9
ATOM      9  C   UNL     1      31.598   7.519  36.369  1.00  0.00     0.000 C 
BRANCH   9  10
ATOM     10  C   UNL     1      31.003   8.776  37.014  1.00  0.00     0.004 C 
BRANCH  10  11
ATOM     11  C   UNL     1      31.585  10.047  36.384  1.00  0.00     0.027 C 
BRANCH  11  12
ATOM     12  C   UNL     1      30.507  10.895  35.769  1.00  0.00    -0.035 C 
ATOM     13  C   UNL     1      29.642  10.398  34.879  1.00  0.00     0.004 C 
ENDBRANCH  11  12
ENDBRANCH  10  11
ENDBRANCH   9  10
ENDBRANCH   8   9
ENDBRANCH   1   8
TORSDOF 10
ENDMDL
MODEL 3
REMARK VINA RESULT:    -3.937      1.237      5.120
REMARK INTER + INTRA:          -7.429
REMARK INTER:                  -5.972
REMARK INTRA:                  -1.457
REMARK UNBOUND:                -1.191
REMARK SMILES C=CCCCCCCCCCCC
REMARK SMILES IDX 7 1 8 2 9 3 10 4 11 5 12 6 13 7 6 8 5 9 4 10 3 11 2 12 1 13
REMARK H PARENT
REMARK Flexibility Score: inf
ROOT
ATOM      1  C   UNL     1      30.572   7.402  33.785  1.00  0.00     0.000 C 
ENDROOT
BRANCH   1   2
ATOM      2  C   UNL     1      30.554   6.655  35.128  1.00  0.00     0.000 C 
BRANCH   2   3
ATOM      3  C   UNL     1      31.489   7.289  36.171  1.00  0.00    -0.000 C 
BRANCH   3   4
ATOM      4  C   UNL     1      30.727   8.281  37.060  1.00  0.00    -0.000 C 
BRANCH   4   5
ATOM      5  C   UNL     1      31.499   9.601  37.196  1.00  0.00    -0.000 C 
BRANCH   5   6
ATOM      6  C   UNL     1      31.522  10.409  35.890  1.00  0.00    -0.003 C 
ATOM      7  C   UNL     1      30.129  10.857  35.447  1.00  0.00     0.004 C 
ENDBRANCH   5   6
ENDBRANCH   4   5
ENDBRANCH   3   4
ENDBRANCH   2   3
ENDBRANCH   1   2
BRANCH   1   8
ATOM      8  C   UNL     1      31.994   7.737  33.312  1.00  0.00     0.000 C 
BRANCH   8   9
ATOM      9  C   UNL     1      31.988   8.943  32.365  1.00  0.00     0.000 C 
BRANCH   9  10
ATOM     10  C   UNL     1      33.054   9.968  32.769  1.00  0.00     0.004 C 
BRANCH  10  11
ATOM     11  C   UNL     1      32.935  11.246  31.931  1.00  0.00     0.027 C 
BRANCH  11  12
ATOM     12  C   UNL     1      31.854  12.147  32.462  1.00  0.00    -0.035 C 
ATOM     13  C   UNL     1      30.879  12.613  31.677  1.00  0.00     0.004 C 
ENDBRANCH  11  12
ENDBRANCH  10  11
ENDBRANCH   9  10
ENDBRANCH   8   9
ENDBRANCH   1   8
TORSDOF 10
ENDMDL
MODEL 4
REMARK VINA RESULT:    -3.912      0.667      5.953
REMARK INTER + INTRA:          -7.390
REMARK INTER:                  -6.169
REMARK INTRA:                  -1.221
REMARK UNBOUND:                -1.191
REMARK SMILES C=CCCCCCCCCCCC
REMARK SMILES IDX 7 1 8 2 9 3 10 4 11 5 12 6 13 7 6 8 5 9 4 10 3 11 2 12 1 13
REMARK H PARENT
REMARK Flexibility Score: inf
ROOT
ATOM      1  C   UNL     1      31.931   9.101  32.619  1.00  0.00     0.000 C 
ENDROOT
BRANCH   1   2
ATOM      2  C   UNL     1      32.053   7.672  33.171  1.00  0.00     0.000 C 
BRANCH   2   3
ATOM      3  C   UNL     1      30.698   7.083  33.594  1.00  0.00    -0.000 C 
BRANCH   3   4
ATOM      4  C   UNL     1      30.222   7.695  34.918  1.00  0.00    -0.000 C 
BRANCH   4   5
ATOM      5  C   UNL     1      31.322   7.615  35.987  1.00  0.00    -0.000 C 
BRANCH   5   6
ATOM      6  C   UNL     1      31.210   8.733  37.033  1.00  0.00    -0.003 C 
ATOM      7  C   UNL     1      31.646  10.095  36.492  1.00  0.00     0.004 C 
ENDBRANCH   5   6
ENDBRANCH   4   5
ENDBRANCH   3   4
ENDBRANCH   2   3
ENDBRANCH   1   2
BRANCH   1   8
ATOM      8  C   UNL     1      33.124   9.988  33.001  1.00  0.00     0.000 C 
BRANCH   8   9
ATOM      9  C   UNL     1      32.681  11.440  33.222  1.00  0.00     0.000 C 
BRANCH   9  10
ATOM     10  C   UNL     1      32.012  12.011  31.966  1.00  0.00     0.004 C 
BRANCH  10  11
ATOM     11  C   UNL     1      33.041  12.252  30.856  1.00  0.00     0.027 C 
BRANCH  11  12
ATOM     12  C   UNL     1      32.701  11.470  29.617  1.00  0.00    -0.035 C 
ATOM     13  C   UNL     1      31.455  11.058  29.365  1.00  0.00     0.004 C 
ENDBRANCH  11  12
ENDBRANCH  10  11
ENDBRANCH   9  10
ENDBRANCH   8   9
ENDBRANCH   1   8
TORSDOF 10
ENDMDL
MODEL 5
REMARK VINA RESULT:    -3.910      1.722      4.905
REMARK INTER + INTRA:          -7.387
REMARK INTER:                  -5.395
REMARK INTRA:                  -1.992
REMARK UNBOUND:                -1.191
REMARK SMILES C=CCCCCCCCCCCC
REMARK SMILES IDX 7 1 8 2 9 3 10 4 11 5 12 6 13 7 6 8 5 9 4 10 3 11 2 12 1 13
REMARK H PARENT
REMARK Flexibility Score: inf
ROOT
ATOM      1  C   UNL     1      32.676   9.365  32.593  1.00  0.00     0.000 C 
ENDROOT
BRANCH   1   2
ATOM      2  C   UNL     1      31.637   8.952  31.539  1.00  0.00     0.000 C 
BRANCH   2   3
ATOM      3  C   UNL     1      30.846   7.699  31.947  1.00  0.00    -0.000 C 
BRANCH   3   4
ATOM      4  C   UNL     1      31.252   7.225  33.348  1.00  0.00    -0.000 C 
BRANCH   4   5
ATOM      5  C   UNL     1      30.036   6.694  34.122  1.00  0.00    -0.000 C 
BRANCH   5   6
ATOM      6  C   UNL     1      30.146   6.940  35.634  1.00  0.00    -0.003 C 
ATOM      7  C   UNL     1      31.594   6.974  36.124  1.00  0.00     0.004 C 
ENDBRANCH   5   6
ENDBRANCH   4   5
ENDBRANCH   3   4
ENDBRANCH   2   3
ENDBRANCH   1   2
BRANCH   1   8
ATOM      8  C   UNL     1      32.926  10.880  32.617  1.00  0.00     0.000 C 
BRANCH   8   9
ATOM      9  C   UNL     1      32.761  11.441  34.035  1.00  0.00     0.000 C 
BRANCH   9  10
ATOM     10  C   UNL     1      31.870  10.532  34.889  1.00  0.00     0.004 C 
BRANCH  10  11
ATOM     11  C   UNL     1      30.490  11.163  35.108  1.00  0.00     0.027 C 
BRANCH  11  12
ATOM     12  C   UNL     1      29.416  10.390  34.392  1.00  0.00    -0.035 C 
ATOM     13  C   UNL     1      28.937  10.783  33.209  1.00  0.00     0.004 C 
ENDBRANCH  11  12
ENDBRANCH  10  11
ENDBRANCH   9  10
ENDBRANCH   8   9
ENDBRANCH   1   8
TORSDOF 10
ENDMDL
MODEL 6
REMARK VINA RESULT:    -3.897      1.059      2.656
REMARK INTER + INTRA:          -7.365
REMARK INTER:                  -6.083
REMARK INTRA:                  -1.282
REMARK UNBOUND:                -1.191
REMARK SMILES C=CCCCCCCCCCCC
REMARK SMILES IDX 7 1 8 2 9 3 10 4 11 5 12 6 13 7 6 8 5 9 4 10 3 11 2 12 1 13
REMARK H PARENT
REMARK Flexibility Score: inf
ROOT
ATOM      1  C   UNL     1      30.760  10.810  35.331  1.00  0.00     0.000 C 
ENDROOT
BRANCH   1   2
ATOM      2  C   UNL     1      31.385  11.541  34.132  1.00  0.00     0.000 C 
BRANCH   2   3
ATOM      3  C   UNL     1      32.876  11.213  33.950  1.00  0.00    -0.000 C 
BRANCH   3   4
ATOM      4  C   UNL     1      33.125  10.518  32.605  1.00  0.00    -0.000 C 
BRANCH   4   5
ATOM      5  C   UNL     1      32.875  11.480  31.435  1.00  0.00    -0.000 C 
BRANCH   5   6
ATOM      6  C   UNL     1      31.741  11.008  30.514  1.00  0.00    -0.003 C 
ATOM      7  C   UNL     1      31.486   9.504  30.612  1.00  0.00     0.004 C 
ENDBRANCH   5   6
ENDBRANCH   4   5
ENDBRANCH   3   4
ENDBRANCH   2   3
ENDBRANCH   1   2
BRANCH   1   8
ATOM      8  C   UNL     1      31.810  10.316  36.336  1.00  0.00     0.000 C 
BRANCH   8   9
ATOM      9  C   UNL     1      31.147   9.566  37.498  1.00  0.00     0.000 C 
BRANCH   9  10
ATOM     10  C   UNL     1      30.534   8.243  37.024  1.00  0.00     0.004 C 
BRANCH  10  11
ATOM     11  C   UNL     1      31.560   7.408  36.248  1.00  0.00     0.027 C 
BRANCH  11  12
ATOM     12  C   UNL     1      31.040   7.033  34.888  1.00  0.00    -0.035 C 
ATOM     13  C   UNL     1      31.643   7.443  33.767  1.00  0.00     0.004 C 
ENDBRANCH  11  12
ENDBRANCH  10  11
ENDBRANCH   9  10
ENDBRANCH   8   9
ENDBRANCH   1   8
TORSDOF 10
ENDMDL
MODEL 7
REMARK VINA RESULT:    -3.870      1.610      2.881
REMARK INTER + INTRA:          -7.322
REMARK INTER:                  -5.599
REMARK INTRA:                  -1.723
REMARK UNBOUND:                -1.191
REMARK SMILES C=CCCCCCCCCCCC
REMARK SMILES IDX 7 1 8 2 9 3 10 4 11 5 12 6 13 7 6 8 5 9 4 10 3 11 2 12 1 13
REMARK H PARENT
REMARK Flexibility Score: inf
ROOT
ATOM      1  C   UNL     1      31.662   8.963  31.729  1.00  0.00     0.000 C 
ENDROOT
BRANCH   1   2
ATOM      2  C   UNL     1      32.755   9.467  32.684  1.00  0.00     0.000 C 
BRANCH   2   3
ATOM      3  C   UNL     1      33.021  10.974  32.537  1.00  0.00    -0.000 C 
BRANCH   3   4
ATOM      4  C   UNL     1      32.125  11.784  33.483  1.00  0.00    -0.000 C 
BRANCH   4   5
ATOM      5  C   UNL     1      31.635  10.917  34.652  1.00  0.00    -0.000 C 
BRANCH   5   6
ATOM      6  C   UNL     1      30.165  11.184  35.008  1.00  0.00    -0.003 C 
ATOM      7  C   UNL     1      29.207  10.187  34.356  1.00  0.00     0.004 C 
ENDBRANCH   5   6
ENDBRANCH   4   5
ENDBRANCH   3   4
ENDBRANCH   2   3
ENDBRANCH   1   2
BRANCH   1   8
ATOM      8  C   UNL     1      31.127   7.577  32.117  1.00  0.00     0.000 C 
BRANCH   8   9
ATOM      9  C   UNL     1      31.416   7.271  33.592  1.00  0.00     0.000 C 
BRANCH   9  10
ATOM     10  C   UNL     1      30.237   6.539  34.245  1.00  0.00     0.004 C 
BRANCH  10  11
ATOM     11  C   UNL     1      30.405   6.473  35.767  1.00  0.00     0.027 C 
BRANCH  11  12
ATOM     12  C   UNL     1      31.278   7.589  36.269  1.00  0.00    -0.035 C 
ATOM     13  C   UNL     1      30.911   8.364  37.294  1.00  0.00     0.004 C 
ENDBRANCH  11  12
ENDBRANCH  10  11
ENDBRANCH   9  10
ENDBRANCH   8   9
ENDBRANCH   1   8
TORSDOF 10
ENDMDL
MODEL 8
REMARK VINA RESULT:    -3.859      1.623      4.667
REMARK INTER + INTRA:          -7.306
REMARK INTER:                  -5.783
REMARK INTRA:                  -1.523
REMARK UNBOUND:                -1.191
REMARK SMILES C=CCCCCCCCCCCC
REMARK SMILES IDX 7 1 8 2 9 3 10 4 11 5 12 6 13 7 6 8 5 9 4 10 3 11 2 12 1 13
REMARK H PARENT
REMARK Flexibility Score: inf
ROOT
ATOM      1  C   UNL     1      32.886  10.011  32.704  1.00  0.00     0.000 C 
ENDROOT
BRANCH   1   2
ATOM      2  C   UNL     1      32.401  11.207  33.538  1.00  0.00     0.000 C 
BRANCH   2   3
ATOM      3  C   UNL     1      32.077  10.824  34.991  1.00  0.00    -0.000 C 
BRANCH   3   4
ATOM      4  C   UNL     1      30.569  10.618  35.181  1.00  0.00    -0.000 C 
BRANCH   4   5
ATOM      5  C   UNL     1      30.164  10.842  36.646  1.00  0.00    -0.000 C 
BRANCH   5   6
ATOM      6  C   UNL     1      31.098  10.127  37.632  1.00  0.00    -0.003 C 
ATOM      7  C   UNL     1      30.345   9.473  38.791  1.00  0.00     0.004 C 
ENDBRANCH   5   6
ENDBRANCH   4   5
ENDBRANCH   3   4
ENDBRANCH   2   3
ENDBRANCH   1   2
BRANCH   1   8
ATOM      8  C   UNL     1      31.876   9.592  31.626  1.00  0.00     0.000 C 
BRANCH   8   9
ATOM      9  C   UNL     1      31.234   8.242  31.970  1.00  0.00     0.000 C 
BRANCH   9  10
ATOM     10  C   UNL     1      31.948   7.575  33.151  1.00  0.00     0.004 C 
BRANCH  10  11
ATOM     11  C   UNL     1      30.939   7.040  34.174  1.00  0.00     0.027 C 
BRANCH  11  12
ATOM     12  C   UNL     1      31.523   7.023  35.559  1.00  0.00    -0.035 C 
ATOM     13  C   UNL     1      30.848   6.528  36.601  1.00  0.00     0.004 C 
ENDBRANCH  11  12
ENDBRANCH  10  11
ENDBRANCH   9  10
ENDBRANCH   8   9
ENDBRANCH   1   8
TORSDOF 10
ENDMDL
MODEL 9
REMARK VINA RESULT:    -3.822      1.125      2.501
REMARK INTER + INTRA:          -7.246
REMARK INTER:                  -5.859
REMARK INTRA:                  -1.388
REMARK UNBOUND:                -1.191
REMARK SMILES C=CCCCCCCCCCCC
REMARK SMILES IDX 7 1 8 2 9 3 10 4 11 5 12 6 13 7 6 8 5 9 4 10 3 11 2 12 1 13
REMARK H PARENT
REMARK Flexibility Score: inf
ROOT
ATOM      1  C   UNL     1      32.333  11.299  33.055  1.00  0.00     0.000 C 
ENDROOT
BRANCH   1   2
ATOM      2  C   UNL     1      32.205  12.229  31.839  1.00  0.00     0.000 C 
BRANCH   2   3
ATOM      3  C   UNL     1      32.856  11.644  30.575  1.00  0.00    -0.000 C 
BRANCH   3   4
ATOM      4  C   UNL     1      31.905  11.736  29.375  1.00  0.00    -0.000 C 
BRANCH   4   5
ATOM      5  C   UNL     1      31.805  10.387  28.648  1.00  0.00    -0.000 C 
BRANCH   5   6
ATOM      6  C   UNL     1      31.200   9.285  29.529  1.00  0.00    -0.003 C 
ATOM      7  C   UNL     1      29.794   9.627  30.021  1.00  0.00     0.004 C 
ENDBRANCH   5   6
ENDBRANCH   4   5
ENDBRANCH   3   4
ENDBRANCH   2   3
ENDBRANCH   1   2
BRANCH   1   8
ATOM      8  C   UNL     1      32.975   9.949  32.705  1.00  0.00     0.000 C 
BRANCH   8   9
ATOM      9  C   UNL     1      32.044   8.787  33.072  1.00  0.00     0.000 C 
BRANCH   9  10
ATOM     10  C   UNL     1      31.083   9.183  34.199  1.00  0.00     0.004 C 
BRANCH  10  11
ATOM     11  C   UNL     1      31.183   8.207  35.377  1.00  0.00     0.027 C 
BRANCH  11  12
ATOM     12  C   UNL     1      31.323   8.940  36.683  1.00  0.00    -0.035 C 
ATOM     13  C   UNL     1      31.778  10.195  36.740  1.00  0.00     0.004 C 
ENDBRANCH  11  12
ENDBRANCH  10  11
ENDBRANCH   9  10
ENDBRANCH   8   9
ENDBRANCH   1   8
TORSDOF 10
ENDMDL
