MODEL 1
REMARK VINA RESULT:     0.758      0.000      0.000
REMARK INTER + INTRA:           3.452
REMARK INTER:                   1.312
REMARK INTRA:                   2.140
REMARK UNBOUND:                 2.140
REMARK SMILES OC[C@@H]1O[C@H](O[C@H]2[C@@H](O)[C@@H](O)[C@H](O)O[C@@H]2CO)[C@@H](O)[C@H](O)[C@H]1O[C@H]1O[C@H](CO)[C@H](O)[C@@H](O)[C@H]1O
REMARK SMILES IDX 22 1 3 2 4 3 5 4 18 5 20 6 23 7 24 8 26 9 29 10 25 11 31 12
REMARK SMILES IDX 33 13 27 14 28 15 30 17 32 19 34 21 2 23 1 24 21 26 19 28
REMARK SMILES IDX 6 30 7 31 15 32 8 33 14 34 10 35 12 36 16 37 17 38 9 40
REMARK SMILES IDX 11 42 13 44
REMARK H PARENT 28 16 30 18 32 20 34 22 1 25 21 27 19 29 17 39 9 41 11 43
REMARK H PARENT 13 45
REMARK Flexibility Score: inf
ROOT
ATOM      1  C   UNL     1      -4.013   0.351 -18.878  1.00  0.00     0.184 C 
ATOM      2  C   UNL     1      -5.020   0.009 -17.745  1.00  0.00     0.178 C 
ATOM      3  O   UNL     1      -5.153   1.046 -16.772  1.00  0.00    -0.341 OA
ATOM      4  C   UNL     1      -3.980   1.829 -16.549  1.00  0.00     0.282 C 
ATOM      5  C   UNL     1      -2.665   1.029 -16.815  1.00  0.00     0.202 C 
ATOM      6  C   UNL     1      -2.606   0.542 -18.273  1.00  0.00     0.180 C 
ENDROOT
BRANCH   1   7
ATOM      7  O   UNL     1      -3.934  -0.719 -19.815  1.00  0.00    -0.341 OA
BRANCH   7   8
ATOM      8  C   UNL     1      -4.971  -1.671 -19.635  1.00  0.00     0.282 C 
ATOM      9  C   UNL     1      -6.243  -3.346 -20.712  1.00  0.00     0.178 C 
ATOM     10  C   UNL     1      -6.038  -4.353 -19.547  1.00  0.00     0.177 C 
ATOM     11  O   UNL     1      -5.151  -2.436 -20.823  1.00  0.00    -0.341 OA
ATOM     12  C   UNL     1      -5.677  -3.635 -18.237  1.00  0.00     0.179 C 
ATOM     13  C   UNL     1      -4.572  -2.594 -18.469  1.00  0.00     0.202 C 
BRANCH   9  14
ATOM     14  C   UNL     1      -7.611  -2.625 -20.687  1.00  0.00     0.191 C 
BRANCH  14  15
ATOM     15  O   UNL     1      -7.510  -1.430 -21.405  1.00  0.00    -0.394 OA
ATOM     16  H   UNL     1      -8.246  -1.447 -22.070  1.00  0.00     0.210 HD
ENDBRANCH  14  15
ENDBRANCH   9  14
BRANCH  10  17
ATOM     17  O   UNL     1      -7.194  -5.129 -19.339  1.00  0.00    -0.387 OA
ATOM     18  H   UNL     1      -6.966  -6.058 -19.616  1.00  0.00     0.211 HD
ENDBRANCH  10  17
BRANCH  12  19
ATOM     19  O   UNL     1      -5.235  -4.587 -17.303  1.00  0.00    -0.387 OA
ATOM     20  H   UNL     1      -4.963  -4.087 -16.491  1.00  0.00     0.211 HD
ENDBRANCH  12  19
BRANCH  13  21
ATOM     21  O   UNL     1      -3.361  -3.251 -18.754  1.00  0.00    -0.385 OA
ATOM     22  H   UNL     1      -3.549  -3.928 -19.455  1.00  0.00     0.211 HD
ENDBRANCH  13  21
ENDBRANCH   7   8
ENDBRANCH   1   7
BRANCH   2  23
ATOM     23  C   UNL     1      -6.417  -0.290 -18.310  1.00  0.00     0.191 C 
BRANCH  23  24
ATOM     24  O   UNL     1      -6.724   0.598 -19.350  1.00  0.00    -0.394 OA
ATOM     25  H   UNL     1      -6.519   0.129 -20.203  1.00  0.00     0.210 HD
ENDBRANCH  23  24
ENDBRANCH   2  23
BRANCH   6  26
ATOM     26  O   UNL     1      -1.875   1.440 -19.068  1.00  0.00    -0.387 OA
ATOM     27  H   UNL     1      -1.567   2.164 -18.456  1.00  0.00     0.211 HD
ENDBRANCH   6  26
BRANCH   5  28
ATOM     28  O   UNL     1      -2.620  -0.086 -15.958  1.00  0.00    -0.385 OA
ATOM     29  H   UNL     1      -3.530  -0.199 -15.578  1.00  0.00     0.211 HD
ENDBRANCH   5  28
BRANCH   4  30
ATOM     30  O   UNL     1      -4.114   3.018 -17.319  1.00  0.00    -0.341 OA
BRANCH  30  31
ATOM     31  C   UNL     1      -3.513   4.180 -16.759  1.00  0.00     0.184 C 
ATOM     32  C   UNL     1      -4.557   5.103 -16.052  1.00  0.00     0.178 C 
ATOM     33  C   UNL     1      -2.872   4.972 -17.921  1.00  0.00     0.180 C 
ATOM     34  O   UNL     1      -3.926   6.289 -15.580  1.00  0.00    -0.342 OA
ATOM     35  C   UNL     1      -2.320   6.309 -17.418  1.00  0.00     0.201 C 
ATOM     36  C   UNL     1      -3.437   7.069 -16.659  1.00  0.00     0.279 C 
BRANCH  32  37
ATOM     37  C   UNL     1      -5.237   4.448 -14.844  1.00  0.00     0.191 C 
BRANCH  37  38
ATOM     38  O   UNL     1      -6.061   5.372 -14.190  1.00  0.00    -0.394 OA
ATOM     39  H   UNL     1      -6.990   5.086 -14.374  1.00  0.00     0.210 HD
ENDBRANCH  37  38
ENDBRANCH  32  37
BRANCH  33  40
ATOM     40  O   UNL     1      -3.819   5.210 -18.935  1.00  0.00    -0.387 OA
ATOM     41  H   UNL     1      -4.098   4.319 -19.276  1.00  0.00     0.211 HD
ENDBRANCH  33  40
BRANCH  35  42
ATOM     42  O   UNL     1      -1.875   7.083 -18.506  1.00  0.00    -0.385 OA
ATOM     43  H   UNL     1      -2.273   6.686 -19.328  1.00  0.00     0.211 HD
ENDBRANCH  35  42
BRANCH  36  44
ATOM     44  O   UNL     1      -2.945   8.282 -16.151  1.00  0.00    -0.366 OA
ATOM     45  H   UNL     1      -2.560   8.791 -16.914  1.00  0.00     0.213 HD
ENDBRANCH  36  44
ENDBRANCH  30  31
ENDBRANCH   4  30
TORSDOF 18
ENDMDL
MODEL 2
REMARK VINA RESULT:     0.813     15.536     18.181
REMARK INTER + INTRA:           3.548
REMARK INTER:                   3.172
REMARK INTRA:                   0.376
REMARK UNBOUND:                 2.140
REMARK SMILES OC[C@@H]1O[C@H](O[C@H]2[C@@H](O)[C@@H](O)[C@H](O)O[C@@H]2CO)[C@@H](O)[C@H](O)[C@H]1O[C@H]1O[C@H](CO)[C@H](O)[C@@H](O)[C@H]1O
REMARK SMILES IDX 22 1 3 2 4 3 5 4 18 5 20 6 23 7 24 8 26 9 29 10 25 11 31 12
REMARK SMILES IDX 33 13 27 14 28 15 30 17 32 19 34 21 2 23 1 24 21 26 19 28
REMARK SMILES IDX 6 30 7 31 15 32 8 33 14 34 10 35 12 36 16 37 17 38 9 40
REMARK SMILES IDX 11 42 13 44
REMARK H PARENT 28 16 30 18 32 20 34 22 1 25 21 27 19 29 17 39 9 41 11 43
REMARK H PARENT 13 45
REMARK Flexibility Score: inf
ROOT
ATOM      1  C   UNL     1      -7.948  -6.502  -3.195  1.00  0.00     0.184 C 
ATOM      2  C   UNL     1      -8.536  -5.201  -3.807  1.00  0.00     0.178 C 
ATOM      3  O   UNL     1      -9.958  -5.233  -3.948  1.00  0.00    -0.341 OA
ATOM      4  C   UNL     1     -10.518  -6.523  -4.196  1.00  0.00     0.282 C 
ATOM      5  C   UNL     1      -9.532  -7.471  -4.950  1.00  0.00     0.202 C 
ATOM      6  C   UNL     1      -8.249  -7.691  -4.131  1.00  0.00     0.180 C 
ENDROOT
BRANCH   1   7
ATOM      7  O   UNL     1      -6.531  -6.400  -3.075  1.00  0.00    -0.341 OA
BRANCH   7   8
ATOM      8  C   UNL     1      -5.857  -7.455  -3.742  1.00  0.00     0.282 C 
ATOM      9  C   UNL     1      -4.955  -8.144  -5.815  1.00  0.00     0.178 C 
ATOM     10  C   UNL     1      -3.625  -8.613  -5.163  1.00  0.00     0.177 C 
ATOM     11  O   UNL     1      -5.556  -7.079  -5.084  1.00  0.00    -0.341 OA
ATOM     12  C   UNL     1      -3.802  -8.898  -3.663  1.00  0.00     0.179 C 
ATOM     13  C   UNL     1      -4.557  -7.751  -2.974  1.00  0.00     0.202 C 
BRANCH   9  14
ATOM     14  C   UNL     1      -5.950  -9.291  -6.111  1.00  0.00     0.191 C 
BRANCH  14  15
ATOM     15  O   UNL     1      -5.606  -9.891  -7.326  1.00  0.00    -0.394 OA
ATOM     16  H   UNL     1      -5.471  -9.147  -7.969  1.00  0.00     0.210 HD
ENDBRANCH  14  15
ENDBRANCH   9  14
BRANCH  10  17
ATOM     17  O   UNL     1      -3.134  -9.773  -5.792  1.00  0.00    -0.387 OA
ATOM     18  H   UNL     1      -2.483 -10.185  -5.162  1.00  0.00     0.211 HD
ENDBRANCH  10  17
BRANCH  12  19
ATOM     19  O   UNL     1      -2.533  -9.043  -3.075  1.00  0.00    -0.387 OA
ATOM     20  H   UNL     1      -2.019  -8.226  -3.299  1.00  0.00     0.211 HD
ENDBRANCH  12  19
BRANCH  13  21
ATOM     21  O   UNL     1      -3.738  -6.607  -2.933  1.00  0.00    -0.385 OA
ATOM     22  H   UNL     1      -2.856  -6.861  -3.310  1.00  0.00     0.211 HD
ENDBRANCH  13  21
ENDBRANCH   7   8
ENDBRANCH   1   7
BRANCH   2  23
ATOM     23  C   UNL     1      -8.174  -3.971  -2.960  1.00  0.00     0.191 C 
BRANCH  23  24
ATOM     24  O   UNL     1      -6.971  -3.407  -3.406  1.00  0.00    -0.394 OA
ATOM     25  H   UNL     1      -7.109  -2.423  -3.447  1.00  0.00     0.210 HD
ENDBRANCH  23  24
ENDBRANCH   2  23
BRANCH   6  26
ATOM     26  O   UNL     1      -8.340  -8.870  -3.372  1.00  0.00    -0.387 OA
ATOM     27  H   UNL     1      -7.814  -9.558  -3.866  1.00  0.00     0.211 HD
ENDBRANCH   6  26
BRANCH   5  28
ATOM     28  O   UNL     1      -9.191  -6.893  -6.188  1.00  0.00    -0.385 OA
ATOM     29  H   UNL     1      -9.164  -7.627  -6.855  1.00  0.00     0.211 HD
ENDBRANCH   5  28
BRANCH   4  30
ATOM     30  O   UNL     1     -10.984  -7.027  -2.949  1.00  0.00    -0.341 OA
BRANCH  30  31
ATOM     31  C   UNL     1     -12.382  -7.280  -2.876  1.00  0.00     0.184 C 
ATOM     32  C   UNL     1     -12.774  -8.631  -3.556  1.00  0.00     0.178 C 
ATOM     33  C   UNL     1     -13.097  -6.132  -3.625  1.00  0.00     0.180 C 
ATOM     34  O   UNL     1     -14.187  -8.803  -3.530  1.00  0.00    -0.342 OA
ATOM     35  C   UNL     1     -14.602  -6.403  -3.708  1.00  0.00     0.201 C 
ATOM     36  C   UNL     1     -14.834  -7.812  -4.313  1.00  0.00     0.279 C 
BRANCH  32  37
ATOM     37  C   UNL     1     -12.163  -9.861  -2.875  1.00  0.00     0.191 C 
BRANCH  37  38
ATOM     38  O   UNL     1     -13.028 -10.956  -2.982  1.00  0.00    -0.394 OA
ATOM     39  H   UNL     1     -12.921 -11.470  -2.143  1.00  0.00     0.210 HD
ENDBRANCH  37  38
ENDBRANCH  32  37
BRANCH  33  40
ATOM     40  O   UNL     1     -12.575  -5.993  -4.925  1.00  0.00    -0.387 OA
ATOM     41  H   UNL     1     -13.211  -6.451  -5.536  1.00  0.00     0.211 HD
ENDBRANCH  33  40
BRANCH  35  42
ATOM     42  O   UNL     1     -15.219  -5.432  -4.519  1.00  0.00    -0.385 OA
ATOM     43  H   UNL     1     -15.350  -4.622  -3.955  1.00  0.00     0.211 HD
ENDBRANCH  35  42
BRANCH  36  44
ATOM     44  O   UNL     1     -16.207  -8.102  -4.363  1.00  0.00    -0.366 OA
ATOM     45  H   UNL     1     -16.336  -8.820  -5.039  1.00  0.00     0.213 HD
ENDBRANCH  36  44
ENDBRANCH  30  31
ENDBRANCH   4  30
TORSDOF 18
ENDMDL
MODEL 3
REMARK VINA RESULT:     1.574      1.284      2.567
REMARK INTER + INTRA:           4.865
REMARK INTER:                   5.791
REMARK INTRA:                  -0.926
REMARK UNBOUND:                 2.140
REMARK SMILES OC[C@@H]1O[C@H](O[C@H]2[C@@H](O)[C@@H](O)[C@H](O)O[C@@H]2CO)[C@@H](O)[C@H](O)[C@H]1O[C@H]1O[C@H](CO)[C@H](O)[C@@H](O)[C@H]1O
REMARK SMILES IDX 22 1 3 2 4 3 5 4 18 5 20 6 23 7 24 8 26 9 29 10 25 11 31 12
REMARK SMILES IDX 33 13 27 14 28 15 30 17 32 19 34 21 2 23 1 24 21 26 19 28
REMARK SMILES IDX 6 30 7 31 15 32 8 33 14 34 10 35 12 36 16 37 17 38 9 40
REMARK SMILES IDX 11 42 13 44
REMARK H PARENT 28 16 30 18 32 20 34 22 1 25 21 27 19 29 17 39 9 41 11 43
REMARK H PARENT 13 45
REMARK Flexibility Score: inf
ROOT
ATOM      1  C   UNL     1      -5.152   0.580 -17.440  1.00  0.00     0.184 C 
ATOM      2  C   UNL     1      -4.134   0.424 -16.276  1.00  0.00     0.178 C 
ATOM      3  O   UNL     1      -3.267   1.550 -16.127  1.00  0.00    -0.341 OA
ATOM      4  C   UNL     1      -2.956   2.246 -17.334  1.00  0.00     0.282 C 
ATOM      5  C   UNL     1      -2.992   1.317 -18.590  1.00  0.00     0.202 C 
ATOM      6  C   UNL     1      -4.389   0.701 -18.776  1.00  0.00     0.180 C 
ENDROOT
BRANCH   1   7
ATOM      7  O   UNL     1      -5.988  -0.571 -17.528  1.00  0.00    -0.341 OA
BRANCH   7   8
ATOM      8  C   UNL     1      -5.669  -1.385 -18.645  1.00  0.00     0.282 C 
ATOM      9  C   UNL     1      -5.114  -3.581 -19.320  1.00  0.00     0.178 C 
ATOM     10  C   UNL     1      -6.142  -3.561 -20.484  1.00  0.00     0.177 C 
ATOM     11  O   UNL     1      -5.521  -2.744 -18.241  1.00  0.00    -0.341 OA
ATOM     12  C   UNL     1      -6.497  -2.123 -20.899  1.00  0.00     0.179 C 
ATOM     13  C   UNL     1      -6.812  -1.261 -19.667  1.00  0.00     0.202 C 
BRANCH   9  14
ATOM     14  C   UNL     1      -3.657  -3.308 -19.761  1.00  0.00     0.191 C 
BRANCH  14  15
ATOM     15  O   UNL     1      -3.001  -2.594 -18.754  1.00  0.00    -0.394 OA
ATOM     16  H   UNL     1      -3.579  -1.813 -18.551  1.00  0.00     0.210 HD
ENDBRANCH  14  15
ENDBRANCH   9  14
BRANCH  10  17
ATOM     17  O   UNL     1      -5.647  -4.250 -21.608  1.00  0.00    -0.387 OA
ATOM     18  H   UNL     1      -5.741  -3.634 -22.384  1.00  0.00     0.211 HD
ENDBRANCH  10  17
BRANCH  12  19
ATOM     19  O   UNL     1      -7.618  -2.159 -21.746  1.00  0.00    -0.387 OA
ATOM     20  H   UNL     1      -7.920  -3.102 -21.781  1.00  0.00     0.211 HD
ENDBRANCH  12  19
BRANCH  13  21
ATOM     21  O   UNL     1      -8.028  -1.683 -19.098  1.00  0.00    -0.385 OA
ATOM     22  H   UNL     1      -7.971  -1.519 -18.121  1.00  0.00     0.211 HD
ENDBRANCH  13  21
ENDBRANCH   7   8
ENDBRANCH   1   7
BRANCH   2  23
ATOM     23  C   UNL     1      -4.848   0.198 -14.935  1.00  0.00     0.191 C 
BRANCH  23  24
ATOM     24  O   UNL     1      -6.064   0.893 -14.904  1.00  0.00    -0.394 OA
ATOM     25  H   UNL     1      -6.136   1.393 -15.761  1.00  0.00     0.210 HD
ENDBRANCH  23  24
ENDBRANCH   2  23
BRANCH   6  26
ATOM     26  O   UNL     1      -5.151   1.461 -19.679  1.00  0.00    -0.387 OA
ATOM     27  H   UNL     1      -6.043   1.587 -19.252  1.00  0.00     0.211 HD
ENDBRANCH   6  26
BRANCH   5  28
ATOM     28  O   UNL     1      -2.054   0.280 -18.425  1.00  0.00    -0.385 OA
ATOM     29  H   UNL     1      -2.376  -0.492 -18.958  1.00  0.00     0.211 HD
ENDBRANCH   5  28
BRANCH   4  30
ATOM     30  O   UNL     1      -3.825   3.371 -17.408  1.00  0.00    -0.341 OA
BRANCH  30  31
ATOM     31  C   UNL     1      -3.326   4.567 -16.822  1.00  0.00     0.184 C 
ATOM     32  C   UNL     1      -4.451   5.400 -16.127  1.00  0.00     0.178 C 
ATOM     33  C   UNL     1      -2.722   5.421 -17.962  1.00  0.00     0.180 C 
ATOM     34  O   UNL     1      -3.922   6.623 -15.628  1.00  0.00    -0.342 OA
ATOM     35  C   UNL     1      -2.284   6.789 -17.431  1.00  0.00     0.201 C 
ATOM     36  C   UNL     1      -3.472   7.453 -16.688  1.00  0.00     0.279 C 
BRANCH  32  37
ATOM     37  C   UNL     1      -5.104   4.680 -14.942  1.00  0.00     0.191 C 
BRANCH  37  38
ATOM     38  O   UNL     1      -5.849   5.582 -14.175  1.00  0.00    -0.394 OA
ATOM     39  H   UNL     1      -6.796   5.313 -14.281  1.00  0.00     0.210 HD
ENDBRANCH  37  38
ENDBRANCH  32  37
BRANCH  33  40
ATOM     40  O   UNL     1      -3.664   5.599 -18.993  1.00  0.00    -0.387 OA
ATOM     41  H   UNL     1      -3.404   4.978 -19.724  1.00  0.00     0.211 HD
ENDBRANCH  33  40
BRANCH  35  42
ATOM     42  O   UNL     1      -1.877   7.609 -18.501  1.00  0.00    -0.385 OA
ATOM     43  H   UNL     1      -0.890   7.714 -18.428  1.00  0.00     0.211 HD
ENDBRANCH  35  42
BRANCH  36  44
ATOM     44  O   UNL     1      -3.083   8.693 -16.156  1.00  0.00    -0.366 OA
ATOM     45  H   UNL     1      -3.001   8.582 -15.172  1.00  0.00     0.213 HD
ENDBRANCH  36  44
ENDBRANCH  30  31
ENDBRANCH   4  30
TORSDOF 18
ENDMDL
MODEL 4
REMARK VINA RESULT:     1.924      3.282      9.718
REMARK INTER + INTRA:           5.470
REMARK INTER:                   4.474
REMARK INTRA:                   0.995
REMARK UNBOUND:                 2.140
REMARK SMILES OC[C@@H]1O[C@H](O[C@H]2[C@@H](O)[C@@H](O)[C@H](O)O[C@@H]2CO)[C@@H](O)[C@H](O)[C@H]1O[C@H]1O[C@H](CO)[C@H](O)[C@@H](O)[C@H]1O
REMARK SMILES IDX 22 1 3 2 4 3 5 4 18 5 20 6 23 7 24 8 26 9 29 10 25 11 31 12
REMARK SMILES IDX 33 13 27 14 28 15 30 17 32 19 34 21 2 23 1 24 21 26 19 28
REMARK SMILES IDX 6 30 7 31 15 32 8 33 14 34 10 35 12 36 16 37 17 38 9 40
REMARK SMILES IDX 11 42 13 44
REMARK H PARENT 28 16 30 18 32 20 34 22 1 25 21 27 19 29 17 39 9 41 11 43
REMARK H PARENT 13 45
REMARK Flexibility Score: inf
ROOT
ATOM      1  C   UNL     1      -4.250   6.915 -14.575  1.00  0.00     0.184 C 
ATOM      2  C   UNL     1      -5.201   6.581 -15.757  1.00  0.00     0.178 C 
ATOM      3  O   UNL     1      -4.619   5.704 -16.724  1.00  0.00    -0.341 OA
ATOM      4  C   UNL     1      -3.205   5.823 -16.882  1.00  0.00     0.282 C 
ATOM      5  C   UNL     1      -2.683   7.261 -16.565  1.00  0.00     0.202 C 
ATOM      6  C   UNL     1      -3.004   7.651 -15.112  1.00  0.00     0.180 C 
ENDROOT
BRANCH   1   7
ATOM      7  O   UNL     1      -4.893   7.786 -13.648  1.00  0.00    -0.341 OA
BRANCH   7   8
ATOM      8  C   UNL     1      -4.483   7.546 -12.311  1.00  0.00     0.282 C 
ATOM      9  C   UNL     1      -3.522   8.541 -10.395  1.00  0.00     0.178 C 
ATOM     10  C   UNL     1      -4.606   7.946  -9.453  1.00  0.00     0.177 C 
ATOM     11  O   UNL     1      -4.025   8.755 -11.711  1.00  0.00    -0.341 OA
ATOM     12  C   UNL     1      -5.284   6.716 -10.079  1.00  0.00     0.179 C 
ATOM     13  C   UNL     1      -5.692   6.997 -11.533  1.00  0.00     0.202 C 
BRANCH   9  14
ATOM     14  C   UNL     1      -2.188   7.757 -10.393  1.00  0.00     0.191 C 
BRANCH  14  15
ATOM     15  O   UNL     1      -2.124   6.964 -11.542  1.00  0.00    -0.394 OA
ATOM     16  H   UNL     1      -2.606   7.467 -12.249  1.00  0.00     0.210 HD
ENDBRANCH  14  15
ENDBRANCH   9  14
BRANCH  10  17
ATOM     17  O   UNL     1      -4.052   7.580  -8.212  1.00  0.00    -0.387 OA
ATOM     18  H   UNL     1      -3.071   7.485  -8.355  1.00  0.00     0.211 HD
ENDBRANCH  10  17
BRANCH  12  19
ATOM     19  O   UNL     1      -6.425   6.394  -9.325  1.00  0.00    -0.387 OA
ATOM     20  H   UNL     1      -7.054   7.155  -9.419  1.00  0.00     0.211 HD
ENDBRANCH  12  19
BRANCH  13  21
ATOM     21  O   UNL     1      -6.751   7.924 -11.552  1.00  0.00    -0.385 OA
ATOM     22  H   UNL     1      -7.338   7.687 -12.316  1.00  0.00     0.211 HD
ENDBRANCH  13  21
ENDBRANCH   7   8
ENDBRANCH   1   7
BRANCH   2  23
ATOM     23  C   UNL     1      -6.504   5.937 -15.261  1.00  0.00     0.191 C 
BRANCH  23  24
ATOM     24  O   UNL     1      -7.181   6.807 -14.395  1.00  0.00    -0.394 OA
ATOM     25  H   UNL     1      -7.676   7.456 -14.963  1.00  0.00     0.210 HD
ENDBRANCH  23  24
ENDBRANCH   2  23
BRANCH   6  26
ATOM     26  O   UNL     1      -1.909   7.385 -14.273  1.00  0.00    -0.387 OA
ATOM     27  H   UNL     1      -1.998   6.432 -13.995  1.00  0.00     0.211 HD
ENDBRANCH   6  26
BRANCH   5  28
ATOM     28  O   UNL     1      -3.304   8.180 -17.432  1.00  0.00    -0.385 OA
ATOM     29  H   UNL     1      -3.210   7.821 -18.353  1.00  0.00     0.211 HD
ENDBRANCH   5  28
BRANCH   4  30
ATOM     30  O   UNL     1      -2.605   4.793 -16.106  1.00  0.00    -0.341 OA
BRANCH  30  31
ATOM     31  C   UNL     1      -2.361   3.571 -16.793  1.00  0.00     0.184 C 
ATOM     32  C   UNL     1      -2.730   3.663 -18.309  1.00  0.00     0.178 C 
ATOM     33  C   UNL     1      -3.253   2.490 -16.141  1.00  0.00     0.180 C 
ATOM     34  O   UNL     1      -2.548   2.399 -18.938  1.00  0.00    -0.342 OA
ATOM     35  C   UNL     1      -3.149   1.172 -16.914  1.00  0.00     0.201 C 
ATOM     36  C   UNL     1      -3.447   1.435 -18.412  1.00  0.00     0.279 C 
BRANCH  32  37
ATOM     37  C   UNL     1      -1.881   4.674 -19.087  1.00  0.00     0.191 C 
BRANCH  37  38
ATOM     38  O   UNL     1      -2.526   5.915 -19.136  1.00  0.00    -0.394 OA
ATOM     39  H   UNL     1      -2.707   6.165 -18.196  1.00  0.00     0.210 HD
ENDBRANCH  37  38
ENDBRANCH  32  37
BRANCH  33  40
ATOM     40  O   UNL     1      -4.596   2.911 -16.113  1.00  0.00    -0.387 OA
ATOM     41  H   UNL     1      -4.698   3.477 -15.303  1.00  0.00     0.211 HD
ENDBRANCH  33  40
BRANCH  35  42
ATOM     42  O   UNL     1      -4.075   0.243 -16.403  1.00  0.00    -0.385 OA
ATOM     43  H   UNL     1      -3.737  -0.664 -16.636  1.00  0.00     0.211 HD
ENDBRANCH  35  42
BRANCH  36  44
ATOM     44  O   UNL     1      -3.319   0.248 -19.152  1.00  0.00    -0.366 OA
ATOM     45  H   UNL     1      -3.196   0.503 -20.105  1.00  0.00     0.213 HD
ENDBRANCH  36  44
ENDBRANCH  30  31
ENDBRANCH   4  30
TORSDOF 18
ENDMDL
MODEL 5
REMARK VINA RESULT:     2.151      5.953      9.760
REMARK INTER + INTRA:           5.864
REMARK INTER:                   5.627
REMARK INTRA:                   0.237
REMARK UNBOUND:                 2.140
REMARK SMILES OC[C@@H]1O[C@H](O[C@H]2[C@@H](O)[C@@H](O)[C@H](O)O[C@@H]2CO)[C@@H](O)[C@H](O)[C@H]1O[C@H]1O[C@H](CO)[C@H](O)[C@@H](O)[C@H]1O
REMARK SMILES IDX 22 1 3 2 4 3 5 4 18 5 20 6 23 7 24 8 26 9 29 10 25 11 31 12
REMARK SMILES IDX 33 13 27 14 28 15 30 17 32 19 34 21 2 23 1 24 21 26 19 28
REMARK SMILES IDX 6 30 7 31 15 32 8 33 14 34 10 35 12 36 16 37 17 38 9 40
REMARK SMILES IDX 11 42 13 44
REMARK H PARENT 28 16 30 18 32 20 34 22 1 25 21 27 19 29 17 39 9 41 11 43
REMARK H PARENT 13 45
REMARK Flexibility Score: inf
ROOT
ATOM      1  C   UNL     1      -5.883   8.118 -12.584  1.00  0.00     0.184 C 
ATOM      2  C   UNL     1      -4.582   7.741 -11.824  1.00  0.00     0.178 C 
ATOM      3  O   UNL     1      -3.563   7.210 -12.673  1.00  0.00    -0.341 OA
ATOM      4  C   UNL     1      -4.031   6.481 -13.808  1.00  0.00     0.282 C 
ATOM      5  C   UNL     1      -5.414   5.801 -13.556  1.00  0.00     0.202 C 
ATOM      6  C   UNL     1      -6.488   6.851 -13.225  1.00  0.00     0.180 C 
ENDROOT
BRANCH   1   7
ATOM      7  O   UNL     1      -6.853   8.645 -11.682  1.00  0.00    -0.341 OA
BRANCH   7   8
ATOM      8  C   UNL     1      -7.848   7.692 -11.343  1.00  0.00     0.282 C 
ATOM      9  C   UNL     1      -8.252   5.394 -10.973  1.00  0.00     0.178 C 
ATOM     10  C   UNL     1      -9.025   5.667  -9.654  1.00  0.00     0.177 C 
ATOM     11  O   UNL     1      -7.270   6.395 -11.229  1.00  0.00    -0.341 OA
ATOM     12  C   UNL     1      -9.562   7.107  -9.603  1.00  0.00     0.179 C 
ATOM     13  C   UNL     1      -8.471   8.112 -10.000  1.00  0.00     0.202 C 
BRANCH   9  14
ATOM     14  C   UNL     1      -9.165   5.137 -12.196  1.00  0.00     0.191 C 
BRANCH  14  15
ATOM     15  O   UNL     1      -8.437   4.449 -13.172  1.00  0.00    -0.394 OA
ATOM     16  H   UNL     1      -7.766   3.907 -12.681  1.00  0.00     0.210 HD
ENDBRANCH  14  15
ENDBRANCH   9  14
BRANCH  10  17
ATOM     17  O   UNL     1     -10.102   4.773  -9.504  1.00  0.00    -0.387 OA
ATOM     18  H   UNL     1     -10.483   4.936  -8.598  1.00  0.00     0.211 HD
ENDBRANCH  10  17
BRANCH  12  19
ATOM     19  O   UNL     1     -10.000   7.382  -8.296  1.00  0.00    -0.387 OA
ATOM     20  H   UNL     1     -10.093   8.367  -8.227  1.00  0.00     0.211 HD
ENDBRANCH  12  19
BRANCH  13  21
ATOM     21  O   UNL     1      -7.488   8.159  -8.995  1.00  0.00    -0.385 OA
ATOM     22  H   UNL     1      -7.311   9.115  -8.797  1.00  0.00     0.211 HD
ENDBRANCH  13  21
ENDBRANCH   7   8
ENDBRANCH   1   7
BRANCH   2  23
ATOM     23  C   UNL     1      -3.996   8.952 -11.083  1.00  0.00     0.191 C 
BRANCH  23  24
ATOM     24  O   UNL     1      -4.618   9.111  -9.837  1.00  0.00    -0.394 OA
ATOM     25  H   UNL     1      -4.370  10.014  -9.501  1.00  0.00     0.210 HD
ENDBRANCH  23  24
ENDBRANCH   2  23
BRANCH   6  26
ATOM     26  O   UNL     1      -7.204   7.210 -14.380  1.00  0.00    -0.387 OA
ATOM     27  H   UNL     1      -7.876   6.488 -14.524  1.00  0.00     0.211 HD
ENDBRANCH   6  26
BRANCH   5  28
ATOM     28  O   UNL     1      -5.300   4.908 -12.474  1.00  0.00    -0.385 OA
ATOM     29  H   UNL     1      -5.524   4.004 -12.817  1.00  0.00     0.211 HD
ENDBRANCH   5  28
BRANCH   4  30
ATOM     30  O   UNL     1      -4.003   7.369 -14.920  1.00  0.00    -0.341 OA
BRANCH  30  31
ATOM     31  C   UNL     1      -3.240   6.926 -16.036  1.00  0.00     0.184 C 
ATOM     32  C   UNL     1      -2.812   8.107 -16.966  1.00  0.00     0.178 C 
ATOM     33  C   UNL     1      -4.134   5.964 -16.852  1.00  0.00     0.180 C 
ATOM     34  O   UNL     1      -2.124   7.610 -18.108  1.00  0.00    -0.342 OA
ATOM     35  C   UNL     1      -3.430   5.548 -18.147  1.00  0.00     0.201 C 
ATOM     36  C   UNL     1      -2.982   6.818 -18.914  1.00  0.00     0.279 C 
BRANCH  32  37
ATOM     37  C   UNL     1      -1.880   9.116 -16.286  1.00  0.00     0.191 C 
BRANCH  37  38
ATOM     38  O   UNL     1      -1.876   8.919 -14.901  1.00  0.00    -0.394 OA
ATOM     39  H   UNL     1      -2.346   9.699 -14.513  1.00  0.00     0.210 HD
ENDBRANCH  37  38
ENDBRANCH  32  37
BRANCH  33  40
ATOM     40  O   UNL     1      -5.361   6.578 -17.163  1.00  0.00    -0.387 OA
ATOM     41  H   UNL     1      -5.889   5.912 -17.677  1.00  0.00     0.211 HD
ENDBRANCH  33  40
BRANCH  35  42
ATOM     42  O   UNL     1      -4.310   4.796 -18.949  1.00  0.00    -0.385 OA
ATOM     43  H   UNL     1      -4.043   3.841 -18.856  1.00  0.00     0.211 HD
ENDBRANCH  35  42
BRANCH  36  44
ATOM     44  O   UNL     1      -2.297   6.463 -20.088  1.00  0.00    -0.366 OA
ATOM     45  H   UNL     1      -1.331   6.401 -19.862  1.00  0.00     0.213 HD
ENDBRANCH  36  44
ENDBRANCH  30  31
ENDBRANCH   4  30
TORSDOF 18
ENDMDL
MODEL 6
REMARK VINA RESULT:     2.477      3.165      9.713
REMARK INTER + INTRA:           6.428
REMARK INTER:                   2.856
REMARK INTRA:                   3.571
REMARK UNBOUND:                 2.140
REMARK SMILES OC[C@@H]1O[C@H](O[C@H]2[C@@H](O)[C@@H](O)[C@H](O)O[C@@H]2CO)[C@@H](O)[C@H](O)[C@H]1O[C@H]1O[C@H](CO)[C@H](O)[C@@H](O)[C@H]1O
REMARK SMILES IDX 22 1 3 2 4 3 5 4 18 5 20 6 23 7 24 8 26 9 29 10 25 11 31 12
REMARK SMILES IDX 33 13 27 14 28 15 30 17 32 19 34 21 2 23 1 24 21 26 19 28
REMARK SMILES IDX 6 30 7 31 15 32 8 33 14 34 10 35 12 36 16 37 17 38 9 40
REMARK SMILES IDX 11 42 13 44
REMARK H PARENT 28 16 30 18 32 20 34 22 1 25 21 27 19 29 17 39 9 41 11 43
REMARK H PARENT 13 45
REMARK Flexibility Score: inf
ROOT
ATOM      1  C   UNL     1      -5.004  -3.420 -20.257  1.00  0.00     0.184 C 
ATOM      2  C   UNL     1      -5.824  -3.344 -18.940  1.00  0.00     0.178 C 
ATOM      3  O   UNL     1      -7.006  -4.147 -18.961  1.00  0.00    -0.341 OA
ATOM      4  C   UNL     1      -7.617  -4.302 -20.242  1.00  0.00     0.282 C 
ATOM      5  C   UNL     1      -7.362  -3.079 -21.180  1.00  0.00     0.202 C 
ATOM      6  C   UNL     1      -5.857  -2.881 -21.425  1.00  0.00     0.180 C 
ENDROOT
BRANCH   1   7
ATOM      7  O   UNL     1      -3.838  -2.604 -20.167  1.00  0.00    -0.341 OA
BRANCH   7   8
ATOM      8  C   UNL     1      -4.105  -1.351 -19.557  1.00  0.00     0.282 C 
ATOM      9  C   UNL     1      -5.430  -0.250 -17.940  1.00  0.00     0.178 C 
ATOM     10  C   UNL     1      -4.202   0.472 -17.320  1.00  0.00     0.177 C 
ATOM     11  O   UNL     1      -5.070  -1.501 -18.520  1.00  0.00    -0.341 OA
ATOM     12  C   UNL     1      -3.032   0.549 -18.313  1.00  0.00     0.179 C 
ATOM     13  C   UNL     1      -2.785  -0.815 -18.975  1.00  0.00     0.202 C 
BRANCH   9  14
ATOM     14  C   UNL     1      -6.257   0.632 -18.905  1.00  0.00     0.191 C 
BRANCH  14  15
ATOM     15  O   UNL     1      -7.563   0.137 -18.968  1.00  0.00    -0.394 OA
ATOM     16  H   UNL     1      -7.932   0.222 -18.051  1.00  0.00     0.210 HD
ENDBRANCH  14  15
ENDBRANCH   9  14
BRANCH  10  17
ATOM     17  O   UNL     1      -4.537   1.776 -16.907  1.00  0.00    -0.387 OA
ATOM     18  H   UNL     1      -3.757   2.354 -17.129  1.00  0.00     0.211 HD
ENDBRANCH  10  17
BRANCH  12  19
ATOM     19  O   UNL     1      -1.875   0.951 -17.623  1.00  0.00    -0.387 OA
ATOM     20  H   UNL     1      -1.315   1.452 -18.270  1.00  0.00     0.211 HD
ENDBRANCH  12  19
BRANCH  13  21
ATOM     21  O   UNL     1      -2.267  -1.712 -18.023  1.00  0.00    -0.385 OA
ATOM     22  H   UNL     1      -1.461  -1.290 -17.626  1.00  0.00     0.211 HD
ENDBRANCH  13  21
ENDBRANCH   7   8
ENDBRANCH   1   7
BRANCH   2  23
ATOM     23  C   UNL     1      -4.982  -3.775 -17.731  1.00  0.00     0.191 C 
BRANCH  23  24
ATOM     24  O   UNL     1      -5.796  -4.355 -16.748  1.00  0.00    -0.394 OA
ATOM     25  H   UNL     1      -5.193  -4.800 -16.095  1.00  0.00     0.210 HD
ENDBRANCH  23  24
ENDBRANCH   2  23
BRANCH   6  26
ATOM     26  O   UNL     1      -5.461  -3.508 -22.619  1.00  0.00    -0.387 OA
ATOM     27  H   UNL     1      -4.594  -3.088 -22.877  1.00  0.00     0.211 HD
ENDBRANCH   6  26
BRANCH   5  28
ATOM     28  O   UNL     1      -7.884  -1.918 -20.579  1.00  0.00    -0.385 OA
ATOM     29  H   UNL     1      -8.305  -2.195 -19.725  1.00  0.00     0.211 HD
ENDBRANCH   5  28
BRANCH   4  30
ATOM     30  O   UNL     1      -7.184  -5.550 -20.768  1.00  0.00    -0.341 OA
BRANCH  30  31
ATOM     31  C   UNL     1      -8.041  -6.655 -20.505  1.00  0.00     0.184 C 
ATOM     32  C   UNL     1      -8.197  -6.931 -18.975  1.00  0.00     0.178 C 
ATOM     33  C   UNL     1      -7.401  -7.901 -21.161  1.00  0.00     0.180 C 
ATOM     34  O   UNL     1      -8.994  -8.091 -18.763  1.00  0.00    -0.342 OA
ATOM     35  C   UNL     1      -8.196  -9.160 -20.807  1.00  0.00     0.201 C 
ATOM     36  C   UNL     1      -8.350  -9.250 -19.267  1.00  0.00     0.279 C 
BRANCH  32  37
ATOM     37  C   UNL     1      -8.866  -5.783 -18.210  1.00  0.00     0.191 C 
BRANCH  37  38
ATOM     38  O   UNL     1      -8.204  -5.557 -16.998  1.00  0.00    -0.394 OA
ATOM     39  H   UNL     1      -8.494  -6.282 -16.390  1.00  0.00     0.210 HD
ENDBRANCH  37  38
ENDBRANCH  32  37
BRANCH  33  40
ATOM     40  O   UNL     1      -6.069  -8.052 -20.732  1.00  0.00    -0.387 OA
ATOM     41  H   UNL     1      -5.640  -8.692 -21.360  1.00  0.00     0.211 HD
ENDBRANCH  33  40
BRANCH  35  42
ATOM     42  O   UNL     1      -7.522 -10.301 -21.283  1.00  0.00    -0.385 OA
ATOM     43  H   UNL     1      -8.070 -10.675 -22.026  1.00  0.00     0.211 HD
ENDBRANCH  35  42
BRANCH  36  44
ATOM     44  O   UNL     1      -9.112 -10.377 -18.918  1.00  0.00    -0.366 OA
ATOM     45  H   UNL     1     -10.041 -10.067 -18.745  1.00  0.00     0.213 HD
ENDBRANCH  36  44
ENDBRANCH  30  31
ENDBRANCH   4  30
TORSDOF 18
ENDMDL
MODEL 7
REMARK VINA RESULT:     2.985      3.282      6.003
REMARK INTER + INTRA:           7.307
REMARK INTER:                   6.805
REMARK INTRA:                   0.503
REMARK UNBOUND:                 2.140
REMARK SMILES OC[C@@H]1O[C@H](O[C@H]2[C@@H](O)[C@@H](O)[C@H](O)O[C@@H]2CO)[C@@H](O)[C@H](O)[C@H]1O[C@H]1O[C@H](CO)[C@H](O)[C@@H](O)[C@H]1O
REMARK SMILES IDX 22 1 3 2 4 3 5 4 18 5 20 6 23 7 24 8 26 9 29 10 25 11 31 12
REMARK SMILES IDX 33 13 27 14 28 15 30 17 32 19 34 21 2 23 1 24 21 26 19 28
REMARK SMILES IDX 6 30 7 31 15 32 8 33 14 34 10 35 12 36 16 37 17 38 9 40
REMARK SMILES IDX 11 42 13 44
REMARK H PARENT 28 16 30 18 32 20 34 22 1 25 21 27 19 29 17 39 9 41 11 43
REMARK H PARENT 13 45
REMARK Flexibility Score: inf
ROOT
ATOM      1  C   UNL     1      -6.597  -3.313 -19.324  1.00  0.00     0.184 C 
ATOM      2  C   UNL     1      -5.172  -3.924 -19.226  1.00  0.00     0.178 C 
ATOM      3  O   UNL     1      -4.152  -3.070 -19.747  1.00  0.00    -0.341 OA
ATOM      4  C   UNL     1      -4.554  -2.223 -20.823  1.00  0.00     0.282 C 
ATOM      5  C   UNL     1      -5.709  -2.841 -21.674  1.00  0.00     0.202 C 
ATOM      6  C   UNL     1      -6.957  -3.086 -20.808  1.00  0.00     0.180 C 
ENDROOT
BRANCH   1   7
ATOM      7  O   UNL     1      -7.563  -4.210 -18.782  1.00  0.00    -0.341 OA
BRANCH   7   8
ATOM      8  C   UNL     1      -7.790  -5.329 -19.625  1.00  0.00     0.282 C 
ATOM      9  C   UNL     1      -7.876  -7.690 -19.693  1.00  0.00     0.178 C 
ATOM     10  C   UNL     1      -9.226  -7.691 -20.462  1.00  0.00     0.177 C 
ATOM     11  O   UNL     1      -7.738  -6.536 -18.868  1.00  0.00    -0.341 OA
ATOM     12  C   UNL     1      -9.459  -6.359 -21.194  1.00  0.00     0.179 C 
ATOM     13  C   UNL     1      -9.180  -5.168 -20.265  1.00  0.00     0.202 C 
BRANCH   9  14
ATOM     14  C   UNL     1      -6.639  -7.923 -20.592  1.00  0.00     0.191 C 
BRANCH  14  15
ATOM     15  O   UNL     1      -6.642  -9.249 -21.036  1.00  0.00    -0.394 OA
ATOM     16  H   UNL     1      -7.153  -9.763 -20.359  1.00  0.00     0.210 HD
ENDBRANCH  14  15
ENDBRANCH   9  14
BRANCH  10  17
ATOM     17  O   UNL     1      -9.274  -8.741 -21.398  1.00  0.00    -0.387 OA
ATOM     18  H   UNL     1      -8.983  -9.564 -20.919  1.00  0.00     0.211 HD
ENDBRANCH  10  17
BRANCH  12  19
ATOM     19  O   UNL     1     -10.794  -6.310 -21.631  1.00  0.00    -0.387 OA
ATOM     20  H   UNL     1     -11.079  -5.362 -21.574  1.00  0.00     0.211 HD
ENDBRANCH  12  19
BRANCH  13  21
ATOM     21  O   UNL     1     -10.175  -5.105 -19.272  1.00  0.00    -0.385 OA
ATOM     22  H   UNL     1     -10.784  -4.359 -19.510  1.00  0.00     0.211 HD
ENDBRANCH  13  21
ENDBRANCH   7   8
ENDBRANCH   1   7
BRANCH   2  23
ATOM     23  C   UNL     1      -4.807  -4.262 -17.773  1.00  0.00     0.191 C 
BRANCH  23  24
ATOM     24  O   UNL     1      -5.956  -4.278 -16.971  1.00  0.00    -0.394 OA
ATOM     25  H   UNL     1      -6.657  -4.774 -17.475  1.00  0.00     0.210 HD
ENDBRANCH  23  24
ENDBRANCH   2  23
BRANCH   6  26
ATOM     26  O   UNL     1      -7.852  -2.008 -20.910  1.00  0.00    -0.387 OA
ATOM     27  H   UNL     1      -8.496  -2.111 -20.156  1.00  0.00     0.211 HD
ENDBRANCH   6  26
BRANCH   5  28
ATOM     28  O   UNL     1      -5.281  -4.068 -22.214  1.00  0.00    -0.385 OA
ATOM     29  H   UNL     1      -5.366  -3.999 -23.200  1.00  0.00     0.211 HD
ENDBRANCH   5  28
BRANCH   4  30
ATOM     30  O   UNL     1      -4.848  -0.946 -20.269  1.00  0.00    -0.341 OA
BRANCH  30  31
ATOM     31  C   UNL     1      -4.920  -0.898 -18.849  1.00  0.00     0.184 C 
ATOM     32  C   UNL     1      -5.985   0.128 -18.345  1.00  0.00     0.178 C 
ATOM     33  C   UNL     1      -3.533  -0.453 -18.332  1.00  0.00     0.180 C 
ATOM     34  O   UNL     1      -5.966   0.201 -16.924  1.00  0.00    -0.342 OA
ATOM     35  C   UNL     1      -3.568  -0.246 -16.815  1.00  0.00     0.201 C 
ATOM     36  C   UNL     1      -4.728   0.718 -16.458  1.00  0.00     0.279 C 
BRANCH  32  37
ATOM     37  C   UNL     1      -7.420  -0.225 -18.754  1.00  0.00     0.191 C 
BRANCH  37  38
ATOM     38  O   UNL     1      -7.794   0.500 -19.891  1.00  0.00    -0.394 OA
ATOM     39  H   UNL     1      -8.517  -0.022 -20.321  1.00  0.00     0.210 HD
ENDBRANCH  37  38
ENDBRANCH  32  37
BRANCH  33  40
ATOM     40  O   UNL     1      -3.136   0.744 -18.958  1.00  0.00    -0.387 OA
ATOM     41  H   UNL     1      -3.965   1.174 -19.297  1.00  0.00     0.211 HD
ENDBRANCH  33  40
BRANCH  35  42
ATOM     42  O   UNL     1      -2.346   0.302 -16.378  1.00  0.00    -0.385 OA
ATOM     43  H   UNL     1      -2.047   0.942 -17.080  1.00  0.00     0.211 HD
ENDBRANCH  35  42
BRANCH  36  44
ATOM     44  O   UNL     1      -4.808   0.893 -15.067  1.00  0.00    -0.366 OA
ATOM     45  H   UNL     1      -5.762   0.787 -14.807  1.00  0.00     0.213 HD
ENDBRANCH  36  44
ENDBRANCH  30  31
ENDBRANCH   4  30
TORSDOF 18
ENDMDL
MODEL 8
REMARK VINA RESULT:     3.133      3.445      9.543
REMARK INTER + INTRA:           7.563
REMARK INTER:                   9.114
REMARK INTRA:                  -1.552
REMARK UNBOUND:                 2.140
REMARK SMILES OC[C@@H]1O[C@H](O[C@H]2[C@@H](O)[C@@H](O)[C@H](O)O[C@@H]2CO)[C@@H](O)[C@H](O)[C@H]1O[C@H]1O[C@H](CO)[C@H](O)[C@@H](O)[C@H]1O
REMARK SMILES IDX 22 1 3 2 4 3 5 4 18 5 20 6 23 7 24 8 26 9 29 10 25 11 31 12
REMARK SMILES IDX 33 13 27 14 28 15 30 17 32 19 34 21 2 23 1 24 21 26 19 28
REMARK SMILES IDX 6 30 7 31 15 32 8 33 14 34 10 35 12 36 16 37 17 38 9 40
REMARK SMILES IDX 11 42 13 44
REMARK H PARENT 28 16 30 18 32 20 34 22 1 25 21 27 19 29 17 39 9 41 11 43
REMARK H PARENT 13 45
REMARK Flexibility Score: inf
ROOT
ATOM      1  C   UNL     1      -6.123  -2.099 -20.033  1.00  0.00     0.184 C 
ATOM      2  C   UNL     1      -7.589  -1.937 -20.522  1.00  0.00     0.178 C 
ATOM      3  O   UNL     1      -8.249  -3.182 -20.757  1.00  0.00    -0.341 OA
ATOM      4  C   UNL     1      -7.406  -4.249 -21.191  1.00  0.00     0.282 C 
ATOM      5  C   UNL     1      -6.162  -3.744 -21.990  1.00  0.00     0.202 C 
ATOM      6  C   UNL     1      -5.295  -2.814 -21.122  1.00  0.00     0.180 C 
ENDROOT
BRANCH   1   7
ATOM      7  O   UNL     1      -5.527  -0.823 -19.812  1.00  0.00    -0.341 OA
BRANCH   7   8
ATOM      8  C   UNL     1      -4.590  -0.844 -18.747  1.00  0.00     0.282 C 
ATOM      9  C   UNL     1      -2.355  -0.356 -18.152  1.00  0.00     0.178 C 
ATOM     10  C   UNL     1      -2.786   0.392 -16.860  1.00  0.00     0.177 C 
ATOM     11  O   UNL     1      -3.352  -0.275 -19.167  1.00  0.00    -0.341 OA
ATOM     12  C   UNL     1      -4.191  -0.035 -16.403  1.00  0.00     0.179 C 
ATOM     13  C   UNL     1      -5.176  -0.028 -17.581  1.00  0.00     0.202 C 
BRANCH   9  14
ATOM     14  C   UNL     1      -1.876  -1.807 -17.909  1.00  0.00     0.191 C 
BRANCH  14  15
ATOM     15  O   UNL     1      -2.866  -2.692 -18.346  1.00  0.00    -0.394 OA
ATOM     16  H   UNL     1      -3.635  -2.568 -17.732  1.00  0.00     0.210 HD
ENDBRANCH  14  15
ENDBRANCH   9  14
BRANCH  10  17
ATOM     17  O   UNL     1      -1.875   0.159 -15.813  1.00  0.00    -0.387 OA
ATOM     18  H   UNL     1      -1.914   0.958 -15.219  1.00  0.00     0.211 HD
ENDBRANCH  10  17
BRANCH  12  19
ATOM     19  O   UNL     1      -4.637   0.858 -15.413  1.00  0.00    -0.387 OA
ATOM     20  H   UNL     1      -4.239   0.557 -14.556  1.00  0.00     0.211 HD
ENDBRANCH  12  19
BRANCH  13  21
ATOM     21  O   UNL     1      -5.418   1.299 -17.982  1.00  0.00    -0.385 OA
ATOM     22  H   UNL     1      -6.202   1.286 -18.590  1.00  0.00     0.211 HD
ENDBRANCH  13  21
ENDBRANCH   7   8
ENDBRANCH   1   7
BRANCH   2  23
ATOM     23  C   UNL     1      -8.429  -1.140 -19.513  1.00  0.00     0.191 C 
BRANCH  23  24
ATOM     24  O   UNL     1      -8.101   0.221 -19.571  1.00  0.00    -0.394 OA
ATOM     25  H   UNL     1      -8.027   0.463 -20.533  1.00  0.00     0.210 HD
ENDBRANCH  23  24
ENDBRANCH   2  23
BRANCH   6  26
ATOM     26  O   UNL     1      -4.250  -3.531 -20.517  1.00  0.00    -0.387 OA
ATOM     27  H   UNL     1      -4.364  -3.410 -19.534  1.00  0.00     0.211 HD
ENDBRANCH   6  26
BRANCH   5  28
ATOM     28  O   UNL     1      -6.597  -3.034 -23.125  1.00  0.00    -0.385 OA
ATOM     29  H   UNL     1      -6.701  -3.693 -23.859  1.00  0.00     0.211 HD
ENDBRANCH   5  28
BRANCH   4  30
ATOM     30  O   UNL     1      -7.094  -5.034 -20.046  1.00  0.00    -0.341 OA
BRANCH  30  31
ATOM     31  C   UNL     1      -7.961  -6.135 -19.805  1.00  0.00     0.184 C 
ATOM     32  C   UNL     1      -7.854  -6.662 -18.338  1.00  0.00     0.178 C 
ATOM     33  C   UNL     1      -7.537  -7.273 -20.762  1.00  0.00     0.180 C 
ATOM     34  O   UNL     1      -8.676  -7.811 -18.166  1.00  0.00    -0.342 OA
ATOM     35  C   UNL     1      -8.338  -8.545 -20.470  1.00  0.00     0.201 C 
ATOM     36  C   UNL     1      -8.215  -8.890 -18.963  1.00  0.00     0.279 C 
BRANCH  32  37
ATOM     37  C   UNL     1      -8.293  -5.638 -17.285  1.00  0.00     0.191 C 
BRANCH  37  38
ATOM     38  O   UNL     1      -8.781  -4.482 -17.905  1.00  0.00    -0.394 OA
ATOM     39  H   UNL     1      -9.709  -4.370 -17.581  1.00  0.00     0.210 HD
ENDBRANCH  37  38
ENDBRANCH  32  37
BRANCH  33  40
ATOM     40  O   UNL     1      -6.163  -7.544 -20.625  1.00  0.00    -0.387 OA
ATOM     41  H   UNL     1      -5.854  -7.896 -21.502  1.00  0.00     0.211 HD
ENDBRANCH  33  40
BRANCH  35  42
ATOM     42  O   UNL     1      -7.841  -9.612 -21.242  1.00  0.00    -0.385 OA
ATOM     43  H   UNL     1      -7.443  -9.215 -22.064  1.00  0.00     0.211 HD
ENDBRANCH  35  42
BRANCH  36  44
ATOM     44  O   UNL     1      -8.974 -10.032 -18.660  1.00  0.00    -0.366 OA
ATOM     45  H   UNL     1      -8.956 -10.623 -19.459  1.00  0.00     0.213 HD
ENDBRANCH  36  44
ENDBRANCH  30  31
ENDBRANCH   4  30
TORSDOF 18
ENDMDL
MODEL 9
REMARK VINA RESULT:     3.632      3.315      9.700
REMARK INTER + INTRA:           8.426
REMARK INTER:                   7.746
REMARK INTRA:                   0.680
REMARK UNBOUND:                 2.140
REMARK SMILES OC[C@@H]1O[C@H](O[C@H]2[C@@H](O)[C@@H](O)[C@H](O)O[C@@H]2CO)[C@@H](O)[C@H](O)[C@H]1O[C@H]1O[C@H](CO)[C@H](O)[C@@H](O)[C@H]1O
REMARK SMILES IDX 22 1 3 2 4 3 5 4 18 5 20 6 23 7 24 8 26 9 29 10 25 11 31 12
REMARK SMILES IDX 33 13 27 14 28 15 30 17 32 19 34 21 2 23 1 24 21 26 19 28
REMARK SMILES IDX 6 30 7 31 15 32 8 33 14 34 10 35 12 36 16 37 17 38 9 40
REMARK SMILES IDX 11 42 13 44
REMARK H PARENT 28 16 30 18 32 20 34 22 1 25 21 27 19 29 17 39 9 41 11 43
REMARK H PARENT 13 45
REMARK Flexibility Score: inf
ROOT
ATOM      1  C   UNL     1      -6.397  -2.295 -20.000  1.00  0.00     0.184 C 
ATOM      2  C   UNL     1      -5.106  -3.086 -20.347  1.00  0.00     0.178 C 
ATOM      3  O   UNL     1      -5.323  -4.491 -20.492  1.00  0.00    -0.341 OA
ATOM      4  C   UNL     1      -6.366  -5.034 -19.682  1.00  0.00     0.282 C 
ATOM      5  C   UNL     1      -6.569  -4.241 -18.352  1.00  0.00     0.202 C 
ATOM      6  C   UNL     1      -6.944  -2.777 -18.640  1.00  0.00     0.180 C 
ENDROOT
BRANCH   1   7
ATOM      7  O   UNL     1      -6.112  -0.904 -19.877  1.00  0.00    -0.341 OA
BRANCH   7   8
ATOM      8  C   UNL     1      -5.003  -0.654 -19.028  1.00  0.00     0.282 C 
ATOM      9  C   UNL     1      -3.153   0.770 -18.662  1.00  0.00     0.178 C 
ATOM     10  C   UNL     1      -3.482   0.930 -17.152  1.00  0.00     0.177 C 
ATOM     11  O   UNL     1      -4.325   0.531 -19.437  1.00  0.00    -0.341 OA
ATOM     12  C   UNL     1      -4.355  -0.228 -16.639  1.00  0.00     0.179 C 
ATOM     13  C   UNL     1      -5.531  -0.490 -17.592  1.00  0.00     0.202 C 
BRANCH   9  14
ATOM     14  C   UNL     1      -2.032  -0.256 -18.956  1.00  0.00     0.191 C 
BRANCH  14  15
ATOM     15  O   UNL     1      -1.995  -1.199 -17.925  1.00  0.00    -0.394 OA
ATOM     16  H   UNL     1      -1.833  -0.686 -17.091  1.00  0.00     0.210 HD
ENDBRANCH  14  15
ENDBRANCH   9  14
BRANCH  10  17
ATOM     17  O   UNL     1      -2.306   0.991 -16.381  1.00  0.00    -0.387 OA
ATOM     18  H   UNL     1      -1.796   0.158 -16.574  1.00  0.00     0.211 HD
ENDBRANCH  10  17
BRANCH  12  19
ATOM     19  O   UNL     1      -4.848   0.106 -15.366  1.00  0.00    -0.387 OA
ATOM     20  H   UNL     1      -4.339  -0.437 -14.711  1.00  0.00     0.211 HD
ENDBRANCH  12  19
BRANCH  13  21
ATOM     21  O   UNL     1      -6.440   0.581 -17.521  1.00  0.00    -0.385 OA
ATOM     22  H   UNL     1      -6.295   1.035 -16.651  1.00  0.00     0.211 HD
ENDBRANCH  13  21
ENDBRANCH   7   8
ENDBRANCH   1   7
BRANCH   2  23
ATOM     23  C   UNL     1      -4.466  -2.571 -21.645  1.00  0.00     0.191 C 
BRANCH  23  24
ATOM     24  O   UNL     1      -4.979  -3.262 -22.751  1.00  0.00    -0.394 OA
ATOM     25  H   UNL     1      -5.945  -3.035 -22.814  1.00  0.00     0.210 HD
ENDBRANCH  23  24
ENDBRANCH   2  23
BRANCH   6  26
ATOM     26  O   UNL     1      -8.339  -2.607 -18.613  1.00  0.00    -0.387 OA
ATOM     27  H   UNL     1      -8.526  -1.975 -17.865  1.00  0.00     0.211 HD
ENDBRANCH   6  26
BRANCH   5  28
ATOM     28  O   UNL     1      -5.374  -4.268 -17.609  1.00  0.00    -0.385 OA
ATOM     29  H   UNL     1      -5.429  -3.536 -16.941  1.00  0.00     0.211 HD
ENDBRANCH   5  28
BRANCH   4  30
ATOM     30  O   UNL     1      -7.528  -5.128 -20.497  1.00  0.00    -0.341 OA
BRANCH  30  31
ATOM     31  C   UNL     1      -8.296  -6.314 -20.332  1.00  0.00     0.184 C 
ATOM     32  C   UNL     1      -8.523  -6.667 -18.827  1.00  0.00     0.178 C 
ATOM     33  C   UNL     1      -7.507  -7.470 -20.989  1.00  0.00     0.180 C 
ATOM     34  O   UNL     1      -9.225  -7.900 -18.711  1.00  0.00    -0.342 OA
ATOM     35  C   UNL     1      -8.206  -8.808 -20.735  1.00  0.00     0.201 C 
ATOM     36  C   UNL     1      -8.448  -8.976 -19.214  1.00  0.00     0.279 C 
BRANCH  32  37
ATOM     37  C   UNL     1      -9.339  -5.616 -18.067  1.00  0.00     0.191 C 
BRANCH  37  38
ATOM     38  O   UNL     1      -9.995  -4.765 -18.965  1.00  0.00    -0.394 OA
ATOM     39  H   UNL     1     -10.790  -5.263 -19.280  1.00  0.00     0.210 HD
ENDBRANCH  37  38
ENDBRANCH  32  37
BRANCH  33  40
ATOM     40  O   UNL     1      -6.196  -7.522 -20.478  1.00  0.00    -0.387 OA
ATOM     41  H   UNL     1      -5.621  -7.873 -21.208  1.00  0.00     0.211 HD
ENDBRANCH  33  40
BRANCH  35  42
ATOM     42  O   UNL     1      -7.403  -9.864 -21.207  1.00  0.00    -0.385 OA
ATOM     43  H   UNL     1      -6.612  -9.920 -20.604  1.00  0.00     0.211 HD
ENDBRANCH  35  42
BRANCH  36  44
ATOM     44  O   UNL     1      -9.126 -10.179 -18.957  1.00  0.00    -0.366 OA
ATOM     45  H   UNL     1      -9.273 -10.631 -19.830  1.00  0.00     0.213 HD
ENDBRANCH  36  44
ENDBRANCH  30  31
ENDBRANCH   4  30
TORSDOF 18
ENDMDL
