MODEL 1
REMARK VINA RESULT:    -3.661      0.000      0.000
REMARK INTER + INTRA:          -4.684
REMARK INTER:                  -4.518
REMARK INTRA:                  -0.166
REMARK UNBOUND:                -0.166
REMARK SMILES CCCCCC(=O)[O-]
REMARK SMILES IDX 4 1 5 2 6 3 7 4 8 5 3 6 2 7 1 8
REMARK H PARENT
REMARK Flexibility Score: inf
ROOT
ATOM      1  C   UNL     1     -16.619  34.484 -20.471  1.00  0.00     0.006 C 
ENDROOT
BRANCH   1   2
ATOM      2  C   UNL     1     -17.684  35.454 -19.941  1.00  0.00     0.053 C 
BRANCH   2   3
ATOM      3  C   UNL     1     -18.538  34.818 -18.888  1.00  0.00     0.041 C 
ATOM      4  O   UNL     1     -19.429  33.988 -19.209  1.00  0.00    -0.550 OA
ATOM      5  O   UNL     1     -18.374  35.167 -17.554  1.00  0.00    -0.550 OA
ENDBRANCH   2   3
ENDBRANCH   1   2
BRANCH   1   6
ATOM      6  C   UNL     1     -15.967  33.666 -19.347  1.00  0.00     0.000 C 
BRANCH   6   7
ATOM      7  C   UNL     1     -14.571  34.206 -19.015  1.00  0.00    -0.003 C 
ATOM      8  C   UNL     1     -14.630  35.232 -17.887  1.00  0.00     0.004 C 
ENDBRANCH   6   7
ENDBRANCH   1   6
TORSDOF 4
ENDMDL
MODEL 2
REMARK VINA RESULT:    -3.544      1.412      1.754
REMARK INTER + INTRA:          -4.539
REMARK INTER:                  -4.391
REMARK INTRA:                  -0.148
REMARK UNBOUND:                -0.166
REMARK SMILES CCCCCC(=O)[O-]
REMARK SMILES IDX 4 1 5 2 6 3 7 4 8 5 3 6 2 7 1 8
REMARK H PARENT
REMARK Flexibility Score: inf
ROOT
ATOM      1  C   UNL     1     -17.242  35.170 -18.616  1.00  0.00     0.006 C 
ENDROOT
BRANCH   1   2
ATOM      2  C   UNL     1     -18.694  34.967 -18.162  1.00  0.00     0.053 C 
BRANCH   2   3
ATOM      3  C   UNL     1     -19.607  34.708 -19.321  1.00  0.00     0.041 C 
ATOM      4  O   UNL     1     -19.645  35.511 -20.291  1.00  0.00    -0.550 OA
ATOM      5  O   UNL     1     -20.441  33.597 -19.316  1.00  0.00    -0.550 OA
ENDBRANCH   2   3
ENDBRANCH   1   2
BRANCH   1   6
ATOM      6  C   UNL     1     -16.659  33.911 -19.275  1.00  0.00     0.000 C 
BRANCH   6   7
ATOM      7  C   UNL     1     -15.127  33.936 -19.246  1.00  0.00    -0.003 C 
ATOM      8  C   UNL     1     -14.611  34.926 -18.205  1.00  0.00     0.004 C 
ENDBRANCH   6   7
ENDBRANCH   1   6
TORSDOF 4
ENDMDL
MODEL 3
REMARK VINA RESULT:    -3.203      1.833      3.625
REMARK INTER + INTRA:          -4.119
REMARK INTER:                  -4.002
REMARK INTRA:                  -0.116
REMARK UNBOUND:                -0.166
REMARK SMILES CCCCCC(=O)[O-]
REMARK SMILES IDX 4 1 5 2 6 3 7 4 8 5 3 6 2 7 1 8
REMARK H PARENT
REMARK Flexibility Score: inf
ROOT
ATOM      1  C   UNL     1     -16.561  33.832 -19.728  1.00  0.00     0.006 C 
ENDROOT
BRANCH   1   2
ATOM      2  C   UNL     1     -15.228  34.124 -19.026  1.00  0.00     0.053 C 
BRANCH   2   3
ATOM      3  C   UNL     1     -15.308  35.350 -18.170  1.00  0.00     0.041 C 
ATOM      4  O   UNL     1     -14.325  35.696 -17.463  1.00  0.00    -0.550 OA
ATOM      5  O   UNL     1     -16.481  36.092 -18.127  1.00  0.00    -0.550 OA
ENDBRANCH   2   3
ENDBRANCH   1   2
BRANCH   1   6
ATOM      6  C   UNL     1     -16.702  34.600 -21.051  1.00  0.00     0.000 C 
BRANCH   6   7
ATOM      7  C   UNL     1     -18.051  35.323 -21.124  1.00  0.00    -0.003 C 
ATOM      8  C   UNL     1     -19.074  34.678 -20.193  1.00  0.00     0.004 C 
ENDBRANCH   6   7
ENDBRANCH   1   6
TORSDOF 4
ENDMDL
MODEL 4
REMARK VINA RESULT:    -3.170      2.429      3.926
REMARK INTER + INTRA:          -4.078
REMARK INTER:                  -3.948
REMARK INTRA:                  -0.130
REMARK UNBOUND:                -0.166
REMARK SMILES CCCCCC(=O)[O-]
REMARK SMILES IDX 4 1 5 2 6 3 7 4 8 5 3 6 2 7 1 8
REMARK H PARENT
REMARK Flexibility Score: inf
ROOT
ATOM      1  C   UNL     1     -17.635  34.364 -18.909  1.00  0.00     0.006 C 
ENDROOT
BRANCH   1   2
ATOM      2  C   UNL     1     -16.599  35.478 -18.706  1.00  0.00     0.053 C 
BRANCH   2   3
ATOM      3  C   UNL     1     -15.233  34.924 -18.442  1.00  0.00     0.041 C 
ATOM      4  O   UNL     1     -14.720  34.092 -19.237  1.00  0.00    -0.550 OA
ATOM      5  O   UNL     1     -14.539  35.300 -17.299  1.00  0.00    -0.550 OA
ENDBRANCH   2   3
ENDBRANCH   1   2
BRANCH   1   6
ATOM      6  C   UNL     1     -18.216  34.363 -20.331  1.00  0.00     0.000 C 
BRANCH   6   7
ATOM      7  C   UNL     1     -19.729  34.603 -20.305  1.00  0.00    -0.003 C 
ATOM      8  C   UNL     1     -20.306  34.338 -18.917  1.00  0.00     0.004 C 
ENDBRANCH   6   7
ENDBRANCH   1   6
TORSDOF 4
ENDMDL
MODEL 5
REMARK VINA RESULT:    -3.105      2.369      3.817
REMARK INTER + INTRA:          -3.997
REMARK INTER:                  -3.745
REMARK INTRA:                  -0.252
REMARK UNBOUND:                -0.166
REMARK SMILES CCCCCC(=O)[O-]
REMARK SMILES IDX 4 1 5 2 6 3 7 4 8 5 3 6 2 7 1 8
REMARK H PARENT
REMARK Flexibility Score: inf
ROOT
ATOM      1  C   UNL     1     -17.097  35.574 -18.768  1.00  0.00     0.006 C 
ENDROOT
BRANCH   1   2
ATOM      2  C   UNL     1     -15.719  34.913 -18.630  1.00  0.00     0.053 C 
BRANCH   2   3
ATOM      3  C   UNL     1     -15.535  33.800 -19.614  1.00  0.00     0.041 C 
ATOM      4  O   UNL     1     -15.312  32.628 -19.213  1.00  0.00    -0.550 OA
ATOM      5  O   UNL     1     -15.577  34.063 -20.978  1.00  0.00    -0.550 OA
ENDBRANCH   2   3
ENDBRANCH   1   2
BRANCH   1   6
ATOM      6  C   UNL     1     -18.216  34.718 -18.155  1.00  0.00     0.000 C 
BRANCH   6   7
ATOM      7  C   UNL     1     -19.324  34.448 -19.179  1.00  0.00    -0.003 C 
ATOM      8  C   UNL     1     -18.975  35.044 -20.539  1.00  0.00     0.004 C 
ENDBRANCH   6   7
ENDBRANCH   1   6
TORSDOF 4
ENDMDL
MODEL 6
REMARK VINA RESULT:    -2.142     24.790     25.800
REMARK INTER + INTRA:          -2.809
REMARK INTER:                  -3.526
REMARK INTRA:                   0.717
REMARK UNBOUND:                -0.166
REMARK SMILES CCCCCC(=O)[O-]
REMARK SMILES IDX 4 1 5 2 6 3 7 4 8 5 3 6 2 7 1 8
REMARK H PARENT
REMARK Flexibility Score: inf
ROOT
ATOM      1  C   UNL     1      -8.518  19.555  -1.476  1.00  0.00     0.006 C 
ENDROOT
BRANCH   1   2
ATOM      2  C   UNL     1      -7.453  20.488  -0.885  1.00  0.00     0.053 C 
BRANCH   2   3
ATOM      3  C   UNL     1      -6.141  20.354  -1.596  1.00  0.00     0.041 C 
ATOM      4  O   UNL     1      -5.106  20.022  -0.960  1.00  0.00    -0.550 OA
ATOM      5  O   UNL     1      -6.055  20.626  -2.955  1.00  0.00    -0.550 OA
ENDBRANCH   2   3
ENDBRANCH   1   2
BRANCH   1   6
ATOM      6  C   UNL     1      -8.440  18.138  -0.887  1.00  0.00     0.000 C 
BRANCH   6   7
ATOM      7  C   UNL     1      -6.995  17.628  -0.876  1.00  0.00    -0.003 C 
ATOM      8  C   UNL     1      -6.948  16.103  -0.920  1.00  0.00     0.004 C 
ENDBRANCH   6   7
ENDBRANCH   1   6
TORSDOF 4
ENDMDL
MODEL 7
REMARK VINA RESULT:    -2.101     24.611     25.682
REMARK INTER + INTRA:          -2.759
REMARK INTER:                  -2.620
REMARK INTRA:                  -0.140
REMARK UNBOUND:                -0.166
REMARK SMILES CCCCCC(=O)[O-]
REMARK SMILES IDX 4 1 5 2 6 3 7 4 8 5 3 6 2 7 1 8
REMARK H PARENT
REMARK Flexibility Score: inf
ROOT
ATOM      1  C   UNL     1      -7.216  18.326  -0.950  1.00  0.00     0.006 C 
ENDROOT
BRANCH   1   2
ATOM      2  C   UNL     1      -6.265  19.072  -1.895  1.00  0.00     0.053 C 
BRANCH   2   3
ATOM      3  C   UNL     1      -4.991  19.459  -1.208  1.00  0.00     0.041 C 
ATOM      4  O   UNL     1      -4.157  18.576  -0.875  1.00  0.00    -0.550 OA
ATOM      5  O   UNL     1      -4.741  20.791  -0.906  1.00  0.00    -0.550 OA
ENDBRANCH   2   3
ENDBRANCH   1   2
BRANCH   1   6
ATOM      6  C   UNL     1      -8.679  18.757  -1.138  1.00  0.00     0.000 C 
BRANCH   6   7
ATOM      7  C   UNL     1      -8.765  20.215  -1.600  1.00  0.00    -0.003 C 
ATOM      8  C   UNL     1      -9.715  20.363  -2.786  1.00  0.00     0.004 C 
ENDBRANCH   6   7
ENDBRANCH   1   6
TORSDOF 4
ENDMDL
MODEL 8
REMARK VINA RESULT:    -1.995     24.607     25.593
REMARK INTER + INTRA:          -2.628
REMARK INTER:                  -2.698
REMARK INTRA:                   0.070
REMARK UNBOUND:                -0.166
REMARK SMILES CCCCCC(=O)[O-]
REMARK SMILES IDX 4 1 5 2 6 3 7 4 8 5 3 6 2 7 1 8
REMARK H PARENT
REMARK Flexibility Score: inf
ROOT
ATOM      1  C   UNL     1      -6.189  19.621  -1.883  1.00  0.00     0.006 C 
ENDROOT
BRANCH   1   2
ATOM      2  C   UNL     1      -7.327  20.394  -1.203  1.00  0.00     0.053 C 
BRANCH   2   3
ATOM      3  C   UNL     1      -8.665  19.797  -1.512  1.00  0.00     0.041 C 
ATOM      4  O   UNL     1      -9.041  18.745  -0.930  1.00  0.00    -0.550 OA
ATOM      5  O   UNL     1      -9.485  20.384  -2.466  1.00  0.00    -0.550 OA
ENDBRANCH   2   3
ENDBRANCH   1   2
BRANCH   1   6
ATOM      6  C   UNL     1      -5.140  19.125  -0.876  1.00  0.00     0.000 C 
BRANCH   6   7
ATOM      7  C   UNL     1      -5.056  17.595  -0.880  1.00  0.00    -0.003 C 
ATOM      8  C   UNL     1      -6.446  16.965  -0.881  1.00  0.00     0.004 C 
ENDBRANCH   6   7
ENDBRANCH   1   6
TORSDOF 4
ENDMDL
MODEL 9
REMARK VINA RESULT:    -1.977     24.930     26.001
REMARK INTER + INTRA:          -2.605
REMARK INTER:                  -2.794
REMARK INTRA:                   0.188
REMARK UNBOUND:                -0.166
REMARK SMILES CCCCCC(=O)[O-]
REMARK SMILES IDX 4 1 5 2 6 3 7 4 8 5 3 6 2 7 1 8
REMARK H PARENT
REMARK Flexibility Score: inf
ROOT
ATOM      1  C   UNL     1      -6.547  19.900  -1.776  1.00  0.00     0.006 C 
ENDROOT
BRANCH   1   2
ATOM      2  C   UNL     1      -5.436  19.245  -0.944  1.00  0.00     0.053 C 
BRANCH   2   3
ATOM      3  C   UNL     1      -5.591  17.757  -0.885  1.00  0.00     0.041 C 
ATOM      4  O   UNL     1      -4.575  17.012  -0.876  1.00  0.00    -0.550 OA
ATOM      5  O   UNL     1      -6.859  17.189  -0.875  1.00  0.00    -0.550 OA
ENDBRANCH   2   3
ENDBRANCH   1   2
BRANCH   1   6
ATOM      6  C   UNL     1      -7.828  20.125  -0.958  1.00  0.00     0.000 C 
BRANCH   6   7
ATOM      7  C   UNL     1      -9.042  19.507  -1.661  1.00  0.00    -0.003 C 
ATOM      8  C   UNL     1      -9.599  20.445  -2.728  1.00  0.00     0.004 C 
ENDBRANCH   6   7
ENDBRANCH   1   6
TORSDOF 4
ENDMDL
