MODEL 1
REMARK VINA RESULT:    -3.589      0.000      0.000
REMARK INTER + INTRA:          -5.997
REMARK INTER:                  -5.478
REMARK INTRA:                  -0.519
REMARK UNBOUND:                -0.519
REMARK SMILES CC1=CCC[C@H](C)C(=O)C[C@H](C(C)C)C(=O)C1
REMARK SMILES IDX 8 1 9 2 6 3 7 4 5 5 4 6 3 7 2 8 1 9 10 11 11 12 15 13 16 14
REMARK SMILES IDX 17 15 12 17 13 18 14 19
REMARK H PARENT
REMARK Flexibility Score: 70.00
ROOT
ATOM      1  C   UNL     1       5.223  -3.059  -3.565  1.00  0.00     0.136 C 
ATOM      2  O   UNL     1       4.865  -3.119  -4.733  1.00  0.00    -0.299 OA
ENDROOT
BRANCH   1   3
ATOM      3  C   UNL     1       4.856  -4.178  -2.612  1.00  0.00     0.053 C 
ATOM      4  C   UNL     1       3.343  -4.413  -2.663  1.00  0.00     0.016 C 
BRANCH   3   5
ATOM      5  C   UNL     1       5.611  -5.493  -2.932  1.00  0.00     0.015 C 
BRANCH   5   6
ATOM      6  C   UNL     1       6.899  -5.696  -2.119  1.00  0.00     0.028 C 
BRANCH   6   7
ATOM      7  C   UNL     1       8.112  -5.195  -2.866  1.00  0.00    -0.028 C 
ATOM      8  C   UNL     1       8.892  -4.159  -2.479  1.00  0.00    -0.070 CG0
ATOM      9  C   UNL     1      10.075  -3.803  -3.342  1.00  0.00     0.039 C 
ATOM     10  G   UNL     1       8.633  -3.356  -1.216  1.00  0.00     0.000 G0
ENDBRANCH   6   7
ENDBRANCH   5   6
ENDBRANCH   3   5
ENDBRANCH   1   3
BRANCH   1  11
ATOM     11  C   UNL     1       5.980  -1.838  -3.091  1.00  0.00     0.087 C 
BRANCH  11  12
ATOM     12  C   UNL     1       6.410  -1.929  -1.604  1.00  0.00     0.066 C 
BRANCH  12  13
ATOM     13  C   UNL     1       7.924  -2.028  -1.467  1.00  0.00     0.140 C 
ATOM     14  O   UNL     1       8.597  -1.008  -1.497  1.00  0.00    -0.299 OA
BRANCH  13  15
ATOM     15  C   UNL     1       8.632  -3.343  -1.220  1.00  0.00     0.106 CG0
ATOM     16  G   UNL     1       8.882  -4.154  -2.479  1.00  0.00     0.000 G0
ENDBRANCH  13  15
ENDBRANCH  12  13
BRANCH  12  17
ATOM     17  C   UNL     1       5.850  -0.779  -0.711  1.00  0.00    -0.006 C 
ATOM     18  C   UNL     1       4.885   0.171  -1.441  1.00  0.00     0.008 C 
ATOM     19  C   UNL     1       5.186  -1.320   0.565  1.00  0.00     0.008 C 
ENDBRANCH  12  17
ENDBRANCH  11  12
ENDBRANCH   1  11
TORSDOF 1
ENDMDL
MODEL 2
REMARK VINA RESULT:    -3.315      1.680      3.885
REMARK INTER + INTRA:          -5.578
REMARK INTER:                  -5.071
REMARK INTRA:                  -0.508
REMARK UNBOUND:                -0.519
REMARK SMILES CC1=CCC[C@H](C)C(=O)C[C@H](C(C)C)C(=O)C1
REMARK SMILES IDX 8 1 9 2 6 3 7 4 5 5 4 6 3 7 2 8 1 9 10 11 11 12 15 13 16 14
REMARK SMILES IDX 17 15 12 17 13 18 14 19
REMARK H PARENT
REMARK Flexibility Score: 70.00
ROOT
ATOM      1  C   UNL     1       5.487  -2.481  -0.527  1.00  0.00     0.136 C 
ATOM      2  O   UNL     1       5.243  -2.174   0.631  1.00  0.00    -0.299 OA
ENDROOT
BRANCH   1   3
ATOM      3  C   UNL     1       6.008  -1.429  -1.484  1.00  0.00     0.053 C 
ATOM      4  C   UNL     1       5.241  -0.120  -1.268  1.00  0.00     0.016 C 
BRANCH   3   5
ATOM      5  C   UNL     1       7.530  -1.188  -1.320  1.00  0.00     0.015 C 
BRANCH   5   6
ATOM      6  C   UNL     1       8.396  -1.869  -2.392  1.00  0.00     0.028 C 
BRANCH   6   7
ATOM      7  C   UNL     1       9.131  -3.065  -1.834  1.00  0.00    -0.028 C 
ATOM      8  C   UNL     1       8.939  -4.347  -2.220  1.00  0.00    -0.070 CG0
ATOM      9  C   UNL     1       9.773  -5.417  -1.564  1.00  0.00     0.039 C 
ATOM     10  G   UNL     1       7.934  -4.747  -3.287  1.00  0.00     0.000 G0
ENDBRANCH   6   7
ENDBRANCH   5   6
ENDBRANCH   3   5
ENDBRANCH   1   3
BRANCH   1  11
ATOM     11  C   UNL     1       5.212  -3.897  -0.985  1.00  0.00     0.087 C 
BRANCH  11  12
ATOM     12  C   UNL     1       5.477  -4.107  -2.498  1.00  0.00     0.066 C 
BRANCH  12  13
ATOM     13  C   UNL     1       6.567  -5.144  -2.735  1.00  0.00     0.140 C 
ATOM     14  O   UNL     1       6.325  -6.324  -2.532  1.00  0.00    -0.299 OA
BRANCH  13  15
ATOM     15  C   UNL     1       7.928  -4.779  -3.285  1.00  0.00     0.106 CG0
ATOM     16  G   UNL     1       8.925  -4.343  -2.225  1.00  0.00     0.000 G0
ENDBRANCH  13  15
ENDBRANCH  12  13
BRANCH  12  17
ATOM     17  C   UNL     1       4.198  -4.453  -3.322  1.00  0.00    -0.006 C 
ATOM     18  C   UNL     1       2.894  -4.411  -2.507  1.00  0.00     0.008 C 
ATOM     19  C   UNL     1       4.065  -3.565  -4.569  1.00  0.00     0.008 C 
ENDBRANCH  12  17
ENDBRANCH  11  12
ENDBRANCH   1  11
TORSDOF 1
ENDMDL
MODEL 3
REMARK VINA RESULT:    -3.315      1.950      4.006
REMARK INTER + INTRA:          -5.578
REMARK INTER:                  -5.113
REMARK INTRA:                  -0.466
REMARK UNBOUND:                -0.519
REMARK SMILES CC1=CCC[C@H](C)C(=O)C[C@H](C(C)C)C(=O)C1
REMARK SMILES IDX 8 1 9 2 6 3 7 4 5 5 4 6 3 7 2 8 1 9 10 11 11 12 15 13 16 14
REMARK SMILES IDX 17 15 12 17 13 18 14 19
REMARK H PARENT
REMARK Flexibility Score: 70.00
ROOT
ATOM      1  C   UNL     1       8.138  -3.435  -0.788  1.00  0.00     0.136 C 
ATOM      2  O   UNL     1       9.012  -4.010  -0.155  1.00  0.00    -0.299 OA
ENDROOT
BRANCH   1   3
ATOM      3  C   UNL     1       8.514  -2.611  -2.002  1.00  0.00     0.053 C 
ATOM      4  C   UNL     1       9.538  -1.546  -1.595  1.00  0.00     0.016 C 
BRANCH   3   5
ATOM      5  C   UNL     1       9.081  -3.481  -3.152  1.00  0.00     0.015 C 
BRANCH   5   6
ATOM      6  C   UNL     1       8.300  -4.782  -3.403  1.00  0.00     0.028 C 
BRANCH   6   7
ATOM      7  C   UNL     1       7.172  -4.572  -4.384  1.00  0.00    -0.028 C 
ATOM      8  C   UNL     1       5.856  -4.703  -4.098  1.00  0.00    -0.070 CG0
ATOM      9  C   UNL     1       4.862  -4.441  -5.201  1.00  0.00     0.039 C 
ATOM     10  G   UNL     1       5.344  -5.089  -2.721  1.00  0.00     0.000 G0
ENDBRANCH   6   7
ENDBRANCH   5   6
ENDBRANCH   3   5
ENDBRANCH   1   3
BRANCH   1  11
ATOM     11  C   UNL     1       6.706  -3.525  -0.309  1.00  0.00     0.087 C 
BRANCH  11  12
ATOM     12  C   UNL     1       5.695  -2.881  -1.294  1.00  0.00     0.066 C 
BRANCH  12  13
ATOM     13  C   UNL     1       4.785  -3.928  -1.923  1.00  0.00     0.140 C 
ATOM     14  O   UNL     1       3.573  -3.800  -1.832  1.00  0.00    -0.299 OA
BRANCH  13  15
ATOM     15  C   UNL     1       5.322  -5.094  -2.725  1.00  0.00     0.106 CG0
ATOM     16  G   UNL     1       5.861  -4.705  -4.090  1.00  0.00     0.000 G0
ENDBRANCH  13  15
ENDBRANCH  12  13
BRANCH  12  17
ATOM     17  C   UNL     1       4.856  -1.722  -0.672  1.00  0.00    -0.006 C 
ATOM     18  C   UNL     1       5.321  -1.290   0.729  1.00  0.00     0.008 C 
ATOM     19  C   UNL     1       4.792  -0.501  -1.603  1.00  0.00     0.008 C 
ENDBRANCH  12  17
ENDBRANCH  11  12
ENDBRANCH   1  11
TORSDOF 1
ENDMDL
MODEL 4
REMARK VINA RESULT:    -3.199      1.975      4.080
REMARK INTER + INTRA:          -5.402
REMARK INTER:                  -5.398
REMARK INTRA:                  -0.004
REMARK UNBOUND:                -0.519
REMARK SMILES CC1=CCC[C@H](C)C(=O)C[C@H](C(C)C)C(=O)C1
REMARK SMILES IDX 8 1 9 2 6 3 7 4 5 5 4 6 3 7 2 8 1 9 10 11 11 12 15 13 16 14
REMARK SMILES IDX 17 15 12 17 13 18 14 19
REMARK H PARENT
REMARK Flexibility Score: 70.00
ROOT
ATOM      1  C   UNL     1       6.040  -1.142  -0.682  1.00  0.00     0.136 C 
ATOM      2  O   UNL     1       6.095  -1.572   0.461  1.00  0.00    -0.299 OA
ENDROOT
BRANCH   1   3
ATOM      3  C   UNL     1       4.713  -0.669  -1.239  1.00  0.00     0.053 C 
ATOM      4  C   UNL     1       4.686   0.863  -1.257  1.00  0.00     0.016 C 
BRANCH   3   5
ATOM      5  C   UNL     1       4.440  -1.222  -2.660  1.00  0.00     0.015 C 
BRANCH   5   6
ATOM      6  C   UNL     1       4.203  -2.740  -2.712  1.00  0.00     0.028 C 
BRANCH   6   7
ATOM      7  C   UNL     1       4.411  -3.288  -4.104  1.00  0.00    -0.028 C 
ATOM      8  C   UNL     1       5.529  -3.919  -4.533  1.00  0.00    -0.070 CG0
ATOM      9  C   UNL     1       5.559  -4.414  -5.957  1.00  0.00     0.039 C 
ATOM     10  G   UNL     1       6.737  -4.156  -3.644  1.00  0.00     0.000 G0
ENDBRANCH   6   7
ENDBRANCH   5   6
ENDBRANCH   3   5
ENDBRANCH   1   3
BRANCH   1  11
ATOM     11  C   UNL     1       7.294  -1.141  -1.528  1.00  0.00     0.087 C 
BRANCH  11  12
ATOM     12  C   UNL     1       7.821  -2.567  -1.834  1.00  0.00     0.066 C 
BRANCH  12  13
ATOM     13  C   UNL     1       7.558  -2.960  -3.282  1.00  0.00     0.140 C 
ATOM     14  O   UNL     1       8.059  -2.301  -4.182  1.00  0.00    -0.299 OA
BRANCH  13  15
ATOM     15  C   UNL     1       6.754  -4.185  -3.658  1.00  0.00     0.106 CG0
ATOM     16  G   UNL     1       5.546  -3.886  -4.530  1.00  0.00     0.000 G0
ENDBRANCH  13  15
ENDBRANCH  12  13
BRANCH  12  17
ATOM     17  C   UNL     1       9.322  -2.780  -1.469  1.00  0.00    -0.006 C 
ATOM     18  C   UNL     1      10.047  -1.501  -1.013  1.00  0.00     0.008 C 
ATOM     19  C   UNL     1       9.503  -3.886  -0.418  1.00  0.00     0.008 C 
ENDBRANCH  12  17
ENDBRANCH  11  12
ENDBRANCH   1  11
TORSDOF 1
ENDMDL
MODEL 5
REMARK VINA RESULT:    -3.104      1.858      4.050
REMARK INTER + INTRA:          -5.256
REMARK INTER:                  -4.907
REMARK INTRA:                  -0.349
REMARK UNBOUND:                -0.519
REMARK SMILES CC1=CCC[C@H](C)C(=O)C[C@H](C(C)C)C(=O)C1
REMARK SMILES IDX 8 1 9 2 6 3 7 4 5 5 4 6 3 7 2 8 1 9 10 11 11 12 15 13 16 14
REMARK SMILES IDX 17 15 12 17 13 18 14 19
REMARK H PARENT
REMARK Flexibility Score: 70.00
ROOT
ATOM      1  C   UNL     1       4.883  -2.530  -2.252  1.00  0.00     0.136 C 
ATOM      2  O   UNL     1       4.575  -3.173  -1.259  1.00  0.00    -0.299 OA
ENDROOT
BRANCH   1   3
ATOM      3  C   UNL     1       5.530  -1.169  -2.091  1.00  0.00     0.053 C 
ATOM      4  C   UNL     1       4.494  -0.175  -1.554  1.00  0.00     0.016 C 
BRANCH   3   5
ATOM      5  C   UNL     1       6.763  -1.211  -1.154  1.00  0.00     0.015 C 
BRANCH   5   6
ATOM      6  C   UNL     1       8.003  -1.875  -1.772  1.00  0.00     0.028 C 
BRANCH   6   7
ATOM      7  C   UNL     1       8.249  -3.246  -1.187  1.00  0.00    -0.028 C 
ATOM      8  C   UNL     1       8.268  -4.401  -1.892  1.00  0.00    -0.070 CG0
ATOM      9  C   UNL     1       8.544  -5.681  -1.145  1.00  0.00     0.039 C 
ATOM     10  G   UNL     1       8.039  -4.459  -3.392  1.00  0.00     0.000 G0
ENDBRANCH   6   7
ENDBRANCH   5   6
ENDBRANCH   3   5
ENDBRANCH   1   3
BRANCH   1  11
ATOM     11  C   UNL     1       4.562  -3.092  -3.620  1.00  0.00     0.087 C 
BRANCH  11  12
ATOM     12  C   UNL     1       5.828  -3.449  -4.441  1.00  0.00     0.066 C 
BRANCH  12  13
ATOM     13  C   UNL     1       6.598  -4.602  -3.809  1.00  0.00     0.140 C 
ATOM     14  O   UNL     1       6.049  -5.685  -3.674  1.00  0.00    -0.299 OA
BRANCH  13  15
ATOM     15  C   UNL     1       8.050  -4.482  -3.402  1.00  0.00     0.106 CG0
ATOM     16  G   UNL     1       8.264  -4.402  -1.900  1.00  0.00     0.000 G0
ENDBRANCH  13  15
ENDBRANCH  12  13
BRANCH  12  17
ATOM     17  C   UNL     1       5.545  -3.735  -5.948  1.00  0.00    -0.006 C 
ATOM     18  C   UNL     1       4.063  -3.993  -6.272  1.00  0.00     0.008 C 
ATOM     19  C   UNL     1       6.093  -2.622  -6.854  1.00  0.00     0.008 C 
ENDBRANCH  12  17
ENDBRANCH  11  12
ENDBRANCH   1  11
TORSDOF 1
ENDMDL
MODEL 6
REMARK VINA RESULT:    -3.086      2.120      4.353
REMARK INTER + INTRA:          -5.229
REMARK INTER:                  -5.276
REMARK INTRA:                   0.047
REMARK UNBOUND:                -0.519
REMARK SMILES CC1=CCC[C@H](C)C(=O)C[C@H](C(C)C)C(=O)C1
REMARK SMILES IDX 8 1 9 2 6 3 7 4 5 5 4 6 3 7 2 8 1 9 10 11 11 12 15 13 16 14
REMARK SMILES IDX 17 15 12 17 13 18 14 19
REMARK H PARENT
REMARK Flexibility Score: 70.00
ROOT
ATOM      1  C   UNL     1       6.112  -1.786  -3.116  1.00  0.00     0.136 C 
ATOM      2  O   UNL     1       7.196  -1.922  -3.665  1.00  0.00    -0.299 OA
ENDROOT
BRANCH   1   3
ATOM      3  C   UNL     1       6.019  -0.981  -1.836  1.00  0.00     0.053 C 
ATOM      4  C   UNL     1       4.545  -0.735  -1.497  1.00  0.00     0.016 C 
BRANCH   3   5
ATOM      5  C   UNL     1       6.729  -1.679  -0.649  1.00  0.00     0.015 C 
BRANCH   5   6
ATOM      6  C   UNL     1       6.028  -2.955  -0.155  1.00  0.00     0.028 C 
BRANCH   6   7
ATOM      7  C   UNL     1       6.792  -4.197  -0.552  1.00  0.00    -0.028 C 
ATOM      8  C   UNL     1       6.382  -5.104  -1.469  1.00  0.00    -0.070 CG0
ATOM      9  C   UNL     1       7.281  -6.281  -1.751  1.00  0.00     0.039 C 
ATOM     10  G   UNL     1       5.071  -4.979  -2.226  1.00  0.00     0.000 G0
ENDBRANCH   6   7
ENDBRANCH   5   6
ENDBRANCH   3   5
ENDBRANCH   1   3
BRANCH   1  11
ATOM     11  C   UNL     1       4.899  -2.472  -3.706  1.00  0.00     0.087 C 
BRANCH  11  12
ATOM     12  C   UNL     1       5.260  -3.707  -4.570  1.00  0.00     0.066 C 
BRANCH  12  13
ATOM     13  C   UNL     1       5.246  -4.988  -3.745  1.00  0.00     0.140 C 
ATOM     14  O   UNL     1       5.441  -6.060  -4.299  1.00  0.00    -0.299 OA
BRANCH  13  15
ATOM     15  C   UNL     1       5.069  -4.983  -2.242  1.00  0.00     0.106 CG0
ATOM     16  G   UNL     1       6.370  -5.109  -1.469  1.00  0.00     0.000 G0
ENDBRANCH  13  15
ENDBRANCH  12  13
BRANCH  12  17
ATOM     17  C   UNL     1       4.381  -3.865  -5.849  1.00  0.00    -0.006 C 
ATOM     18  C   UNL     1       2.941  -3.348  -5.689  1.00  0.00     0.008 C 
ATOM     19  C   UNL     1       5.038  -3.215  -7.076  1.00  0.00     0.008 C 
ENDBRANCH  12  17
ENDBRANCH  11  12
ENDBRANCH   1  11
TORSDOF 1
ENDMDL
MODEL 7
REMARK VINA RESULT:    -3.070      2.071      4.691
REMARK INTER + INTRA:          -5.204
REMARK INTER:                  -5.429
REMARK INTRA:                   0.225
REMARK UNBOUND:                -0.519
REMARK SMILES CC1=CCC[C@H](C)C(=O)C[C@H](C(C)C)C(=O)C1
REMARK SMILES IDX 8 1 9 2 6 3 7 4 5 5 4 6 3 7 2 8 1 9 10 11 11 12 15 13 16 14
REMARK SMILES IDX 17 15 12 17 13 18 14 19
REMARK H PARENT
REMARK Flexibility Score: 70.00
ROOT
ATOM      1  C   UNL     1       6.315  -3.099   0.238  1.00  0.00     0.136 C 
ATOM      2  O   UNL     1       6.027  -4.125   0.838  1.00  0.00    -0.299 OA
ENDROOT
BRANCH   1   3
ATOM      3  C   UNL     1       5.362  -1.922   0.272  1.00  0.00     0.053 C 
ATOM      4  C   UNL     1       5.242  -1.407   1.710  1.00  0.00     0.016 C 
BRANCH   3   5
ATOM      5  C   UNL     1       5.811  -0.775  -0.669  1.00  0.00     0.015 C 
BRANCH   5   6
ATOM      6  C   UNL     1       4.928  -0.598  -1.914  1.00  0.00     0.028 C 
BRANCH   6   7
ATOM      7  C   UNL     1       4.334  -1.912  -2.365  1.00  0.00    -0.028 C 
ATOM      8  C   UNL     1       4.893  -2.750  -3.269  1.00  0.00    -0.070 CG0
ATOM      9  C   UNL     1       4.166  -4.030  -3.591  1.00  0.00     0.039 C 
ATOM     10  G   UNL     1       6.217  -2.461  -3.955  1.00  0.00     0.000 G0
ENDBRANCH   6   7
ENDBRANCH   5   6
ENDBRANCH   3   5
ENDBRANCH   1   3
BRANCH   1  11
ATOM     11  C   UNL     1       7.597  -3.053  -0.564  1.00  0.00     0.087 C 
BRANCH  11  12
ATOM     12  C   UNL     1       7.464  -3.717  -1.959  1.00  0.00     0.066 C 
BRANCH  12  13
ATOM     13  C   UNL     1       7.428  -2.676  -3.071  1.00  0.00     0.140 C 
ATOM     14  O   UNL     1       8.424  -2.005  -3.296  1.00  0.00    -0.299 OA
BRANCH  13  15
ATOM     15  C   UNL     1       6.223  -2.486  -3.966  1.00  0.00     0.106 CG0
ATOM     16  G   UNL     1       4.896  -2.749  -3.275  1.00  0.00     0.000 G0
ENDBRANCH  13  15
ENDBRANCH  12  13
BRANCH  12  17
ATOM     17  C   UNL     1       8.549  -4.799  -2.251  1.00  0.00    -0.006 C 
ATOM     18  C   UNL     1       9.250  -5.343  -0.994  1.00  0.00     0.008 C 
ATOM     19  C   UNL     1       7.985  -5.963  -3.081  1.00  0.00     0.008 C 
ENDBRANCH  12  17
ENDBRANCH  11  12
ENDBRANCH   1  11
TORSDOF 1
ENDMDL
MODEL 8
REMARK VINA RESULT:    -3.041      1.765      2.228
REMARK INTER + INTRA:          -5.160
REMARK INTER:                  -5.513
REMARK INTRA:                   0.353
REMARK UNBOUND:                -0.519
REMARK SMILES CC1=CCC[C@H](C)C(=O)C[C@H](C(C)C)C(=O)C1
REMARK SMILES IDX 8 1 9 2 6 3 7 4 5 5 4 6 3 7 2 8 1 9 10 11 11 12 15 13 16 14
REMARK SMILES IDX 17 15 12 17 13 18 14 19
REMARK H PARENT
REMARK Flexibility Score: 70.00
ROOT
ATOM      1  C   UNL     1       4.489  -3.725  -3.177  1.00  0.00     0.136 C 
ATOM      2  O   UNL     1       3.642  -4.562  -2.902  1.00  0.00    -0.299 OA
ENDROOT
BRANCH   1   3
ATOM      3  C   UNL     1       5.538  -4.038  -4.225  1.00  0.00     0.053 C 
ATOM      4  C   UNL     1       4.894  -4.835  -5.364  1.00  0.00     0.016 C 
BRANCH   3   5
ATOM      5  C   UNL     1       6.211  -2.760  -4.784  1.00  0.00     0.015 C 
BRANCH   5   6
ATOM      6  C   UNL     1       7.485  -2.337  -4.033  1.00  0.00     0.028 C 
BRANCH   6   7
ATOM      7  C   UNL     1       8.230  -3.533  -3.488  1.00  0.00    -0.028 C 
ATOM      8  C   UNL     1       8.274  -3.895  -2.185  1.00  0.00    -0.070 CG0
ATOM      9  C   UNL     1       9.058  -5.130  -1.820  1.00  0.00     0.039 C 
ATOM     10  G   UNL     1       7.562  -3.123  -1.088  1.00  0.00     0.000 G0
ENDBRANCH   6   7
ENDBRANCH   5   6
ENDBRANCH   3   5
ENDBRANCH   1   3
BRANCH   1  11
ATOM     11  C   UNL     1       4.496  -2.413  -2.423  1.00  0.00     0.087 C 
BRANCH  11  12
ATOM     12  C   UNL     1       4.971  -2.559  -0.954  1.00  0.00     0.066 C 
BRANCH  12  13
ATOM     13  C   UNL     1       6.133  -3.538  -0.839  1.00  0.00     0.140 C 
ATOM     14  O   UNL     1       5.904  -4.716  -0.608  1.00  0.00    -0.299 OA
BRANCH  13  15
ATOM     15  C   UNL     1       7.569  -3.123  -1.071  1.00  0.00     0.106 CG0
ATOM     16  G   UNL     1       8.263  -3.897  -2.178  1.00  0.00     0.000 G0
ENDBRANCH  13  15
ENDBRANCH  12  13
BRANCH  12  17
ATOM     17  C   UNL     1       5.320  -1.205  -0.263  1.00  0.00    -0.006 C 
ATOM     18  C   UNL     1       4.746   0.032  -0.977  1.00  0.00     0.008 C 
ATOM     19  C   UNL     1       4.905  -1.196   1.216  1.00  0.00     0.008 C 
ENDBRANCH  12  17
ENDBRANCH  11  12
ENDBRANCH   1  11
TORSDOF 1
ENDMDL
MODEL 9
REMARK VINA RESULT:    -2.786      1.724      4.007
REMARK INTER + INTRA:          -4.770
REMARK INTER:                  -4.291
REMARK INTRA:                  -0.479
REMARK UNBOUND:                -0.519
REMARK SMILES CC1=CCC[C@H](C)C(=O)C[C@H](C(C)C)C(=O)C1
REMARK SMILES IDX 8 1 9 2 6 3 7 4 5 5 4 6 3 7 2 8 1 9 10 11 11 12 15 13 16 14
REMARK SMILES IDX 17 15 12 17 13 18 14 19
REMARK H PARENT
REMARK Flexibility Score: 70.00
ROOT
ATOM      1  C   UNL     1       4.667  -4.008  -2.397  1.00  0.00     0.136 C 
ATOM      2  O   UNL     1       3.502  -4.279  -2.141  1.00  0.00    -0.299 OA
ENDROOT
BRANCH   1   3
ATOM      3  C   UNL     1       5.013  -2.636  -2.938  1.00  0.00     0.053 C 
ATOM      4  C   UNL     1       4.247  -2.397  -4.243  1.00  0.00     0.016 C 
BRANCH   3   5
ATOM      5  C   UNL     1       4.701  -1.508  -1.923  1.00  0.00     0.015 C 
BRANCH   5   6
ATOM      6  C   UNL     1       5.669  -1.445  -0.731  1.00  0.00     0.028 C 
BRANCH   6   7
ATOM      7  C   UNL     1       7.075  -1.117  -1.174  1.00  0.00    -0.028 C 
ATOM      8  C   UNL     1       8.115  -1.982  -1.169  1.00  0.00    -0.070 CG0
ATOM      9  C   UNL     1       9.451  -1.485  -1.661  1.00  0.00     0.039 C 
ATOM     10  G   UNL     1       7.990  -3.422  -0.704  1.00  0.00     0.000 G0
ENDBRANCH   6   7
ENDBRANCH   5   6
ENDBRANCH   3   5
ENDBRANCH   1   3
BRANCH   1  11
ATOM     11  C   UNL     1       5.726  -5.073  -2.212  1.00  0.00     0.087 C 
BRANCH  11  12
ATOM     12  C   UNL     1       7.081  -4.701  -2.868  1.00  0.00     0.066 C 
BRANCH  12  13
ATOM     13  C   UNL     1       8.159  -4.453  -1.821  1.00  0.00     0.140 C 
ATOM     14  O   UNL     1       9.223  -5.049  -1.904  1.00  0.00    -0.299 OA
BRANCH  13  15
ATOM     15  C   UNL     1       7.995  -3.437  -0.711  1.00  0.00     0.106 CG0
ATOM     16  G   UNL     1       8.112  -1.996  -1.174  1.00  0.00     0.000 G0
ENDBRANCH  13  15
ENDBRANCH  12  13
BRANCH  12  17
ATOM     17  C   UNL     1       7.573  -5.730  -3.933  1.00  0.00    -0.006 C 
ATOM     18  C   UNL     1       6.776  -7.046  -3.950  1.00  0.00     0.008 C 
ATOM     19  C   UNL     1       7.607  -5.120  -5.343  1.00  0.00     0.008 C 
ENDBRANCH  12  17
ENDBRANCH  11  12
ENDBRANCH   1  11
TORSDOF 1
ENDMDL
