MODEL 1
REMARK VINA RESULT:    -5.064      0.000      0.000
REMARK INTER + INTRA:          -6.234
REMARK INTER:                  -5.952
REMARK INTRA:                  -0.282
REMARK UNBOUND:                -0.282
REMARK SMILES O=c1c(O)c(-c2ccc(O)cc2)oc2cc(O)cc(O)c12
REMARK SMILES IDX 5 1 3 2 2 3 1 4 21 5 19 6 18 7 16 8 15 9 14 10 13 11 6 12
REMARK SMILES IDX 7 13 8 14 9 15 12 16 11 17 10 18 4 20 20 22 17 24
REMARK H PARENT 10 19 4 21 20 23 17 25
REMARK Flexibility Score: inf
ROOT
ATOM      1  C   UNL     1     -57.619  17.920 -17.756  1.00  0.00     0.180 A 
ATOM      2  C   UNL     1     -57.540  18.989 -16.847  1.00  0.00     0.208 A 
ATOM      3  C   UNL     1     -56.276  19.424 -16.416  1.00  0.00     0.238 A 
ATOM      4  O   UNL     1     -56.209  20.417 -15.645  1.00  0.00    -0.285 OA
ATOM      5  C   UNL     1     -55.110  18.775 -16.886  1.00  0.00     0.111 A 
ATOM      6  C   UNL     1     -53.780  19.106 -16.485  1.00  0.00     0.134 A 
ATOM      7  C   UNL     1     -52.694  18.485 -17.114  1.00  0.00     0.093 A 
ATOM      8  C   UNL     1     -52.889  17.499 -18.080  1.00  0.00     0.123 A 
ATOM      9  C   UNL     1     -54.184  17.125 -18.437  1.00  0.00     0.094 A 
ATOM     10  C   UNL     1     -55.288  17.752 -17.855  1.00  0.00     0.146 A 
ATOM     11  O   UNL     1     -56.505  17.375 -18.230  1.00  0.00    -0.452 OA
ENDROOT
BRANCH   1  12
ATOM     12  C   UNL     1     -58.915  17.388 -18.237  1.00  0.00     0.021 A 
ATOM     13  C   UNL     1     -59.666  16.480 -17.468  1.00  0.00     0.016 A 
ATOM     14  C   UNL     1     -60.875  15.973 -17.953  1.00  0.00     0.047 A 
ATOM     15  C   UNL     1     -61.343  16.354 -19.214  1.00  0.00     0.115 A 
ATOM     16  C   UNL     1     -59.381  17.751 -19.512  1.00  0.00     0.016 A 
ATOM     17  C   UNL     1     -60.592  17.243 -19.994  1.00  0.00     0.047 A 
BRANCH  15  18
ATOM     18  O   UNL     1     -62.550  15.842 -19.685  1.00  0.00    -0.508 OA
ATOM     19  H   UNL     1     -62.642  14.871 -19.958  1.00  0.00     0.293 HD
ENDBRANCH  15  18
ENDBRANCH   1  12
BRANCH   2  20
ATOM     20  O   UNL     1     -58.703  19.631 -16.413  1.00  0.00    -0.502 OA
ATOM     21  H   UNL     1     -58.759  20.635 -16.298  1.00  0.00     0.293 HD
ENDBRANCH   2  20
BRANCH   6  22
ATOM     22  O   UNL     1     -53.476  20.011 -15.464  1.00  0.00    -0.507 OA
ATOM     23  H   UNL     1     -53.828  19.952 -14.521  1.00  0.00     0.293 HD
ENDBRANCH   6  22
BRANCH   8  24
ATOM     24  O   UNL     1     -51.785  16.890 -18.674  1.00  0.00    -0.508 OA
ATOM     25  H   UNL     1     -51.799  16.597 -19.644  1.00  0.00     0.293 HD
ENDBRANCH   8  24
TORSDOF 5
ENDMDL
MODEL 2
REMARK VINA RESULT:    -5.024      6.162      9.259
REMARK INTER + INTRA:          -6.187
REMARK INTER:                  -5.945
REMARK INTRA:                  -0.242
REMARK UNBOUND:                -0.282
REMARK SMILES O=c1c(O)c(-c2ccc(O)cc2)oc2cc(O)cc(O)c12
REMARK SMILES IDX 5 1 3 2 2 3 1 4 21 5 19 6 18 7 16 8 15 9 14 10 13 11 6 12
REMARK SMILES IDX 7 13 8 14 9 15 12 16 11 17 10 18 4 20 20 22 17 24
REMARK H PARENT 10 19 4 21 20 23 17 25
REMARK Flexibility Score: inf
ROOT
ATOM      1  C   UNL     1     -56.633  24.005 -14.346  1.00  0.00     0.180 A 
ATOM      2  C   UNL     1     -57.494  24.180 -13.248  1.00  0.00     0.208 A 
ATOM      3  C   UNL     1     -58.419  25.236 -13.271  1.00  0.00     0.238 A 
ATOM      4  O   UNL     1     -59.223  25.356 -12.311  1.00  0.00    -0.285 OA
ATOM      5  C   UNL     1     -58.460  26.113 -14.381  1.00  0.00     0.111 A 
ATOM      6  C   UNL     1     -59.330  27.240 -14.493  1.00  0.00     0.134 A 
ATOM      7  C   UNL     1     -59.377  27.960 -15.693  1.00  0.00     0.093 A 
ATOM      8  C   UNL     1     -58.541  27.636 -16.760  1.00  0.00     0.123 A 
ATOM      9  C   UNL     1     -57.645  26.574 -16.642  1.00  0.00     0.094 A 
ATOM     10  C   UNL     1     -57.600  25.813 -15.471  1.00  0.00     0.146 A 
ATOM     11  O   UNL     1     -56.741  24.803 -15.401  1.00  0.00    -0.452 OA
ENDROOT
BRANCH   1  12
ATOM     12  C   UNL     1     -55.614  22.930 -14.385  1.00  0.00     0.021 A 
ATOM     13  C   UNL     1     -54.251  23.205 -14.173  1.00  0.00     0.016 A 
ATOM     14  C   UNL     1     -53.304  22.178 -14.239  1.00  0.00     0.047 A 
ATOM     15  C   UNL     1     -53.703  20.870 -14.528  1.00  0.00     0.115 A 
ATOM     16  C   UNL     1     -56.006  21.618 -14.696  1.00  0.00     0.016 A 
ATOM     17  C   UNL     1     -55.057  20.592 -14.760  1.00  0.00     0.047 A 
BRANCH  15  18
ATOM     18  O   UNL     1     -52.750  19.856 -14.589  1.00  0.00    -0.508 OA
ATOM     19  H   UNL     1     -51.779  20.054 -14.801  1.00  0.00     0.293 HD
ENDBRANCH  15  18
ENDBRANCH   1  12
BRANCH   2  20
ATOM     20  O   UNL     1     -57.451  23.290 -12.172  1.00  0.00    -0.502 OA
ATOM     21  H   UNL     1     -57.942  22.404 -12.180  1.00  0.00     0.293 HD
ENDBRANCH   2  20
BRANCH   6  22
ATOM     22  O   UNL     1     -60.140  27.706 -13.454  1.00  0.00    -0.507 OA
ATOM     23  H   UNL     1     -59.989  27.509 -12.475  1.00  0.00     0.293 HD
ENDBRANCH   6  22
BRANCH   8  24
ATOM     24  O   UNL     1     -58.603  28.384 -17.934  1.00  0.00    -0.508 OA
ATOM     25  H   UNL     1     -57.781  28.545 -18.505  1.00  0.00     0.293 HD
ENDBRANCH   8  24
TORSDOF 5
ENDMDL
MODEL 3
REMARK VINA RESULT:    -4.921      7.821      8.810
REMARK INTER + INTRA:          -6.066
REMARK INTER:                  -5.784
REMARK INTRA:                  -0.282
REMARK UNBOUND:                -0.282
REMARK SMILES O=c1c(O)c(-c2ccc(O)cc2)oc2cc(O)cc(O)c12
REMARK SMILES IDX 5 1 3 2 2 3 1 4 21 5 19 6 18 7 16 8 15 9 14 10 13 11 6 12
REMARK SMILES IDX 7 13 8 14 9 15 12 16 11 17 10 18 4 20 20 22 17 24
REMARK H PARENT 10 19 4 21 20 23 17 25
REMARK Flexibility Score: inf
ROOT
ATOM      1  C   UNL     1     -53.879  14.793 -11.258  1.00  0.00     0.180 A 
ATOM      2  C   UNL     1     -52.649  15.443 -11.461  1.00  0.00     0.208 A 
ATOM      3  C   UNL     1     -51.699  14.852 -12.309  1.00  0.00     0.238 A 
ATOM      4  O   UNL     1     -50.622  15.465 -12.530  1.00  0.00    -0.285 OA
ATOM      5  C   UNL     1     -51.982  13.612 -12.929  1.00  0.00     0.111 A 
ATOM      6  C   UNL     1     -51.077  12.902 -13.775  1.00  0.00     0.134 A 
ATOM      7  C   UNL     1     -51.512  11.749 -14.439  1.00  0.00     0.093 A 
ATOM      8  C   UNL     1     -52.795  11.243 -14.238  1.00  0.00     0.123 A 
ATOM      9  C   UNL     1     -53.669  11.894 -13.367  1.00  0.00     0.094 A 
ATOM     10  C   UNL     1     -53.277  13.068 -12.718  1.00  0.00     0.146 A 
ATOM     11  O   UNL     1     -54.142  13.664 -11.906  1.00  0.00    -0.452 OA
ENDROOT
BRANCH   1  12
ATOM     12  C   UNL     1     -54.921  15.340 -10.359  1.00  0.00     0.021 A 
ATOM     13  C   UNL     1     -54.860  15.153  -8.966  1.00  0.00     0.016 A 
ATOM     14  C   UNL     1     -55.869  15.658  -8.140  1.00  0.00     0.047 A 
ATOM     15  C   UNL     1     -56.954  16.344  -8.693  1.00  0.00     0.115 A 
ATOM     16  C   UNL     1     -56.025  16.012 -10.909  1.00  0.00     0.016 A 
ATOM     17  C   UNL     1     -57.032  16.517 -10.080  1.00  0.00     0.047 A 
BRANCH  15  18
ATOM     18  O   UNL     1     -57.951  16.843  -7.858  1.00  0.00    -0.508 OA
ATOM     19  H   UNL     1     -58.706  16.255  -7.524  1.00  0.00     0.293 HD
ENDBRANCH  15  18
ENDBRANCH   1  12
BRANCH   2  20
ATOM     20  O   UNL     1     -52.399  16.678 -10.857  1.00  0.00    -0.502 OA
ATOM     21  H   UNL     1     -51.845  16.768 -10.014  1.00  0.00     0.293 HD
ENDBRANCH   2  20
BRANCH   6  22
ATOM     22  O   UNL     1     -49.744  13.270 -13.973  1.00  0.00    -0.507 OA
ATOM     23  H   UNL     1     -49.190  13.801 -13.317  1.00  0.00     0.293 HD
ENDBRANCH   6  22
BRANCH   8  24
ATOM     24  O   UNL     1     -53.189  10.084 -14.903  1.00  0.00    -0.508 OA
ATOM     25  H   UNL     1     -52.701   9.753 -15.728  1.00  0.00     0.293 HD
ENDBRANCH   8  24
TORSDOF 5
ENDMDL
MODEL 4
REMARK VINA RESULT:    -4.829      7.607      8.841
REMARK INTER + INTRA:          -5.958
REMARK INTER:                  -5.681
REMARK INTRA:                  -0.277
REMARK UNBOUND:                -0.282
REMARK SMILES O=c1c(O)c(-c2ccc(O)cc2)oc2cc(O)cc(O)c12
REMARK SMILES IDX 5 1 3 2 2 3 1 4 21 5 19 6 18 7 16 8 15 9 14 10 13 11 6 12
REMARK SMILES IDX 7 13 8 14 9 15 12 16 11 17 10 18 4 20 20 22 17 24
REMARK H PARENT 10 19 4 21 20 23 17 25
REMARK Flexibility Score: inf
ROOT
ATOM      1  C   UNL     1     -53.668  14.141 -11.891  1.00  0.00     0.180 A 
ATOM      2  C   UNL     1     -53.986  12.990 -12.633  1.00  0.00     0.208 A 
ATOM      3  C   UNL     1     -52.993  12.398 -13.430  1.00  0.00     0.238 A 
ATOM      4  O   UNL     1     -53.268  11.337 -14.049  1.00  0.00    -0.285 OA
ATOM      5  C   UNL     1     -51.701  12.973 -13.489  1.00  0.00     0.111 A 
ATOM      6  C   UNL     1     -50.630  12.480 -14.294  1.00  0.00     0.134 A 
ATOM      7  C   UNL     1     -49.356  13.049 -14.173  1.00  0.00     0.093 A 
ATOM      8  C   UNL     1     -49.130  14.133 -13.327  1.00  0.00     0.123 A 
ATOM      9  C   UNL     1     -50.182  14.662 -12.579  1.00  0.00     0.094 A 
ATOM     10  C   UNL     1     -51.456  14.092 -12.650  1.00  0.00     0.146 A 
ATOM     11  O   UNL     1     -52.429  14.618 -11.915  1.00  0.00    -0.452 OA
ENDROOT
BRANCH   1  12
ATOM     12  C   UNL     1     -54.667  14.837 -11.048  1.00  0.00     0.021 A 
ATOM     13  C   UNL     1     -55.611  15.718 -11.606  1.00  0.00     0.016 A 
ATOM     14  C   UNL     1     -56.529  16.383 -10.787  1.00  0.00     0.047 A 
ATOM     15  C   UNL     1     -56.509  16.186  -9.403  1.00  0.00     0.115 A 
ATOM     16  C   UNL     1     -54.640  14.659  -9.655  1.00  0.00     0.016 A 
ATOM     17  C   UNL     1     -55.560  15.324  -8.838  1.00  0.00     0.047 A 
BRANCH  15  18
ATOM     18  O   UNL     1     -57.431  16.853  -8.599  1.00  0.00    -0.508 OA
ATOM     19  H   UNL     1     -57.393  17.857  -8.472  1.00  0.00     0.293 HD
ENDBRANCH  15  18
ENDBRANCH   1  12
BRANCH   2  20
ATOM     20  O   UNL     1     -55.262  12.426 -12.544  1.00  0.00    -0.502 OA
ATOM     21  H   UNL     1     -56.106  12.964 -12.699  1.00  0.00     0.293 HD
ENDBRANCH   2  20
BRANCH   6  22
ATOM     22  O   UNL     1     -50.770  11.461 -15.239  1.00  0.00    -0.507 OA
ATOM     23  H   UNL     1     -50.632  11.574 -16.232  1.00  0.00     0.293 HD
ENDBRANCH   6  22
BRANCH   8  24
ATOM     24  O   UNL     1     -47.853  14.685 -13.243  1.00  0.00    -0.508 OA
ATOM     25  H   UNL     1     -47.099  14.370 -13.843  1.00  0.00     0.293 HD
ENDBRANCH   8  24
TORSDOF 5
ENDMDL
MODEL 5
REMARK VINA RESULT:    -4.744      6.510      9.769
REMARK INTER + INTRA:          -5.858
REMARK INTER:                  -5.574
REMARK INTRA:                  -0.284
REMARK UNBOUND:                -0.282
REMARK SMILES O=c1c(O)c(-c2ccc(O)cc2)oc2cc(O)cc(O)c12
REMARK SMILES IDX 5 1 3 2 2 3 1 4 21 5 19 6 18 7 16 8 15 9 14 10 13 11 6 12
REMARK SMILES IDX 7 13 8 14 9 15 12 16 11 17 10 18 4 20 20 22 17 24
REMARK H PARENT 10 19 4 21 20 23 17 25
REMARK Flexibility Score: inf
ROOT
ATOM      1  C   UNL     1     -56.369  24.563 -14.764  1.00  0.00     0.180 A 
ATOM      2  C   UNL     1     -55.896  25.383 -15.803  1.00  0.00     0.208 A 
ATOM      3  C   UNL     1     -56.676  26.476 -16.216  1.00  0.00     0.238 A 
ATOM      4  O   UNL     1     -56.222  27.238 -17.110  1.00  0.00    -0.285 OA
ATOM      5  C   UNL     1     -57.923  26.726 -15.597  1.00  0.00     0.111 A 
ATOM      6  C   UNL     1     -58.813  27.781 -15.963  1.00  0.00     0.134 A 
ATOM      7  C   UNL     1     -59.961  28.014 -15.195  1.00  0.00     0.093 A 
ATOM      8  C   UNL     1     -60.285  27.192 -14.117  1.00  0.00     0.123 A 
ATOM      9  C   UNL     1     -59.454  26.122 -13.787  1.00  0.00     0.094 A 
ATOM     10  C   UNL     1     -58.282  25.886 -14.511  1.00  0.00     0.146 A 
ATOM     11  O   UNL     1     -57.513  24.863 -14.158  1.00  0.00    -0.452 OA
ENDROOT
BRANCH   1  12
ATOM     12  C   UNL     1     -55.618  23.379 -14.290  1.00  0.00     0.021 A 
ATOM     13  C   UNL     1     -54.608  23.493 -13.317  1.00  0.00     0.016 A 
ATOM     14  C   UNL     1     -53.894  22.364 -12.903  1.00  0.00     0.047 A 
ATOM     15  C   UNL     1     -54.170  21.113 -13.462  1.00  0.00     0.115 A 
ATOM     16  C   UNL     1     -55.875  22.122 -14.862  1.00  0.00     0.016 A 
ATOM     17  C   UNL     1     -55.160  20.995 -14.445  1.00  0.00     0.047 A 
BRANCH  15  18
ATOM     18  O   UNL     1     -53.452  19.996 -13.039  1.00  0.00    -0.508 OA
ATOM     19  H   UNL     1     -53.838  19.341 -12.370  1.00  0.00     0.293 HD
ENDBRANCH  15  18
ENDBRANCH   1  12
BRANCH   2  20
ATOM     20  O   UNL     1     -54.652  25.132 -16.386  1.00  0.00    -0.502 OA
ATOM     21  H   UNL     1     -54.528  25.042 -17.387  1.00  0.00     0.293 HD
ENDBRANCH   2  20
BRANCH   6  22
ATOM     22  O   UNL     1     -58.631  28.604 -17.078  1.00  0.00    -0.507 OA
ATOM     23  H   UNL     1     -57.734  28.871 -17.455  1.00  0.00     0.293 HD
ENDBRANCH   6  22
BRANCH   8  24
ATOM     24  O   UNL     1     -61.443  27.444 -13.384  1.00  0.00    -0.508 OA
ATOM     25  H   UNL     1     -62.141  28.104 -13.706  1.00  0.00     0.293 HD
ENDBRANCH   8  24
TORSDOF 5
ENDMDL
MODEL 6
REMARK VINA RESULT:    -4.717      8.144      9.821
REMARK INTER + INTRA:          -5.826
REMARK INTER:                  -5.679
REMARK INTRA:                  -0.147
REMARK UNBOUND:                -0.282
REMARK SMILES O=c1c(O)c(-c2ccc(O)cc2)oc2cc(O)cc(O)c12
REMARK SMILES IDX 5 1 3 2 2 3 1 4 21 5 19 6 18 7 16 8 15 9 14 10 13 11 6 12
REMARK SMILES IDX 7 13 8 14 9 15 12 16 11 17 10 18 4 20 20 22 17 24
REMARK H PARENT 10 19 4 21 20 23 17 25
REMARK Flexibility Score: inf
ROOT
ATOM      1  C   UNL     1     -58.146  24.715 -12.806  1.00  0.00     0.180 A 
ATOM      2  C   UNL     1     -58.806  25.505 -11.848  1.00  0.00     0.208 A 
ATOM      3  C   UNL     1     -59.331  24.887 -10.702  1.00  0.00     0.238 A 
ATOM      4  O   UNL     1     -59.872  25.607  -9.822  1.00  0.00    -0.285 OA
ATOM      5  C   UNL     1     -59.204  23.488 -10.534  1.00  0.00     0.111 A 
ATOM      6  C   UNL     1     -59.733  22.751  -9.431  1.00  0.00     0.134 A 
ATOM      7  C   UNL     1     -59.434  21.390  -9.303  1.00  0.00     0.093 A 
ATOM      8  C   UNL     1     -58.683  20.723 -10.270  1.00  0.00     0.123 A 
ATOM      9  C   UNL     1     -58.211  21.419 -11.383  1.00  0.00     0.094 A 
ATOM     10  C   UNL     1     -58.461  22.787 -11.520  1.00  0.00     0.146 A 
ATOM     11  O   UNL     1     -57.985  23.415 -12.589  1.00  0.00    -0.452 OA
ENDROOT
BRANCH   1  12
ATOM     12  C   UNL     1     -57.589  25.289 -14.052  1.00  0.00     0.021 A 
ATOM     13  C   UNL     1     -58.417  25.889 -15.018  1.00  0.00     0.016 A 
ATOM     14  C   UNL     1     -57.871  26.402 -16.198  1.00  0.00     0.047 A 
ATOM     15  C   UNL     1     -56.497  26.312 -16.435  1.00  0.00     0.115 A 
ATOM     16  C   UNL     1     -56.211  25.184 -14.306  1.00  0.00     0.016 A 
ATOM     17  C   UNL     1     -55.668  25.699 -15.487  1.00  0.00     0.047 A 
BRANCH  15  18
ATOM     18  O   UNL     1     -55.966  26.829 -17.615  1.00  0.00    -0.508 OA
ATOM     19  H   UNL     1     -56.246  26.475 -18.521  1.00  0.00     0.293 HD
ENDBRANCH  15  18
ENDBRANCH   1  12
BRANCH   2  20
ATOM     20  O   UNL     1     -58.900  26.888 -12.022  1.00  0.00    -0.502 OA
ATOM     21  H   UNL     1     -58.731  27.337 -12.914  1.00  0.00     0.293 HD
ENDBRANCH   2  20
BRANCH   6  22
ATOM     22  O   UNL     1     -60.572  23.300  -8.458  1.00  0.00    -0.507 OA
ATOM     23  H   UNL     1     -61.578  23.220  -8.453  1.00  0.00     0.293 HD
ENDBRANCH   6  22
BRANCH   8  24
ATOM     24  O   UNL     1     -58.419  19.363 -10.118  1.00  0.00    -0.508 OA
ATOM     25  H   UNL     1     -58.136  18.975  -9.226  1.00  0.00     0.293 HD
ENDBRANCH   8  24
TORSDOF 5
ENDMDL
MODEL 7
REMARK VINA RESULT:    -4.687      1.390      3.114
REMARK INTER + INTRA:          -5.791
REMARK INTER:                  -5.519
REMARK INTRA:                  -0.272
REMARK UNBOUND:                -0.282
REMARK SMILES O=c1c(O)c(-c2ccc(O)cc2)oc2cc(O)cc(O)c12
REMARK SMILES IDX 5 1 3 2 2 3 1 4 21 5 19 6 18 7 16 8 15 9 14 10 13 11 6 12
REMARK SMILES IDX 7 13 8 14 9 15 12 16 11 17 10 18 4 20 20 22 17 24
REMARK H PARENT 10 19 4 21 20 23 17 25
REMARK Flexibility Score: inf
ROOT
ATOM      1  C   UNL     1     -57.502  17.968 -17.482  1.00  0.00     0.180 A 
ATOM      2  C   UNL     1     -56.354  17.163 -17.582  1.00  0.00     0.208 A 
ATOM      3  C   UNL     1     -55.167  17.591 -16.966  1.00  0.00     0.238 A 
ATOM      4  O   UNL     1     -54.157  16.840 -17.012  1.00  0.00    -0.285 OA
ATOM      5  C   UNL     1     -55.138  18.824 -16.272  1.00  0.00     0.111 A 
ATOM      6  C   UNL     1     -53.979  19.374 -15.644  1.00  0.00     0.134 A 
ATOM      7  C   UNL     1     -54.098  20.537 -14.874  1.00  0.00     0.093 A 
ATOM      8  C   UNL     1     -55.316  21.206 -14.763  1.00  0.00     0.123 A 
ATOM      9  C   UNL     1     -56.442  20.710 -15.421  1.00  0.00     0.094 A 
ATOM     10  C   UNL     1     -56.364  19.532 -16.166  1.00  0.00     0.146 A 
ATOM     11  O   UNL     1     -57.461  19.087 -16.769  1.00  0.00    -0.452 OA
ENDROOT
BRANCH   1  12
ATOM     12  C   UNL     1     -58.783  17.597 -18.126  1.00  0.00     0.021 A 
ATOM     13  C   UNL     1     -59.796  16.932 -17.413  1.00  0.00     0.016 A 
ATOM     14  C   UNL     1     -60.988  16.569 -18.048  1.00  0.00     0.047 A 
ATOM     15  C   UNL     1     -61.178  16.855 -19.403  1.00  0.00     0.115 A 
ATOM     16  C   UNL     1     -58.972  17.862 -19.493  1.00  0.00     0.016 A 
ATOM     17  C   UNL     1     -60.166  17.500 -20.125  1.00  0.00     0.047 A 
BRANCH  15  18
ATOM     18  O   UNL     1     -62.371  16.490 -20.023  1.00  0.00    -0.508 OA
ATOM     19  H   UNL     1     -63.209  16.300 -19.488  1.00  0.00     0.293 HD
ENDBRANCH  15  18
ENDBRANCH   1  12
BRANCH   2  20
ATOM     20  O   UNL     1     -56.410  15.938 -18.253  1.00  0.00    -0.502 OA
ATOM     21  H   UNL     1     -56.139  15.066 -17.815  1.00  0.00     0.293 HD
ENDBRANCH   2  20
BRANCH   6  22
ATOM     22  O   UNL     1     -52.696  18.836 -15.767  1.00  0.00    -0.507 OA
ATOM     23  H   UNL     1     -52.474  17.986 -16.264  1.00  0.00     0.293 HD
ENDBRANCH   6  22
BRANCH   8  24
ATOM     24  O   UNL     1     -55.394  22.370 -14.001  1.00  0.00    -0.508 OA
ATOM     25  H   UNL     1     -55.538  23.276 -14.431  1.00  0.00     0.293 HD
ENDBRANCH   8  24
TORSDOF 5
ENDMDL
MODEL 8
REMARK VINA RESULT:    -4.679      2.065      2.754
REMARK INTER + INTRA:          -5.782
REMARK INTER:                  -5.489
REMARK INTRA:                  -0.293
REMARK UNBOUND:                -0.282
REMARK SMILES O=c1c(O)c(-c2ccc(O)cc2)oc2cc(O)cc(O)c12
REMARK SMILES IDX 5 1 3 2 2 3 1 4 21 5 19 6 18 7 16 8 15 9 14 10 13 11 6 12
REMARK SMILES IDX 7 13 8 14 9 15 12 16 11 17 10 18 4 20 20 22 17 24
REMARK H PARENT 10 19 4 21 20 23 17 25
REMARK Flexibility Score: inf
ROOT
ATOM      1  C   UNL     1     -57.054  17.546 -16.949  1.00  0.00     0.180 A 
ATOM      2  C   UNL     1     -56.308  18.218 -17.933  1.00  0.00     0.208 A 
ATOM      3  C   UNL     1     -54.952  18.492 -17.689  1.00  0.00     0.238 A 
ATOM      4  O   UNL     1     -54.276  19.045 -18.595  1.00  0.00    -0.285 OA
ATOM      5  C   UNL     1     -54.364  18.104 -16.461  1.00  0.00     0.111 A 
ATOM      6  C   UNL     1     -53.010  18.366 -16.092  1.00  0.00     0.134 A 
ATOM      7  C   UNL     1     -52.500  17.821 -14.907  1.00  0.00     0.093 A 
ATOM      8  C   UNL     1     -53.310  17.082 -14.047  1.00  0.00     0.123 A 
ATOM      9  C   UNL     1     -54.651  16.870 -14.368  1.00  0.00     0.094 A 
ATOM     10  C   UNL     1     -55.180  17.369 -15.561  1.00  0.00     0.146 A 
ATOM     11  O   UNL     1     -56.458  17.136 -15.835  1.00  0.00    -0.452 OA
ENDROOT
BRANCH   1  12
ATOM     12  C   UNL     1     -58.494  17.244 -17.122  1.00  0.00     0.021 A 
ATOM     13  C   UNL     1     -59.484  18.194 -16.811  1.00  0.00     0.016 A 
ATOM     14  C   UNL     1     -60.838  17.878 -16.959  1.00  0.00     0.047 A 
ATOM     15  C   UNL     1     -61.221  16.610 -17.404  1.00  0.00     0.115 A 
ATOM     16  C   UNL     1     -58.886  15.965 -17.549  1.00  0.00     0.016 A 
ATOM     17  C   UNL     1     -60.241  15.652 -17.697  1.00  0.00     0.047 A 
BRANCH  15  18
ATOM     18  O   UNL     1     -62.573  16.309 -17.548  1.00  0.00    -0.508 OA
ATOM     19  H   UNL     1     -62.904  15.352 -17.569  1.00  0.00     0.293 HD
ENDBRANCH  15  18
ENDBRANCH   1  12
BRANCH   2  20
ATOM     20  O   UNL     1     -56.902  18.572 -19.147  1.00  0.00    -0.502 OA
ATOM     21  H   UNL     1     -57.244  17.883 -19.805  1.00  0.00     0.293 HD
ENDBRANCH   2  20
BRANCH   6  22
ATOM     22  O   UNL     1     -52.141  19.170 -16.835  1.00  0.00    -0.507 OA
ATOM     23  H   UNL     1     -51.453  19.792 -16.438  1.00  0.00     0.293 HD
ENDBRANCH   6  22
BRANCH   8  24
ATOM     24  O   UNL     1     -52.773  16.569 -12.869  1.00  0.00    -0.508 OA
ATOM     25  H   UNL     1     -51.861  16.857 -12.532  1.00  0.00     0.293 HD
ENDBRANCH   8  24
TORSDOF 5
ENDMDL
MODEL 9
REMARK VINA RESULT:    -4.625      8.721     10.662
REMARK INTER + INTRA:          -5.718
REMARK INTER:                  -5.423
REMARK INTRA:                  -0.296
REMARK UNBOUND:                -0.282
REMARK SMILES O=c1c(O)c(-c2ccc(O)cc2)oc2cc(O)cc(O)c12
REMARK SMILES IDX 5 1 3 2 2 3 1 4 21 5 19 6 18 7 16 8 15 9 14 10 13 11 6 12
REMARK SMILES IDX 7 13 8 14 9 15 12 16 11 17 10 18 4 20 20 22 17 24
REMARK H PARENT 10 19 4 21 20 23 17 25
REMARK Flexibility Score: inf
ROOT
ATOM      1  C   UNL     1     -59.427  27.122 -13.392  1.00  0.00     0.180 A 
ATOM      2  C   UNL     1     -59.422  27.928 -14.545  1.00  0.00     0.208 A 
ATOM      3  C   UNL     1     -58.468  27.679 -15.545  1.00  0.00     0.238 A 
ATOM      4  O   UNL     1     -58.504  28.368 -16.598  1.00  0.00    -0.285 OA
ATOM      5  C   UNL     1     -57.522  26.641 -15.374  1.00  0.00     0.111 A 
ATOM      6  C   UNL     1     -56.485  26.327 -16.305  1.00  0.00     0.134 A 
ATOM      7  C   UNL     1     -55.689  25.194 -16.095  1.00  0.00     0.093 A 
ATOM      8  C   UNL     1     -55.846  24.404 -14.957  1.00  0.00     0.123 A 
ATOM      9  C   UNL     1     -56.816  24.736 -14.011  1.00  0.00     0.094 A 
ATOM     10  C   UNL     1     -57.651  25.838 -14.210  1.00  0.00     0.146 A 
ATOM     11  O   UNL     1     -58.569  26.113 -13.291  1.00  0.00    -0.452 OA
ENDROOT
BRANCH   1  12
ATOM     12  C   UNL     1     -60.385  27.338 -12.284  1.00  0.00     0.021 A 
ATOM     13  C   UNL     1     -60.122  28.264 -11.258  1.00  0.00     0.016 A 
ATOM     14  C   UNL     1     -61.029  28.433 -10.208  1.00  0.00     0.047 A 
ATOM     15  C   UNL     1     -62.202  27.674 -10.162  1.00  0.00     0.115 A 
ATOM     16  C   UNL     1     -61.555  26.563 -12.220  1.00  0.00     0.016 A 
ATOM     17  C   UNL     1     -62.461  26.736 -11.169  1.00  0.00     0.047 A 
BRANCH  15  18
ATOM     18  O   UNL     1     -63.098  27.853  -9.111  1.00  0.00    -0.508 OA
ATOM     19  H   UNL     1     -63.239  27.139  -8.407  1.00  0.00     0.293 HD
ENDBRANCH  15  18
ENDBRANCH   1  12
BRANCH   2  20
ATOM     20  O   UNL     1     -60.379  28.933 -14.704  1.00  0.00    -0.502 OA
ATOM     21  H   UNL     1     -60.672  29.531 -13.940  1.00  0.00     0.293 HD
ENDBRANCH   2  20
BRANCH   6  22
ATOM     22  O   UNL     1     -56.183  27.103 -17.426  1.00  0.00    -0.507 OA
ATOM     23  H   UNL     1     -56.399  26.847 -18.378  1.00  0.00     0.293 HD
ENDBRANCH   6  22
BRANCH   8  24
ATOM     24  O   UNL     1     -55.024  23.294 -14.773  1.00  0.00    -0.508 OA
ATOM     25  H   UNL     1     -54.806  22.663 -15.535  1.00  0.00     0.293 HD
ENDBRANCH   8  24
TORSDOF 5
ENDMDL
