MODEL 1
REMARK VINA RESULT:    -6.725      0.000      0.000
REMARK INTER + INTRA:         -11.390
REMARK INTER:                  -9.870
REMARK INTRA:                  -1.520
REMARK UNBOUND:                -1.520
REMARK SMILES O=c1c(O[C@@H]2O[C@H](CO)[C@H](O)[C@H](O)[C@H]2O)c(-c2ccc(O)c(O)c2)oc2cc(O)cc(O)c12
REMARK SMILES IDX 4 1 3 2 16 3 25 4 2 5 26 6 1 7 33 8 27 9 31 10 28 11 30 12
REMARK SMILES IDX 17 13 18 14 19 15 20 16 24 17 22 18 21 19 23 21 32 23 29 25
REMARK SMILES IDX 5 27 14 28 6 29 12 30 7 31 10 32 15 33 13 35 8 37 9 38 11 40
REMARK H PARENT 21 20 23 22 32 24 29 26 15 34 13 36 9 39 11 41
REMARK Flexibility Score: inf
ROOT
ATOM      1  O   UNL     1      -0.293  45.990  82.138  1.00  0.00    -0.454 OA
ENDROOT
BRANCH   1   2
ATOM      2  C   UNL     1       0.377  44.802  81.813  1.00  0.00     0.214 A 
ATOM      3  C   UNL     1       0.079  44.051  80.655  1.00  0.00     0.180 A 
ATOM      4  O   UNL     1       0.638  42.858  80.489  1.00  0.00    -0.452 OA
ATOM      5  C   UNL     1       1.378  44.338  82.676  1.00  0.00     0.239 A 
ATOM      6  C   UNL     1       1.540  42.348  81.319  1.00  0.00     0.146 A 
ATOM      7  O   UNL     1       1.667  45.034  83.682  1.00  0.00    -0.285 OA
ATOM      8  C   UNL     1       2.005  43.095  82.431  1.00  0.00     0.111 A 
ATOM      9  C   UNL     1       2.029  41.062  81.074  1.00  0.00     0.094 A 
ATOM     10  C   UNL     1       3.027  42.530  83.252  1.00  0.00     0.134 A 
ATOM     11  C   UNL     1       2.980  40.494  81.917  1.00  0.00     0.123 A 
ATOM     12  C   UNL     1       3.474  41.227  82.999  1.00  0.00     0.093 A 
BRANCH   3  13
ATOM     13  C   UNL     1      -0.823  44.544  79.588  1.00  0.00     0.025 A 
ATOM     14  C   UNL     1      -1.985  43.826  79.275  1.00  0.00     0.016 A 
ATOM     15  C   UNL     1      -2.844  44.276  78.271  1.00  0.00     0.051 A 
ATOM     16  C   UNL     1      -2.555  45.443  77.554  1.00  0.00     0.157 A 
ATOM     17  C   UNL     1      -0.510  45.696  78.845  1.00  0.00     0.062 A 
ATOM     18  C   UNL     1      -1.370  46.161  77.844  1.00  0.00     0.158 A 
BRANCH  16  19
ATOM     19  O   UNL     1      -3.464  45.848  76.574  1.00  0.00    -0.504 OA
ATOM     20  H   UNL     1      -4.349  45.395  76.403  1.00  0.00     0.293 HD
ENDBRANCH  16  19
BRANCH  18  21
ATOM     21  O   UNL     1      -1.011  47.329  77.167  1.00  0.00    -0.504 OA
ATOM     22  H   UNL     1      -0.076  47.712  77.159  1.00  0.00     0.293 HD
ENDBRANCH  18  21
ENDBRANCH   3  13
BRANCH  10  23
ATOM     23  O   UNL     1       3.648  43.209  84.304  1.00  0.00    -0.507 OA
ATOM     24  H   UNL     1       4.472  43.785  84.211  1.00  0.00     0.293 HD
ENDBRANCH  10  23
BRANCH  11  25
ATOM     25  O   UNL     1       3.437  39.202  81.668  1.00  0.00    -0.508 OA
ATOM     26  H   UNL     1       4.411  39.015  81.465  1.00  0.00     0.293 HD
ENDBRANCH  11  25
ENDBRANCH   1   2
BRANCH   1  27
ATOM     27  C   UNL     1      -1.626  46.044  82.661  1.00  0.00     0.339 C 
ATOM     28  C   UNL     1      -1.659  45.818  84.197  1.00  0.00     0.214 C 
ATOM     29  O   UNL     1      -2.279  47.239  82.251  1.00  0.00    -0.332 OA
ATOM     30  C   UNL     1      -1.206  47.061  84.988  1.00  0.00     0.180 C 
ATOM     31  C   UNL     1      -1.788  48.417  82.883  1.00  0.00     0.179 C 
ATOM     32  C   UNL     1      -1.883  48.325  84.426  1.00  0.00     0.177 C 
BRANCH  28  33
ATOM     33  O   UNL     1      -2.938  45.409  84.621  1.00  0.00    -0.384 OA
ATOM     34  H   UNL     1      -3.256  44.692  84.010  1.00  0.00     0.211 HD
ENDBRANCH  28  33
BRANCH  30  35
ATOM     35  O   UNL     1       0.192  47.186  84.940  1.00  0.00    -0.387 OA
ATOM     36  H   UNL     1       0.478  46.895  84.035  1.00  0.00     0.211 HD
ENDBRANCH  30  35
BRANCH  31  37
ATOM     37  C   UNL     1      -0.422  48.872  82.327  1.00  0.00     0.191 C 
BRANCH  37  38
ATOM     38  O   UNL     1       0.281  49.573  83.316  1.00  0.00    -0.394 OA
ATOM     39  H   UNL     1       0.144  49.073  84.163  1.00  0.00     0.210 HD
ENDBRANCH  37  38
ENDBRANCH  31  37
BRANCH  32  40
ATOM     40  O   UNL     1      -1.436  49.498  85.062  1.00  0.00    -0.387 OA
ATOM     41  H   UNL     1      -1.315  50.203  84.375  1.00  0.00     0.211 HD
ENDBRANCH  32  40
ENDBRANCH   1  27
TORSDOF 12
ENDMDL
MODEL 2
REMARK VINA RESULT:    -6.657      1.737      5.126
REMARK INTER + INTRA:         -11.291
REMARK INTER:                 -10.077
REMARK INTRA:                  -1.214
REMARK UNBOUND:                -1.520
REMARK SMILES O=c1c(O[C@@H]2O[C@H](CO)[C@H](O)[C@H](O)[C@H]2O)c(-c2ccc(O)c(O)c2)oc2cc(O)cc(O)c12
REMARK SMILES IDX 4 1 3 2 16 3 25 4 2 5 26 6 1 7 33 8 27 9 31 10 28 11 30 12
REMARK SMILES IDX 17 13 18 14 19 15 20 16 24 17 22 18 21 19 23 21 32 23 29 25
REMARK SMILES IDX 5 27 14 28 6 29 12 30 7 31 10 32 15 33 13 35 8 37 9 38 11 40
REMARK H PARENT 21 20 23 22 32 24 29 26 15 34 13 36 9 39 11 41
REMARK Flexibility Score: inf
ROOT
ATOM      1  O   UNL     1      -0.622  46.056  80.651  1.00  0.00    -0.454 OA
ENDROOT
BRANCH   1   2
ATOM      2  C   UNL     1       0.179  45.279  81.500  1.00  0.00     0.214 A 
ATOM      3  C   UNL     1       0.654  45.751  82.742  1.00  0.00     0.180 A 
ATOM      4  O   UNL     1       1.535  45.027  83.423  1.00  0.00    -0.452 OA
ATOM      5  C   UNL     1       0.528  43.985  81.094  1.00  0.00     0.239 A 
ATOM      6  C   UNL     1       1.947  43.824  83.040  1.00  0.00     0.146 A 
ATOM      7  O   UNL     1       0.067  43.556  80.006  1.00  0.00    -0.285 OA
ATOM      8  C   UNL     1       1.414  43.211  81.878  1.00  0.00     0.111 A 
ATOM      9  C   UNL     1       2.913  43.169  83.808  1.00  0.00     0.094 A 
ATOM     10  C   UNL     1       1.838  41.888  81.550  1.00  0.00     0.134 A 
ATOM     11  C   UNL     1       3.368  41.904  83.444  1.00  0.00     0.123 A 
ATOM     12  C   UNL     1       2.831  41.270  82.321  1.00  0.00     0.093 A 
BRANCH   3  13
ATOM     13  C   UNL     1       0.195  47.023  83.347  1.00  0.00     0.025 A 
ATOM     14  C   UNL     1       0.399  48.230  82.664  1.00  0.00     0.016 A 
ATOM     15  C   UNL     1      -0.025  49.437  83.222  1.00  0.00     0.051 A 
ATOM     16  C   UNL     1      -0.651  49.465  84.473  1.00  0.00     0.157 A 
ATOM     17  C   UNL     1      -0.400  47.051  84.621  1.00  0.00     0.062 A 
ATOM     18  C   UNL     1      -0.839  48.255  85.183  1.00  0.00     0.158 A 
BRANCH  16  19
ATOM     19  O   UNL     1      -1.067  50.704  84.967  1.00  0.00    -0.504 OA
ATOM     20  H   UNL     1      -0.857  51.587  84.525  1.00  0.00     0.293 HD
ENDBRANCH  16  19
BRANCH  18  21
ATOM     21  O   UNL     1      -1.449  48.204  86.439  1.00  0.00    -0.504 OA
ATOM     22  H   UNL     1      -1.301  48.890  87.166  1.00  0.00     0.293 HD
ENDBRANCH  18  21
ENDBRANCH   3  13
BRANCH  10  23
ATOM     23  O   UNL     1       1.304  41.134  80.500  1.00  0.00    -0.507 OA
ATOM     24  H   UNL     1       1.673  41.113  79.561  1.00  0.00     0.293 HD
ENDBRANCH  10  23
BRANCH  11  25
ATOM     25  O   UNL     1       4.348  41.278  84.210  1.00  0.00    -0.508 OA
ATOM     26  H   UNL     1       4.439  40.269  84.234  1.00  0.00     0.293 HD
ENDBRANCH  11  25
ENDBRANCH   1   2
BRANCH   1  27
ATOM     27  C   UNL     1      -2.045  45.925  80.547  1.00  0.00     0.339 C 
ATOM     28  C   UNL     1      -2.788  47.180  81.081  1.00  0.00     0.214 C 
ATOM     29  O   UNL     1      -2.421  45.568  79.222  1.00  0.00    -0.332 OA
ATOM     30  C   UNL     1      -2.737  48.362  80.095  1.00  0.00     0.180 C 
ATOM     31  C   UNL     1      -2.265  46.615  78.270  1.00  0.00     0.179 C 
ATOM     32  C   UNL     1      -3.064  47.881  78.670  1.00  0.00     0.177 C 
BRANCH  28  33
ATOM     33  O   UNL     1      -4.122  46.875  81.412  1.00  0.00    -0.384 OA
ATOM     34  H   UNL     1      -4.589  47.720  81.642  1.00  0.00     0.211 HD
ENDBRANCH  28  33
BRANCH  30  35
ATOM     35  O   UNL     1      -1.475  48.975  80.133  1.00  0.00    -0.387 OA
ATOM     36  H   UNL     1      -0.799  48.251  80.068  1.00  0.00     0.211 HD
ENDBRANCH  30  35
BRANCH  31  37
ATOM     37  C   UNL     1      -0.792  46.856  77.877  1.00  0.00     0.191 C 
BRANCH  37  38
ATOM     38  O   UNL     1      -0.729  47.408  76.591  1.00  0.00    -0.394 OA
ATOM     39  H   UNL     1      -0.594  46.647  75.968  1.00  0.00     0.210 HD
ENDBRANCH  37  38
ENDBRANCH  31  37
BRANCH  32  40
ATOM     40  O   UNL     1      -2.948  48.911  77.718  1.00  0.00    -0.387 OA
ATOM     41  H   UNL     1      -2.722  49.753  78.191  1.00  0.00     0.211 HD
ENDBRANCH  32  40
ENDBRANCH   1  27
TORSDOF 12
ENDMDL
MODEL 3
REMARK VINA RESULT:    -6.586      0.997      1.914
REMARK INTER + INTRA:         -11.187
REMARK INTER:                  -9.544
REMARK INTRA:                  -1.643
REMARK UNBOUND:                -1.520
REMARK SMILES O=c1c(O[C@@H]2O[C@H](CO)[C@H](O)[C@H](O)[C@H]2O)c(-c2ccc(O)c(O)c2)oc2cc(O)cc(O)c12
REMARK SMILES IDX 4 1 3 2 16 3 25 4 2 5 26 6 1 7 33 8 27 9 31 10 28 11 30 12
REMARK SMILES IDX 17 13 18 14 19 15 20 16 24 17 22 18 21 19 23 21 32 23 29 25
REMARK SMILES IDX 5 27 14 28 6 29 12 30 7 31 10 32 15 33 13 35 8 37 9 38 11 40
REMARK H PARENT 21 20 23 22 32 24 29 26 15 34 13 36 9 39 11 41
REMARK Flexibility Score: inf
ROOT
ATOM      1  O   UNL     1      -0.694  46.043  82.233  1.00  0.00    -0.454 OA
ENDROOT
BRANCH   1   2
ATOM      2  C   UNL     1       0.045  44.908  81.870  1.00  0.00     0.214 A 
ATOM      3  C   UNL     1      -0.222  44.168  80.698  1.00  0.00     0.180 A 
ATOM      4  O   UNL     1       0.408  43.017  80.495  1.00  0.00    -0.452 OA
ATOM      5  C   UNL     1       1.086  44.489  82.707  1.00  0.00     0.239 A 
ATOM      6  C   UNL     1       1.353  42.546  81.300  1.00  0.00     0.146 A 
ATOM      7  O   UNL     1       1.346  45.178  83.726  1.00  0.00    -0.285 OA
ATOM      8  C   UNL     1       1.787  43.294  82.423  1.00  0.00     0.111 A 
ATOM      9  C   UNL     1       1.919  41.300  81.015  1.00  0.00     0.094 A 
ATOM     10  C   UNL     1       2.855  42.776  83.215  1.00  0.00     0.134 A 
ATOM     11  C   UNL     1       2.917  40.774  81.831  1.00  0.00     0.123 A 
ATOM     12  C   UNL     1       3.380  41.511  82.924  1.00  0.00     0.093 A 
BRANCH   3  13
ATOM     13  C   UNL     1      -1.170  44.627  79.656  1.00  0.00     0.025 A 
ATOM     14  C   UNL     1      -2.516  44.241  79.723  1.00  0.00     0.016 A 
ATOM     15  C   UNL     1      -3.421  44.664  78.748  1.00  0.00     0.051 A 
ATOM     16  C   UNL     1      -2.999  45.470  77.684  1.00  0.00     0.157 A 
ATOM     17  C   UNL     1      -0.735  45.405  78.569  1.00  0.00     0.062 A 
ATOM     18  C   UNL     1      -1.637  45.843  77.592  1.00  0.00     0.158 A 
BRANCH  16  19
ATOM     19  O   UNL     1      -3.958  45.873  76.751  1.00  0.00    -0.504 OA
ATOM     20  H   UNL     1      -4.166  46.837  76.536  1.00  0.00     0.293 HD
ENDBRANCH  16  19
BRANCH  18  21
ATOM     21  O   UNL     1      -1.141  46.640  76.557  1.00  0.00    -0.504 OA
ATOM     22  H   UNL     1      -1.689  47.332  76.066  1.00  0.00     0.293 HD
ENDBRANCH  18  21
ENDBRANCH   3  13
BRANCH  10  23
ATOM     23  O   UNL     1       3.448  43.468  84.276  1.00  0.00    -0.507 OA
ATOM     24  H   UNL     1       2.981  44.158  84.846  1.00  0.00     0.293 HD
ENDBRANCH  10  23
BRANCH  11  25
ATOM     25  O   UNL     1       3.451  39.520  81.544  1.00  0.00    -0.508 OA
ATOM     26  H   UNL     1       4.353  39.419  81.093  1.00  0.00     0.293 HD
ENDBRANCH  11  25
ENDBRANCH   1   2
BRANCH   1  27
ATOM     27  C   UNL     1      -0.573  47.320  81.594  1.00  0.00     0.339 C 
ATOM     28  C   UNL     1      -1.906  47.774  80.939  1.00  0.00     0.214 C 
ATOM     29  O   UNL     1      -0.028  48.280  82.490  1.00  0.00    -0.332 OA
ATOM     30  C   UNL     1      -2.926  48.290  81.972  1.00  0.00     0.180 C 
ATOM     31  C   UNL     1      -0.917  48.681  83.527  1.00  0.00     0.179 C 
ATOM     32  C   UNL     1      -2.241  49.251  82.961  1.00  0.00     0.177 C 
BRANCH  28  33
ATOM     33  O   UNL     1      -1.676  48.747  79.948  1.00  0.00    -0.384 OA
ATOM     34  H   UNL     1      -0.999  48.394  79.313  1.00  0.00     0.211 HD
ENDBRANCH  28  33
BRANCH  30  35
ATOM     35  O   UNL     1      -3.516  47.215  82.654  1.00  0.00    -0.387 OA
ATOM     36  H   UNL     1      -3.822  47.561  83.533  1.00  0.00     0.211 HD
ENDBRANCH  30  35
BRANCH  31  37
ATOM     37  C   UNL     1      -1.072  47.614  84.631  1.00  0.00     0.191 C 
BRANCH  37  38
ATOM     38  O   UNL     1       0.193  47.214  85.083  1.00  0.00    -0.394 OA
ATOM     39  H   UNL     1       0.241  47.474  86.040  1.00  0.00     0.210 HD
ENDBRANCH  37  38
ENDBRANCH  31  37
BRANCH  32  40
ATOM     40  O   UNL     1      -3.115  49.685  83.976  1.00  0.00    -0.387 OA
ATOM     41  H   UNL     1      -3.969  49.968  83.557  1.00  0.00     0.211 HD
ENDBRANCH  32  40
ENDBRANCH   1  27
TORSDOF 12
ENDMDL
MODEL 4
REMARK VINA RESULT:    -6.249      2.954      6.271
REMARK INTER + INTRA:         -10.691
REMARK INTER:                  -9.464
REMARK INTRA:                  -1.228
REMARK UNBOUND:                -1.520
REMARK SMILES O=c1c(O[C@@H]2O[C@H](CO)[C@H](O)[C@H](O)[C@H]2O)c(-c2ccc(O)c(O)c2)oc2cc(O)cc(O)c12
REMARK SMILES IDX 4 1 3 2 16 3 25 4 2 5 26 6 1 7 33 8 27 9 31 10 28 11 30 12
REMARK SMILES IDX 17 13 18 14 19 15 20 16 24 17 22 18 21 19 23 21 32 23 29 25
REMARK SMILES IDX 5 27 14 28 6 29 12 30 7 31 10 32 15 33 13 35 8 37 9 38 11 40
REMARK H PARENT 21 20 23 22 32 24 29 26 15 34 13 36 9 39 11 41
REMARK Flexibility Score: inf
ROOT
ATOM      1  O   UNL     1       3.277  42.647  83.260  1.00  0.00    -0.454 OA
ENDROOT
BRANCH   1   2
ATOM      2  C   UNL     1       2.268  41.897  82.640  1.00  0.00     0.214 A 
ATOM      3  C   UNL     1       0.980  42.415  82.386  1.00  0.00     0.180 A 
ATOM      4  O   UNL     1       0.026  41.605  81.942  1.00  0.00    -0.452 OA
ATOM      5  C   UNL     1       2.548  40.577  82.264  1.00  0.00     0.239 A 
ATOM      6  C   UNL     1       0.230  40.328  81.639  1.00  0.00     0.146 A 
ATOM      7  O   UNL     1       3.710  40.136  82.455  1.00  0.00    -0.285 OA
ATOM      8  C   UNL     1       1.526  39.761  81.727  1.00  0.00     0.111 A 
ATOM      9  C   UNL     1      -0.857  39.554  81.224  1.00  0.00     0.094 A 
ATOM     10  C   UNL     1       1.704  38.404  81.322  1.00  0.00     0.134 A 
ATOM     11  C   UNL     1      -0.684  38.213  80.891  1.00  0.00     0.123 A 
ATOM     12  C   UNL     1       0.591  37.645  80.941  1.00  0.00     0.093 A 
BRANCH   3  13
ATOM     13  C   UNL     1       0.639  43.845  82.572  1.00  0.00     0.025 A 
ATOM     14  C   UNL     1       1.090  44.793  81.643  1.00  0.00     0.016 A 
ATOM     15  C   UNL     1       0.779  46.143  81.805  1.00  0.00     0.051 A 
ATOM     16  C   UNL     1       0.022  46.575  82.899  1.00  0.00     0.157 A 
ATOM     17  C   UNL     1      -0.090  44.280  83.693  1.00  0.00     0.062 A 
ATOM     18  C   UNL     1      -0.416  45.631  83.858  1.00  0.00     0.158 A 
BRANCH  16  19
ATOM     19  O   UNL     1      -0.269  47.939  82.994  1.00  0.00    -0.504 OA
ATOM     20  H   UNL     1      -0.559  48.509  82.214  1.00  0.00     0.293 HD
ENDBRANCH  16  19
BRANCH  18  21
ATOM     21  O   UNL     1      -1.169  45.987  84.979  1.00  0.00    -0.504 OA
ATOM     22  H   UNL     1      -1.783  45.353  85.471  1.00  0.00     0.293 HD
ENDBRANCH  18  21
ENDBRANCH   3  13
BRANCH  10  23
ATOM     23  O   UNL     1       2.947  37.766  81.253  1.00  0.00    -0.507 OA
ATOM     24  H   UNL     1       3.082  36.766  81.254  1.00  0.00     0.293 HD
ENDBRANCH  10  23
BRANCH  11  25
ATOM     25  O   UNL     1      -1.784  37.453  80.502  1.00  0.00    -0.508 OA
ATOM     26  H   UNL     1      -1.981  36.552  80.921  1.00  0.00     0.293 HD
ENDBRANCH  11  25
ENDBRANCH   1   2
BRANCH   1  27
ATOM     27  C   UNL     1       3.139  43.276  84.541  1.00  0.00     0.339 C 
ATOM     28  C   UNL     1       2.568  42.306  85.609  1.00  0.00     0.214 C 
ATOM     29  O   UNL     1       4.361  43.891  84.932  1.00  0.00    -0.332 OA
ATOM     30  C   UNL     1       3.619  41.301  86.119  1.00  0.00     0.180 C 
ATOM     31  C   UNL     1       5.387  42.972  85.291  1.00  0.00     0.179 C 
ATOM     32  C   UNL     1       4.940  42.027  86.433  1.00  0.00     0.177 C 
BRANCH  28  33
ATOM     33  O   UNL     1       2.005  43.015  86.688  1.00  0.00    -0.384 OA
ATOM     34  H   UNL     1       2.576  42.874  87.488  1.00  0.00     0.211 HD
ENDBRANCH  28  33
BRANCH  30  35
ATOM     35  O   UNL     1       3.824  40.287  85.170  1.00  0.00    -0.387 OA
ATOM     36  H   UNL     1       4.080  39.469  85.670  1.00  0.00     0.211 HD
ENDBRANCH  30  35
BRANCH  31  37
ATOM     37  C   UNL     1       6.029  42.281  84.070  1.00  0.00     0.191 C 
BRANCH  37  38
ATOM     38  O   UNL     1       7.042  43.094  83.544  1.00  0.00    -0.394 OA
ATOM     39  H   UNL     1       7.496  43.510  84.323  1.00  0.00     0.210 HD
ENDBRANCH  37  38
ENDBRANCH  31  37
BRANCH  32  40
ATOM     40  O   UNL     1       5.958  41.137  86.824  1.00  0.00    -0.387 OA
ATOM     41  H   UNL     1       6.180  41.310  87.776  1.00  0.00     0.211 HD
ENDBRANCH  32  40
ENDBRANCH   1  27
TORSDOF 12
ENDMDL
MODEL 5
REMARK VINA RESULT:    -6.169      2.546      7.573
REMARK INTER + INTRA:         -10.575
REMARK INTER:                  -8.975
REMARK INTRA:                  -1.600
REMARK UNBOUND:                -1.520
REMARK SMILES O=c1c(O[C@@H]2O[C@H](CO)[C@H](O)[C@H](O)[C@H]2O)c(-c2ccc(O)c(O)c2)oc2cc(O)cc(O)c12
REMARK SMILES IDX 4 1 3 2 16 3 25 4 2 5 26 6 1 7 33 8 27 9 31 10 28 11 30 12
REMARK SMILES IDX 17 13 18 14 19 15 20 16 24 17 22 18 21 19 23 21 32 23 29 25
REMARK SMILES IDX 5 27 14 28 6 29 12 30 7 31 10 32 15 33 13 35 8 37 9 38 11 40
REMARK H PARENT 21 20 23 22 32 24 29 26 15 34 13 36 9 39 11 41
REMARK Flexibility Score: inf
ROOT
ATOM      1  O   UNL     1       2.771  42.014  83.780  1.00  0.00    -0.454 OA
ENDROOT
BRANCH   1   2
ATOM      2  C   UNL     1       1.857  42.377  82.780  1.00  0.00     0.214 A 
ATOM      3  C   UNL     1       1.237  41.431  81.936  1.00  0.00     0.180 A 
ATOM      4  O   UNL     1       0.506  41.852  80.910  1.00  0.00    -0.452 OA
ATOM      5  C   UNL     1       1.554  43.733  82.608  1.00  0.00     0.239 A 
ATOM      6  C   UNL     1       0.250  43.132  80.668  1.00  0.00     0.146 A 
ATOM      7  O   UNL     1       2.079  44.565  83.391  1.00  0.00    -0.285 OA
ATOM      8  C   UNL     1       0.715  44.143  81.547  1.00  0.00     0.111 A 
ATOM      9  C   UNL     1      -0.492  43.466  79.532  1.00  0.00     0.094 A 
ATOM     10  C   UNL     1       0.352  45.497  81.280  1.00  0.00     0.134 A 
ATOM     11  C   UNL     1      -0.787  44.796  79.245  1.00  0.00     0.123 A 
ATOM     12  C   UNL     1      -0.366  45.803  80.117  1.00  0.00     0.093 A 
BRANCH   3  13
ATOM     13  C   UNL     1       1.342  39.969  82.153  1.00  0.00     0.025 A 
ATOM     14  C   UNL     1       0.713  39.384  83.261  1.00  0.00     0.016 A 
ATOM     15  C   UNL     1       0.806  38.010  83.481  1.00  0.00     0.051 A 
ATOM     16  C   UNL     1       1.533  37.194  82.607  1.00  0.00     0.157 A 
ATOM     17  C   UNL     1       2.105  39.159  81.294  1.00  0.00     0.062 A 
ATOM     18  C   UNL     1       2.194  37.777  81.500  1.00  0.00     0.158 A 
BRANCH  16  19
ATOM     19  O   UNL     1       1.572  35.823  82.874  1.00  0.00    -0.504 OA
ATOM     20  H   UNL     1       1.832  35.123  82.196  1.00  0.00     0.293 HD
ENDBRANCH  16  19
BRANCH  18  21
ATOM     21  O   UNL     1       2.944  37.029  80.589  1.00  0.00    -0.504 OA
ATOM     22  H   UNL     1       3.342  36.124  80.796  1.00  0.00     0.293 HD
ENDBRANCH  18  21
ENDBRANCH   3  13
BRANCH  10  23
ATOM     23  O   UNL     1       0.648  46.567  82.130  1.00  0.00    -0.507 OA
ATOM     24  H   UNL     1       0.806  46.486  83.124  1.00  0.00     0.293 HD
ENDBRANCH  10  23
BRANCH  11  25
ATOM     25  O   UNL     1      -1.509  45.109  78.096  1.00  0.00    -0.508 OA
ATOM     26  H   UNL     1      -2.503  45.299  78.130  1.00  0.00     0.293 HD
ENDBRANCH  11  25
ENDBRANCH   1   2
BRANCH   1  27
ATOM     27  C   UNL     1       4.153  41.719  83.537  1.00  0.00     0.339 C 
ATOM     28  C   UNL     1       5.065  42.952  83.780  1.00  0.00     0.214 C 
ATOM     29  O   UNL     1       4.555  40.566  84.268  1.00  0.00    -0.332 OA
ATOM     30  C   UNL     1       5.297  43.230  85.278  1.00  0.00     0.180 C 
ATOM     31  C   UNL     1       4.658  40.772  85.672  1.00  0.00     0.179 C 
ATOM     32  C   UNL     1       5.637  41.922  86.015  1.00  0.00     0.177 C 
BRANCH  28  33
ATOM     33  O   UNL     1       6.296  42.809  83.112  1.00  0.00    -0.384 OA
ATOM     34  H   UNL     1       6.466  43.637  82.589  1.00  0.00     0.211 HD
ENDBRANCH  28  33
BRANCH  30  35
ATOM     35  O   UNL     1       4.164  43.837  85.842  1.00  0.00    -0.387 OA
ATOM     36  H   UNL     1       4.039  44.706  85.379  1.00  0.00     0.211 HD
ENDBRANCH  30  35
BRANCH  31  37
ATOM     37  C   UNL     1       3.283  40.839  86.372  1.00  0.00     0.191 C 
BRANCH  37  38
ATOM     38  O   UNL     1       3.432  40.554  87.736  1.00  0.00    -0.394 OA
ATOM     39  H   UNL     1       3.150  39.610  87.855  1.00  0.00     0.210 HD
ENDBRANCH  37  38
ENDBRANCH  31  37
BRANCH  32  40
ATOM     40  O   UNL     1       5.776  42.112  87.403  1.00  0.00    -0.387 OA
ATOM     41  H   UNL     1       6.724  41.953  87.650  1.00  0.00     0.211 HD
ENDBRANCH  32  40
ENDBRANCH   1  27
TORSDOF 12
ENDMDL
MODEL 6
REMARK VINA RESULT:    -6.156      2.719      8.438
REMARK INTER + INTRA:         -10.555
REMARK INTER:                  -9.025
REMARK INTRA:                  -1.530
REMARK UNBOUND:                -1.520
REMARK SMILES O=c1c(O[C@@H]2O[C@H](CO)[C@H](O)[C@H](O)[C@H]2O)c(-c2ccc(O)c(O)c2)oc2cc(O)cc(O)c12
REMARK SMILES IDX 4 1 3 2 16 3 25 4 2 5 26 6 1 7 33 8 27 9 31 10 28 11 30 12
REMARK SMILES IDX 17 13 18 14 19 15 20 16 24 17 22 18 21 19 23 21 32 23 29 25
REMARK SMILES IDX 5 27 14 28 6 29 12 30 7 31 10 32 15 33 13 35 8 37 9 38 11 40
REMARK H PARENT 21 20 23 22 32 24 29 26 15 34 13 36 9 39 11 41
REMARK Flexibility Score: inf
ROOT
ATOM      1  O   UNL     1       2.604  40.782  82.393  1.00  0.00    -0.454 OA
ENDROOT
BRANCH   1   2
ATOM      2  C   UNL     1       2.099  42.059  82.108  1.00  0.00     0.214 A 
ATOM      3  C   UNL     1       2.567  43.224  82.752  1.00  0.00     0.180 A 
ATOM      4  O   UNL     1       1.939  44.377  82.552  1.00  0.00    -0.452 OA
ATOM      5  C   UNL     1       1.084  42.180  81.151  1.00  0.00     0.239 A 
ATOM      6  C   UNL     1       0.927  44.524  81.705  1.00  0.00     0.146 A 
ATOM      7  O   UNL     1       0.702  41.143  80.551  1.00  0.00    -0.285 OA
ATOM      8  C   UNL     1       0.484  43.437  80.910  1.00  0.00     0.111 A 
ATOM      9  C   UNL     1       0.309  45.774  81.607  1.00  0.00     0.094 A 
ATOM     10  C   UNL     1      -0.561  43.667  79.965  1.00  0.00     0.134 A 
ATOM     11  C   UNL     1      -0.752  45.971  80.728  1.00  0.00     0.123 A 
ATOM     12  C   UNL     1      -1.181  44.921  79.912  1.00  0.00     0.093 A 
BRANCH   3  13
ATOM     13  C   UNL     1       3.756  43.231  83.636  1.00  0.00     0.025 A 
ATOM     14  C   UNL     1       3.586  43.246  85.027  1.00  0.00     0.016 A 
ATOM     15  C   UNL     1       4.696  43.255  85.874  1.00  0.00     0.051 A 
ATOM     16  C   UNL     1       5.994  43.261  85.349  1.00  0.00     0.157 A 
ATOM     17  C   UNL     1       5.057  43.275  83.106  1.00  0.00     0.062 A 
ATOM     18  C   UNL     1       6.176  43.274  83.946  1.00  0.00     0.158 A 
BRANCH  16  19
ATOM     19  O   UNL     1       7.061  43.253  86.251  1.00  0.00    -0.504 OA
ATOM     20  H   UNL     1       7.125  42.633  87.045  1.00  0.00     0.293 HD
ENDBRANCH  16  19
BRANCH  18  21
ATOM     21  O   UNL     1       7.440  43.287  83.350  1.00  0.00    -0.504 OA
ATOM     22  H   UNL     1       7.844  44.097  82.902  1.00  0.00     0.293 HD
ENDBRANCH  18  21
ENDBRANCH   3  13
BRANCH  10  23
ATOM     23  O   UNL     1      -1.006  42.711  79.046  1.00  0.00    -0.507 OA
ATOM     24  H   UNL     1      -1.942  42.664  78.672  1.00  0.00     0.293 HD
ENDBRANCH  10  23
BRANCH  11  25
ATOM     25  O   UNL     1      -1.370  47.217  80.662  1.00  0.00    -0.508 OA
ATOM     26  H   UNL     1      -2.099  47.483  81.313  1.00  0.00     0.293 HD
ENDBRANCH  11  25
ENDBRANCH   1   2
BRANCH   1  27
ATOM     27  C   UNL     1       2.641  40.207  83.706  1.00  0.00     0.339 C 
ATOM     28  C   UNL     1       1.230  40.131  84.350  1.00  0.00     0.214 C 
ATOM     29  O   UNL     1       3.322  38.958  83.688  1.00  0.00    -0.332 OA
ATOM     30  C   UNL     1       0.379  38.982  83.775  1.00  0.00     0.180 C 
ATOM     31  C   UNL     1       2.600  37.910  83.051  1.00  0.00     0.179 C 
ATOM     32  C   UNL     1       1.212  37.689  83.701  1.00  0.00     0.177 C 
BRANCH  28  33
ATOM     33  O   UNL     1       1.319  40.022  85.751  1.00  0.00    -0.384 OA
ATOM     34  H   UNL     1       0.834  40.788  86.156  1.00  0.00     0.211 HD
ENDBRANCH  28  33
BRANCH  30  35
ATOM     35  O   UNL     1      -0.114  39.327  82.507  1.00  0.00    -0.387 OA
ATOM     36  H   UNL     1       0.588  39.869  82.061  1.00  0.00     0.211 HD
ENDBRANCH  30  35
BRANCH  31  37
ATOM     37  C   UNL     1       2.601  38.028  81.512  1.00  0.00     0.191 C 
BRANCH  37  38
ATOM     38  O   UNL     1       2.484  36.754  80.939  1.00  0.00    -0.394 OA
ATOM     39  H   UNL     1       1.880  36.237  81.534  1.00  0.00     0.210 HD
ENDBRANCH  37  38
ENDBRANCH  31  37
BRANCH  32  40
ATOM     40  O   UNL     1       0.502  36.629  83.105  1.00  0.00    -0.387 OA
ATOM     41  H   UNL     1      -0.221  36.346  83.723  1.00  0.00     0.211 HD
ENDBRANCH  32  40
ENDBRANCH   1  27
TORSDOF 12
ENDMDL
MODEL 7
REMARK VINA RESULT:    -5.944      2.690      8.133
REMARK INTER + INTRA:         -10.244
REMARK INTER:                  -8.581
REMARK INTRA:                  -1.663
REMARK UNBOUND:                -1.520
REMARK SMILES O=c1c(O[C@@H]2O[C@H](CO)[C@H](O)[C@H](O)[C@H]2O)c(-c2ccc(O)c(O)c2)oc2cc(O)cc(O)c12
REMARK SMILES IDX 4 1 3 2 16 3 25 4 2 5 26 6 1 7 33 8 27 9 31 10 28 11 30 12
REMARK SMILES IDX 17 13 18 14 19 15 20 16 24 17 22 18 21 19 23 21 32 23 29 25
REMARK SMILES IDX 5 27 14 28 6 29 12 30 7 31 10 32 15 33 13 35 8 37 9 38 11 40
REMARK H PARENT 21 20 23 22 32 24 29 26 15 34 13 36 9 39 11 41
REMARK Flexibility Score: inf
ROOT
ATOM      1  O   UNL     1       0.851  42.752  82.794  1.00  0.00    -0.454 OA
ENDROOT
BRANCH   1   2
ATOM      2  C   UNL     1       0.868  44.096  83.194  1.00  0.00     0.214 A 
ATOM      3  C   UNL     1       1.708  44.575  84.222  1.00  0.00     0.180 A 
ATOM      4  O   UNL     1       1.561  45.820  84.658  1.00  0.00    -0.452 OA
ATOM      5  C   UNL     1       0.010  44.998  82.552  1.00  0.00     0.239 A 
ATOM      6  C   UNL     1       0.711  46.689  84.125  1.00  0.00     0.146 A 
ATOM      7  O   UNL     1      -0.705  44.573  81.609  1.00  0.00    -0.285 OA
ATOM      8  C   UNL     1      -0.071  46.338  82.996  1.00  0.00     0.111 A 
ATOM      9  C   UNL     1       0.605  47.962  84.693  1.00  0.00     0.094 A 
ATOM     10  C   UNL     1      -0.917  47.331  82.417  1.00  0.00     0.134 A 
ATOM     11  C   UNL     1      -0.272  48.903  84.160  1.00  0.00     0.123 A 
ATOM     12  C   UNL     1      -1.026  48.586  83.028  1.00  0.00     0.093 A 
BRANCH   3  13
ATOM     13  C   UNL     1       2.778  43.753  84.833  1.00  0.00     0.025 A 
ATOM     14  C   UNL     1       2.601  43.228  86.121  1.00  0.00     0.016 A 
ATOM     15  C   UNL     1       3.600  42.454  86.712  1.00  0.00     0.051 A 
ATOM     16  C   UNL     1       4.798  42.196  86.034  1.00  0.00     0.157 A 
ATOM     17  C   UNL     1       3.995  43.528  84.165  1.00  0.00     0.062 A 
ATOM     18  C   UNL     1       4.998  42.743  84.745  1.00  0.00     0.158 A 
BRANCH  16  19
ATOM     19  O   UNL     1       5.751  41.399  86.675  1.00  0.00    -0.504 OA
ATOM     20  H   UNL     1       5.525  40.596  87.243  1.00  0.00     0.293 HD
ENDBRANCH  16  19
BRANCH  18  21
ATOM     21  O   UNL     1       6.169  42.535  84.011  1.00  0.00    -0.504 OA
ATOM     22  H   UNL     1       6.184  42.222  83.050  1.00  0.00     0.293 HD
ENDBRANCH  18  21
ENDBRANCH   3  13
BRANCH  10  23
ATOM     23  O   UNL     1      -1.648  47.145  81.239  1.00  0.00    -0.507 OA
ATOM     24  H   UNL     1      -2.468  46.563  81.157  1.00  0.00     0.293 HD
ENDBRANCH  10  23
BRANCH  11  25
ATOM     25  O   UNL     1      -0.380  50.158  84.755  1.00  0.00    -0.508 OA
ATOM     26  H   UNL     1      -0.060  50.325  85.702  1.00  0.00     0.293 HD
ENDBRANCH  11  25
ENDBRANCH   1   2
BRANCH   1  27
ATOM     27  C   UNL     1       0.174  41.710  83.508  1.00  0.00     0.339 C 
ATOM     28  C   UNL     1      -0.951  41.057  82.659  1.00  0.00     0.214 C 
ATOM     29  O   UNL     1       1.107  40.770  84.028  1.00  0.00    -0.332 OA
ATOM     30  C   UNL     1      -0.402  40.090  81.592  1.00  0.00     0.180 C 
ATOM     31  C   UNL     1       1.717  39.947  83.040  1.00  0.00     0.179 C 
ATOM     32  C   UNL     1       0.666  39.169  82.209  1.00  0.00     0.177 C 
BRANCH  28  33
ATOM     33  O   UNL     1      -1.887  40.400  83.480  1.00  0.00    -0.384 OA
ATOM     34  H   UNL     1      -2.220  41.048  84.156  1.00  0.00     0.211 HD
ENDBRANCH  28  33
BRANCH  30  35
ATOM     35  O   UNL     1       0.129  40.809  80.510  1.00  0.00    -0.387 OA
ATOM     36  H   UNL     1       0.413  40.143  79.830  1.00  0.00     0.211 HD
ENDBRANCH  30  35
BRANCH  31  37
ATOM     37  C   UNL     1       2.794  40.689  82.221  1.00  0.00     0.191 C 
BRANCH  37  38
ATOM     38  O   UNL     1       3.635  39.760  81.593  1.00  0.00    -0.394 OA
ATOM     39  H   UNL     1       3.380  39.760  80.633  1.00  0.00     0.210 HD
ENDBRANCH  37  38
ENDBRANCH  31  37
BRANCH  32  40
ATOM     40  O   UNL     1       1.258  38.322  81.253  1.00  0.00    -0.387 OA
ATOM     41  H   UNL     1       1.063  38.682  80.349  1.00  0.00     0.211 HD
ENDBRANCH  32  40
ENDBRANCH   1  27
TORSDOF 12
ENDMDL
MODEL 8
REMARK VINA RESULT:    -5.941      2.428      8.083
REMARK INTER + INTRA:         -10.239
REMARK INTER:                  -8.508
REMARK INTRA:                  -1.731
REMARK UNBOUND:                -1.520
REMARK SMILES O=c1c(O[C@@H]2O[C@H](CO)[C@H](O)[C@H](O)[C@H]2O)c(-c2ccc(O)c(O)c2)oc2cc(O)cc(O)c12
REMARK SMILES IDX 4 1 3 2 16 3 25 4 2 5 26 6 1 7 33 8 27 9 31 10 28 11 30 12
REMARK SMILES IDX 17 13 18 14 19 15 20 16 24 17 22 18 21 19 23 21 32 23 29 25
REMARK SMILES IDX 5 27 14 28 6 29 12 30 7 31 10 32 15 33 13 35 8 37 9 38 11 40
REMARK H PARENT 21 20 23 22 32 24 29 26 15 34 13 36 9 39 11 41
REMARK Flexibility Score: inf
ROOT
ATOM      1  O   UNL     1       0.975  42.026  82.257  1.00  0.00    -0.454 OA
ENDROOT
BRANCH   1   2
ATOM      2  C   UNL     1       0.823  43.420  82.266  1.00  0.00     0.214 A 
ATOM      3  C   UNL     1       1.558  44.261  83.128  1.00  0.00     0.180 A 
ATOM      4  O   UNL     1       1.254  45.552  83.197  1.00  0.00    -0.452 OA
ATOM      5  C   UNL     1      -0.101  43.999  81.388  1.00  0.00     0.239 A 
ATOM      6  C   UNL     1       0.336  46.131  82.432  1.00  0.00     0.146 A 
ATOM      7  O   UNL     1      -0.722  43.247  80.593  1.00  0.00    -0.285 OA
ATOM      8  C   UNL     1      -0.352  45.390  81.438  1.00  0.00     0.111 A 
ATOM      9  C   UNL     1       0.062  47.488  82.621  1.00  0.00     0.094 A 
ATOM     10  C   UNL     1      -1.277  46.076  80.595  1.00  0.00     0.134 A 
ATOM     11  C   UNL     1      -0.890  48.134  81.836  1.00  0.00     0.123 A 
ATOM     12  C   UNL     1      -1.553  47.428  80.830  1.00  0.00     0.093 A 
BRANCH   3  13
ATOM     13  C   UNL     1       2.686  43.774  83.956  1.00  0.00     0.025 A 
ATOM     14  C   UNL     1       3.907  43.453  83.348  1.00  0.00     0.016 A 
ATOM     15  C   UNL     1       4.977  42.990  84.114  1.00  0.00     0.051 A 
ATOM     16  C   UNL     1       4.848  42.830  85.498  1.00  0.00     0.157 A 
ATOM     17  C   UNL     1       2.540  43.578  85.341  1.00  0.00     0.062 A 
ATOM     18  C   UNL     1       3.611  43.125  86.119  1.00  0.00     0.158 A 
BRANCH  16  19
ATOM     19  O   UNL     1       5.963  42.379  86.210  1.00  0.00    -0.504 OA
ATOM     20  H   UNL     1       6.059  41.443  86.575  1.00  0.00     0.293 HD
ENDBRANCH  16  19
BRANCH  18  21
ATOM     21  O   UNL     1       3.404  42.983  87.494  1.00  0.00    -0.504 OA
ATOM     22  H   UNL     1       4.043  43.323  88.199  1.00  0.00     0.293 HD
ENDBRANCH  18  21
ENDBRANCH   3  13
BRANCH  10  23
ATOM     23  O   UNL     1      -1.929  45.485  79.508  1.00  0.00    -0.507 OA
ATOM     24  H   UNL     1      -2.873  45.697  79.219  1.00  0.00     0.293 HD
ENDBRANCH  10  23
BRANCH  11  25
ATOM     25  O   UNL     1      -1.163  49.482  82.056  1.00  0.00    -0.508 OA
ATOM     26  H   UNL     1      -1.534  50.074  81.322  1.00  0.00     0.293 HD
ENDBRANCH  11  25
ENDBRANCH   1   2
BRANCH   1  27
ATOM     27  C   UNL     1       0.406  41.149  83.239  1.00  0.00     0.339 C 
ATOM     28  C   UNL     1      -1.029  40.696  82.855  1.00  0.00     0.214 C 
ATOM     29  O   UNL     1       1.286  40.066  83.514  1.00  0.00    -0.332 OA
ATOM     30  C   UNL     1      -1.034  39.614  81.758  1.00  0.00     0.180 C 
ATOM     31  C   UNL     1       1.387  39.115  82.460  1.00  0.00     0.179 C 
ATOM     32  C   UNL     1       0.007  38.526  82.080  1.00  0.00     0.177 C 
BRANCH  28  33
ATOM     33  O   UNL     1      -1.738  40.251  83.987  1.00  0.00    -0.384 OA
ATOM     34  H   UNL     1      -1.831  41.012  84.618  1.00  0.00     0.211 HD
ENDBRANCH  28  33
BRANCH  30  35
ATOM     35  O   UNL     1      -0.778  40.190  80.504  1.00  0.00    -0.387 OA
ATOM     36  H   UNL     1      -0.531  41.138  80.665  1.00  0.00     0.211 HD
ENDBRANCH  30  35
BRANCH  31  37
ATOM     37  C   UNL     1       2.243  39.619  81.277  1.00  0.00     0.191 C 
BRANCH  37  38
ATOM     38  O   UNL     1       3.474  40.092  81.751  1.00  0.00    -0.394 OA
ATOM     39  H   UNL     1       3.280  40.567  82.602  1.00  0.00     0.210 HD
ENDBRANCH  37  38
ENDBRANCH  31  37
BRANCH  32  40
ATOM     40  O   UNL     1       0.098  37.557  81.063  1.00  0.00    -0.387 OA
ATOM     41  H   UNL     1       1.039  37.513  80.753  1.00  0.00     0.211 HD
ENDBRANCH  32  40
ENDBRANCH   1  27
TORSDOF 12
ENDMDL
MODEL 9
REMARK VINA RESULT:    -5.851      2.451      8.109
REMARK INTER + INTRA:         -10.108
REMARK INTER:                  -8.403
REMARK INTRA:                  -1.705
REMARK UNBOUND:                -1.520
REMARK SMILES O=c1c(O[C@@H]2O[C@H](CO)[C@H](O)[C@H](O)[C@H]2O)c(-c2ccc(O)c(O)c2)oc2cc(O)cc(O)c12
REMARK SMILES IDX 4 1 3 2 16 3 25 4 2 5 26 6 1 7 33 8 27 9 31 10 28 11 30 12
REMARK SMILES IDX 17 13 18 14 19 15 20 16 24 17 22 18 21 19 23 21 32 23 29 25
REMARK SMILES IDX 5 27 14 28 6 29 12 30 7 31 10 32 15 33 13 35 8 37 9 38 11 40
REMARK H PARENT 21 20 23 22 32 24 29 26 15 34 13 36 9 39 11 41
REMARK Flexibility Score: inf
ROOT
ATOM      1  O   UNL     1       0.585  41.537  82.229  1.00  0.00    -0.454 OA
ENDROOT
BRANCH   1   2
ATOM      2  C   UNL     1       0.369  42.874  81.864  1.00  0.00     0.214 A 
ATOM      3  C   UNL     1       1.062  43.948  82.461  1.00  0.00     0.180 A 
ATOM      4  O   UNL     1       0.697  45.195  82.184  1.00  0.00    -0.452 OA
ATOM      5  C   UNL     1      -0.578  43.153  80.871  1.00  0.00     0.239 A 
ATOM      6  C   UNL     1      -0.244  45.505  81.300  1.00  0.00     0.146 A 
ATOM      7  O   UNL     1      -1.160  42.188  80.313  1.00  0.00    -0.285 OA
ATOM      8  C   UNL     1      -0.893  44.493  80.548  1.00  0.00     0.111 A 
ATOM      9  C   UNL     1      -0.581  46.849  81.120  1.00  0.00     0.094 A 
ATOM     10  C   UNL     1      -1.847  44.884  79.561  1.00  0.00     0.134 A 
ATOM     11  C   UNL     1      -1.559  47.216  80.199  1.00  0.00     0.123 A 
ATOM     12  C   UNL     1      -2.185  46.236  79.426  1.00  0.00     0.093 A 
BRANCH   3  13
ATOM     13  C   UNL     1       2.208  43.754  83.380  1.00  0.00     0.025 A 
ATOM     14  C   UNL     1       3.473  43.450  82.857  1.00  0.00     0.016 A 
ATOM     15  C   UNL     1       4.561  43.261  83.709  1.00  0.00     0.051 A 
ATOM     16  C   UNL     1       4.408  43.362  85.097  1.00  0.00     0.157 A 
ATOM     17  C   UNL     1       2.042  43.818  84.774  1.00  0.00     0.062 A 
ATOM     18  C   UNL     1       3.130  43.642  85.636  1.00  0.00     0.158 A 
BRANCH  16  19
ATOM     19  O   UNL     1       5.542  43.179  85.893  1.00  0.00    -0.504 OA
ATOM     20  H   UNL     1       5.982  42.284  86.051  1.00  0.00     0.293 HD
ENDBRANCH  16  19
BRANCH  18  21
ATOM     21  O   UNL     1       2.898  43.751  87.010  1.00  0.00    -0.504 OA
ATOM     22  H   UNL     1       3.578  43.508  87.717  1.00  0.00     0.293 HD
ENDBRANCH  18  21
ENDBRANCH   3  13
BRANCH  10  23
ATOM     23  O   UNL     1      -2.467  43.994  78.678  1.00  0.00    -0.507 OA
ATOM     24  H   UNL     1      -3.462  43.949  78.511  1.00  0.00     0.293 HD
ENDBRANCH  10  23
BRANCH  11  25
ATOM     25  O   UNL     1      -1.896  48.559  80.051  1.00  0.00    -0.508 OA
ATOM     26  H   UNL     1      -2.836  48.892  80.226  1.00  0.00     0.293 HD
ENDBRANCH  11  25
ENDBRANCH   1   2
BRANCH   1  27
ATOM     27  C   UNL     1       1.461  40.644  81.528  1.00  0.00     0.339 C 
ATOM     28  C   UNL     1       2.627  40.148  82.425  1.00  0.00     0.214 C 
ATOM     29  O   UNL     1       0.724  39.589  80.924  1.00  0.00    -0.332 OA
ATOM     30  C   UNL     1       2.183  39.065  83.428  1.00  0.00     0.180 C 
ATOM     31  C   UNL     1       0.200  38.641  81.848  1.00  0.00     0.179 C 
ATOM     32  C   UNL     1       1.314  38.009  82.719  1.00  0.00     0.177 C 
BRANCH  28  33
ATOM     33  O   UNL     1       3.702  39.681  81.645  1.00  0.00    -0.384 OA
ATOM     34  H   UNL     1       4.539  40.094  81.985  1.00  0.00     0.211 HD
ENDBRANCH  28  33
BRANCH  30  35
ATOM     35  O   UNL     1       1.483  39.647  84.496  1.00  0.00    -0.387 OA
ATOM     36  H   UNL     1       1.245  40.570  84.218  1.00  0.00     0.211 HD
ENDBRANCH  30  35
BRANCH  31  37
ATOM     37  C   UNL     1      -1.028  39.170  82.620  1.00  0.00     0.191 C 
BRANCH  37  38
ATOM     38  O   UNL     1      -1.908  39.802  81.733  1.00  0.00    -0.394 OA
ATOM     39  H   UNL     1      -2.802  39.781  82.166  1.00  0.00     0.210 HD
ENDBRANCH  37  38
ENDBRANCH  31  37
BRANCH  32  40
ATOM     40  O   UNL     1       0.814  37.043  83.612  1.00  0.00    -0.387 OA
ATOM     41  H   UNL     1       0.902  37.392  84.537  1.00  0.00     0.211 HD
ENDBRANCH  32  40
ENDBRANCH   1  27
TORSDOF 12
ENDMDL
