MODEL 1
REMARK VINA RESULT:    -8.832      0.000      0.000
REMARK INTER + INTRA:         -10.965
REMARK INTER:                 -10.639
REMARK INTRA:                  -0.326
REMARK UNBOUND:                -0.326
REMARK SMILES Oc1cc(O)c2c(c1)O[C@@H](c1ccc(O)c(O)c1)[C@@H](O)C2
REMARK SMILES IDX 21 1 19 2 10 3 9 4 7 5 8 6 2 7 3 8 4 9 6 10 20 11 11 13
REMARK SMILES IDX 18 14 12 15 16 16 13 17 14 18 17 19 15 21 5 23 1 25
REMARK H PARENT 20 12 17 20 15 22 5 24 1 26
REMARK Flexibility Score: inf
ROOT
ATOM      1  C   UNL     1     133.225 133.430 111.461  1.00  0.00     0.079 C 
ATOM      2  C   UNL     1     134.572 133.318 112.201  1.00  0.00     0.164 C 
ATOM      3  C   UNL     1     135.050 134.722 112.610  1.00  0.00     0.232 C 
ATOM      4  O   UNL     1     134.061 135.354 113.422  1.00  0.00    -0.482 OA
ATOM      5  C   UNL     1     132.692 135.229 113.155  1.00  0.00     0.131 A 
ATOM      6  C   UNL     1     131.787 136.025 113.864  1.00  0.00     0.093 A 
ATOM      7  C   UNL     1     130.416 135.933 113.607  1.00  0.00     0.122 A 
ATOM      8  C   UNL     1     129.951 135.050 112.630  1.00  0.00     0.092 A 
ATOM      9  C   UNL     1     130.842 134.246 111.910  1.00  0.00     0.126 A 
ATOM     10  C   UNL     1     132.227 134.302 112.197  1.00  0.00     0.039 A 
ENDROOT
BRANCH   2  11
ATOM     11  O   UNL     1     134.423 132.511 113.344  1.00  0.00    -0.389 OA
ATOM     12  H   UNL     1     135.282 132.554 113.839  1.00  0.00     0.211 HD
ENDBRANCH   2  11
BRANCH   3  13
ATOM     13  C   UNL     1     136.376 134.666 113.335  1.00  0.00    -0.001 A 
ATOM     14  C   UNL     1     137.580 134.506 112.628  1.00  0.00     0.057 A 
ATOM     15  C   UNL     1     136.418 134.836 114.728  1.00  0.00     0.012 A 
ATOM     16  C   UNL     1     138.808 134.490 113.307  1.00  0.00     0.157 A 
ATOM     17  C   UNL     1     137.639 134.819 115.405  1.00  0.00     0.050 A 
ATOM     18  C   UNL     1     138.836 134.645 114.703  1.00  0.00     0.157 A 
BRANCH  16  19
ATOM     19  O   UNL     1     139.998 134.323 112.599  1.00  0.00    -0.504 OA
ATOM     20  H   UNL     1     140.601 133.524 112.755  1.00  0.00     0.293 HD
ENDBRANCH  16  19
BRANCH  18  21
ATOM     21  O   UNL     1     140.040 134.632 115.407  1.00  0.00    -0.504 OA
ATOM     22  H   UNL     1     140.745 135.349 115.281  1.00  0.00     0.293 HD
ENDBRANCH  18  21
ENDBRANCH   3  13
BRANCH   9  23
ATOM     23  O   UNL     1     130.321 133.416 110.914  1.00  0.00    -0.507 OA
ATOM     24  H   UNL     1     130.654 133.416 109.959  1.00  0.00     0.293 HD
ENDBRANCH   9  23
BRANCH   7  25
ATOM     25  O   UNL     1     129.508 136.720 114.309  1.00  0.00    -0.508 OA
ATOM     26  H   UNL     1     129.657 137.715 114.438  1.00  0.00     0.293 HD
ENDBRANCH   7  25
TORSDOF 6
ENDMDL
MODEL 2
REMARK VINA RESULT:    -8.641      8.349     10.155
REMARK INTER + INTRA:         -10.736
REMARK INTER:                 -10.456
REMARK INTRA:                  -0.279
REMARK UNBOUND:                -0.326
REMARK SMILES Oc1cc(O)c2c(c1)O[C@@H](c1ccc(O)c(O)c1)[C@@H](O)C2
REMARK SMILES IDX 21 1 19 2 10 3 9 4 7 5 8 6 2 7 3 8 4 9 6 10 20 11 11 13
REMARK SMILES IDX 18 14 12 15 16 16 13 17 14 18 17 19 15 21 5 23 1 25
REMARK H PARENT 20 12 17 20 15 22 5 24 1 26
REMARK Flexibility Score: inf
ROOT
ATOM      1  C   UNL     1     126.615 134.547 113.361  1.00  0.00     0.079 C 
ATOM      2  C   UNL     1     127.174 135.089 112.031  1.00  0.00     0.164 C 
ATOM      3  C   UNL     1     126.343 134.536 110.862  1.00  0.00     0.232 C 
ATOM      4  O   UNL     1     124.970 134.889 111.032  1.00  0.00    -0.482 OA
ATOM      5  C   UNL     1     124.349 134.868 112.286  1.00  0.00     0.131 A 
ATOM      6  C   UNL     1     122.963 135.035 112.360  1.00  0.00     0.093 A 
ATOM      7  C   UNL     1     122.314 135.002 113.598  1.00  0.00     0.122 A 
ATOM      8  C   UNL     1     123.053 134.790 114.764  1.00  0.00     0.092 A 
ATOM      9  C   UNL     1     124.441 134.621 114.709  1.00  0.00     0.126 A 
ATOM     10  C   UNL     1     125.110 134.698 113.464  1.00  0.00     0.039 A 
ENDROOT
BRANCH   2  11
ATOM     11  O   UNL     1     127.125 136.495 112.031  1.00  0.00    -0.389 OA
ATOM     12  H   UNL     1     127.770 136.805 111.342  1.00  0.00     0.211 HD
ENDBRANCH   2  11
BRANCH   3  13
ATOM     13  C   UNL     1     126.859 135.034 109.531  1.00  0.00    -0.001 A 
ATOM     14  C   UNL     1     126.267 136.140 108.895  1.00  0.00     0.057 A 
ATOM     15  C   UNL     1     127.982 134.430 108.946  1.00  0.00     0.012 A 
ATOM     16  C   UNL     1     126.775 136.617 107.677  1.00  0.00     0.157 A 
ATOM     17  C   UNL     1     128.489 134.903 107.734  1.00  0.00     0.050 A 
ATOM     18  C   UNL     1     127.890 135.993 107.094  1.00  0.00     0.157 A 
BRANCH  16  19
ATOM     19  O   UNL     1     126.177 137.708 107.048  1.00  0.00    -0.504 OA
ATOM     20  H   UNL     1     125.205 137.691 106.765  1.00  0.00     0.293 HD
ENDBRANCH  16  19
BRANCH  18  21
ATOM     21  O   UNL     1     128.418 136.442 105.884  1.00  0.00    -0.504 OA
ATOM     22  H   UNL     1     129.410 136.399 105.680  1.00  0.00     0.293 HD
ENDBRANCH  18  21
ENDBRANCH   3  13
BRANCH   9  23
ATOM     23  O   UNL     1     125.120 134.368 115.904  1.00  0.00    -0.507 OA
ATOM     24  H   UNL     1     124.805 133.694 116.590  1.00  0.00     0.293 HD
ENDBRANCH   9  23
BRANCH   7  25
ATOM     25  O   UNL     1     120.934 135.169 113.680  1.00  0.00    -0.508 OA
ATOM     26  H   UNL     1     120.293 134.466 113.331  1.00  0.00     0.293 HD
ENDBRANCH   7  25
TORSDOF 6
ENDMDL
MODEL 3
REMARK VINA RESULT:    -8.513      0.939      0.939
REMARK INTER + INTRA:         -10.581
REMARK INTER:                 -10.197
REMARK INTRA:                  -0.384
REMARK UNBOUND:                -0.326
REMARK SMILES Oc1cc(O)c2c(c1)O[C@@H](c1ccc(O)c(O)c1)[C@@H](O)C2
REMARK SMILES IDX 21 1 19 2 10 3 9 4 7 5 8 6 2 7 3 8 4 9 6 10 20 11 11 13
REMARK SMILES IDX 18 14 12 15 16 16 13 17 14 18 17 19 15 21 5 23 1 25
REMARK H PARENT 20 12 17 20 15 22 5 24 1 26
REMARK Flexibility Score: inf
ROOT
ATOM      1  C   UNL     1     132.783 133.514 111.559  1.00  0.00     0.079 C 
ATOM      2  C   UNL     1     134.232 133.421 112.074  1.00  0.00     0.164 C 
ATOM      3  C   UNL     1     134.572 134.686 112.880  1.00  0.00     0.232 C 
ATOM      4  O   UNL     1     133.646 134.838 113.956  1.00  0.00    -0.482 OA
ATOM      5  C   UNL     1     132.283 134.558 113.807  1.00  0.00     0.131 A 
ATOM      6  C   UNL     1     131.401 134.910 114.833  1.00  0.00     0.093 A 
ATOM      7  C   UNL     1     130.032 134.657 114.703  1.00  0.00     0.122 A 
ATOM      8  C   UNL     1     129.544 134.058 113.540  1.00  0.00     0.092 A 
ATOM      9  C   UNL     1     130.412 133.700 112.502  1.00  0.00     0.126 A 
ATOM     10  C   UNL     1     131.804 133.912 112.645  1.00  0.00     0.039 A 
ENDROOT
BRANCH   2  11
ATOM     11  O   UNL     1     134.378 132.281 112.885  1.00  0.00    -0.389 OA
ATOM     12  H   UNL     1     133.494 131.831 112.910  1.00  0.00     0.211 HD
ENDBRANCH   2  11
BRANCH   3  13
ATOM     13  C   UNL     1     135.991 134.645 113.402  1.00  0.00    -0.001 A 
ATOM     14  C   UNL     1     137.081 134.528 112.522  1.00  0.00     0.057 A 
ATOM     15  C   UNL     1     136.234 134.787 114.777  1.00  0.00     0.012 A 
ATOM     16  C   UNL     1     138.396 134.526 113.013  1.00  0.00     0.157 A 
ATOM     17  C   UNL     1     137.541 134.784 115.268  1.00  0.00     0.050 A 
ATOM     18  C   UNL     1     138.625 134.652 114.393  1.00  0.00     0.157 A 
BRANCH  16  19
ATOM     19  O   UNL     1     139.471 134.401 112.135  1.00  0.00    -0.504 OA
ATOM     20  H   UNL     1     140.395 134.144 112.460  1.00  0.00     0.293 HD
ENDBRANCH  16  19
BRANCH  18  21
ATOM     21  O   UNL     1     139.919 134.652 114.913  1.00  0.00    -0.504 OA
ATOM     22  H   UNL     1     140.556 135.428 114.771  1.00  0.00     0.293 HD
ENDBRANCH  18  21
ENDBRANCH   3  13
BRANCH   9  23
ATOM     23  O   UNL     1     129.858 133.146 111.345  1.00  0.00    -0.507 OA
ATOM     24  H   UNL     1     130.293 132.394 110.826  1.00  0.00     0.293 HD
ENDBRANCH   9  23
BRANCH   7  25
ATOM     25  O   UNL     1     129.148 135.003 115.721  1.00  0.00    -0.508 OA
ATOM     26  H   UNL     1     129.402 134.913 116.698  1.00  0.00     0.293 HD
ENDBRANCH   7  25
TORSDOF 6
ENDMDL
MODEL 4
REMARK VINA RESULT:    -8.058      4.701      6.606
REMARK INTER + INTRA:         -10.033
REMARK INTER:                  -9.649
REMARK INTRA:                  -0.384
REMARK UNBOUND:                -0.326
REMARK SMILES Oc1cc(O)c2c(c1)O[C@@H](c1ccc(O)c(O)c1)[C@@H](O)C2
REMARK SMILES IDX 21 1 19 2 10 3 9 4 7 5 8 6 2 7 3 8 4 9 6 10 20 11 11 13
REMARK SMILES IDX 18 14 12 15 16 16 13 17 14 18 17 19 15 21 5 23 1 25
REMARK H PARENT 20 12 17 20 15 22 5 24 1 26
REMARK Flexibility Score: inf
ROOT
ATOM      1  C   UNL     1     126.614 134.628 111.876  1.00  0.00     0.079 C 
ATOM      2  C   UNL     1     127.461 134.935 113.127  1.00  0.00     0.164 C 
ATOM      3  C   UNL     1     128.822 134.229 113.010  1.00  0.00     0.232 C 
ATOM      4  O   UNL     1     129.485 134.648 111.817  1.00  0.00    -0.482 OA
ATOM      5  C   UNL     1     128.796 134.846 110.615  1.00  0.00     0.131 A 
ATOM      6  C   UNL     1     129.524 135.065 109.443  1.00  0.00     0.093 A 
ATOM      7  C   UNL     1     128.861 135.249 108.225  1.00  0.00     0.122 A 
ATOM      8  C   UNL     1     127.466 135.202 108.180  1.00  0.00     0.092 A 
ATOM      9  C   UNL     1     126.721 134.982 109.344  1.00  0.00     0.126 A 
ATOM     10  C   UNL     1     127.383 134.841 110.587  1.00  0.00     0.039 A 
ENDROOT
BRANCH   2  11
ATOM     11  O   UNL     1     127.649 136.323 113.247  1.00  0.00    -0.389 OA
ATOM     12  H   UNL     1     128.560 136.459 113.617  1.00  0.00     0.211 HD
ENDBRANCH   2  11
BRANCH   3  13
ATOM     13  C   UNL     1     129.688 134.494 114.220  1.00  0.00    -0.001 A 
ATOM     14  C   UNL     1     130.871 135.247 114.112  1.00  0.00     0.057 A 
ATOM     15  C   UNL     1     129.282 134.038 115.484  1.00  0.00     0.012 A 
ATOM     16  C   UNL     1     131.650 135.518 115.248  1.00  0.00     0.157 A 
ATOM     17  C   UNL     1     130.056 134.305 116.615  1.00  0.00     0.050 A 
ATOM     18  C   UNL     1     131.240 135.042 116.504  1.00  0.00     0.157 A 
BRANCH  16  19
ATOM     19  O   UNL     1     132.825 136.258 115.130  1.00  0.00    -0.504 OA
ATOM     20  H   UNL     1     133.550 136.003 114.470  1.00  0.00     0.293 HD
ENDBRANCH  16  19
BRANCH  18  21
ATOM     21  O   UNL     1     131.993 135.292 117.651  1.00  0.00    -0.504 OA
ATOM     22  H   UNL     1     132.182 134.571 118.339  1.00  0.00     0.293 HD
ENDBRANCH  18  21
ENDBRANCH   3  13
BRANCH   9  23
ATOM     23  O   UNL     1     125.331 134.901 109.228  1.00  0.00    -0.507 OA
ATOM     24  H   UNL     1     124.702 134.955 110.019  1.00  0.00     0.293 HD
ENDBRANCH   9  23
BRANCH   7  25
ATOM     25  O   UNL     1     129.580 135.471 107.053  1.00  0.00    -0.508 OA
ATOM     26  H   UNL     1     130.479 135.939 107.062  1.00  0.00     0.293 HD
ENDBRANCH   7  25
TORSDOF 6
ENDMDL
MODEL 5
REMARK VINA RESULT:    -7.977      3.978      9.428
REMARK INTER + INTRA:          -9.935
REMARK INTER:                  -9.666
REMARK INTRA:                  -0.270
REMARK UNBOUND:                -0.326
REMARK SMILES Oc1cc(O)c2c(c1)O[C@@H](c1ccc(O)c(O)c1)[C@@H](O)C2
REMARK SMILES IDX 21 1 19 2 10 3 9 4 7 5 8 6 2 7 3 8 4 9 6 10 20 11 11 13
REMARK SMILES IDX 18 14 12 15 16 16 13 17 14 18 17 19 15 21 5 23 1 25
REMARK H PARENT 20 12 17 20 15 22 5 24 1 26
REMARK Flexibility Score: inf
ROOT
ATOM      1  C   UNL     1     130.267 135.152 113.260  1.00  0.00     0.079 C 
ATOM      2  C   UNL     1     128.732 135.098 113.138  1.00  0.00     0.164 C 
ATOM      3  C   UNL     1     128.331 135.201 111.657  1.00  0.00     0.232 C 
ATOM      4  O   UNL     1     128.949 134.151 110.913  1.00  0.00    -0.482 OA
ATOM      5  C   UNL     1     130.264 133.740 111.162  1.00  0.00     0.131 A 
ATOM      6  C   UNL     1     130.875 132.847 110.277  1.00  0.00     0.093 A 
ATOM      7  C   UNL     1     132.193 132.432 110.493  1.00  0.00     0.122 A 
ATOM      8  C   UNL     1     132.904 132.921 111.591  1.00  0.00     0.092 A 
ATOM      9  C   UNL     1     132.308 133.817 112.486  1.00  0.00     0.126 A 
ATOM     10  C   UNL     1     130.961 134.206 112.300  1.00  0.00     0.039 A 
ENDROOT
BRANCH   2  11
ATOM     11  O   UNL     1     128.252 133.893 113.682  1.00  0.00    -0.389 OA
ATOM     12  H   UNL     1     128.877 133.637 114.408  1.00  0.00     0.211 HD
ENDBRANCH   2  11
BRANCH   3  13
ATOM     13  C   UNL     1     126.830 135.161 111.486  1.00  0.00    -0.001 A 
ATOM     14  C   UNL     1     126.239 134.407 110.456  1.00  0.00     0.057 A 
ATOM     15  C   UNL     1     126.004 135.832 112.400  1.00  0.00     0.012 A 
ATOM     16  C   UNL     1     124.844 134.347 110.326  1.00  0.00     0.157 A 
ATOM     17  C   UNL     1     124.614 135.775 112.273  1.00  0.00     0.050 A 
ATOM     18  C   UNL     1     124.029 135.037 111.239  1.00  0.00     0.157 A 
BRANCH  16  19
ATOM     19  O   UNL     1     124.267 133.604 109.298  1.00  0.00    -0.504 OA
ATOM     20  H   UNL     1     123.293 133.326 109.325  1.00  0.00     0.293 HD
ENDBRANCH  16  19
BRANCH  18  21
ATOM     21  O   UNL     1     122.638 135.000 111.136  1.00  0.00    -0.504 OA
ATOM     22  H   UNL     1     122.036 135.435 111.825  1.00  0.00     0.293 HD
ENDBRANCH  18  21
ENDBRANCH   3  13
BRANCH   9  23
ATOM     23  O   UNL     1     133.085 134.305 113.540  1.00  0.00    -0.507 OA
ATOM     24  H   UNL     1     133.678 133.718 114.113  1.00  0.00     0.293 HD
ENDBRANCH   9  23
BRANCH   7  25
ATOM     25  O   UNL     1     132.808 131.541 109.617  1.00  0.00    -0.508 OA
ATOM     26  H   UNL     1     133.182 131.846 108.726  1.00  0.00     0.293 HD
ENDBRANCH   7  25
TORSDOF 6
ENDMDL
MODEL 6
REMARK VINA RESULT:    -7.926      3.803      6.932
REMARK INTER + INTRA:          -9.874
REMARK INTER:                  -9.809
REMARK INTRA:                  -0.066
REMARK UNBOUND:                -0.326
REMARK SMILES Oc1cc(O)c2c(c1)O[C@@H](c1ccc(O)c(O)c1)[C@@H](O)C2
REMARK SMILES IDX 21 1 19 2 10 3 9 4 7 5 8 6 2 7 3 8 4 9 6 10 20 11 11 13
REMARK SMILES IDX 18 14 12 15 16 16 13 17 14 18 17 19 15 21 5 23 1 25
REMARK H PARENT 20 12 17 20 15 22 5 24 1 26
REMARK Flexibility Score: inf
ROOT
ATOM      1  C   UNL     1     132.923 133.280 113.648  1.00  0.00     0.079 C 
ATOM      2  C   UNL     1     132.465 133.551 112.202  1.00  0.00     0.164 C 
ATOM      3  C   UNL     1     130.936 133.409 112.113  1.00  0.00     0.232 C 
ATOM      4  O   UNL     1     130.312 134.305 113.033  1.00  0.00    -0.482 OA
ATOM      5  C   UNL     1     130.830 134.534 114.313  1.00  0.00     0.131 A 
ATOM      6  C   UNL     1     130.072 135.266 115.231  1.00  0.00     0.093 A 
ATOM      7  C   UNL     1     130.558 135.496 116.522  1.00  0.00     0.122 A 
ATOM      8  C   UNL     1     131.801 134.982 116.897  1.00  0.00     0.092 A 
ATOM      9  C   UNL     1     132.573 134.245 115.991  1.00  0.00     0.126 A 
ATOM     10  C   UNL     1     132.108 134.047 114.670  1.00  0.00     0.039 A 
ENDROOT
BRANCH   2  11
ATOM     11  O   UNL     1     132.850 134.847 111.814  1.00  0.00    -0.389 OA
ATOM     12  H   UNL     1     132.052 135.427 111.919  1.00  0.00     0.211 HD
ENDBRANCH   2  11
BRANCH   3  13
ATOM     13  C   UNL     1     130.438 133.659 110.707  1.00  0.00    -0.001 A 
ATOM     14  C   UNL     1     130.282 134.967 110.218  1.00  0.00     0.057 A 
ATOM     15  C   UNL     1     130.186 132.575 109.852  1.00  0.00     0.012 A 
ATOM     16  C   UNL     1     129.852 135.189 108.900  1.00  0.00     0.157 A 
ATOM     17  C   UNL     1     129.757 132.792 108.541  1.00  0.00     0.050 A 
ATOM     18  C   UNL     1     129.587 134.095 108.060  1.00  0.00     0.157 A 
BRANCH  16  19
ATOM     19  O   UNL     1     129.691 136.490 108.425  1.00  0.00    -0.504 OA
ATOM     20  H   UNL     1     128.781 136.931 108.384  1.00  0.00     0.293 HD
ENDBRANCH  16  19
BRANCH  18  21
ATOM     21  O   UNL     1     129.157 134.281 106.746  1.00  0.00    -0.504 OA
ATOM     22  H   UNL     1     129.615 133.833 105.962  1.00  0.00     0.293 HD
ENDBRANCH  18  21
ENDBRANCH   3  13
BRANCH   9  23
ATOM     23  O   UNL     1     133.788 133.719 116.440  1.00  0.00    -0.507 OA
ATOM     24  H   UNL     1     134.680 134.169 116.284  1.00  0.00     0.293 HD
ENDBRANCH   9  23
BRANCH   7  25
ATOM     25  O   UNL     1     129.810 136.226 117.441  1.00  0.00    -0.508 OA
ATOM     26  H   UNL     1     130.171 136.447 118.362  1.00  0.00     0.293 HD
ENDBRANCH   7  25
TORSDOF 6
ENDMDL
MODEL 7
REMARK VINA RESULT:    -7.924      1.875      3.799
REMARK INTER + INTRA:          -9.871
REMARK INTER:                  -9.518
REMARK INTRA:                  -0.353
REMARK UNBOUND:                -0.326
REMARK SMILES Oc1cc(O)c2c(c1)O[C@@H](c1ccc(O)c(O)c1)[C@@H](O)C2
REMARK SMILES IDX 21 1 19 2 10 3 9 4 7 5 8 6 2 7 3 8 4 9 6 10 20 11 11 13
REMARK SMILES IDX 18 14 12 15 16 16 13 17 14 18 17 19 15 21 5 23 1 25
REMARK H PARENT 20 12 17 20 15 22 5 24 1 26
REMARK Flexibility Score: inf
ROOT
ATOM      1  C   UNL     1     130.032 135.702 114.257  1.00  0.00     0.079 C 
ATOM      2  C   UNL     1     131.567 135.831 114.250  1.00  0.00     0.164 C 
ATOM      3  C   UNL     1     132.188 134.535 113.702  1.00  0.00     0.232 C 
ATOM      4  O   UNL     1     131.682 134.269 112.394  1.00  0.00    -0.482 OA
ATOM      5  C   UNL     1     130.341 134.494 112.058  1.00  0.00     0.131 A 
ATOM      6  C   UNL     1     129.865 134.034 110.827  1.00  0.00     0.093 A 
ATOM      7  C   UNL     1     128.526 134.230 110.472  1.00  0.00     0.122 A 
ATOM      8  C   UNL     1     127.661 134.877 111.356  1.00  0.00     0.092 A 
ATOM      9  C   UNL     1     128.121 135.343 112.594  1.00  0.00     0.126 A 
ATOM     10  C   UNL     1     129.484 135.189 112.940  1.00  0.00     0.039 A 
ENDROOT
BRANCH   2  11
ATOM     11  O   UNL     1     131.951 136.922 113.449  1.00  0.00    -0.389 OA
ATOM     12  H   UNL     1     131.155 137.179 112.913  1.00  0.00     0.211 HD
ENDBRANCH   2  11
BRANCH   3  13
ATOM     13  C   UNL     1     133.698 134.610 113.682  1.00  0.00    -0.001 A 
ATOM     14  C   UNL     1     134.443 134.507 114.871  1.00  0.00     0.057 A 
ATOM     15  C   UNL     1     134.376 134.722 112.459  1.00  0.00     0.012 A 
ATOM     16  C   UNL     1     135.845 134.543 114.838  1.00  0.00     0.157 A 
ATOM     17  C   UNL     1     135.772 134.759 112.424  1.00  0.00     0.050 A 
ATOM     18  C   UNL     1     136.511 134.672 113.608  1.00  0.00     0.157 A 
BRANCH  16  19
ATOM     19  O   UNL     1     136.575 134.448 116.022  1.00  0.00    -0.504 OA
ATOM     20  H   UNL     1     137.580 134.572 116.037  1.00  0.00     0.293 HD
ENDBRANCH  16  19
BRANCH  18  21
ATOM     21  O   UNL     1     137.904 134.712 113.543  1.00  0.00    -0.504 OA
ATOM     22  H   UNL     1     138.419 135.584 113.587  1.00  0.00     0.293 HD
ENDBRANCH  18  21
ENDBRANCH   3  13
BRANCH   9  23
ATOM     23  O   UNL     1     127.197 135.943 113.454  1.00  0.00    -0.507 OA
ATOM     24  H   UNL     1     127.343 136.848 113.882  1.00  0.00     0.293 HD
ENDBRANCH   9  23
BRANCH   7  25
ATOM     25  O   UNL     1     128.044 133.777 109.247  1.00  0.00    -0.508 OA
ATOM     26  H   UNL     1     127.053 133.772 109.036  1.00  0.00     0.293 HD
ENDBRANCH   7  25
TORSDOF 6
ENDMDL
MODEL 8
REMARK VINA RESULT:    -7.825      4.909      7.088
REMARK INTER + INTRA:          -9.752
REMARK INTER:                  -9.409
REMARK INTRA:                  -0.344
REMARK UNBOUND:                -0.326
REMARK SMILES Oc1cc(O)c2c(c1)O[C@@H](c1ccc(O)c(O)c1)[C@@H](O)C2
REMARK SMILES IDX 21 1 19 2 10 3 9 4 7 5 8 6 2 7 3 8 4 9 6 10 20 11 11 13
REMARK SMILES IDX 18 14 12 15 16 16 13 17 14 18 17 19 15 21 5 23 1 25
REMARK H PARENT 20 12 17 20 15 22 5 24 1 26
REMARK Flexibility Score: inf
ROOT
ATOM      1  C   UNL     1     129.905 134.177 115.528  1.00  0.00     0.079 C 
ATOM      2  C   UNL     1     129.882 134.720 116.970  1.00  0.00     0.164 C 
ATOM      3  C   UNL     1     131.125 134.219 117.726  1.00  0.00     0.232 C 
ATOM      4  O   UNL     1     132.308 134.622 117.036  1.00  0.00    -0.482 OA
ATOM      5  C   UNL     1     132.395 134.603 115.639  1.00  0.00     0.131 A 
ATOM      6  C   UNL     1     133.636 134.821 115.034  1.00  0.00     0.093 A 
ATOM      7  C   UNL     1     133.755 134.791 113.641  1.00  0.00     0.122 A 
ATOM      8  C   UNL     1     132.631 134.531 112.853  1.00  0.00     0.092 A 
ATOM      9  C   UNL     1     131.381 134.309 113.443  1.00  0.00     0.126 A 
ATOM     10  C   UNL     1     131.244 134.383 114.849  1.00  0.00     0.039 A 
ENDROOT
BRANCH   2  11
ATOM     11  O   UNL     1     129.869 136.126 116.950  1.00  0.00    -0.389 OA
ATOM     12  H   UNL     1     130.315 136.406 116.109  1.00  0.00     0.211 HD
ENDBRANCH   2  11
BRANCH   3  13
ATOM     13  C   UNL     1     131.144 134.721 119.152  1.00  0.00    -0.001 A 
ATOM     14  C   UNL     1     132.014 135.755 119.543  1.00  0.00     0.057 A 
ATOM     15  C   UNL     1     130.243 134.196 120.091  1.00  0.00     0.012 A 
ATOM     16  C   UNL     1     132.000 136.238 120.860  1.00  0.00     0.157 A 
ATOM     17  C   UNL     1     130.228 134.674 121.402  1.00  0.00     0.050 A 
ATOM     18  C   UNL     1     131.104 135.692 121.794  1.00  0.00     0.157 A 
BRANCH  16  19
ATOM     19  O   UNL     1     132.871 137.258 121.241  1.00  0.00    -0.504 OA
ATOM     20  H   UNL     1     132.533 138.180 121.485  1.00  0.00     0.293 HD
ENDBRANCH  16  19
BRANCH  18  21
ATOM     21  O   UNL     1     131.067 136.149 123.111  1.00  0.00    -0.504 OA
ATOM     22  H   UNL     1     131.513 137.014 123.393  1.00  0.00     0.293 HD
ENDBRANCH  18  21
ENDBRANCH   3  13
BRANCH   9  23
ATOM     23  O   UNL     1     130.303 134.010 112.605  1.00  0.00    -0.507 OA
ATOM     24  H   UNL     1     130.393 133.466 111.756  1.00  0.00     0.293 HD
ENDBRANCH   9  23
BRANCH   7  25
ATOM     25  O   UNL     1     134.986 135.009 113.029  1.00  0.00    -0.508 OA
ATOM     26  H   UNL     1     135.842 135.077 113.569  1.00  0.00     0.293 HD
ENDBRANCH   7  25
TORSDOF 6
ENDMDL
MODEL 9
REMARK VINA RESULT:    -7.803      2.872      7.960
REMARK INTER + INTRA:          -9.725
REMARK INTER:                  -9.430
REMARK INTRA:                  -0.295
REMARK UNBOUND:                -0.326
REMARK SMILES Oc1cc(O)c2c(c1)O[C@@H](c1ccc(O)c(O)c1)[C@@H](O)C2
REMARK SMILES IDX 21 1 19 2 10 3 9 4 7 5 8 6 2 7 3 8 4 9 6 10 20 11 11 13
REMARK SMILES IDX 18 14 12 15 16 16 13 17 14 18 17 19 15 21 5 23 1 25
REMARK H PARENT 20 12 17 20 15 22 5 24 1 26
REMARK Flexibility Score: inf
ROOT
ATOM      1  C   UNL     1     133.128 134.640 111.182  1.00  0.00     0.079 C 
ATOM      2  C   UNL     1     131.721 134.827 110.580  1.00  0.00     0.164 C 
ATOM      3  C   UNL     1     130.768 133.773 111.168  1.00  0.00     0.232 C 
ATOM      4  O   UNL     1     130.744 133.882 112.592  1.00  0.00    -0.482 OA
ATOM      5  C   UNL     1     131.901 134.141 113.336  1.00  0.00     0.131 A 
ATOM      6  C   UNL     1     131.849 134.042 114.729  1.00  0.00     0.093 A 
ATOM      7  C   UNL     1     132.994 134.280 115.496  1.00  0.00     0.122 A 
ATOM      8  C   UNL     1     134.197 134.606 114.865  1.00  0.00     0.092 A 
ATOM      9  C   UNL     1     134.268 134.707 113.471  1.00  0.00     0.126 A 
ATOM     10  C   UNL     1     133.103 134.513 112.692  1.00  0.00     0.039 A 
ENDROOT
BRANCH   2  11
ATOM     11  O   UNL     1     131.246 136.118 110.870  1.00  0.00    -0.389 OA
ATOM     12  H   UNL     1     131.828 136.485 111.585  1.00  0.00     0.211 HD
ENDBRANCH   2  11
BRANCH   3  13
ATOM     13  C   UNL     1     129.373 133.911 110.602  1.00  0.00    -0.001 A 
ATOM     14  C   UNL     1     128.365 134.579 111.318  1.00  0.00     0.057 A 
ATOM     15  C   UNL     1     129.089 133.422 109.317  1.00  0.00     0.012 A 
ATOM     16  C   UNL     1     127.083 134.732 110.769  1.00  0.00     0.157 A 
ATOM     17  C   UNL     1     127.814 133.572 108.769  1.00  0.00     0.050 A 
ATOM     18  C   UNL     1     126.807 134.224 109.489  1.00  0.00     0.157 A 
BRANCH  16  19
ATOM     19  O   UNL     1     126.086 135.389 111.489  1.00  0.00    -0.504 OA
ATOM     20  H   UNL     1     125.511 134.902 112.165  1.00  0.00     0.293 HD
ENDBRANCH  16  19
BRANCH  18  21
ATOM     21  O   UNL     1     125.543 134.358 108.915  1.00  0.00    -0.504 OA
ATOM     22  H   UNL     1     125.262 133.825 108.101  1.00  0.00     0.293 HD
ENDBRANCH  18  21
ENDBRANCH   3  13
BRANCH   9  23
ATOM     23  O   UNL     1     135.509 134.992 112.896  1.00  0.00    -0.507 OA
ATOM     24  H   UNL     1     135.913 134.446 112.147  1.00  0.00     0.293 HD
ENDBRANCH   9  23
BRANCH   7  25
ATOM     25  O   UNL     1     132.949 134.186 116.884  1.00  0.00    -0.508 OA
ATOM     26  H   UNL     1     132.130 134.470 117.409  1.00  0.00     0.293 HD
ENDBRANCH   7  25
TORSDOF 6
ENDMDL
