MODEL 1
REMARK VINA RESULT:    -5.802      0.000      0.000
REMARK INTER + INTRA:          -7.116
REMARK INTER:                  -6.819
REMARK INTRA:                  -0.297
REMARK UNBOUND:                -0.297
REMARK SMILES O=c1c(O)c(-c2ccc(O)cc2)oc2cc(O)cc(O)c12
REMARK SMILES IDX 5 1 3 2 2 3 1 4 21 5 19 6 18 7 16 8 15 9 14 10 13 11 6 12
REMARK SMILES IDX 7 13 8 14 9 15 12 16 11 17 10 18 4 20 20 22 17 24
REMARK H PARENT 10 19 4 21 20 23 17 25
REMARK Flexibility Score: inf
ROOT
ATOM      1  C   UNL     1      15.799 -14.084  -6.109  1.00  0.00     0.180 A 
ATOM      2  C   UNL     1      15.239 -14.574  -7.304  1.00  0.00     0.208 A 
ATOM      3  C   UNL     1      15.870 -14.272  -8.522  1.00  0.00     0.238 A 
ATOM      4  O   UNL     1      15.383 -14.713  -9.599  1.00  0.00    -0.285 OA
ATOM      5  C   UNL     1      17.032 -13.474  -8.526  1.00  0.00     0.111 A 
ATOM      6  C   UNL     1      17.724 -13.121  -9.709  1.00  0.00     0.134 A 
ATOM      7  C   UNL     1      18.869 -12.315  -9.631  1.00  0.00     0.093 A 
ATOM      8  C   UNL     1      19.334 -11.854  -8.396  1.00  0.00     0.123 A 
ATOM      9  C   UNL     1      18.653 -12.200  -7.224  1.00  0.00     0.094 A 
ATOM     10  C   UNL     1      17.511 -13.004  -7.281  1.00  0.00     0.146 A 
ATOM     11  O   UNL     1      16.888 -13.321  -6.152  1.00  0.00    -0.452 OA
ENDROOT
BRANCH   1  12
ATOM     12  C   UNL     1      15.203 -14.375  -4.784  1.00  0.00     0.021 A 
ATOM     13  C   UNL     1      14.260 -13.486  -4.241  1.00  0.00     0.016 A 
ATOM     14  C   UNL     1      13.701 -13.728  -2.982  1.00  0.00     0.047 A 
ATOM     15  C   UNL     1      14.091 -14.854  -2.245  1.00  0.00     0.115 A 
ATOM     16  C   UNL     1      15.604 -15.491  -4.028  1.00  0.00     0.016 A 
ATOM     17  C   UNL     1      15.045 -15.731  -2.770  1.00  0.00     0.047 A 
BRANCH  15  18
ATOM     18  O   UNL     1      13.541 -15.106  -0.990  1.00  0.00    -0.508 OA
ATOM     19  H   UNL     1      14.119 -15.381  -0.204  1.00  0.00     0.293 HD
ENDBRANCH  15  18
ENDBRANCH   1  12
BRANCH   2  20
ATOM     20  O   UNL     1      14.058 -15.321  -7.277  1.00  0.00    -0.502 OA
ATOM     21  H   UNL     1      13.270 -15.111  -7.877  1.00  0.00     0.293 HD
ENDBRANCH   2  20
BRANCH   6  22
ATOM     22  O   UNL     1      17.286 -13.564 -10.957  1.00  0.00    -0.507 OA
ATOM     23  H   UNL     1      17.931 -13.727 -11.722  1.00  0.00     0.293 HD
ENDBRANCH   6  22
BRANCH   8  24
ATOM     24  O   UNL     1      20.473 -11.054  -8.346  1.00  0.00    -0.508 OA
ATOM     25  H   UNL     1      20.496 -10.199  -7.803  1.00  0.00     0.293 HD
ENDBRANCH   8  24
TORSDOF 5
ENDMDL
MODEL 2
REMARK VINA RESULT:    -5.664      5.372      7.805
REMARK INTER + INTRA:          -6.954
REMARK INTER:                  -6.842
REMARK INTRA:                  -0.112
REMARK UNBOUND:                -0.297
REMARK SMILES O=c1c(O)c(-c2ccc(O)cc2)oc2cc(O)cc(O)c12
REMARK SMILES IDX 5 1 3 2 2 3 1 4 21 5 19 6 18 7 16 8 15 9 14 10 13 11 6 12
REMARK SMILES IDX 7 13 8 14 9 15 12 16 11 17 10 18 4 20 20 22 17 24
REMARK H PARENT 10 19 4 21 20 23 17 25
REMARK Flexibility Score: inf
ROOT
ATOM      1  C   UNL     1      17.568 -17.465  -3.104  1.00  0.00     0.180 A 
ATOM      2  C   UNL     1      18.363 -17.412  -1.943  1.00  0.00     0.208 A 
ATOM      3  C   UNL     1      19.250 -18.468  -1.680  1.00  0.00     0.238 A 
ATOM      4  O   UNL     1      19.975 -18.428  -0.649  1.00  0.00    -0.285 OA
ATOM      5  C   UNL     1      19.312 -19.563  -2.566  1.00  0.00     0.111 A 
ATOM      6  C   UNL     1      20.175 -20.669  -2.371  1.00  0.00     0.134 A 
ATOM      7  C   UNL     1      20.171 -21.725  -3.294  1.00  0.00     0.093 A 
ATOM      8  C   UNL     1      19.324 -21.699  -4.405  1.00  0.00     0.123 A 
ATOM      9  C   UNL     1      18.469 -20.609  -4.602  1.00  0.00     0.094 A 
ATOM     10  C   UNL     1      18.459 -19.546  -3.695  1.00  0.00     0.146 A 
ATOM     11  O   UNL     1      17.642 -18.521  -3.909  1.00  0.00    -0.452 OA
ENDROOT
BRANCH   1  12
ATOM     12  C   UNL     1      16.623 -16.381  -3.460  1.00  0.00     0.021 A 
ATOM     13  C   UNL     1      15.521 -16.124  -2.627  1.00  0.00     0.016 A 
ATOM     14  C   UNL     1      14.604 -15.121  -2.955  1.00  0.00     0.047 A 
ATOM     15  C   UNL     1      14.769 -14.374  -4.129  1.00  0.00     0.115 A 
ATOM     16  C   UNL     1      16.770 -15.641  -4.647  1.00  0.00     0.016 A 
ATOM     17  C   UNL     1      15.851 -14.639  -4.974  1.00  0.00     0.047 A 
BRANCH  15  18
ATOM     18  O   UNL     1      13.862 -13.372  -4.467  1.00  0.00    -0.508 OA
ATOM     19  H   UNL     1      13.737 -13.072  -5.427  1.00  0.00     0.293 HD
ENDBRANCH  15  18
ENDBRANCH   1  12
BRANCH   2  20
ATOM     20  O   UNL     1      18.247 -16.339  -1.055  1.00  0.00    -0.502 OA
ATOM     21  H   UNL     1      17.555 -16.320  -0.316  1.00  0.00     0.293 HD
ENDBRANCH   2  20
BRANCH   6  22
ATOM     22  O   UNL     1      21.032 -20.726  -1.272  1.00  0.00    -0.507 OA
ATOM     23  H   UNL     1      21.323 -19.890  -0.779  1.00  0.00     0.293 HD
ENDBRANCH   6  22
BRANCH   8  24
ATOM     24  O   UNL     1      19.339 -22.760  -5.305  1.00  0.00    -0.508 OA
ATOM     25  H   UNL     1      18.483 -23.197  -5.625  1.00  0.00     0.293 HD
ENDBRANCH   8  24
TORSDOF 5
ENDMDL
MODEL 3
REMARK VINA RESULT:    -5.560      7.647      9.578
REMARK INTER + INTRA:          -6.831
REMARK INTER:                  -6.534
REMARK INTRA:                  -0.297
REMARK UNBOUND:                -0.297
REMARK SMILES O=c1c(O)c(-c2ccc(O)cc2)oc2cc(O)cc(O)c12
REMARK SMILES IDX 5 1 3 2 2 3 1 4 21 5 19 6 18 7 16 8 15 9 14 10 13 11 6 12
REMARK SMILES IDX 7 13 8 14 9 15 12 16 11 17 10 18 4 20 20 22 17 24
REMARK H PARENT 10 19 4 21 20 23 17 25
REMARK Flexibility Score: inf
ROOT
ATOM      1  C   UNL     1      18.728 -20.736  -4.042  1.00  0.00     0.180 A 
ATOM      2  C   UNL     1      19.618 -20.847  -5.127  1.00  0.00     0.208 A 
ATOM      3  C   UNL     1      19.546 -21.982  -5.950  1.00  0.00     0.238 A 
ATOM      4  O   UNL     1      20.332 -22.088  -6.930  1.00  0.00    -0.285 OA
ATOM      5  C   UNL     1      18.605 -22.992  -5.663  1.00  0.00     0.111 A 
ATOM      6  C   UNL     1      18.472 -24.168  -6.440  1.00  0.00     0.134 A 
ATOM      7  C   UNL     1      17.516 -25.131  -6.084  1.00  0.00     0.093 A 
ATOM      8  C   UNL     1      16.694 -24.944  -4.970  1.00  0.00     0.123 A 
ATOM      9  C   UNL     1      16.822 -23.783  -4.199  1.00  0.00     0.094 A 
ATOM     10  C   UNL     1      17.767 -22.811  -4.538  1.00  0.00     0.146 A 
ATOM     11  O   UNL     1      17.863 -21.716  -3.792  1.00  0.00    -0.452 OA
ENDROOT
BRANCH   1  12
ATOM     12  C   UNL     1      18.729 -19.561  -3.140  1.00  0.00     0.021 A 
ATOM     13  C   UNL     1      19.425 -19.626  -1.921  1.00  0.00     0.016 A 
ATOM     14  C   UNL     1      19.421 -18.537  -1.044  1.00  0.00     0.047 A 
ATOM     15  C   UNL     1      18.708 -17.376  -1.369  1.00  0.00     0.115 A 
ATOM     16  C   UNL     1      17.998 -18.399  -3.448  1.00  0.00     0.016 A 
ATOM     17  C   UNL     1      17.995 -17.312  -2.570  1.00  0.00     0.047 A 
BRANCH  15  18
ATOM     18  O   UNL     1      18.696 -16.284  -0.503  1.00  0.00    -0.508 OA
ATOM     19  H   UNL     1      19.374 -16.194   0.245  1.00  0.00     0.293 HD
ENDBRANCH  15  18
ENDBRANCH   1  12
BRANCH   2  20
ATOM     20  O   UNL     1      20.575 -19.855  -5.359  1.00  0.00    -0.502 OA
ATOM     21  H   UNL     1      21.430 -20.036  -5.870  1.00  0.00     0.293 HD
ENDBRANCH   2  20
BRANCH   6  22
ATOM     22  O   UNL     1      19.278 -24.387  -7.557  1.00  0.00    -0.507 OA
ATOM     23  H   UNL     1      18.924 -24.275  -8.500  1.00  0.00     0.293 HD
ENDBRANCH   6  22
BRANCH   8  24
ATOM     24  O   UNL     1      15.754 -25.916  -4.639  1.00  0.00    -0.508 OA
ATOM     25  H   UNL     1      15.908 -26.563  -3.874  1.00  0.00     0.293 HD
ENDBRANCH   8  24
TORSDOF 5
ENDMDL
MODEL 4
REMARK VINA RESULT:    -5.381      4.367      6.759
REMARK INTER + INTRA:          -6.622
REMARK INTER:                  -6.420
REMARK INTRA:                  -0.202
REMARK UNBOUND:                -0.297
REMARK SMILES O=c1c(O)c(-c2ccc(O)cc2)oc2cc(O)cc(O)c12
REMARK SMILES IDX 5 1 3 2 2 3 1 4 21 5 19 6 18 7 16 8 15 9 14 10 13 11 6 12
REMARK SMILES IDX 7 13 8 14 9 15 12 16 11 17 10 18 4 20 20 22 17 24
REMARK H PARENT 10 19 4 21 20 23 17 25
REMARK Flexibility Score: inf
ROOT
ATOM      1  C   UNL     1      18.043 -17.384  -3.463  1.00  0.00     0.180 A 
ATOM      2  C   UNL     1      18.258 -16.795  -4.723  1.00  0.00     0.208 A 
ATOM      3  C   UNL     1      17.398 -15.768  -5.146  1.00  0.00     0.238 A 
ATOM      4  O   UNL     1      17.587 -15.226  -6.269  1.00  0.00    -0.285 OA
ATOM      5  C   UNL     1      16.333 -15.364  -4.316  1.00  0.00     0.111 A 
ATOM      6  C   UNL     1      15.420 -14.342  -4.671  1.00  0.00     0.134 A 
ATOM      7  C   UNL     1      14.379 -14.004  -3.794  1.00  0.00     0.093 A 
ATOM      8  C   UNL     1      14.232 -14.667  -2.573  1.00  0.00     0.123 A 
ATOM      9  C   UNL     1      15.131 -15.678  -2.217  1.00  0.00     0.094 A 
ATOM     10  C   UNL     1      16.176 -16.029  -3.077  1.00  0.00     0.146 A 
ATOM     11  O   UNL     1      17.019 -16.989  -2.713  1.00  0.00    -0.452 OA
ENDROOT
BRANCH   1  12
ATOM     12  C   UNL     1      18.918 -18.459  -2.938  1.00  0.00     0.021 A 
ATOM     13  C   UNL     1      18.819 -19.754  -3.475  1.00  0.00     0.016 A 
ATOM     14  C   UNL     1      19.618 -20.788  -2.979  1.00  0.00     0.047 A 
ATOM     15  C   UNL     1      20.514 -20.544  -1.930  1.00  0.00     0.115 A 
ATOM     16  C   UNL     1      19.805 -18.227  -1.871  1.00  0.00     0.016 A 
ATOM     17  C   UNL     1      20.602 -19.263  -1.376  1.00  0.00     0.047 A 
BRANCH  15  18
ATOM     18  O   UNL     1      21.316 -21.567  -1.428  1.00  0.00    -0.508 OA
ATOM     19  H   UNL     1      22.315 -21.590  -1.600  1.00  0.00     0.293 HD
ENDBRANCH  15  18
ENDBRANCH   1  12
BRANCH   2  20
ATOM     20  O   UNL     1      19.291 -17.247  -5.548  1.00  0.00    -0.502 OA
ATOM     21  H   UNL     1      19.840 -16.620  -6.124  1.00  0.00     0.293 HD
ENDBRANCH   2  20
BRANCH   6  22
ATOM     22  O   UNL     1      15.539 -13.661  -5.883  1.00  0.00    -0.507 OA
ATOM     23  H   UNL     1      15.104 -12.758  -6.032  1.00  0.00     0.293 HD
ENDBRANCH   6  22
BRANCH   8  24
ATOM     24  O   UNL     1      13.190 -14.313  -1.720  1.00  0.00    -0.508 OA
ATOM     25  H   UNL     1      12.868 -14.936  -0.989  1.00  0.00     0.293 HD
ENDBRANCH   8  24
TORSDOF 5
ENDMDL
MODEL 5
REMARK VINA RESULT:    -5.276     11.283     13.668
REMARK INTER + INTRA:          -6.498
REMARK INTER:                  -6.237
REMARK INTRA:                  -0.261
REMARK UNBOUND:                -0.297
REMARK SMILES O=c1c(O)c(-c2ccc(O)cc2)oc2cc(O)cc(O)c12
REMARK SMILES IDX 5 1 3 2 2 3 1 4 21 5 19 6 18 7 16 8 15 9 14 10 13 11 6 12
REMARK SMILES IDX 7 13 8 14 9 15 12 16 11 17 10 18 4 20 20 22 17 24
REMARK H PARENT 10 19 4 21 20 23 17 25
REMARK Flexibility Score: inf
ROOT
ATOM      1  C   UNL     1       6.656 -20.513  -4.034  1.00  0.00     0.180 A 
ATOM      2  C   UNL     1       8.038 -20.781  -4.021  1.00  0.00     0.208 A 
ATOM      3  C   UNL     1       8.469 -22.118  -4.009  1.00  0.00     0.238 A 
ATOM      4  O   UNL     1       9.705 -22.371  -4.008  1.00  0.00    -0.285 OA
ATOM      5  C   UNL     1       7.517 -23.157  -3.990  1.00  0.00     0.111 A 
ATOM      6  C   UNL     1       7.868 -24.528  -3.973  1.00  0.00     0.134 A 
ATOM      7  C   UNL     1       6.861 -25.504  -3.944  1.00  0.00     0.093 A 
ATOM      8  C   UNL     1       5.513 -25.137  -3.931  1.00  0.00     0.123 A 
ATOM      9  C   UNL     1       5.160 -23.783  -3.948  1.00  0.00     0.094 A 
ATOM     10  C   UNL     1       6.149 -22.796  -3.978  1.00  0.00     0.146 A 
ATOM     11  O   UNL     1       5.786 -21.518  -3.999  1.00  0.00    -0.452 OA
ENDROOT
BRANCH   1  12
ATOM     12  C   UNL     1       6.124 -19.131  -4.066  1.00  0.00     0.021 A 
ATOM     13  C   UNL     1       6.046 -18.392  -2.872  1.00  0.00     0.016 A 
ATOM     14  C   UNL     1       5.526 -17.095  -2.876  1.00  0.00     0.047 A 
ATOM     15  C   UNL     1       5.062 -16.526  -4.068  1.00  0.00     0.115 A 
ATOM     16  C   UNL     1       5.636 -18.560  -5.255  1.00  0.00     0.016 A 
ATOM     17  C   UNL     1       5.116 -17.263  -5.255  1.00  0.00     0.047 A 
BRANCH  15  18
ATOM     18  O   UNL     1       4.542 -15.233  -4.084  1.00  0.00    -0.508 OA
ATOM     19  H   UNL     1       4.572 -14.660  -4.919  1.00  0.00     0.293 HD
ENDBRANCH  15  18
ENDBRANCH   1  12
BRANCH   2  20
ATOM     20  O   UNL     1       8.961 -19.732  -3.991  1.00  0.00    -0.502 OA
ATOM     21  H   UNL     1       9.425 -19.394  -4.825  1.00  0.00     0.293 HD
ENDBRANCH   2  20
BRANCH   6  22
ATOM     22  O   UNL     1       9.205 -24.928  -3.984  1.00  0.00    -0.507 OA
ATOM     23  H   UNL     1       9.609 -25.459  -3.221  1.00  0.00     0.293 HD
ENDBRANCH   6  22
BRANCH   8  24
ATOM     24  O   UNL     1       4.532 -26.125  -3.902  1.00  0.00    -0.508 OA
ATOM     25  H   UNL     1       3.961 -26.281  -3.080  1.00  0.00     0.293 HD
ENDBRANCH   8  24
TORSDOF 5
ENDMDL
MODEL 6
REMARK VINA RESULT:    -5.085      7.703      9.759
REMARK INTER + INTRA:          -6.274
REMARK INTER:                  -6.119
REMARK INTRA:                  -0.155
REMARK UNBOUND:                -0.297
REMARK SMILES O=c1c(O)c(-c2ccc(O)cc2)oc2cc(O)cc(O)c12
REMARK SMILES IDX 5 1 3 2 2 3 1 4 21 5 19 6 18 7 16 8 15 9 14 10 13 11 6 12
REMARK SMILES IDX 7 13 8 14 9 15 12 16 11 17 10 18 4 20 20 22 17 24
REMARK H PARENT 10 19 4 21 20 23 17 25
REMARK Flexibility Score: inf
ROOT
ATOM      1  C   UNL     1      18.633 -21.761  -4.000  1.00  0.00     0.180 A 
ATOM      2  C   UNL     1      19.786 -21.900  -3.204  1.00  0.00     0.208 A 
ATOM      3  C   UNL     1      20.223 -20.802  -2.446  1.00  0.00     0.238 A 
ATOM      4  O   UNL     1      21.249 -20.917  -1.722  1.00  0.00    -0.285 OA
ATOM      5  C   UNL     1      19.515 -19.584  -2.511  1.00  0.00     0.111 A 
ATOM      6  C   UNL     1      19.892 -18.430  -1.782  1.00  0.00     0.134 A 
ATOM      7  C   UNL     1      19.141 -17.253  -1.908  1.00  0.00     0.093 A 
ATOM      8  C   UNL     1      18.024 -17.205  -2.747  1.00  0.00     0.123 A 
ATOM      9  C   UNL     1      17.647 -18.342  -3.469  1.00  0.00     0.094 A 
ATOM     10  C   UNL     1      18.382 -19.526  -3.356  1.00  0.00     0.146 A 
ATOM     11  O   UNL     1      17.999 -20.593  -4.049  1.00  0.00    -0.452 OA
ENDROOT
BRANCH   1  12
ATOM     12  C   UNL     1      18.099 -22.878  -4.813  1.00  0.00     0.021 A 
ATOM     13  C   UNL     1      16.881 -23.478  -4.449  1.00  0.00     0.016 A 
ATOM     14  C   UNL     1      16.369 -24.548  -5.188  1.00  0.00     0.047 A 
ATOM     15  C   UNL     1      17.077 -25.043  -6.291  1.00  0.00     0.115 A 
ATOM     16  C   UNL     1      18.813 -23.395  -5.909  1.00  0.00     0.016 A 
ATOM     17  C   UNL     1      18.300 -24.466  -6.646  1.00  0.00     0.047 A 
BRANCH  15  18
ATOM     18  O   UNL     1      16.577 -26.108  -7.036  1.00  0.00    -0.508 OA
ATOM     19  H   UNL     1      16.797 -26.217  -8.020  1.00  0.00     0.293 HD
ENDBRANCH  15  18
ENDBRANCH   1  12
BRANCH   2  20
ATOM     20  O   UNL     1      20.497 -23.103  -3.196  1.00  0.00    -0.502 OA
ATOM     21  H   UNL     1      20.819 -23.537  -2.339  1.00  0.00     0.293 HD
ENDBRANCH   2  20
BRANCH   6  22
ATOM     22  O   UNL     1      21.002 -18.445  -0.938  1.00  0.00    -0.507 OA
ATOM     23  H   UNL     1      21.940 -18.588  -1.293  1.00  0.00     0.293 HD
ENDBRANCH   6  22
BRANCH   8  24
ATOM     24  O   UNL     1      17.296 -16.023  -2.854  1.00  0.00    -0.508 OA
ATOM     25  H   UNL     1      16.613 -15.886  -3.590  1.00  0.00     0.293 HD
ENDBRANCH   8  24
TORSDOF 5
ENDMDL
MODEL 7
REMARK VINA RESULT:    -5.080      7.964      9.405
REMARK INTER + INTRA:          -6.268
REMARK INTER:                  -6.124
REMARK INTRA:                  -0.143
REMARK UNBOUND:                -0.297
REMARK SMILES O=c1c(O)c(-c2ccc(O)cc2)oc2cc(O)cc(O)c12
REMARK SMILES IDX 5 1 3 2 2 3 1 4 21 5 19 6 18 7 16 8 15 9 14 10 13 11 6 12
REMARK SMILES IDX 7 13 8 14 9 15 12 16 11 17 10 18 4 20 20 22 17 24
REMARK H PARENT 10 19 4 21 20 23 17 25
REMARK Flexibility Score: inf
ROOT
ATOM      1  C   UNL     1      18.460 -21.017  -4.839  1.00  0.00     0.180 A 
ATOM      2  C   UNL     1      17.286 -21.773  -4.655  1.00  0.00     0.208 A 
ATOM      3  C   UNL     1      17.220 -23.064  -5.203  1.00  0.00     0.238 A 
ATOM      4  O   UNL     1      16.177 -23.755  -5.037  1.00  0.00    -0.285 OA
ATOM      5  C   UNL     1      18.313 -23.567  -5.937  1.00  0.00     0.111 A 
ATOM      6  C   UNL     1      18.324 -24.855  -6.524  1.00  0.00     0.134 A 
ATOM      7  C   UNL     1      19.447 -25.280  -7.248  1.00  0.00     0.093 A 
ATOM      8  C   UNL     1      20.557 -24.445  -7.398  1.00  0.00     0.123 A 
ATOM      9  C   UNL     1      20.552 -23.171  -6.820  1.00  0.00     0.094 A 
ATOM     10  C   UNL     1      19.442 -22.730  -6.093  1.00  0.00     0.146 A 
ATOM     11  O   UNL     1      19.466 -21.518  -5.550  1.00  0.00    -0.452 OA
ENDROOT
BRANCH   1  12
ATOM     12  C   UNL     1      18.614 -19.655  -4.276  1.00  0.00     0.021 A 
ATOM     13  C   UNL     1      18.842 -18.572  -5.142  1.00  0.00     0.016 A 
ATOM     14  C   UNL     1      19.013 -17.281  -4.631  1.00  0.00     0.047 A 
ATOM     15  C   UNL     1      18.973 -17.061  -3.248  1.00  0.00     0.115 A 
ATOM     16  C   UNL     1      18.596 -19.429  -2.888  1.00  0.00     0.016 A 
ATOM     17  C   UNL     1      18.768 -18.138  -2.380  1.00  0.00     0.047 A 
BRANCH  15  18
ATOM     18  O   UNL     1      19.142 -15.780  -2.728  1.00  0.00    -0.508 OA
ATOM     19  H   UNL     1      18.456 -15.366  -2.107  1.00  0.00     0.293 HD
ENDBRANCH  15  18
ENDBRANCH   1  12
BRANCH   2  20
ATOM     20  O   UNL     1      16.198 -21.232  -3.966  1.00  0.00    -0.502 OA
ATOM     21  H   UNL     1      16.169 -20.263  -3.674  1.00  0.00     0.293 HD
ENDBRANCH   2  20
BRANCH   6  22
ATOM     22  O   UNL     1      17.231 -25.714  -6.394  1.00  0.00    -0.507 OA
ATOM     23  H   UNL     1      16.342 -25.393  -6.031  1.00  0.00     0.293 HD
ENDBRANCH   6  22
BRANCH   8  24
ATOM     24  O   UNL     1      21.660 -24.890  -8.123  1.00  0.00    -0.508 OA
ATOM     25  H   UNL     1      21.955 -25.859  -8.096  1.00  0.00     0.293 HD
ENDBRANCH   8  24
TORSDOF 5
ENDMDL
MODEL 8
REMARK VINA RESULT:    -5.037     11.957     12.812
REMARK INTER + INTRA:          -6.217
REMARK INTER:                  -6.255
REMARK INTRA:                   0.038
REMARK UNBOUND:                -0.297
REMARK SMILES O=c1c(O)c(-c2ccc(O)cc2)oc2cc(O)cc(O)c12
REMARK SMILES IDX 5 1 3 2 2 3 1 4 21 5 19 6 18 7 16 8 15 9 14 10 13 11 6 12
REMARK SMILES IDX 7 13 8 14 9 15 12 16 11 17 10 18 4 20 20 22 17 24
REMARK H PARENT 10 19 4 21 20 23 17 25
REMARK Flexibility Score: inf
ROOT
ATOM      1  C   UNL     1       6.517 -20.489  -4.338  1.00  0.00     0.180 A 
ATOM      2  C   UNL     1       5.770 -19.966  -5.411  1.00  0.00     0.208 A 
ATOM      3  C   UNL     1       5.263 -18.660  -5.310  1.00  0.00     0.238 A 
ATOM      4  O   UNL     1       4.600 -18.177  -6.268  1.00  0.00    -0.285 OA
ATOM      5  C   UNL     1       5.493 -17.911  -4.138  1.00  0.00     0.111 A 
ATOM      6  C   UNL     1       5.014 -16.592  -3.956  1.00  0.00     0.134 A 
ATOM      7  C   UNL     1       5.277 -15.916  -2.756  1.00  0.00     0.093 A 
ATOM      8  C   UNL     1       6.007 -16.531  -1.736  1.00  0.00     0.123 A 
ATOM      9  C   UNL     1       6.483 -17.835  -1.910  1.00  0.00     0.094 A 
ATOM     10  C   UNL     1       6.233 -18.525  -3.100  1.00  0.00     0.146 A 
ATOM     11  O   UNL     1       6.701 -19.760  -3.241  1.00  0.00    -0.452 OA
ENDROOT
BRANCH   1  12
ATOM     12  C   UNL     1       7.100 -21.850  -4.377  1.00  0.00     0.021 A 
ATOM     13  C   UNL     1       6.275 -22.948  -4.675  1.00  0.00     0.016 A 
ATOM     14  C   UNL     1       6.799 -24.244  -4.694  1.00  0.00     0.047 A 
ATOM     15  C   UNL     1       8.152 -24.459  -4.400  1.00  0.00     0.115 A 
ATOM     16  C   UNL     1       8.452 -22.078  -4.061  1.00  0.00     0.016 A 
ATOM     17  C   UNL     1       8.974 -23.374  -4.081  1.00  0.00     0.047 A 
BRANCH  15  18
ATOM     18  O   UNL     1       8.686 -25.746  -4.417  1.00  0.00    -0.508 OA
ATOM     19  H   UNL     1       9.518 -25.982  -3.887  1.00  0.00     0.293 HD
ENDBRANCH  15  18
ENDBRANCH   1  12
BRANCH   2  20
ATOM     20  O   UNL     1       5.514 -20.746  -6.541  1.00  0.00    -0.502 OA
ATOM     21  H   UNL     1       4.578 -21.031  -6.802  1.00  0.00     0.293 HD
ENDBRANCH   2  20
BRANCH   6  22
ATOM     22  O   UNL     1       4.281 -15.949  -4.954  1.00  0.00    -0.507 OA
ATOM     23  H   UNL     1       3.774 -15.090  -4.775  1.00  0.00     0.293 HD
ENDBRANCH   6  22
BRANCH   8  24
ATOM     24  O   UNL     1       6.254 -15.838  -0.554  1.00  0.00    -0.508 OA
ATOM     25  H   UNL     1       5.615 -15.130  -0.210  1.00  0.00     0.293 HD
ENDBRANCH   8  24
TORSDOF 5
ENDMDL
MODEL 9
REMARK VINA RESULT:    -4.923      5.795      7.179
REMARK INTER + INTRA:          -6.083
REMARK INTER:                  -5.849
REMARK INTRA:                  -0.234
REMARK UNBOUND:                -0.297
REMARK SMILES O=c1c(O)c(-c2ccc(O)cc2)oc2cc(O)cc(O)c12
REMARK SMILES IDX 5 1 3 2 2 3 1 4 21 5 19 6 18 7 16 8 15 9 14 10 13 11 6 12
REMARK SMILES IDX 7 13 8 14 9 15 12 16 11 17 10 18 4 20 20 22 17 24
REMARK H PARENT 10 19 4 21 20 23 17 25
REMARK Flexibility Score: inf
ROOT
ATOM      1  C   UNL     1      18.715 -19.218  -4.157  1.00  0.00     0.180 A 
ATOM      2  C   UNL     1      18.974 -18.456  -3.002  1.00  0.00     0.208 A 
ATOM      3  C   UNL     1      19.305 -17.099  -3.146  1.00  0.00     0.238 A 
ATOM      4  O   UNL     1      19.529 -16.403  -2.119  1.00  0.00    -0.285 OA
ATOM      5  C   UNL     1      19.391 -16.535  -4.436  1.00  0.00     0.111 A 
ATOM      6  C   UNL     1      19.723 -15.178  -4.666  1.00  0.00     0.134 A 
ATOM      7  C   UNL     1      19.797 -14.695  -5.981  1.00  0.00     0.093 A 
ATOM      8  C   UNL     1      19.549 -15.538  -7.066  1.00  0.00     0.123 A 
ATOM      9  C   UNL     1      19.220 -16.880  -6.844  1.00  0.00     0.094 A 
ATOM     10  C   UNL     1      19.139 -17.381  -5.542  1.00  0.00     0.146 A 
ATOM     11  O   UNL     1      18.820 -18.657  -5.359  1.00  0.00    -0.452 OA
ENDROOT
BRANCH   1  12
ATOM     12  C   UNL     1      18.341 -20.650  -4.087  1.00  0.00     0.021 A 
ATOM     13  C   UNL     1      19.335 -21.612  -3.840  1.00  0.00     0.016 A 
ATOM     14  C   UNL     1      19.009 -22.971  -3.793  1.00  0.00     0.047 A 
ATOM     15  C   UNL     1      17.688 -23.385  -4.007  1.00  0.00     0.115 A 
ATOM     16  C   UNL     1      17.021 -21.076  -4.322  1.00  0.00     0.016 A 
ATOM     17  C   UNL     1      16.698 -22.435  -4.274  1.00  0.00     0.047 A 
BRANCH  15  18
ATOM     18  O   UNL     1      17.351 -24.736  -3.961  1.00  0.00    -0.508 OA
ATOM     19  H   UNL     1      17.868 -25.392  -3.387  1.00  0.00     0.293 HD
ENDBRANCH  15  18
ENDBRANCH   1  12
BRANCH   2  20
ATOM     20  O   UNL     1      18.930 -19.051  -1.739  1.00  0.00    -0.502 OA
ATOM     21  H   UNL     1      18.062 -19.202  -1.240  1.00  0.00     0.293 HD
ENDBRANCH   2  20
BRANCH   6  22
ATOM     22  O   UNL     1      19.978 -14.310  -3.605  1.00  0.00    -0.507 OA
ATOM     23  H   UNL     1      20.569 -14.578  -2.827  1.00  0.00     0.293 HD
ENDBRANCH   6  22
BRANCH   8  24
ATOM     24  O   UNL     1      19.630 -15.033  -8.361  1.00  0.00    -0.508 OA
ATOM     25  H   UNL     1      20.181 -15.493  -9.077  1.00  0.00     0.293 HD
ENDBRANCH   8  24
TORSDOF 5
ENDMDL
