MODEL 1
REMARK VINA RESULT:    -4.887      0.000      0.000
REMARK INTER + INTRA:         -17.111
REMARK INTER:                 -12.315
REMARK INTRA:                  -4.797
REMARK UNBOUND:                -4.797
REMARK SMILES CCCCCCCCCCCCCCCCCCCCCCCCCCCC(=O)[O-]
REMARK SMILES IDX 15 1 16 2 17 3 18 4 19 5 20 6 21 7 22 8 23 9 24 10 25 11
REMARK SMILES IDX 26 12 27 13 28 14 29 15 30 16 14 17 13 18 12 19 11 20 10 21
REMARK SMILES IDX 9 22 8 23 7 24 6 25 5 26 4 27 3 28 2 29 1 30
REMARK H PARENT
REMARK Flexibility Score: inf
ROOT
ATOM      1  C   UNL     1      13.394  -4.681 -19.501  1.00  0.00     0.000 C 
ENDROOT
BRANCH   1   2
ATOM      2  C   UNL     1      14.071  -3.790 -20.555  1.00  0.00     0.000 C 
BRANCH   2   3
ATOM      3  C   UNL     1      15.179  -4.550 -21.294  1.00  0.00     0.000 C 
BRANCH   3   4
ATOM      4  C   UNL     1      15.180  -6.036 -20.907  1.00  0.00     0.000 C 
BRANCH   4   5
ATOM      5  C   UNL     1      16.572  -6.555 -20.512  1.00  0.00     0.000 C 
BRANCH   5   6
ATOM      6  C   UNL     1      16.765  -6.742 -18.993  1.00  0.00     0.000 C 
BRANCH   6   7
ATOM      7  C   UNL     1      18.215  -6.473 -18.552  1.00  0.00     0.000 C 
BRANCH   7   8
ATOM      8  C   UNL     1      18.340  -6.251 -17.036  1.00  0.00     0.000 C 
BRANCH   8   9
ATOM      9  C   UNL     1      16.975  -6.037 -16.358  1.00  0.00     0.000 C 
BRANCH   9  10
ATOM     10  C   UNL     1      16.727  -4.569 -15.968  1.00  0.00     0.000 C 
BRANCH  10  11
ATOM     11  C   UNL     1      15.847  -3.778 -16.953  1.00  0.00     0.000 C 
BRANCH  11  12
ATOM     12  C   UNL     1      16.659  -3.071 -18.048  1.00  0.00     0.006 C 
BRANCH  12  13
ATOM     13  C   UNL     1      18.022  -2.613 -17.514  1.00  0.00     0.053 C 
BRANCH  13  14
ATOM     14  C   UNL     1      19.094  -2.813 -18.541  1.00  0.00     0.041 C 
ATOM     15  O   UNL     1      18.965  -2.327 -19.697  1.00  0.00    -0.550 OA
ATOM     16  O   UNL     1      20.239  -3.530 -18.219  1.00  0.00    -0.550 OA
ENDBRANCH  13  14
ENDBRANCH  12  13
ENDBRANCH  11  12
ENDBRANCH  10  11
ENDBRANCH   9  10
ENDBRANCH   8   9
ENDBRANCH   7   8
ENDBRANCH   6   7
ENDBRANCH   5   6
ENDBRANCH   4   5
ENDBRANCH   3   4
ENDBRANCH   2   3
ENDBRANCH   1   2
BRANCH   1  17
ATOM     17  C   UNL     1      11.865  -4.499 -19.473  1.00  0.00     0.000 C 
BRANCH  17  18
ATOM     18  C   UNL     1      11.184  -4.709 -20.836  1.00  0.00     0.000 C 
BRANCH  18  19
ATOM     19  C   UNL     1      11.294  -6.158 -21.329  1.00  0.00     0.000 C 
BRANCH  19  20
ATOM     20  C   UNL     1      11.222  -6.226 -22.863  1.00  0.00     0.000 C 
BRANCH  20  21
ATOM     21  C   UNL     1      12.618  -6.132 -23.514  1.00  0.00     0.000 C 
BRANCH  21  22
ATOM     22  C   UNL     1      12.814  -4.879 -24.394  1.00  0.00    -0.000 C 
BRANCH  22  23
ATOM     23  C   UNL     1      11.772  -3.763 -24.177  1.00  0.00    -0.000 C 
BRANCH  23  24
ATOM     24  C   UNL     1      10.797  -3.573 -25.359  1.00  0.00    -0.000 C 
BRANCH  24  25
ATOM     25  C   UNL     1       9.338  -3.321 -24.935  1.00  0.00    -0.000 C 
BRANCH  25  26
ATOM     26  C   UNL     1       8.376  -4.478 -25.276  1.00  0.00    -0.000 C 
BRANCH  26  27
ATOM     27  C   UNL     1       7.373  -4.759 -24.144  1.00  0.00    -0.000 C 
BRANCH  27  28
ATOM     28  C   UNL     1       7.930  -4.400 -22.758  1.00  0.00    -0.000 C 
BRANCH  28  29
ATOM     29  C   UNL     1       7.561  -5.437 -21.687  1.00  0.00    -0.003 C 
ATOM     30  C   UNL     1       7.293  -6.802 -22.315  1.00  0.00     0.004 C 
ENDBRANCH  28  29
ENDBRANCH  27  28
ENDBRANCH  26  27
ENDBRANCH  25  26
ENDBRANCH  24  25
ENDBRANCH  23  24
ENDBRANCH  22  23
ENDBRANCH  21  22
ENDBRANCH  20  21
ENDBRANCH  19  20
ENDBRANCH  18  19
ENDBRANCH  17  18
ENDBRANCH   1  17
TORSDOF 26
ENDMDL
MODEL 2
REMARK VINA RESULT:    -4.863      3.194      9.142
REMARK INTER + INTRA:         -17.052
REMARK INTER:                 -12.542
REMARK INTRA:                  -4.510
REMARK UNBOUND:                -4.797
REMARK SMILES CCCCCCCCCCCCCCCCCCCCCCCCCCCC(=O)[O-]
REMARK SMILES IDX 15 1 16 2 17 3 18 4 19 5 20 6 21 7 22 8 23 9 24 10 25 11
REMARK SMILES IDX 26 12 27 13 28 14 29 15 30 16 14 17 13 18 12 19 11 20 10 21
REMARK SMILES IDX 9 22 8 23 7 24 6 25 5 26 4 27 3 28 2 29 1 30
REMARK H PARENT
REMARK Flexibility Score: inf
ROOT
ATOM      1  C   UNL     1      19.430  -5.747 -22.442  1.00  0.00     0.000 C 
ENDROOT
BRANCH   1   2
ATOM      2  C   UNL     1      18.169  -5.229 -21.731  1.00  0.00     0.000 C 
BRANCH   2   3
ATOM      3  C   UNL     1      17.276  -4.436 -22.694  1.00  0.00     0.000 C 
BRANCH   3   4
ATOM      4  C   UNL     1      16.046  -5.258 -23.106  1.00  0.00     0.000 C 
BRANCH   4   5
ATOM      5  C   UNL     1      14.722  -4.501 -22.907  1.00  0.00     0.000 C 
BRANCH   5   6
ATOM      6  C   UNL     1      14.578  -3.843 -21.518  1.00  0.00     0.000 C 
BRANCH   6   7
ATOM      7  C   UNL     1      14.296  -4.875 -20.412  1.00  0.00     0.000 C 
BRANCH   7   8
ATOM      8  C   UNL     1      13.446  -4.299 -19.268  1.00  0.00     0.000 C 
BRANCH   8   9
ATOM      9  C   UNL     1      11.946  -4.595 -19.444  1.00  0.00     0.000 C 
BRANCH   9  10
ATOM     10  C   UNL     1      11.669  -5.646 -20.533  1.00  0.00     0.000 C 
BRANCH  10  11
ATOM     11  C   UNL     1      10.600  -5.244 -21.565  1.00  0.00     0.000 C 
BRANCH  11  12
ATOM     12  C   UNL     1      11.025  -5.533 -23.012  1.00  0.00     0.006 C 
BRANCH  12  13
ATOM     13  C   UNL     1       9.934  -5.108 -24.002  1.00  0.00     0.053 C 
BRANCH  13  14
ATOM     14  C   UNL     1      10.257  -3.781 -24.617  1.00  0.00     0.041 C 
ATOM     15  O   UNL     1       9.365  -3.127 -25.222  1.00  0.00    -0.550 OA
ATOM     16  O   UNL     1      11.541  -3.262 -24.515  1.00  0.00    -0.550 OA
ENDBRANCH  13  14
ENDBRANCH  12  13
ENDBRANCH  11  12
ENDBRANCH  10  11
ENDBRANCH   9  10
ENDBRANCH   8   9
ENDBRANCH   7   8
ENDBRANCH   6   7
ENDBRANCH   5   6
ENDBRANCH   4   5
ENDBRANCH   3   4
ENDBRANCH   2   3
ENDBRANCH   1   2
BRANCH   1  17
ATOM     17  C   UNL     1      20.726  -5.218 -21.801  1.00  0.00     0.000 C 
BRANCH  17  18
ATOM     18  C   UNL     1      20.833  -3.683 -21.782  1.00  0.00     0.000 C 
BRANCH  18  19
ATOM     19  C   UNL     1      20.868  -3.117 -20.356  1.00  0.00     0.000 C 
BRANCH  19  20
ATOM     20  C   UNL     1      19.596  -2.308 -20.052  1.00  0.00     0.000 C 
BRANCH  20  21
ATOM     21  C   UNL     1      18.847  -2.848 -18.815  1.00  0.00     0.000 C 
BRANCH  21  22
ATOM     22  C   UNL     1      17.330  -3.028 -19.033  1.00  0.00    -0.000 C 
BRANCH  22  23
ATOM     23  C   UNL     1      16.449  -2.634 -17.830  1.00  0.00    -0.000 C 
BRANCH  23  24
ATOM     24  C   UNL     1      16.342  -3.726 -16.744  1.00  0.00    -0.000 C 
BRANCH  24  25
ATOM     25  C   UNL     1      16.446  -5.165 -17.287  1.00  0.00    -0.000 C 
BRANCH  25  26
ATOM     26  C   UNL     1      17.174  -6.142 -16.341  1.00  0.00    -0.000 C 
BRANCH  26  27
ATOM     27  C   UNL     1      18.692  -6.172 -16.586  1.00  0.00    -0.000 C 
BRANCH  27  28
ATOM     28  C   UNL     1      19.053  -6.634 -18.007  1.00  0.00    -0.000 C 
BRANCH  28  29
ATOM     29  C   UNL     1      20.467  -6.205 -18.425  1.00  0.00    -0.003 C 
ATOM     30  C   UNL     1      21.152  -5.415 -17.313  1.00  0.00     0.004 C 
ENDBRANCH  28  29
ENDBRANCH  27  28
ENDBRANCH  26  27
ENDBRANCH  25  26
ENDBRANCH  24  25
ENDBRANCH  23  24
ENDBRANCH  22  23
ENDBRANCH  21  22
ENDBRANCH  20  21
ENDBRANCH  19  20
ENDBRANCH  18  19
ENDBRANCH  17  18
ENDBRANCH   1  17
TORSDOF 26
ENDMDL
MODEL 3
REMARK VINA RESULT:    -4.817      2.034      4.482
REMARK INTER + INTRA:         -16.935
REMARK INTER:                 -12.174
REMARK INTRA:                  -4.762
REMARK UNBOUND:                -4.797
REMARK SMILES CCCCCCCCCCCCCCCCCCCCCCCCCCCC(=O)[O-]
REMARK SMILES IDX 15 1 16 2 17 3 18 4 19 5 20 6 21 7 22 8 23 9 24 10 25 11
REMARK SMILES IDX 26 12 27 13 28 14 29 15 30 16 14 17 13 18 12 19 11 20 10 21
REMARK SMILES IDX 9 22 8 23 7 24 6 25 5 26 4 27 3 28 2 29 1 30
REMARK H PARENT
REMARK Flexibility Score: inf
ROOT
ATOM      1  C   UNL     1      11.222  -3.374 -23.683  1.00  0.00     0.000 C 
ENDROOT
BRANCH   1   2
ATOM      2  C   UNL     1      12.427  -4.132 -24.263  1.00  0.00     0.000 C 
BRANCH   2   3
ATOM      3  C   UNL     1      12.355  -5.627 -23.929  1.00  0.00     0.000 C 
BRANCH   3   4
ATOM      4  C   UNL     1      13.734  -6.168 -23.525  1.00  0.00     0.000 C 
BRANCH   4   5
ATOM      5  C   UNL     1      13.688  -7.058 -22.272  1.00  0.00     0.000 C 
BRANCH   5   6
ATOM      6  C   UNL     1      12.268  -7.282 -21.713  1.00  0.00     0.000 C 
BRANCH   6   7
ATOM      7  C   UNL     1      12.155  -6.884 -20.230  1.00  0.00     0.000 C 
BRANCH   7   8
ATOM      8  C   UNL     1      11.460  -5.527 -20.033  1.00  0.00     0.000 C 
BRANCH   8   9
ATOM      9  C   UNL     1      12.403  -4.464 -19.441  1.00  0.00     0.000 C 
BRANCH   9  10
ATOM     10  C   UNL     1      13.364  -3.871 -20.487  1.00  0.00     0.000 C 
BRANCH  10  11
ATOM     11  C   UNL     1      14.848  -3.874 -20.079  1.00  0.00     0.000 C 
BRANCH  11  12
ATOM     12  C   UNL     1      15.071  -4.345 -18.635  1.00  0.00     0.006 C 
BRANCH  12  13
ATOM     13  C   UNL     1      15.991  -3.381 -17.876  1.00  0.00     0.053 C 
BRANCH  13  14
ATOM     14  C   UNL     1      16.966  -4.133 -17.022  1.00  0.00     0.041 C 
ATOM     15  O   UNL     1      18.154  -4.300 -17.410  1.00  0.00    -0.550 OA
ATOM     16  O   UNL     1      16.565  -4.642 -15.793  1.00  0.00    -0.550 OA
ENDBRANCH  13  14
ENDBRANCH  12  13
ENDBRANCH  11  12
ENDBRANCH  10  11
ENDBRANCH   9  10
ENDBRANCH   8   9
ENDBRANCH   7   8
ENDBRANCH   6   7
ENDBRANCH   5   6
ENDBRANCH   4   5
ENDBRANCH   3   4
ENDBRANCH   2   3
ENDBRANCH   1   2
BRANCH   1  17
ATOM     17  C   UNL     1       9.914  -4.178 -23.793  1.00  0.00     0.000 C 
BRANCH  17  18
ATOM     18  C   UNL     1       9.251  -4.485 -22.439  1.00  0.00     0.000 C 
BRANCH  18  19
ATOM     19  C   UNL     1       7.724  -4.584 -22.544  1.00  0.00     0.000 C 
BRANCH  19  20
ATOM     20  C   UNL     1       7.221  -5.939 -22.022  1.00  0.00     0.000 C 
BRANCH  20  21
ATOM     21  C   UNL     1       8.382  -6.910 -21.717  1.00  0.00     0.000 C 
BRANCH  21  22
ATOM     22  C   UNL     1       8.444  -8.127 -22.664  1.00  0.00    -0.000 C 
BRANCH  22  23
ATOM     23  C   UNL     1       9.489  -8.020 -23.792  1.00  0.00    -0.000 C 
BRANCH  23  24
ATOM     24  C   UNL     1       8.902  -8.178 -25.211  1.00  0.00    -0.000 C 
BRANCH  24  25
ATOM     25  C   UNL     1       7.403  -7.838 -25.313  1.00  0.00    -0.000 C 
BRANCH  25  26
ATOM     26  C   UNL     1       7.116  -6.363 -25.663  1.00  0.00    -0.000 C 
BRANCH  26  27
ATOM     27  C   UNL     1       5.745  -6.177 -26.336  1.00  0.00    -0.000 C 
BRANCH  27  28
ATOM     28  C   UNL     1       5.527  -4.744 -26.846  1.00  0.00    -0.000 C 
BRANCH  28  29
ATOM     29  C   UNL     1       6.365  -3.710 -26.079  1.00  0.00    -0.003 C 
ATOM     30  C   UNL     1       5.493  -2.896 -25.127  1.00  0.00     0.004 C 
ENDBRANCH  28  29
ENDBRANCH  27  28
ENDBRANCH  26  27
ENDBRANCH  25  26
ENDBRANCH  24  25
ENDBRANCH  23  24
ENDBRANCH  22  23
ENDBRANCH  21  22
ENDBRANCH  20  21
ENDBRANCH  19  20
ENDBRANCH  18  19
ENDBRANCH  17  18
ENDBRANCH   1  17
TORSDOF 26
ENDMDL
MODEL 4
REMARK VINA RESULT:    -4.812      1.617      3.472
REMARK INTER + INTRA:         -16.922
REMARK INTER:                 -12.435
REMARK INTRA:                  -4.487
REMARK UNBOUND:                -4.797
REMARK SMILES CCCCCCCCCCCCCCCCCCCCCCCCCCCC(=O)[O-]
REMARK SMILES IDX 15 1 16 2 17 3 18 4 19 5 20 6 21 7 22 8 23 9 24 10 25 11
REMARK SMILES IDX 26 12 27 13 28 14 29 15 30 16 14 17 13 18 12 19 11 20 10 21
REMARK SMILES IDX 9 22 8 23 7 24 6 25 5 26 4 27 3 28 2 29 1 30
REMARK H PARENT
REMARK Flexibility Score: inf
ROOT
ATOM      1  C   UNL     1      16.446  -4.157 -23.117  1.00  0.00     0.000 C 
ENDROOT
BRANCH   1   2
ATOM      2  C   UNL     1      17.634  -4.892 -22.477  1.00  0.00     0.000 C 
BRANCH   2   3
ATOM      3  C   UNL     1      18.427  -3.963 -21.550  1.00  0.00     0.000 C 
BRANCH   3   4
ATOM      4  C   UNL     1      17.904  -4.045 -20.109  1.00  0.00     0.000 C 
BRANCH   4   5
ATOM      5  C   UNL     1      17.621  -2.665 -19.491  1.00  0.00     0.000 C 
BRANCH   5   6
ATOM      6  C   UNL     1      16.837  -2.720 -18.164  1.00  0.00     0.000 C 
BRANCH   6   7
ATOM      7  C   UNL     1      17.530  -3.608 -17.114  1.00  0.00     0.000 C 
BRANCH   7   8
ATOM      8  C   UNL     1      16.603  -4.700 -16.557  1.00  0.00     0.000 C 
BRANCH   8   9
ATOM      9  C   UNL     1      17.299  -6.070 -16.464  1.00  0.00     0.000 C 
BRANCH   9  10
ATOM     10  C   UNL     1      18.469  -6.213 -17.452  1.00  0.00     0.000 C 
BRANCH  10  11
ATOM     11  C   UNL     1      19.818  -6.583 -16.810  1.00  0.00     0.000 C 
BRANCH  11  12
ATOM     12  C   UNL     1      21.024  -6.096 -17.627  1.00  0.00     0.006 C 
BRANCH  12  13
ATOM     13  C   UNL     1      21.168  -4.571 -17.541  1.00  0.00     0.053 C 
BRANCH  13  14
ATOM     14  C   UNL     1      21.303  -3.969 -18.906  1.00  0.00     0.041 C 
ATOM     15  O   UNL     1      21.165  -2.727 -19.069  1.00  0.00    -0.550 OA
ATOM     16  O   UNL     1      21.590  -4.780 -19.997  1.00  0.00    -0.550 OA
ENDBRANCH  13  14
ENDBRANCH  12  13
ENDBRANCH  11  12
ENDBRANCH  10  11
ENDBRANCH   9  10
ENDBRANCH   8   9
ENDBRANCH   7   8
ENDBRANCH   6   7
ENDBRANCH   5   6
ENDBRANCH   4   5
ENDBRANCH   3   4
ENDBRANCH   2   3
ENDBRANCH   1   2
BRANCH   1  17
ATOM     17  C   UNL     1      15.101  -4.541 -22.474  1.00  0.00     0.000 C 
BRANCH  17  18
ATOM     18  C   UNL     1      15.135  -5.867 -21.695  1.00  0.00     0.000 C 
BRANCH  18  19
ATOM     19  C   UNL     1      14.650  -5.708 -20.248  1.00  0.00     0.000 C 
BRANCH  19  20
ATOM     20  C   UNL     1      13.978  -4.341 -20.038  1.00  0.00     0.000 C 
BRANCH  20  21
ATOM     21  C   UNL     1      12.615  -4.467 -19.326  1.00  0.00     0.000 C 
BRANCH  21  22
ATOM     22  C   UNL     1      11.476  -4.966 -20.240  1.00  0.00    -0.000 C 
BRANCH  22  23
ATOM     23  C   UNL     1      11.468  -4.361 -21.658  1.00  0.00    -0.000 C 
BRANCH  23  24
ATOM     24  C   UNL     1      11.521  -5.409 -22.790  1.00  0.00    -0.000 C 
BRANCH  24  25
ATOM     25  C   UNL     1      11.788  -4.815 -24.185  1.00  0.00    -0.000 C 
BRANCH  25  26
ATOM     26  C   UNL     1      10.602  -4.945 -25.162  1.00  0.00    -0.000 C 
BRANCH  26  27
ATOM     27  C   UNL     1       9.536  -3.858 -24.938  1.00  0.00    -0.000 C 
BRANCH  27  28
ATOM     28  C   UNL     1       8.160  -4.444 -24.587  1.00  0.00    -0.000 C 
BRANCH  28  29
ATOM     29  C   UNL     1       7.713  -4.085 -23.162  1.00  0.00    -0.003 C 
ATOM     30  C   UNL     1       7.839  -5.287 -22.229  1.00  0.00     0.004 C 
ENDBRANCH  28  29
ENDBRANCH  27  28
ENDBRANCH  26  27
ENDBRANCH  25  26
ENDBRANCH  24  25
ENDBRANCH  23  24
ENDBRANCH  22  23
ENDBRANCH  21  22
ENDBRANCH  20  21
ENDBRANCH  19  20
ENDBRANCH  18  19
ENDBRANCH  17  18
ENDBRANCH   1  17
TORSDOF 26
ENDMDL
MODEL 5
REMARK VINA RESULT:    -4.782      3.606      9.063
REMARK INTER + INTRA:         -16.846
REMARK INTER:                 -11.936
REMARK INTRA:                  -4.910
REMARK UNBOUND:                -4.797
REMARK SMILES CCCCCCCCCCCCCCCCCCCCCCCCCCCC(=O)[O-]
REMARK SMILES IDX 15 1 16 2 17 3 18 4 19 5 20 6 21 7 22 8 23 9 24 10 25 11
REMARK SMILES IDX 26 12 27 13 28 14 29 15 30 16 14 17 13 18 12 19 11 20 10 21
REMARK SMILES IDX 9 22 8 23 7 24 6 25 5 26 4 27 3 28 2 29 1 30
REMARK H PARENT
REMARK Flexibility Score: inf
ROOT
ATOM      1  C   UNL     1      11.167  -4.805 -20.526  1.00  0.00     0.000 C 
ENDROOT
BRANCH   1   2
ATOM      2  C   UNL     1      10.914  -6.310 -20.710  1.00  0.00     0.000 C 
BRANCH   2   3
ATOM      3  C   UNL     1      10.860  -6.687 -22.195  1.00  0.00     0.000 C 
BRANCH   3   4
ATOM      4  C   UNL     1      12.045  -7.585 -22.579  1.00  0.00     0.000 C 
BRANCH   4   5
ATOM      5  C   UNL     1      13.317  -6.790 -22.918  1.00  0.00     0.000 C 
BRANCH   5   6
ATOM      6  C   UNL     1      13.205  -5.946 -24.205  1.00  0.00     0.000 C 
BRANCH   6   7
ATOM      7  C   UNL     1      13.261  -4.435 -23.917  1.00  0.00     0.000 C 
BRANCH   7   8
ATOM      8  C   UNL     1      11.956  -3.713 -24.289  1.00  0.00     0.000 C 
BRANCH   8   9
ATOM      9  C   UNL     1      11.101  -4.519 -25.283  1.00  0.00     0.000 C 
BRANCH   9  10
ATOM     10  C   UNL     1       9.593  -4.403 -25.003  1.00  0.00     0.000 C 
BRANCH  10  11
ATOM     11  C   UNL     1       9.233  -3.839 -23.616  1.00  0.00     0.000 C 
BRANCH  11  12
ATOM     12  C   UNL     1       7.820  -4.229 -23.159  1.00  0.00     0.006 C 
BRANCH  12  13
ATOM     13  C   UNL     1       7.492  -5.675 -23.554  1.00  0.00     0.053 C 
BRANCH  13  14
ATOM     14  C   UNL     1       7.162  -6.497 -22.346  1.00  0.00     0.041 C 
ATOM     15  O   UNL     1       7.029  -7.747 -22.446  1.00  0.00    -0.550 OA
ATOM     16  O   UNL     1       7.010  -5.885 -21.109  1.00  0.00    -0.550 OA
ENDBRANCH  13  14
ENDBRANCH  12  13
ENDBRANCH  11  12
ENDBRANCH  10  11
ENDBRANCH   9  10
ENDBRANCH   8   9
ENDBRANCH   7   8
ENDBRANCH   6   7
ENDBRANCH   5   6
ENDBRANCH   4   5
ENDBRANCH   3   4
ENDBRANCH   2   3
ENDBRANCH   1   2
BRANCH   1  17
ATOM     17  C   UNL     1      12.409  -4.519 -19.662  1.00  0.00     0.000 C 
BRANCH  17  18
ATOM     18  C   UNL     1      13.609  -3.969 -20.453  1.00  0.00     0.000 C 
BRANCH  18  19
ATOM     19  C   UNL     1      14.874  -4.816 -20.260  1.00  0.00     0.000 C 
BRANCH  19  20
ATOM     20  C   UNL     1      14.796  -5.638 -18.964  1.00  0.00     0.000 C 
BRANCH  20  21
ATOM     21  C   UNL     1      16.195  -6.021 -18.434  1.00  0.00     0.000 C 
BRANCH  21  22
ATOM     22  C   UNL     1      16.660  -5.177 -17.230  1.00  0.00    -0.000 C 
BRANCH  22  23
ATOM     23  C   UNL     1      15.944  -3.820 -17.071  1.00  0.00    -0.000 C 
BRANCH  23  24
ATOM     24  C   UNL     1      16.817  -2.601 -17.436  1.00  0.00    -0.000 C 
BRANCH  24  25
ATOM     25  C   UNL     1      17.104  -2.462 -18.943  1.00  0.00    -0.000 C 
BRANCH  25  26
ATOM     26  C   UNL     1      18.577  -2.715 -19.328  1.00  0.00    -0.000 C 
BRANCH  26  27
ATOM     27  C   UNL     1      18.767  -4.044 -20.078  1.00  0.00    -0.000 C 
BRANCH  27  28
ATOM     28  C   UNL     1      18.998  -3.846 -21.584  1.00  0.00    -0.000 C 
BRANCH  28  29
ATOM     29  C   UNL     1      18.271  -4.896 -22.436  1.00  0.00    -0.003 C 
ATOM     30  C   UNL     1      16.977  -4.331 -23.016  1.00  0.00     0.004 C 
ENDBRANCH  28  29
ENDBRANCH  27  28
ENDBRANCH  26  27
ENDBRANCH  25  26
ENDBRANCH  24  25
ENDBRANCH  23  24
ENDBRANCH  22  23
ENDBRANCH  21  22
ENDBRANCH  20  21
ENDBRANCH  19  20
ENDBRANCH  18  19
ENDBRANCH  17  18
ENDBRANCH   1  17
TORSDOF 26
ENDMDL
MODEL 6
REMARK VINA RESULT:    -4.774      1.633      3.312
REMARK INTER + INTRA:         -16.827
REMARK INTER:                 -11.854
REMARK INTRA:                  -4.974
REMARK UNBOUND:                -4.797
REMARK SMILES CCCCCCCCCCCCCCCCCCCCCCCCCCCC(=O)[O-]
REMARK SMILES IDX 15 1 16 2 17 3 18 4 19 5 20 6 21 7 22 8 23 9 24 10 25 11
REMARK SMILES IDX 26 12 27 13 28 14 29 15 30 16 14 17 13 18 12 19 11 20 10 21
REMARK SMILES IDX 9 22 8 23 7 24 6 25 5 26 4 27 3 28 2 29 1 30
REMARK H PARENT
REMARK Flexibility Score: inf
ROOT
ATOM      1  C   UNL     1      15.434  -4.324 -20.611  1.00  0.00     0.000 C 
ENDROOT
BRANCH   1   2
ATOM      2  C   UNL     1      15.484  -5.860 -20.557  1.00  0.00     0.000 C 
BRANCH   2   3
ATOM      3  C   UNL     1      16.662  -6.347 -19.704  1.00  0.00     0.000 C 
BRANCH   3   4
ATOM      4  C   UNL     1      16.287  -6.379 -18.215  1.00  0.00     0.000 C 
BRANCH   4   5
ATOM      5  C   UNL     1      17.353  -5.737 -17.312  1.00  0.00     0.000 C 
BRANCH   5   6
ATOM      6  C   UNL     1      16.796  -4.676 -16.340  1.00  0.00     0.000 C 
BRANCH   6   7
ATOM      7  C   UNL     1      16.377  -3.385 -17.066  1.00  0.00     0.000 C 
BRANCH   7   8
ATOM      8  C   UNL     1      17.578  -2.509 -17.458  1.00  0.00     0.000 C 
BRANCH   8   9
ATOM      9  C   UNL     1      17.703  -2.331 -18.982  1.00  0.00     0.000 C 
BRANCH   9  10
ATOM     10  C   UNL     1      19.021  -2.893 -19.542  1.00  0.00     0.000 C 
BRANCH  10  11
ATOM     11  C   UNL     1      20.166  -3.002 -18.518  1.00  0.00     0.000 C 
BRANCH  11  12
ATOM     12  C   UNL     1      20.802  -4.399 -18.478  1.00  0.00     0.006 C 
BRANCH  12  13
ATOM     13  C   UNL     1      21.562  -4.696 -19.777  1.00  0.00     0.053 C 
BRANCH  13  14
ATOM     14  C   UNL     1      21.087  -5.976 -20.393  1.00  0.00     0.041 C 
ATOM     15  O   UNL     1      20.111  -6.599 -19.893  1.00  0.00    -0.550 OA
ATOM     16  O   UNL     1      21.716  -6.478 -21.525  1.00  0.00    -0.550 OA
ENDBRANCH  13  14
ENDBRANCH  12  13
ENDBRANCH  11  12
ENDBRANCH  10  11
ENDBRANCH   9  10
ENDBRANCH   8   9
ENDBRANCH   7   8
ENDBRANCH   6   7
ENDBRANCH   5   6
ENDBRANCH   4   5
ENDBRANCH   3   4
ENDBRANCH   2   3
ENDBRANCH   1   2
BRANCH   1  17
ATOM     17  C   UNL     1      14.113  -3.760 -20.057  1.00  0.00     0.000 C 
BRANCH  17  18
ATOM     18  C   UNL     1      13.098  -4.837 -19.637  1.00  0.00     0.000 C 
BRANCH  18  19
ATOM     19  C   UNL     1      11.669  -4.499 -20.081  1.00  0.00     0.000 C 
BRANCH  19  20
ATOM     20  C   UNL     1      10.963  -5.736 -20.658  1.00  0.00     0.000 C 
BRANCH  20  21
ATOM     21  C   UNL     1      11.963  -6.751 -21.252  1.00  0.00     0.000 C 
BRANCH  21  22
ATOM     22  C   UNL     1      11.963  -6.800 -22.794  1.00  0.00    -0.000 C 
BRANCH  22  23
ATOM     23  C   UNL     1      13.226  -6.221 -23.463  1.00  0.00    -0.000 C 
BRANCH  23  24
ATOM     24  C   UNL     1      13.242  -4.680 -23.551  1.00  0.00    -0.000 C 
BRANCH  24  25
ATOM     25  C   UNL     1      12.106  -4.087 -24.405  1.00  0.00    -0.000 C 
BRANCH  25  26
ATOM     26  C   UNL     1      11.042  -3.322 -23.591  1.00  0.00    -0.000 C 
BRANCH  26  27
ATOM     27  C   UNL     1       9.623  -3.519 -24.150  1.00  0.00    -0.000 C 
BRANCH  27  28
ATOM     28  C   UNL     1       8.931  -4.767 -23.581  1.00  0.00    -0.000 C 
BRANCH  28  29
ATOM     29  C   UNL     1       7.823  -4.421 -22.575  1.00  0.00    -0.003 C 
ATOM     30  C   UNL     1       7.402  -5.653 -21.778  1.00  0.00     0.004 C 
ENDBRANCH  28  29
ENDBRANCH  27  28
ENDBRANCH  26  27
ENDBRANCH  25  26
ENDBRANCH  24  25
ENDBRANCH  23  24
ENDBRANCH  22  23
ENDBRANCH  21  22
ENDBRANCH  20  21
ENDBRANCH  19  20
ENDBRANCH  18  19
ENDBRANCH  17  18
ENDBRANCH   1  17
TORSDOF 26
ENDMDL
MODEL 7
REMARK VINA RESULT:    -4.769      3.594      9.195
REMARK INTER + INTRA:         -16.813
REMARK INTER:                 -11.451
REMARK INTRA:                  -5.362
REMARK UNBOUND:                -4.797
REMARK SMILES CCCCCCCCCCCCCCCCCCCCCCCCCCCC(=O)[O-]
REMARK SMILES IDX 15 1 16 2 17 3 18 4 19 5 20 6 21 7 22 8 23 9 24 10 25 11
REMARK SMILES IDX 26 12 27 13 28 14 29 15 30 16 14 17 13 18 12 19 11 20 10 21
REMARK SMILES IDX 9 22 8 23 7 24 6 25 5 26 4 27 3 28 2 29 1 30
REMARK H PARENT
REMARK Flexibility Score: inf
ROOT
ATOM      1  C   UNL     1      16.396  -3.778 -21.816  1.00  0.00     0.000 C 
ENDROOT
BRANCH   1   2
ATOM      2  C   UNL     1      15.644  -4.475 -20.670  1.00  0.00     0.000 C 
BRANCH   2   3
ATOM      3  C   UNL     1      14.472  -3.619 -20.176  1.00  0.00     0.000 C 
BRANCH   3   4
ATOM      4  C   UNL     1      13.495  -4.456 -19.337  1.00  0.00     0.000 C 
BRANCH   4   5
ATOM      5  C   UNL     1      12.062  -4.446 -19.895  1.00  0.00     0.000 C 
BRANCH   5   6
ATOM      6  C   UNL     1      11.543  -5.837 -20.315  1.00  0.00     0.000 C 
BRANCH   6   7
ATOM      7  C   UNL     1      12.657  -6.899 -20.317  1.00  0.00     0.000 C 
BRANCH   7   8
ATOM      8  C   UNL     1      12.766  -7.640 -21.659  1.00  0.00     0.000 C 
BRANCH   8   9
ATOM      9  C   UNL     1      12.490  -6.721 -22.862  1.00  0.00     0.000 C 
BRANCH   9  10
ATOM     10  C   UNL     1      13.762  -6.044 -23.401  1.00  0.00     0.000 C 
BRANCH  10  11
ATOM     11  C   UNL     1      13.583  -4.578 -23.833  1.00  0.00     0.000 C 
BRANCH  11  12
ATOM     12  C   UNL     1      12.151  -4.063 -23.626  1.00  0.00     0.006 C 
BRANCH  12  13
ATOM     13  C   UNL     1      11.522  -3.634 -24.957  1.00  0.00     0.053 C 
BRANCH  13  14
ATOM     14  C   UNL     1      10.832  -4.787 -25.620  1.00  0.00     0.041 C 
ATOM     15  O   UNL     1       9.657  -5.099 -25.289  1.00  0.00    -0.550 OA
ATOM     16  O   UNL     1      11.485  -5.512 -26.608  1.00  0.00    -0.550 OA
ENDBRANCH  13  14
ENDBRANCH  12  13
ENDBRANCH  11  12
ENDBRANCH  10  11
ENDBRANCH   9  10
ENDBRANCH   8   9
ENDBRANCH   7   8
ENDBRANCH   6   7
ENDBRANCH   5   6
ENDBRANCH   4   5
ENDBRANCH   3   4
ENDBRANCH   2   3
ENDBRANCH   1   2
BRANCH   1  17
ATOM     17  C   UNL     1      17.485  -4.674 -22.434  1.00  0.00     0.000 C 
BRANCH  17  18
ATOM     18  C   UNL     1      17.972  -5.800 -21.506  1.00  0.00     0.000 C 
BRANCH  18  19
ATOM     19  C   UNL     1      19.452  -5.650 -21.130  1.00  0.00     0.000 C 
BRANCH  19  20
ATOM     20  C   UNL     1      20.112  -4.515 -21.928  1.00  0.00     0.000 C 
BRANCH  20  21
ATOM     21  C   UNL     1      20.876  -3.532 -21.016  1.00  0.00     0.000 C 
BRANCH  21  22
ATOM     22  C   UNL     1      20.189  -3.276 -19.659  1.00  0.00    -0.000 C 
BRANCH  22  23
ATOM     23  C   UNL     1      18.937  -2.378 -19.723  1.00  0.00    -0.000 C 
BRANCH  23  24
ATOM     24  C   UNL     1      17.977  -2.549 -18.526  1.00  0.00    -0.000 C 
BRANCH  24  25
ATOM     25  C   UNL     1      18.436  -3.602 -17.498  1.00  0.00    -0.000 C 
BRANCH  25  26
ATOM     26  C   UNL     1      17.688  -4.947 -17.601  1.00  0.00    -0.000 C 
BRANCH  26  27
ATOM     27  C   UNL     1      18.430  -6.086 -16.881  1.00  0.00    -0.000 C 
BRANCH  27  28
ATOM     28  C   UNL     1      19.589  -6.656 -17.714  1.00  0.00    -0.000 C 
BRANCH  28  29
ATOM     29  C   UNL     1      20.965  -6.272 -17.150  1.00  0.00    -0.003 C 
ATOM     30  C   UNL     1      22.005  -6.174 -18.262  1.00  0.00     0.004 C 
ENDBRANCH  28  29
ENDBRANCH  27  28
ENDBRANCH  26  27
ENDBRANCH  25  26
ENDBRANCH  24  25
ENDBRANCH  23  24
ENDBRANCH  22  23
ENDBRANCH  21  22
ENDBRANCH  20  21
ENDBRANCH  19  20
ENDBRANCH  18  19
ENDBRANCH  17  18
ENDBRANCH   1  17
TORSDOF 26
ENDMDL
MODEL 8
REMARK VINA RESULT:    -4.759      2.751      8.569
REMARK INTER + INTRA:         -16.788
REMARK INTER:                 -11.357
REMARK INTRA:                  -5.431
REMARK UNBOUND:                -4.797
REMARK SMILES CCCCCCCCCCCCCCCCCCCCCCCCCCCC(=O)[O-]
REMARK SMILES IDX 15 1 16 2 17 3 18 4 19 5 20 6 21 7 22 8 23 9 24 10 25 11
REMARK SMILES IDX 26 12 27 13 28 14 29 15 30 16 14 17 13 18 12 19 11 20 10 21
REMARK SMILES IDX 9 22 8 23 7 24 6 25 5 26 4 27 3 28 2 29 1 30
REMARK H PARENT
REMARK Flexibility Score: inf
ROOT
ATOM      1  C   UNL     1      12.225  -4.330 -20.932  1.00  0.00     0.000 C 
ENDROOT
BRANCH   1   2
ATOM      2  C   UNL     1      11.189  -5.269 -21.572  1.00  0.00     0.000 C 
BRANCH   2   3
ATOM      3  C   UNL     1      10.768  -6.376 -20.598  1.00  0.00     0.000 C 
BRANCH   3   4
ATOM      4  C   UNL     1      10.372  -7.652 -21.353  1.00  0.00     0.000 C 
BRANCH   4   5
ATOM      5  C   UNL     1      10.686  -7.584 -22.857  1.00  0.00     0.000 C 
BRANCH   5   6
ATOM      6  C   UNL     1       9.510  -8.005 -23.764  1.00  0.00     0.000 C 
BRANCH   6   7
ATOM      7  C   UNL     1       8.149  -7.856 -23.060  1.00  0.00     0.000 C 
BRANCH   7   8
ATOM      8  C   UNL     1       7.399  -6.584 -23.487  1.00  0.00     0.000 C 
BRANCH   8   9
ATOM      9  C   UNL     1       7.375  -5.516 -22.379  1.00  0.00     0.000 C 
BRANCH   9  10
ATOM     10  C   UNL     1       8.126  -4.231 -22.772  1.00  0.00     0.000 C 
BRANCH  10  11
ATOM     11  C   UNL     1       8.223  -3.976 -24.287  1.00  0.00     0.000 C 
BRANCH  11  12
ATOM     12  C   UNL     1       9.651  -3.653 -24.750  1.00  0.00     0.006 C 
BRANCH  12  13
ATOM     13  C   UNL     1      10.325  -4.887 -25.362  1.00  0.00     0.053 C 
BRANCH  13  14
ATOM     14  C   UNL     1      11.726  -4.574 -25.791  1.00  0.00     0.041 C 
ATOM     15  O   UNL     1      12.009  -4.476 -27.015  1.00  0.00    -0.550 OA
ATOM     16  O   UNL     1      12.718  -4.381 -24.838  1.00  0.00    -0.550 OA
ENDBRANCH  13  14
ENDBRANCH  12  13
ENDBRANCH  11  12
ENDBRANCH  10  11
ENDBRANCH   9  10
ENDBRANCH   8   9
ENDBRANCH   7   8
ENDBRANCH   6   7
ENDBRANCH   5   6
ENDBRANCH   4   5
ENDBRANCH   3   4
ENDBRANCH   2   3
ENDBRANCH   1   2
BRANCH   1  17
ATOM     17  C   UNL     1      12.320  -4.513 -19.406  1.00  0.00     0.000 C 
BRANCH  17  18
ATOM     18  C   UNL     1      13.711  -4.208 -18.824  1.00  0.00     0.000 C 
BRANCH  18  19
ATOM     19  C   UNL     1      14.649  -3.566 -19.854  1.00  0.00     0.000 C 
BRANCH  19  20
ATOM     20  C   UNL     1      16.006  -3.216 -19.222  1.00  0.00     0.000 C 
BRANCH  20  21
ATOM     21  C   UNL     1      16.037  -3.517 -17.709  1.00  0.00     0.000 C 
BRANCH  21  22
ATOM     22  C   UNL     1      17.385  -4.078 -17.210  1.00  0.00    -0.000 C 
BRANCH  22  23
ATOM     23  C   UNL     1      17.721  -5.499 -17.705  1.00  0.00    -0.000 C 
BRANCH  23  24
ATOM     24  C   UNL     1      16.509  -6.455 -17.745  1.00  0.00    -0.000 C 
BRANCH  24  25
ATOM     25  C   UNL     1      16.293  -7.140 -19.108  1.00  0.00    -0.000 C 
BRANCH  25  26
ATOM     26  C   UNL     1      14.831  -7.549 -19.381  1.00  0.00    -0.000 C 
BRANCH  26  27
ATOM     27  C   UNL     1      14.422  -7.319 -20.846  1.00  0.00    -0.000 C 
BRANCH  27  28
ATOM     28  C   UNL     1      15.569  -6.755 -21.699  1.00  0.00    -0.000 C 
BRANCH  28  29
ATOM     29  C   UNL     1      15.077  -5.780 -22.779  1.00  0.00    -0.003 C 
ATOM     30  C   UNL     1      16.119  -4.700 -23.059  1.00  0.00     0.004 C 
ENDBRANCH  28  29
ENDBRANCH  27  28
ENDBRANCH  26  27
ENDBRANCH  25  26
ENDBRANCH  24  25
ENDBRANCH  23  24
ENDBRANCH  22  23
ENDBRANCH  21  22
ENDBRANCH  20  21
ENDBRANCH  19  20
ENDBRANCH  18  19
ENDBRANCH  17  18
ENDBRANCH   1  17
TORSDOF 26
ENDMDL
MODEL 9
REMARK VINA RESULT:    -4.702      2.015      4.563
REMARK INTER + INTRA:         -16.646
REMARK INTER:                 -11.259
REMARK INTRA:                  -5.387
REMARK UNBOUND:                -4.797
REMARK SMILES CCCCCCCCCCCCCCCCCCCCCCCCCCCC(=O)[O-]
REMARK SMILES IDX 15 1 16 2 17 3 18 4 19 5 20 6 21 7 22 8 23 9 24 10 25 11
REMARK SMILES IDX 26 12 27 13 28 14 29 15 30 16 14 17 13 18 12 19 11 20 10 21
REMARK SMILES IDX 9 22 8 23 7 24 6 25 5 26 4 27 3 28 2 29 1 30
REMARK H PARENT
REMARK Flexibility Score: inf
ROOT
ATOM      1  C   UNL     1      17.428  -4.517 -22.834  1.00  0.00     0.000 C 
ENDROOT
BRANCH   1   2
ATOM      2  C   UNL     1      18.405  -5.043 -21.770  1.00  0.00     0.000 C 
BRANCH   2   3
ATOM      3  C   UNL     1      19.860  -4.912 -22.240  1.00  0.00     0.000 C 
BRANCH   3   4
ATOM      4  C   UNL     1      20.534  -3.686 -21.609  1.00  0.00     0.000 C 
BRANCH   4   5
ATOM      5  C   UNL     1      19.965  -3.331 -20.225  1.00  0.00     0.000 C 
BRANCH   5   6
ATOM      6  C   UNL     1      21.041  -3.025 -19.164  1.00  0.00     0.000 C 
BRANCH   6   7
ATOM      7  C   UNL     1      21.027  -4.042 -18.009  1.00  0.00     0.000 C 
BRANCH   7   8
ATOM      8  C   UNL     1      20.441  -5.401 -18.425  1.00  0.00     0.000 C 
BRANCH   8   9
ATOM      9  C   UNL     1      19.324  -5.874 -17.478  1.00  0.00     0.000 C 
BRANCH   9  10
ATOM     10  C   UNL     1      18.074  -6.365 -18.228  1.00  0.00     0.000 C 
BRANCH  10  11
ATOM     11  C   UNL     1      16.744  -6.144 -17.486  1.00  0.00     0.000 C 
BRANCH  11  12
ATOM     12  C   UNL     1      16.794  -4.962 -16.507  1.00  0.00     0.006 C 
BRANCH  12  13
ATOM     13  C   UNL     1      16.041  -3.750 -17.067  1.00  0.00     0.053 C 
BRANCH  13  14
ATOM     14  C   UNL     1      16.981  -2.804 -17.748  1.00  0.00     0.041 C 
ATOM     15  O   UNL     1      18.078  -2.499 -17.208  1.00  0.00    -0.550 OA
ATOM     16  O   UNL     1      16.650  -2.265 -18.985  1.00  0.00    -0.550 OA
ENDBRANCH  13  14
ENDBRANCH  12  13
ENDBRANCH  11  12
ENDBRANCH  10  11
ENDBRANCH   9  10
ENDBRANCH   8   9
ENDBRANCH   7   8
ENDBRANCH   6   7
ENDBRANCH   5   6
ENDBRANCH   4   5
ENDBRANCH   3   4
ENDBRANCH   2   3
ENDBRANCH   1   2
BRANCH   1  17
ATOM     17  C   UNL     1      16.078  -4.089 -22.231  1.00  0.00     0.000 C 
BRANCH  17  18
ATOM     18  C   UNL     1      15.731  -4.795 -20.908  1.00  0.00     0.000 C 
BRANCH  18  19
ATOM     19  C   UNL     1      14.309  -4.473 -20.428  1.00  0.00     0.000 C 
BRANCH  19  20
ATOM     20  C   UNL     1      13.661  -5.698 -19.763  1.00  0.00     0.000 C 
BRANCH  20  21
ATOM     21  C   UNL     1      12.164  -5.825 -20.117  1.00  0.00     0.000 C 
BRANCH  21  22
ATOM     22  C   UNL     1      11.497  -4.489 -20.506  1.00  0.00    -0.000 C 
BRANCH  22  23
ATOM     23  C   UNL     1      10.760  -4.501 -21.860  1.00  0.00    -0.000 C 
BRANCH  23  24
ATOM     24  C   UNL     1      11.298  -3.474 -22.879  1.00  0.00    -0.000 C 
BRANCH  24  25
ATOM     25  C   UNL     1      12.230  -4.077 -23.947  1.00  0.00    -0.000 C 
BRANCH  25  26
ATOM     26  C   UNL     1      12.311  -5.617 -23.912  1.00  0.00    -0.000 C 
BRANCH  26  27
ATOM     27  C   UNL     1      13.762  -6.128 -23.928  1.00  0.00    -0.000 C 
BRANCH  27  28
ATOM     28  C   UNL     1      13.977  -7.325 -22.988  1.00  0.00    -0.000 C 
BRANCH  28  29
ATOM     29  C   UNL     1      15.380  -7.936 -23.123  1.00  0.00    -0.003 C 
ATOM     30  C   UNL     1      15.943  -8.321 -21.757  1.00  0.00     0.004 C 
ENDBRANCH  28  29
ENDBRANCH  27  28
ENDBRANCH  26  27
ENDBRANCH  25  26
ENDBRANCH  24  25
ENDBRANCH  23  24
ENDBRANCH  22  23
ENDBRANCH  21  22
ENDBRANCH  20  21
ENDBRANCH  19  20
ENDBRANCH  18  19
ENDBRANCH  17  18
ENDBRANCH   1  17
TORSDOF 26
ENDMDL
