MODEL 1
REMARK VINA RESULT:    -4.539      0.000      0.000
REMARK INTER + INTRA:          -9.476
REMARK INTER:                  -8.254
REMARK INTRA:                  -1.222
REMARK UNBOUND:                -1.222
REMARK SMILES CCCCCCCCCCCCCCCC(=O)[O-]
REMARK SMILES IDX 9 1 10 2 11 3 12 4 13 5 14 6 15 7 16 8 17 9 18 10 8 11 7 12
REMARK SMILES IDX 6 13 5 14 4 15 3 16 2 17 1 18
REMARK H PARENT
REMARK Flexibility Score: inf
ROOT
ATOM      1  C   UNL     1      69.702 -34.804   7.156  1.00  0.00     0.000 C 
ENDROOT
BRANCH   1   2
ATOM      2  C   UNL     1      69.773 -33.299   6.828  1.00  0.00     0.000 C 
BRANCH   2   3
ATOM      3  C   UNL     1      71.196 -32.722   6.746  1.00  0.00     0.000 C 
BRANCH   3   4
ATOM      4  C   UNL     1      72.284 -33.789   6.957  1.00  0.00     0.000 C 
BRANCH   4   5
ATOM      5  C   UNL     1      73.066 -34.109   5.670  1.00  0.00     0.000 C 
BRANCH   5   6
ATOM      6  C   UNL     1      73.875 -35.419   5.713  1.00  0.00     0.006 C 
BRANCH   6   7
ATOM      7  C   UNL     1      73.616 -36.242   6.982  1.00  0.00     0.053 C 
BRANCH   7   8
ATOM      8  C   UNL     1      74.871 -36.926   7.424  1.00  0.00     0.041 C 
ATOM      9  O   UNL     1      75.423 -36.600   8.507  1.00  0.00    -0.550 OA
ATOM     10  O   UNL     1      75.458 -37.892   6.616  1.00  0.00    -0.550 OA
ENDBRANCH   7   8
ENDBRANCH   6   7
ENDBRANCH   5   6
ENDBRANCH   4   5
ENDBRANCH   3   4
ENDBRANCH   2   3
ENDBRANCH   1   2
BRANCH   1  11
ATOM     11  C   UNL     1      68.348 -35.290   7.709  1.00  0.00     0.000 C 
BRANCH  11  12
ATOM     12  C   UNL     1      68.340 -36.736   8.242  1.00  0.00    -0.000 C 
BRANCH  12  13
ATOM     13  C   UNL     1      69.723 -37.406   8.336  1.00  0.00    -0.000 C 
BRANCH  13  14
ATOM     14  C   UNL     1      69.780 -38.511   9.405  1.00  0.00    -0.000 C 
BRANCH  14  15
ATOM     15  C   UNL     1      70.121 -37.963  10.800  1.00  0.00    -0.000 C 
BRANCH  15  16
ATOM     16  C   UNL     1      71.144 -38.836  11.549  1.00  0.00    -0.000 C 
BRANCH  16  17
ATOM     17  C   UNL     1      72.549 -38.213  11.565  1.00  0.00    -0.003 C 
ATOM     18  C   UNL     1      72.645 -36.950  10.709  1.00  0.00     0.004 C 
ENDBRANCH  16  17
ENDBRANCH  15  16
ENDBRANCH  14  15
ENDBRANCH  13  14
ENDBRANCH  12  13
ENDBRANCH  11  12
ENDBRANCH   1  11
TORSDOF 14
ENDMDL
MODEL 2
REMARK VINA RESULT:    -4.506      2.547      6.252
REMARK INTER + INTRA:          -9.416
REMARK INTER:                  -8.069
REMARK INTRA:                  -1.347
REMARK UNBOUND:                -1.222
REMARK SMILES CCCCCCCCCCCCCCCC(=O)[O-]
REMARK SMILES IDX 9 1 10 2 11 3 12 4 13 5 14 6 15 7 16 8 17 9 18 10 8 11 7 12
REMARK SMILES IDX 6 13 5 14 4 15 3 16 2 17 1 18
REMARK H PARENT
REMARK Flexibility Score: inf
ROOT
ATOM      1  C   UNL     1      73.381 -36.162   7.849  1.00  0.00     0.000 C 
ENDROOT
BRANCH   1   2
ATOM      2  C   UNL     1      74.646 -36.756   8.501  1.00  0.00     0.000 C 
BRANCH   2   3
ATOM      3  C   UNL     1      74.472 -37.200   9.963  1.00  0.00     0.000 C 
BRANCH   3   4
ATOM      4  C   UNL     1      73.008 -37.137  10.434  1.00  0.00     0.000 C 
BRANCH   4   5
ATOM      5  C   UNL     1      72.711 -38.103  11.596  1.00  0.00     0.000 C 
BRANCH   5   6
ATOM      6  C   UNL     1      71.306 -38.732  11.571  1.00  0.00     0.006 C 
BRANCH   6   7
ATOM      7  C   UNL     1      70.312 -37.945  10.708  1.00  0.00     0.053 C 
BRANCH   7   8
ATOM      8  C   UNL     1      69.375 -38.878  10.009  1.00  0.00     0.041 C 
ATOM      9  O   UNL     1      68.133 -38.678  10.050  1.00  0.00    -0.550 OA
ATOM     10  O   UNL     1      69.871 -39.997   9.351  1.00  0.00    -0.550 OA
ENDBRANCH   7   8
ENDBRANCH   6   7
ENDBRANCH   5   6
ENDBRANCH   4   5
ENDBRANCH   3   4
ENDBRANCH   2   3
ENDBRANCH   1   2
BRANCH   1  11
ATOM     11  C   UNL     1      73.378 -36.161   6.308  1.00  0.00     0.000 C 
BRANCH  11  12
ATOM     12  C   UNL     1      73.940 -34.883   5.654  1.00  0.00    -0.000 C 
BRANCH  12  13
ATOM     13  C   UNL     1      72.899 -34.002   4.939  1.00  0.00    -0.000 C 
BRANCH  13  14
ATOM     14  C   UNL     1      72.029 -33.193   5.916  1.00  0.00    -0.000 C 
BRANCH  14  15
ATOM     15  C   UNL     1      70.529 -33.476   5.741  1.00  0.00    -0.000 C 
BRANCH  15  16
ATOM     16  C   UNL     1      69.739 -33.333   7.055  1.00  0.00    -0.000 C 
BRANCH  16  17
ATOM     17  C   UNL     1      68.882 -34.570   7.363  1.00  0.00    -0.003 C 
ATOM     18  C   UNL     1      69.722 -35.800   7.707  1.00  0.00     0.004 C 
ENDBRANCH  16  17
ENDBRANCH  15  16
ENDBRANCH  14  15
ENDBRANCH  13  14
ENDBRANCH  12  13
ENDBRANCH  11  12
ENDBRANCH   1  11
TORSDOF 14
ENDMDL
MODEL 3
REMARK VINA RESULT:    -4.500      1.952      5.671
REMARK INTER + INTRA:          -9.404
REMARK INTER:                  -7.561
REMARK INTRA:                  -1.844
REMARK UNBOUND:                -1.222
REMARK SMILES CCCCCCCCCCCCCCCC(=O)[O-]
REMARK SMILES IDX 9 1 10 2 11 3 12 4 13 5 14 6 15 7 16 8 17 9 18 10 8 11 7 12
REMARK SMILES IDX 6 13 5 14 4 15 3 16 2 17 1 18
REMARK H PARENT
REMARK Flexibility Score: inf
ROOT
ATOM      1  C   UNL     1      70.574 -36.657   8.225  1.00  0.00     0.000 C 
ENDROOT
BRANCH   1   2
ATOM      2  C   UNL     1      70.043 -37.482   9.414  1.00  0.00     0.000 C 
BRANCH   2   3
ATOM      3  C   UNL     1      71.108 -38.310  10.153  1.00  0.00     0.000 C 
BRANCH   3   4
ATOM      4  C   UNL     1      71.293 -37.872  11.617  1.00  0.00     0.000 C 
BRANCH   4   5
ATOM      5  C   UNL     1      72.684 -37.271  11.890  1.00  0.00     0.000 C 
BRANCH   5   6
ATOM      6  C   UNL     1      73.865 -38.114  11.377  1.00  0.00     0.006 C 
BRANCH   6   7
ATOM      7  C   UNL     1      74.849 -37.309  10.520  1.00  0.00     0.053 C 
BRANCH   7   8
ATOM      8  C   UNL     1      76.114 -37.055  11.277  1.00  0.00     0.041 C 
ATOM      9  O   UNL     1      76.622 -35.903  11.294  1.00  0.00    -0.550 OA
ATOM     10  O   UNL     1      76.759 -38.101  11.924  1.00  0.00    -0.550 OA
ENDBRANCH   7   8
ENDBRANCH   6   7
ENDBRANCH   5   6
ENDBRANCH   4   5
ENDBRANCH   3   4
ENDBRANCH   2   3
ENDBRANCH   1   2
BRANCH   1  11
ATOM     11  C   UNL     1      72.023 -36.154   8.374  1.00  0.00     0.000 C 
BRANCH  11  12
ATOM     12  C   UNL     1      72.990 -36.604   7.260  1.00  0.00    -0.000 C 
BRANCH  12  13
ATOM     13  C   UNL     1      72.697 -36.019   5.866  1.00  0.00    -0.000 C 
BRANCH  13  14
ATOM     14  C   UNL     1      73.488 -34.731   5.580  1.00  0.00    -0.000 C 
BRANCH  14  15
ATOM     15  C   UNL     1      72.574 -33.548   5.220  1.00  0.00    -0.000 C 
BRANCH  15  16
ATOM     16  C   UNL     1      71.087 -33.941   5.164  1.00  0.00    -0.000 C 
BRANCH  16  17
ATOM     17  C   UNL     1      70.291 -33.398   6.361  1.00  0.00    -0.003 C 
ATOM     18  C   UNL     1      71.123 -32.480   7.257  1.00  0.00     0.004 C 
ENDBRANCH  16  17
ENDBRANCH  15  16
ENDBRANCH  14  15
ENDBRANCH  13  14
ENDBRANCH  12  13
ENDBRANCH  11  12
ENDBRANCH   1  11
TORSDOF 14
ENDMDL
MODEL 4
REMARK VINA RESULT:    -4.491      1.964      5.180
REMARK INTER + INTRA:          -9.389
REMARK INTER:                  -8.422
REMARK INTRA:                  -0.967
REMARK UNBOUND:                -1.222
REMARK SMILES CCCCCCCCCCCCCCCC(=O)[O-]
REMARK SMILES IDX 9 1 10 2 11 3 12 4 13 5 14 6 15 7 16 8 17 9 18 10 8 11 7 12
REMARK SMILES IDX 6 13 5 14 4 15 3 16 2 17 1 18
REMARK H PARENT
REMARK Flexibility Score: inf
ROOT
ATOM      1  C   UNL     1      69.117 -38.490   9.650  1.00  0.00     0.000 C 
ENDROOT
BRANCH   1   2
ATOM      2  C   UNL     1      69.929 -38.054  10.886  1.00  0.00     0.000 C 
BRANCH   2   3
ATOM      3  C   UNL     1      71.093 -38.990  11.257  1.00  0.00     0.000 C 
BRANCH   3   4
ATOM      4  C   UNL     1      72.357 -38.225  11.687  1.00  0.00     0.000 C 
BRANCH   4   5
ATOM      5  C   UNL     1      72.782 -37.151  10.668  1.00  0.00     0.000 C 
BRANCH   5   6
ATOM      6  C   UNL     1      74.272 -37.179  10.282  1.00  0.00     0.006 C 
BRANCH   6   7
ATOM      7  C   UNL     1      75.141 -37.927  11.301  1.00  0.00     0.053 C 
BRANCH   7   8
ATOM      8  C   UNL     1      76.440 -37.214  11.502  1.00  0.00     0.041 C 
ATOM      9  O   UNL     1      76.547 -35.995  11.207  1.00  0.00    -0.550 OA
ATOM     10  O   UNL     1      77.549 -37.907  11.972  1.00  0.00    -0.550 OA
ENDBRANCH   7   8
ENDBRANCH   6   7
ENDBRANCH   5   6
ENDBRANCH   4   5
ENDBRANCH   3   4
ENDBRANCH   2   3
ENDBRANCH   1   2
BRANCH   1  11
ATOM     11  C   UNL     1      67.744 -37.808   9.497  1.00  0.00     0.000 C 
BRANCH  11  12
ATOM     12  C   UNL     1      67.744 -36.520   8.648  1.00  0.00    -0.000 C 
BRANCH  12  13
ATOM     13  C   UNL     1      67.901 -36.738   7.131  1.00  0.00    -0.000 C 
BRANCH  13  14
ATOM     14  C   UNL     1      69.240 -36.213   6.588  1.00  0.00    -0.000 C 
BRANCH  14  15
ATOM     15  C   UNL     1      69.793 -35.042   7.417  1.00  0.00    -0.000 C 
BRANCH  15  16
ATOM     16  C   UNL     1      69.706 -33.695   6.677  1.00  0.00    -0.000 C 
BRANCH  16  17
ATOM     17  C   UNL     1      70.994 -32.868   6.810  1.00  0.00    -0.003 C 
ATOM     18  C   UNL     1      72.221 -33.728   7.113  1.00  0.00     0.004 C 
ENDBRANCH  16  17
ENDBRANCH  15  16
ENDBRANCH  14  15
ENDBRANCH  13  14
ENDBRANCH  12  13
ENDBRANCH  11  12
ENDBRANCH   1  11
TORSDOF 14
ENDMDL
MODEL 5
REMARK VINA RESULT:    -4.326      9.249     11.527
REMARK INTER + INTRA:          -9.088
REMARK INTER:                  -7.904
REMARK INTRA:                  -1.184
REMARK UNBOUND:                -1.222
REMARK SMILES CCCCCCCCCCCCCCCC(=O)[O-]
REMARK SMILES IDX 9 1 10 2 11 3 12 4 13 5 14 6 15 7 16 8 17 9 18 10 8 11 7 12
REMARK SMILES IDX 6 13 5 14 4 15 3 16 2 17 1 18
REMARK H PARENT
REMARK Flexibility Score: inf
ROOT
ATOM      1  C   UNL     1      63.103 -34.215  15.291  1.00  0.00     0.000 C 
ENDROOT
BRANCH   1   2
ATOM      2  C   UNL     1      63.792 -35.055  14.198  1.00  0.00     0.000 C 
BRANCH   2   3
ATOM      3  C   UNL     1      65.239 -35.468  14.517  1.00  0.00     0.000 C 
BRANCH   3   4
ATOM      4  C   UNL     1      66.134 -35.513  13.266  1.00  0.00     0.000 C 
BRANCH   4   5
ATOM      5  C   UNL     1      65.779 -36.673  12.317  1.00  0.00     0.000 C 
BRANCH   5   6
ATOM      6  C   UNL     1      65.626 -36.274  10.838  1.00  0.00     0.006 C 
BRANCH   6   7
ATOM      7  C   UNL     1      65.392 -34.771  10.643  1.00  0.00     0.053 C 
BRANCH   7   8
ATOM      8  C   UNL     1      63.933 -34.486  10.483  1.00  0.00     0.041 C 
ATOM      9  O   UNL     1      63.112 -35.431  10.354  1.00  0.00    -0.550 OA
ATOM     10  O   UNL     1      63.483 -33.172  10.428  1.00  0.00    -0.550 OA
ENDBRANCH   7   8
ENDBRANCH   6   7
ENDBRANCH   5   6
ENDBRANCH   4   5
ENDBRANCH   3   4
ENDBRANCH   2   3
ENDBRANCH   1   2
BRANCH   1  11
ATOM     11  C   UNL     1      62.065 -33.199  14.777  1.00  0.00     0.000 C 
BRANCH  11  12
ATOM     12  C   UNL     1      62.504 -32.381  13.546  1.00  0.00    -0.000 C 
BRANCH  12  13
ATOM     13  C   UNL     1      62.462 -30.852  13.728  1.00  0.00    -0.000 C 
BRANCH  13  14
ATOM     14  C   UNL     1      61.538 -30.412  14.876  1.00  0.00    -0.000 C 
BRANCH  14  15
ATOM     15  C   UNL     1      62.214 -29.407  15.822  1.00  0.00    -0.000 C 
BRANCH  15  16
ATOM     16  C   UNL     1      63.146 -28.430  15.085  1.00  0.00    -0.000 C 
BRANCH  16  17
ATOM     17  C   UNL     1      62.406 -27.185  14.573  1.00  0.00    -0.003 C 
ATOM     18  C   UNL     1      62.313 -27.138  13.047  1.00  0.00     0.004 C 
ENDBRANCH  16  17
ENDBRANCH  15  16
ENDBRANCH  14  15
ENDBRANCH  13  14
ENDBRANCH  12  13
ENDBRANCH  11  12
ENDBRANCH   1  11
TORSDOF 14
ENDMDL
MODEL 6
REMARK VINA RESULT:    -4.307      1.212      2.149
REMARK INTER + INTRA:          -9.054
REMARK INTER:                  -7.756
REMARK INTRA:                  -1.298
REMARK UNBOUND:                -1.222
REMARK SMILES CCCCCCCCCCCCCCCC(=O)[O-]
REMARK SMILES IDX 9 1 10 2 11 3 12 4 13 5 14 6 15 7 16 8 17 9 18 10 8 11 7 12
REMARK SMILES IDX 6 13 5 14 4 15 3 16 2 17 1 18
REMARK H PARENT
REMARK Flexibility Score: inf
ROOT
ATOM      1  C   UNL     1      70.625 -32.871   6.843  1.00  0.00     0.000 C 
ENDROOT
BRANCH   1   2
ATOM      2  C   UNL     1      72.050 -33.457   6.789  1.00  0.00     0.000 C 
BRANCH   2   3
ATOM      3  C   UNL     1      72.710 -33.426   5.400  1.00  0.00     0.000 C 
BRANCH   3   4
ATOM      4  C   UNL     1      73.813 -34.487   5.241  1.00  0.00     0.000 C 
BRANCH   4   5
ATOM      5  C   UNL     1      73.403 -35.864   5.795  1.00  0.00     0.000 C 
BRANCH   5   6
ATOM      6  C   UNL     1      74.298 -36.398   6.928  1.00  0.00     0.006 C 
BRANCH   6   7
ATOM      7  C   UNL     1      73.577 -36.468   8.280  1.00  0.00     0.053 C 
BRANCH   7   8
ATOM      8  C   UNL     1      74.528 -36.881   9.358  1.00  0.00     0.041 C 
ATOM      9  O   UNL     1      74.111 -37.508  10.367  1.00  0.00    -0.550 OA
ATOM     10  O   UNL     1      75.870 -36.532   9.272  1.00  0.00    -0.550 OA
ENDBRANCH   7   8
ENDBRANCH   6   7
ENDBRANCH   5   6
ENDBRANCH   4   5
ENDBRANCH   3   4
ENDBRANCH   2   3
ENDBRANCH   1   2
BRANCH   1  11
ATOM     11  C   UNL     1      69.498 -33.906   7.027  1.00  0.00     0.000 C 
BRANCH  11  12
ATOM     12  C   UNL     1      69.965 -35.372   7.116  1.00  0.00    -0.000 C 
BRANCH  12  13
ATOM     13  C   UNL     1      69.213 -36.236   8.146  1.00  0.00    -0.000 C 
BRANCH  13  14
ATOM     14  C   UNL     1      69.994 -37.499   8.550  1.00  0.00    -0.000 C 
BRANCH  14  15
ATOM     15  C   UNL     1      69.405 -38.181   9.795  1.00  0.00    -0.000 C 
BRANCH  15  16
ATOM     16  C   UNL     1      69.584 -39.710   9.777  1.00  0.00    -0.000 C 
BRANCH  16  17
ATOM     17  C   UNL     1      70.522 -40.205  10.888  1.00  0.00    -0.003 C 
ATOM     18  C   UNL     1      71.299 -39.069  11.555  1.00  0.00     0.004 C 
ENDBRANCH  16  17
ENDBRANCH  15  16
ENDBRANCH  14  15
ENDBRANCH  13  14
ENDBRANCH  12  13
ENDBRANCH  11  12
ENDBRANCH   1  11
TORSDOF 14
ENDMDL
MODEL 7
REMARK VINA RESULT:    -4.242      2.548      4.574
REMARK INTER + INTRA:          -8.936
REMARK INTER:                  -7.683
REMARK INTRA:                  -1.252
REMARK UNBOUND:                -1.222
REMARK SMILES CCCCCCCCCCCCCCCC(=O)[O-]
REMARK SMILES IDX 9 1 10 2 11 3 12 4 13 5 14 6 15 7 16 8 17 9 18 10 8 11 7 12
REMARK SMILES IDX 6 13 5 14 4 15 3 16 2 17 1 18
REMARK H PARENT
REMARK Flexibility Score: inf
ROOT
ATOM      1  C   UNL     1      73.617 -35.199   6.483  1.00  0.00     0.000 C 
ENDROOT
BRANCH   1   2
ATOM      2  C   UNL     1      73.325 -34.473   5.154  1.00  0.00     0.000 C 
BRANCH   2   3
ATOM      3  C   UNL     1      72.540 -33.158   5.295  1.00  0.00     0.000 C 
BRANCH   3   4
ATOM      4  C   UNL     1      71.667 -33.117   6.561  1.00  0.00     0.000 C 
BRANCH   4   5
ATOM      5  C   UNL     1      70.198 -33.488   6.287  1.00  0.00     0.000 C 
BRANCH   5   6
ATOM      6  C   UNL     1      69.904 -34.999   6.273  1.00  0.00     0.006 C 
BRANCH   6   7
ATOM      7  C   UNL     1      70.296 -35.698   7.581  1.00  0.00     0.053 C 
BRANCH   7   8
ATOM      8  C   UNL     1      69.134 -36.462   8.133  1.00  0.00     0.041 C 
ATOM      9  O   UNL     1      69.280 -37.194   9.146  1.00  0.00    -0.550 OA
ATOM     10  O   UNL     1      67.899 -36.403   7.499  1.00  0.00    -0.550 OA
ENDBRANCH   7   8
ENDBRANCH   6   7
ENDBRANCH   5   6
ENDBRANCH   4   5
ENDBRANCH   3   4
ENDBRANCH   2   3
ENDBRANCH   1   2
BRANCH   1  11
ATOM     11  C   UNL     1      74.395 -36.522   6.348  1.00  0.00     0.000 C 
BRANCH  11  12
ATOM     12  C   UNL     1      75.091 -37.006   7.636  1.00  0.00    -0.000 C 
BRANCH  12  13
ATOM     13  C   UNL     1      74.375 -36.630   8.947  1.00  0.00    -0.000 C 
BRANCH  13  14
ATOM     14  C   UNL     1      75.083 -37.186  10.194  1.00  0.00    -0.000 C 
BRANCH  14  15
ATOM     15  C   UNL     1      74.093 -37.645  11.277  1.00  0.00    -0.000 C 
BRANCH  15  16
ATOM     16  C   UNL     1      72.625 -37.408  10.879  1.00  0.00    -0.000 C 
BRANCH  16  17
ATOM     17  C   UNL     1      71.638 -38.052  11.865  1.00  0.00    -0.003 C 
ATOM     18  C   UNL     1      71.077 -39.381  11.356  1.00  0.00     0.004 C 
ENDBRANCH  16  17
ENDBRANCH  15  16
ENDBRANCH  14  15
ENDBRANCH  13  14
ENDBRANCH  12  13
ENDBRANCH  11  12
ENDBRANCH   1  11
TORSDOF 14
ENDMDL
MODEL 8
REMARK VINA RESULT:    -4.182      1.276      4.749
REMARK INTER + INTRA:          -8.827
REMARK INTER:                  -7.329
REMARK INTRA:                  -1.498
REMARK UNBOUND:                -1.222
REMARK SMILES CCCCCCCCCCCCCCCC(=O)[O-]
REMARK SMILES IDX 9 1 10 2 11 3 12 4 13 5 14 6 15 7 16 8 17 9 18 10 8 11 7 12
REMARK SMILES IDX 6 13 5 14 4 15 3 16 2 17 1 18
REMARK H PARENT
REMARK Flexibility Score: inf
ROOT
ATOM      1  C   UNL     1      70.993 -38.710  10.972  1.00  0.00     0.000 C 
ENDROOT
BRANCH   1   2
ATOM      2  C   UNL     1      72.332 -38.263  11.592  1.00  0.00     0.000 C 
BRANCH   2   3
ATOM      3  C   UNL     1      73.010 -37.079  10.881  1.00  0.00     0.000 C 
BRANCH   3   4
ATOM      4  C   UNL     1      74.469 -37.374  10.494  1.00  0.00     0.000 C 
BRANCH   4   5
ATOM      5  C   UNL     1      74.803 -36.950   9.052  1.00  0.00     0.000 C 
BRANCH   5   6
ATOM      6  C   UNL     1      73.627 -36.340   8.268  1.00  0.00     0.006 C 
BRANCH   6   7
ATOM      7  C   UNL     1      73.973 -36.040   6.804  1.00  0.00     0.053 C 
BRANCH   7   8
ATOM      8  C   UNL     1      73.719 -37.243   5.951  1.00  0.00     0.041 C 
ATOM      9  O   UNL     1      74.618 -38.110   5.794  1.00  0.00    -0.550 OA
ATOM     10  O   UNL     1      72.505 -37.383   5.290  1.00  0.00    -0.550 OA
ENDBRANCH   7   8
ENDBRANCH   6   7
ENDBRANCH   5   6
ENDBRANCH   4   5
ENDBRANCH   3   4
ENDBRANCH   2   3
ENDBRANCH   1   2
BRANCH   1  11
ATOM     11  C   UNL     1      70.101 -37.568  10.449  1.00  0.00     0.000 C 
BRANCH  11  12
ATOM     12  C   UNL     1      69.481 -37.807   9.058  1.00  0.00    -0.000 C 
BRANCH  12  13
ATOM     13  C   UNL     1      70.230 -37.145   7.886  1.00  0.00    -0.000 C 
BRANCH  13  14
ATOM     14  C   UNL     1      69.330 -36.221   7.048  1.00  0.00    -0.000 C 
BRANCH  14  15
ATOM     15  C   UNL     1      69.374 -34.762   7.529  1.00  0.00    -0.000 C 
BRANCH  15  16
ATOM     16  C   UNL     1      69.871 -33.791   6.442  1.00  0.00    -0.000 C 
BRANCH  16  17
ATOM     17  C   UNL     1      71.158 -33.059   6.853  1.00  0.00    -0.003 C 
ATOM     18  C   UNL     1      72.195 -33.012   5.730  1.00  0.00     0.004 C 
ENDBRANCH  16  17
ENDBRANCH  15  16
ENDBRANCH  14  15
ENDBRANCH  13  14
ENDBRANCH  12  13
ENDBRANCH  11  12
ENDBRANCH   1  11
TORSDOF 14
ENDMDL
MODEL 9
REMARK VINA RESULT:    -4.132      2.675      3.840
REMARK INTER + INTRA:          -8.736
REMARK INTER:                  -7.515
REMARK INTRA:                  -1.221
REMARK UNBOUND:                -1.222
REMARK SMILES CCCCCCCCCCCCCCCC(=O)[O-]
REMARK SMILES IDX 9 1 10 2 11 3 12 4 13 5 14 6 15 7 16 8 17 9 18 10 8 11 7 12
REMARK SMILES IDX 6 13 5 14 4 15 3 16 2 17 1 18
REMARK H PARENT
REMARK Flexibility Score: inf
ROOT
ATOM      1  C   UNL     1      69.487 -33.745   7.099  1.00  0.00     0.000 C 
ENDROOT
BRANCH   1   2
ATOM      2  C   UNL     1      70.702 -33.418   6.207  1.00  0.00     0.000 C 
BRANCH   2   3
ATOM      3  C   UNL     1      72.070 -33.589   6.890  1.00  0.00     0.000 C 
BRANCH   3   4
ATOM      4  C   UNL     1      72.899 -34.734   6.284  1.00  0.00     0.000 C 
BRANCH   4   5
ATOM      5  C   UNL     1      72.623 -36.093   6.955  1.00  0.00     0.000 C 
BRANCH   5   6
ATOM      6  C   UNL     1      72.871 -36.127   8.474  1.00  0.00     0.006 C 
BRANCH   6   7
ATOM      7  C   UNL     1      71.709 -36.750   9.257  1.00  0.00     0.053 C 
BRANCH   7   8
ATOM      8  C   UNL     1      72.195 -37.304  10.559  1.00  0.00     0.041 C 
ATOM      9  O   UNL     1      73.420 -37.265  10.847  1.00  0.00    -0.550 OA
ATOM     10  O   UNL     1      71.301 -37.907  11.435  1.00  0.00    -0.550 OA
ENDBRANCH   7   8
ENDBRANCH   6   7
ENDBRANCH   5   6
ENDBRANCH   4   5
ENDBRANCH   3   4
ENDBRANCH   2   3
ENDBRANCH   1   2
BRANCH   1  11
ATOM     11  C   UNL     1      69.095 -35.234   7.149  1.00  0.00     0.000 C 
BRANCH  11  12
ATOM     12  C   UNL     1      67.782 -35.540   7.898  1.00  0.00    -0.000 C 
BRANCH  12  13
ATOM     13  C   UNL     1      67.525 -37.031   8.184  1.00  0.00    -0.000 C 
BRANCH  13  14
ATOM     14  C   UNL     1      67.600 -37.372   9.682  1.00  0.00    -0.000 C 
BRANCH  14  15
ATOM     15  C   UNL     1      66.226 -37.729  10.273  1.00  0.00    -0.000 C 
BRANCH  15  16
ATOM     16  C   UNL     1      65.558 -36.540  10.986  1.00  0.00    -0.000 C 
BRANCH  16  17
ATOM     17  C   UNL     1      65.537 -36.706  12.513  1.00  0.00    -0.003 C 
ATOM     18  C   UNL     1      66.221 -35.550  13.243  1.00  0.00     0.004 C 
ENDBRANCH  16  17
ENDBRANCH  15  16
ENDBRANCH  14  15
ENDBRANCH  13  14
ENDBRANCH  12  13
ENDBRANCH  11  12
ENDBRANCH   1  11
TORSDOF 14
ENDMDL
