MODEL 1
REMARK VINA RESULT:    -3.242      0.000      0.000
REMARK INTER + INTRA:          -3.627
REMARK INTER:                  -3.621
REMARK INTRA:                  -0.007
REMARK UNBOUND:                -0.007
REMARK SMILES CCCC(=O)[O-]
REMARK SMILES IDX 3 1 4 2 5 3 6 4 2 5 1 6
REMARK H PARENT
REMARK Flexibility Score: inf
ROOT
ATOM      1  C   UNL     1     -52.907  22.425 -38.602  1.00  0.00     0.052 C 
ENDROOT
BRANCH   1   2
ATOM      2  C   UNL     1     -53.249  22.550 -37.148  1.00  0.00     0.041 C 
ATOM      3  O   UNL     1     -53.501  23.679 -36.649  1.00  0.00    -0.550 OA
ATOM      4  O   UNL     1     -53.322  21.414 -36.352  1.00  0.00    -0.550 OA
ENDBRANCH   1   2
BRANCH   1   5
ATOM      5  C   UNL     1     -51.821  23.424 -39.016  1.00  0.00     0.003 C 
ATOM      6  C   UNL     1     -50.921  22.879 -40.125  1.00  0.00     0.004 C 
ENDBRANCH   1   5
TORSDOF 2
ENDMDL
MODEL 2
REMARK VINA RESULT:    -3.184     16.026     16.236
REMARK INTER + INTRA:          -3.563
REMARK INTER:                  -3.529
REMARK INTRA:                  -0.034
REMARK UNBOUND:                -0.007
REMARK SMILES CCCC(=O)[O-]
REMARK SMILES IDX 3 1 4 2 5 3 6 4 2 5 1 6
REMARK H PARENT
REMARK Flexibility Score: inf
ROOT
ATOM      1  C   UNL     1     -38.621  19.145 -28.850  1.00  0.00     0.052 C 
ENDROOT
BRANCH   1   2
ATOM      2  C   UNL     1     -39.827  20.013 -28.657  1.00  0.00     0.041 C 
ATOM      3  O   UNL     1     -39.833  21.197 -29.086  1.00  0.00    -0.550 OA
ATOM      4  O   UNL     1     -40.957  19.503 -28.030  1.00  0.00    -0.550 OA
ENDBRANCH   1   2
BRANCH   1   5
ATOM      5  C   UNL     1     -38.327  18.905 -30.335  1.00  0.00     0.003 C 
ATOM      6  C   UNL     1     -38.892  17.575 -30.832  1.00  0.00     0.004 C 
ENDBRANCH   1   5
TORSDOF 2
ENDMDL
MODEL 3
REMARK VINA RESULT:    -3.162     16.658     17.040
REMARK INTER + INTRA:          -3.538
REMARK INTER:                  -3.507
REMARK INTRA:                  -0.031
REMARK UNBOUND:                -0.007
REMARK SMILES CCCC(=O)[O-]
REMARK SMILES IDX 3 1 4 2 5 3 6 4 2 5 1 6
REMARK H PARENT
REMARK Flexibility Score: inf
ROOT
ATOM      1  C   UNL     1     -38.380  19.006 -30.106  1.00  0.00     0.052 C 
ENDROOT
BRANCH   1   2
ATOM      2  C   UNL     1     -38.369  17.541 -30.420  1.00  0.00     0.041 C 
ATOM      3  O   UNL     1     -39.222  17.054 -31.209  1.00  0.00    -0.550 OA
ATOM      4  O   UNL     1     -37.395  16.719 -29.867  1.00  0.00    -0.550 OA
ENDBRANCH   1   2
BRANCH   1   5
ATOM      5  C   UNL     1     -38.705  19.268 -28.631  1.00  0.00     0.003 C 
ATOM      6  C   UNL     1     -40.170  19.647 -28.416  1.00  0.00     0.004 C 
ENDBRANCH   1   5
TORSDOF 2
ENDMDL
MODEL 4
REMARK VINA RESULT:    -3.124     16.172     16.518
REMARK INTER + INTRA:          -3.496
REMARK INTER:                  -3.472
REMARK INTRA:                  -0.024
REMARK UNBOUND:                -0.007
REMARK SMILES CCCC(=O)[O-]
REMARK SMILES IDX 3 1 4 2 5 3 6 4 2 5 1 6
REMARK H PARENT
REMARK Flexibility Score: inf
ROOT
ATOM      1  C   UNL     1     -38.510  19.012 -29.168  1.00  0.00     0.052 C 
ENDROOT
BRANCH   1   2
ATOM      2  C   UNL     1     -38.517  18.711 -30.636  1.00  0.00     0.041 C 
ATOM      3  O   UNL     1     -38.101  19.568 -31.461  1.00  0.00    -0.550 OA
ATOM      4  O   UNL     1     -38.952  17.473 -31.090  1.00  0.00    -0.550 OA
ENDBRANCH   1   2
BRANCH   1   5
ATOM      5  C   UNL     1     -39.494  20.132 -28.813  1.00  0.00     0.003 C 
ATOM      6  C   UNL     1     -40.763  19.603 -28.145  1.00  0.00     0.004 C 
ENDBRANCH   1   5
TORSDOF 2
ENDMDL
MODEL 5
REMARK VINA RESULT:    -3.051     17.480     17.827
REMARK INTER + INTRA:          -3.414
REMARK INTER:                  -3.380
REMARK INTRA:                  -0.034
REMARK UNBOUND:                -0.007
REMARK SMILES CCCC(=O)[O-]
REMARK SMILES IDX 3 1 4 2 5 3 6 4 2 5 1 6
REMARK H PARENT
REMARK Flexibility Score: inf
ROOT
ATOM      1  C   UNL     1     -37.526  17.377 -29.556  1.00  0.00     0.052 C 
ENDROOT
BRANCH   1   2
ATOM      2  C   UNL     1     -38.406  17.800 -30.694  1.00  0.00     0.041 C 
ATOM      3  O   UNL     1     -38.326  18.968 -31.158  1.00  0.00    -0.550 OA
ATOM      4  O   UNL     1     -39.291  16.892 -31.263  1.00  0.00    -0.550 OA
ENDBRANCH   1   2
BRANCH   1   5
ATOM      5  C   UNL     1     -36.292  16.613 -30.047  1.00  0.00     0.003 C 
ATOM      6  C   UNL     1     -35.023  17.464 -29.997  1.00  0.00     0.004 C 
ENDBRANCH   1   5
TORSDOF 2
ENDMDL
MODEL 6
REMARK VINA RESULT:    -2.994     17.957     18.339
REMARK INTER + INTRA:          -3.351
REMARK INTER:                  -3.328
REMARK INTRA:                  -0.023
REMARK UNBOUND:                -0.007
REMARK SMILES CCCC(=O)[O-]
REMARK SMILES IDX 3 1 4 2 5 3 6 4 2 5 1 6
REMARK H PARENT
REMARK Flexibility Score: inf
ROOT
ATOM      1  C   UNL     1     -37.398  17.617 -29.270  1.00  0.00     0.052 C 
ENDROOT
BRANCH   1   2
ATOM      2  C   UNL     1     -36.720  16.343 -29.672  1.00  0.00     0.041 C 
ATOM      3  O   UNL     1     -35.670  16.374 -30.367  1.00  0.00    -0.550 OA
ATOM      4  O   UNL     1     -37.230  15.121 -29.250  1.00  0.00    -0.550 OA
ENDBRANCH   1   2
BRANCH   1   5
ATOM      5  C   UNL     1     -38.177  18.237 -30.435  1.00  0.00     0.003 C 
ATOM      6  C   UNL     1     -39.073  17.221 -31.143  1.00  0.00     0.004 C 
ENDBRANCH   1   5
TORSDOF 2
ENDMDL
MODEL 7
REMARK VINA RESULT:    -2.988     17.201     17.440
REMARK INTER + INTRA:          -3.344
REMARK INTER:                  -3.327
REMARK INTRA:                  -0.016
REMARK UNBOUND:                -0.007
REMARK SMILES CCCC(=O)[O-]
REMARK SMILES IDX 3 1 4 2 5 3 6 4 2 5 1 6
REMARK H PARENT
REMARK Flexibility Score: inf
ROOT
ATOM      1  C   UNL     1     -38.965  19.071 -29.358  1.00  0.00     0.052 C 
ENDROOT
BRANCH   1   2
ATOM      2  C   UNL     1     -37.870  19.313 -28.364  1.00  0.00     0.041 C 
ATOM      3  O   UNL     1     -37.235  20.401 -28.371  1.00  0.00    -0.550 OA
ATOM      4  O   UNL     1     -37.574  18.349 -27.409  1.00  0.00    -0.550 OA
ENDBRANCH   1   2
BRANCH   1   5
ATOM      5  C   UNL     1     -38.415  18.558 -30.694  1.00  0.00     0.003 C 
ATOM      6  C   UNL     1     -39.009  17.206 -31.088  1.00  0.00     0.004 C 
ENDBRANCH   1   5
TORSDOF 2
ENDMDL
MODEL 8
REMARK VINA RESULT:    -2.911     17.079     17.347
REMARK INTER + INTRA:          -3.258
REMARK INTER:                  -3.190
REMARK INTRA:                  -0.068
REMARK UNBOUND:                -0.007
REMARK SMILES CCCC(=O)[O-]
REMARK SMILES IDX 3 1 4 2 5 3 6 4 2 5 1 6
REMARK H PARENT
REMARK Flexibility Score: inf
ROOT
ATOM      1  C   UNL     1     -39.044  19.099 -29.207  1.00  0.00     0.052 C 
ENDROOT
BRANCH   1   2
ATOM      2  C   UNL     1     -38.510  18.727 -30.557  1.00  0.00     0.041 C 
ATOM      3  O   UNL     1     -37.694  19.483 -31.147  1.00  0.00    -0.550 OA
ATOM      4  O   UNL     1     -38.890  17.528 -31.148  1.00  0.00    -0.550 OA
ENDBRANCH   1   2
BRANCH   1   5
ATOM      5  C   UNL     1     -37.916  19.333 -28.195  1.00  0.00     0.003 C 
ATOM      6  C   UNL     1     -37.203  18.037 -27.808  1.00  0.00     0.004 C 
ENDBRANCH   1   5
TORSDOF 2
ENDMDL
MODEL 9
REMARK VINA RESULT:    -2.891     16.660     17.032
REMARK INTER + INTRA:          -3.235
REMARK INTER:                  -3.204
REMARK INTRA:                  -0.031
REMARK UNBOUND:                -0.007
REMARK SMILES CCCC(=O)[O-]
REMARK SMILES IDX 3 1 4 2 5 3 6 4 2 5 1 6
REMARK H PARENT
REMARK Flexibility Score: inf
ROOT
ATOM      1  C   UNL     1     -38.289  18.898 -29.836  1.00  0.00     0.052 C 
ENDROOT
BRANCH   1   2
ATOM      2  C   UNL     1     -38.261  17.500 -30.375  1.00  0.00     0.041 C 
ATOM      3  O   UNL     1     -39.125  17.124 -31.211  1.00  0.00    -0.550 OA
ATOM      4  O   UNL     1     -37.261  16.622 -29.977  1.00  0.00    -0.550 OA
ENDBRANCH   1   2
BRANCH   1   5
ATOM      5  C   UNL     1     -37.300  19.809 -30.571  1.00  0.00     0.003 C 
ATOM      6  C   UNL     1     -38.001  20.800 -31.500  1.00  0.00     0.004 C 
ENDBRANCH   1   5
TORSDOF 2
ENDMDL
