MODEL 1
REMARK VINA RESULT:     9.819      0.000      0.000
REMARK INTER + INTRA:          10.106
REMARK INTER:                  10.393
REMARK INTRA:                  -0.288
REMARK UNBOUND:                -0.288
REMARK SMILES CC1=CC[C@H]2[C@H]3[C@@H]1[C@]2(C)CC[C@H]3C(C)C
REMARK SMILES IDX 1 1 2 2 3 3 4 4 5 5 6 6 7 7 8 8 10 9 11 10 12 11 9 12 13 13
REMARK SMILES IDX 14 14 15 15
REMARK H PARENT
REMARK Flexibility Score: inf
ROOT
ATOM      1  C   UNL     1     138.091 136.751 160.415  1.00  0.00     0.039 C 
ATOM      2  C   UNL     1     137.010 137.064 161.404  1.00  0.00    -0.073 C 
ATOM      3  C   UNL     1     135.963 136.217 161.597  1.00  0.00    -0.027 C 
ATOM      4  C   UNL     1     134.875 136.601 162.605  1.00  0.00     0.031 C 
ATOM      5  C   UNL     1     135.218 137.968 163.283  1.00  0.00     0.003 C 
ATOM      6  C   UNL     1     136.703 137.912 163.705  1.00  0.00     0.004 C 
ATOM      7  C   UNL     1     137.039 138.338 162.255  1.00  0.00     0.024 C 
ATOM      8  C   UNL     1     135.653 139.024 162.241  1.00  0.00    -0.022 C 
ATOM      9  C   UNL     1     135.724 140.416 162.932  1.00  0.00     0.008 C 
ATOM     10  C   UNL     1     136.729 140.451 164.114  1.00  0.00     0.005 C 
ATOM     11  C   UNL     1     137.049 139.043 164.724  1.00  0.00    -0.005 C 
ATOM     12  C   UNL     1     134.876 139.114 160.905  1.00  0.00     0.012 C 
ENDROOT
BRANCH  11  13
ATOM     13  C   UNL     1     136.380 138.851 166.126  1.00  0.00    -0.014 C 
ATOM     14  C   UNL     1     136.338 140.181 166.903  1.00  0.00     0.007 C 
ATOM     15  C   UNL     1     137.095 137.801 166.995  1.00  0.00     0.007 C 
ENDBRANCH  11  13
TORSDOF 1
ENDMDL
MODEL 2
REMARK VINA RESULT:    11.342      1.312      1.799
REMARK INTER + INTRA:          11.717
REMARK INTER:                  11.993
REMARK INTRA:                  -0.275
REMARK UNBOUND:                -0.288
REMARK SMILES CC1=CC[C@H]2[C@H]3[C@@H]1[C@]2(C)CC[C@H]3C(C)C
REMARK SMILES IDX 1 1 2 2 3 3 4 4 5 5 6 6 7 7 8 8 10 9 11 10 12 11 9 12 13 13
REMARK SMILES IDX 14 14 15 15
REMARK H PARENT
REMARK Flexibility Score: inf
ROOT
ATOM      1  C   UNL     1     138.675 134.891 161.268  1.00  0.00     0.039 C 
ATOM      2  C   UNL     1     137.411 135.591 161.666  1.00  0.00    -0.073 C 
ATOM      3  C   UNL     1     136.270 134.896 161.921  1.00  0.00    -0.027 C 
ATOM      4  C   UNL     1     135.002 135.667 162.301  1.00  0.00     0.031 C 
ATOM      5  C   UNL     1     135.293 137.203 162.356  1.00  0.00     0.003 C 
ATOM      6  C   UNL     1     136.604 137.394 163.151  1.00  0.00     0.004 C 
ATOM      7  C   UNL     1     137.347 137.114 161.822  1.00  0.00     0.024 C 
ATOM      8  C   UNL     1     136.089 137.673 161.116  1.00  0.00    -0.022 C 
ATOM      9  C   UNL     1     136.119 139.228 161.095  1.00  0.00     0.008 C 
ATOM     10  C   UNL     1     136.780 139.835 162.362  1.00  0.00     0.005 C 
ATOM     11  C   UNL     1     136.786 138.877 163.602  1.00  0.00    -0.005 C 
ATOM     12  C   UNL     1     135.701 137.113 159.727  1.00  0.00     0.012 C 
ENDROOT
BRANCH  11  13
ATOM     13  C   UNL     1     135.759 139.333 164.693  1.00  0.00    -0.014 C 
ATOM     14  C   UNL     1     135.054 140.636 164.275  1.00  0.00     0.007 C 
ATOM     15  C   UNL     1     136.404 139.547 166.074  1.00  0.00     0.007 C 
ENDBRANCH  11  13
TORSDOF 1
ENDMDL
MODEL 3
REMARK VINA RESULT:    12.129      1.597      4.140
REMARK INTER + INTRA:          12.551
REMARK INTER:                  12.324
REMARK INTRA:                   0.226
REMARK UNBOUND:                -0.288
REMARK SMILES CC1=CC[C@H]2[C@H]3[C@@H]1[C@]2(C)CC[C@H]3C(C)C
REMARK SMILES IDX 1 1 2 2 3 3 4 4 5 5 6 6 7 7 8 8 10 9 11 10 12 11 9 12 13 13
REMARK SMILES IDX 14 14 15 15
REMARK H PARENT
REMARK Flexibility Score: inf
ROOT
ATOM      1  C   UNL     1     138.451 142.233 161.508  1.00  0.00     0.039 C 
ATOM      2  C   UNL     1     137.237 141.378 161.715  1.00  0.00    -0.073 C 
ATOM      3  C   UNL     1     136.092 141.600 161.017  1.00  0.00    -0.027 C 
ATOM      4  C   UNL     1     134.875 140.709 161.287  1.00  0.00     0.031 C 
ATOM      5  C   UNL     1     135.220 139.626 162.362  1.00  0.00     0.003 C 
ATOM      6  C   UNL     1     136.582 139.010 161.973  1.00  0.00     0.004 C 
ATOM      7  C   UNL     1     137.234 140.209 162.704  1.00  0.00     0.024 C 
ATOM      8  C   UNL     1     135.955 140.246 163.573  1.00  0.00    -0.022 C 
ATOM      9  C   UNL     1     136.035 139.187 164.711  1.00  0.00     0.008 C 
ATOM     10  C   UNL     1     136.791 137.901 164.283  1.00  0.00     0.005 C 
ATOM     11  C   UNL     1     136.840 137.671 162.734  1.00  0.00    -0.005 C 
ATOM     12  C   UNL     1     135.464 141.606 164.125  1.00  0.00     0.012 C 
ENDROOT
BRANCH  11  13
ATOM     13  C   UNL     1     135.896 136.504 162.289  1.00  0.00    -0.014 C 
ATOM     14  C   UNL     1     136.710 135.314 161.745  1.00  0.00     0.007 C 
ATOM     15  C   UNL     1     134.878 136.930 161.215  1.00  0.00     0.007 C 
ENDBRANCH  11  13
TORSDOF 1
ENDMDL
