MODEL 1
REMARK VINA RESULT:    -3.561      0.000      0.000
REMARK INTER + INTRA:          -8.152
REMARK INTER:                  -6.476
REMARK INTRA:                  -1.676
REMARK UNBOUND:                -1.676
REMARK SMILES CCCCCCCCCCCCCC[C@H](C)C(=O)[O-]
REMARK SMILES IDX 9 1 10 2 11 3 12 4 13 5 14 6 15 7 16 8 17 9 18 10 19 11 8 12
REMARK SMILES IDX 7 13 6 14 5 15 4 16 3 17 2 18 1 19
REMARK H PARENT
REMARK Flexibility Score: inf
ROOT
ATOM      1  C   UNL     1      -3.432  70.231  22.286  1.00  0.00     0.000 C 
ENDROOT
BRANCH   1   2
ATOM      2  C   UNL     1      -2.636  70.645  21.036  1.00  0.00     0.000 C 
BRANCH   2   3
ATOM      3  C   UNL     1      -2.977  69.782  19.809  1.00  0.00     0.000 C 
BRANCH   3   4
ATOM      4  C   UNL     1      -1.795  68.909  19.357  1.00  0.00     0.000 C 
BRANCH   4   5
ATOM      5  C   UNL     1      -0.436  69.487  19.785  1.00  0.00     0.001 C 
BRANCH   5   6
ATOM      6  C   UNL     1       0.329  70.128  18.613  1.00  0.00     0.009 C 
BRANCH   6   7
ATOM      7  C   UNL     1       1.802  70.434  18.962  1.00  0.00     0.032 C 
ATOM      8  C   UNL     1       2.233  69.779  20.282  1.00  0.00     0.014 C 
BRANCH   7   9
ATOM      9  C   UNL     1       2.003  71.921  19.050  1.00  0.00     0.044 C 
ATOM     10  O   UNL     1       1.056  72.668  19.412  1.00  0.00    -0.550 OA
ATOM     11  O   UNL     1       3.234  72.484  18.732  1.00  0.00    -0.550 OA
ENDBRANCH   7   9
ENDBRANCH   6   7
ENDBRANCH   5   6
ENDBRANCH   4   5
ENDBRANCH   3   4
ENDBRANCH   2   3
ENDBRANCH   1   2
BRANCH   1  12
ATOM     12  C   UNL     1      -2.995  71.000  23.543  1.00  0.00     0.000 C 
BRANCH  12  13
ATOM     13  C   UNL     1      -3.108  72.525  23.371  1.00  0.00    -0.000 C 
BRANCH  13  14
ATOM     14  C   UNL     1      -4.310  73.115  24.125  1.00  0.00    -0.000 C 
BRANCH  14  15
ATOM     15  C   UNL     1      -4.754  74.474  23.553  1.00  0.00    -0.000 C 
BRANCH  15  16
ATOM     16  C   UNL     1      -5.320  74.360  22.129  1.00  0.00    -0.000 C 
BRANCH  16  17
ATOM     17  C   UNL     1      -6.422  73.291  22.016  1.00  0.00    -0.000 C 
BRANCH  17  18
ATOM     18  C   UNL     1      -6.212  72.356  20.814  1.00  0.00    -0.003 C 
ATOM     19  C   UNL     1      -5.254  72.933  19.773  1.00  0.00     0.004 C 
ENDBRANCH  17  18
ENDBRANCH  16  17
ENDBRANCH  15  16
ENDBRANCH  14  15
ENDBRANCH  13  14
ENDBRANCH  12  13
ENDBRANCH   1  12
TORSDOF 14
ENDMDL
MODEL 2
REMARK VINA RESULT:    -3.477     10.068     12.849
REMARK INTER + INTRA:          -7.999
REMARK INTER:                  -5.728
REMARK INTRA:                  -2.271
REMARK UNBOUND:                -1.676
REMARK SMILES CCCCCCCCCCCCCC[C@H](C)C(=O)[O-]
REMARK SMILES IDX 9 1 10 2 11 3 12 4 13 5 14 6 15 7 16 8 17 9 18 10 19 11 8 12
REMARK SMILES IDX 7 13 6 14 5 15 4 16 3 17 2 18 1 19
REMARK H PARENT
REMARK Flexibility Score: inf
ROOT
ATOM      1  C   UNL     1       1.091  66.897  14.726  1.00  0.00     0.000 C 
ENDROOT
BRANCH   1   2
ATOM      2  C   UNL     1       1.249  66.729  13.204  1.00  0.00     0.000 C 
BRANCH   2   3
ATOM      3  C   UNL     1       2.638  67.161  12.705  1.00  0.00     0.000 C 
BRANCH   3   4
ATOM      4  C   UNL     1       3.140  66.297  11.537  1.00  0.00     0.000 C 
BRANCH   4   5
ATOM      5  C   UNL     1       2.152  65.181  11.162  1.00  0.00     0.001 C 
BRANCH   5   6
ATOM      6  C   UNL     1       1.742  65.228   9.679  1.00  0.00     0.009 C 
BRANCH   6   7
ATOM      7  C   UNL     1       2.702  64.429   8.772  1.00  0.00     0.032 C 
ATOM      8  C   UNL     1       3.011  65.167   7.461  1.00  0.00     0.014 C 
BRANCH   7   9
ATOM      9  C   UNL     1       2.105  63.084   8.462  1.00  0.00     0.044 C 
ATOM     10  O   UNL     1       1.135  62.991   7.663  1.00  0.00    -0.550 OA
ATOM     11  O   UNL     1       2.616  61.935   9.053  1.00  0.00    -0.550 OA
ENDBRANCH   7   9
ENDBRANCH   6   7
ENDBRANCH   5   6
ENDBRANCH   4   5
ENDBRANCH   3   4
ENDBRANCH   2   3
ENDBRANCH   1   2
BRANCH   1  12
ATOM     12  C   UNL     1       1.364  65.593  15.493  1.00  0.00     0.000 C 
BRANCH  12  13
ATOM     13  C   UNL     1       0.968  64.342  14.689  1.00  0.00    -0.000 C 
BRANCH  13  14
ATOM     14  C   UNL     1       2.090  63.293  14.641  1.00  0.00    -0.000 C 
BRANCH  14  15
ATOM     15  C   UNL     1       3.488  63.930  14.546  1.00  0.00    -0.000 C 
BRANCH  15  16
ATOM     16  C   UNL     1       4.349  63.659  15.790  1.00  0.00    -0.000 C 
BRANCH  16  17
ATOM     17  C   UNL     1       5.364  64.783  16.061  1.00  0.00    -0.000 C 
BRANCH  17  18
ATOM     18  C   UNL     1       5.282  65.912  15.020  1.00  0.00    -0.003 C 
ATOM     19  C   UNL     1       4.976  67.274  15.645  1.00  0.00     0.004 C 
ENDBRANCH  17  18
ENDBRANCH  16  17
ENDBRANCH  15  16
ENDBRANCH  14  15
ENDBRANCH  13  14
ENDBRANCH  12  13
ENDBRANCH   1  12
TORSDOF 14
ENDMDL
MODEL 3
REMARK VINA RESULT:    -3.468     12.957     16.461
REMARK INTER + INTRA:          -7.982
REMARK INTER:                  -5.633
REMARK INTRA:                  -2.349
REMARK UNBOUND:                -1.676
REMARK SMILES CCCCCCCCCCCCCC[C@H](C)C(=O)[O-]
REMARK SMILES IDX 9 1 10 2 11 3 12 4 13 5 14 6 15 7 16 8 17 9 18 10 19 11 8 12
REMARK SMILES IDX 7 13 6 14 5 15 4 16 3 17 2 18 1 19
REMARK H PARENT
REMARK Flexibility Score: inf
ROOT
ATOM      1  C   UNL     1       5.565  68.015   4.240  1.00  0.00     0.000 C 
ENDROOT
BRANCH   1   2
ATOM      2  C   UNL     1       4.906  66.635   4.410  1.00  0.00     0.000 C 
BRANCH   2   3
ATOM      3  C   UNL     1       3.371  66.708   4.373  1.00  0.00     0.000 C 
BRANCH   3   4
ATOM      4  C   UNL     1       2.733  66.404   5.739  1.00  0.00     0.000 C 
BRANCH   4   5
ATOM      5  C   UNL     1       3.781  66.182   6.842  1.00  0.00     0.001 C 
BRANCH   5   6
ATOM      6  C   UNL     1       3.573  64.856   7.596  1.00  0.00     0.009 C 
BRANCH   6   7
ATOM      7  C   UNL     1       2.089  64.586   7.925  1.00  0.00     0.032 C 
ATOM      8  C   UNL     1       1.635  65.319   9.195  1.00  0.00     0.014 C 
BRANCH   7   9
ATOM      9  C   UNL     1       1.867  63.108   8.091  1.00  0.00     0.044 C 
ATOM     10  O   UNL     1       2.689  62.414   8.746  1.00  0.00    -0.550 OA
ATOM     11  O   UNL     1       0.755  62.497   7.524  1.00  0.00    -0.550 OA
ENDBRANCH   7   9
ENDBRANCH   6   7
ENDBRANCH   5   6
ENDBRANCH   4   5
ENDBRANCH   3   4
ENDBRANCH   2   3
ENDBRANCH   1   2
BRANCH   1  12
ATOM     12  C   UNL     1       6.695  68.256   5.254  1.00  0.00     0.000 C 
BRANCH  12  13
ATOM     13  C   UNL     1       6.340  69.340   6.286  1.00  0.00    -0.000 C 
BRANCH  13  14
ATOM     14  C   UNL     1       4.876  69.795   6.183  1.00  0.00    -0.000 C 
BRANCH  14  15
ATOM     15  C   UNL     1       4.254  70.096   7.560  1.00  0.00    -0.000 C 
BRANCH  15  16
ATOM     16  C   UNL     1       2.800  69.611   7.671  1.00  0.00    -0.000 C 
BRANCH  16  17
ATOM     17  C   UNL     1       2.509  68.925   9.017  1.00  0.00    -0.000 C 
BRANCH  17  18
ATOM     18  C   UNL     1       3.791  68.468   9.733  1.00  0.00    -0.003 C 
ATOM     19  C   UNL     1       3.521  67.888  11.121  1.00  0.00     0.004 C 
ENDBRANCH  17  18
ENDBRANCH  16  17
ENDBRANCH  15  16
ENDBRANCH  14  15
ENDBRANCH  13  14
ENDBRANCH  12  13
ENDBRANCH   1  12
TORSDOF 14
ENDMDL
MODEL 4
REMARK VINA RESULT:    -3.355      9.377     12.555
REMARK INTER + INTRA:          -7.778
REMARK INTER:                  -5.531
REMARK INTRA:                  -2.246
REMARK UNBOUND:                -1.676
REMARK SMILES CCCCCCCCCCCCCC[C@H](C)C(=O)[O-]
REMARK SMILES IDX 9 1 10 2 11 3 12 4 13 5 14 6 15 7 16 8 17 9 18 10 19 11 8 12
REMARK SMILES IDX 7 13 6 14 5 15 4 16 3 17 2 18 1 19
REMARK H PARENT
REMARK Flexibility Score: inf
ROOT
ATOM      1  C   UNL     1       3.595  68.883  11.022  1.00  0.00     0.000 C 
ENDROOT
BRANCH   1   2
ATOM      2  C   UNL     1       3.387  67.426  10.573  1.00  0.00     0.000 C 
BRANCH   2   3
ATOM      3  C   UNL     1       2.544  66.617  11.573  1.00  0.00     0.000 C 
BRANCH   3   4
ATOM      4  C   UNL     1       1.111  66.371  11.072  1.00  0.00     0.000 C 
BRANCH   4   5
ATOM      5  C   UNL     1       0.976  66.566   9.553  1.00  0.00     0.001 C 
BRANCH   5   6
ATOM      6  C   UNL     1       0.842  65.233   8.796  1.00  0.00     0.009 C 
BRANCH   6   7
ATOM      7  C   UNL     1       2.190  64.496   8.646  1.00  0.00     0.032 C 
ATOM      8  C   UNL     1       3.073  65.118   7.554  1.00  0.00     0.014 C 
BRANCH   7   9
ATOM      9  C   UNL     1       1.944  63.047   8.329  1.00  0.00     0.044 C 
ATOM     10  O   UNL     1       2.666  62.154   8.848  1.00  0.00    -0.550 OA
ATOM     11  O   UNL     1       0.921  62.681   7.463  1.00  0.00    -0.550 OA
ENDBRANCH   7   9
ENDBRANCH   6   7
ENDBRANCH   5   6
ENDBRANCH   4   5
ENDBRANCH   3   4
ENDBRANCH   2   3
ENDBRANCH   1   2
BRANCH   1  12
ATOM     12  C   UNL     1       2.753  69.876  10.206  1.00  0.00     0.000 C 
BRANCH  12  13
ATOM     13  C   UNL     1       1.412  70.208  10.884  1.00  0.00    -0.000 C 
BRANCH  13  14
ATOM     14  C   UNL     1       1.537  70.327  12.411  1.00  0.00    -0.000 C 
BRANCH  14  15
ATOM     15  C   UNL     1       0.551  69.408  13.155  1.00  0.00    -0.000 C 
BRANCH  15  16
ATOM     16  C   UNL     1       1.036  69.037  14.565  1.00  0.00    -0.000 C 
BRANCH  16  17
ATOM     17  C   UNL     1       2.183  69.941  15.050  1.00  0.00    -0.000 C 
BRANCH  17  18
ATOM     18  C   UNL     1       3.348  69.140  15.654  1.00  0.00    -0.003 C 
ATOM     19  C   UNL     1       4.304  68.593  14.594  1.00  0.00     0.004 C 
ENDBRANCH  17  18
ENDBRANCH  16  17
ENDBRANCH  15  16
ENDBRANCH  14  15
ENDBRANCH  13  14
ENDBRANCH  12  13
ENDBRANCH   1  12
TORSDOF 14
ENDMDL
MODEL 5
REMARK VINA RESULT:    -3.292      9.801     12.983
REMARK INTER + INTRA:          -7.662
REMARK INTER:                  -5.172
REMARK INTRA:                  -2.490
REMARK UNBOUND:                -1.676
REMARK SMILES CCCCCCCCCCCCCC[C@H](C)C(=O)[O-]
REMARK SMILES IDX 9 1 10 2 11 3 12 4 13 5 14 6 15 7 16 8 17 9 18 10 19 11 8 12
REMARK SMILES IDX 7 13 6 14 5 15 4 16 3 17 2 18 1 19
REMARK H PARENT
REMARK Flexibility Score: inf
ROOT
ATOM      1  C   UNL     1       2.730  69.095  10.817  1.00  0.00     0.000 C 
ENDROOT
BRANCH   1   2
ATOM      2  C   UNL     1       1.561  69.451   9.882  1.00  0.00     0.000 C 
BRANCH   2   3
ATOM      3  C   UNL     1       0.368  68.493  10.041  1.00  0.00     0.000 C 
BRANCH   3   4
ATOM      4  C   UNL     1       0.043  67.737   8.741  1.00  0.00     0.000 C 
BRANCH   4   5
ATOM      5  C   UNL     1      -0.078  66.220   8.957  1.00  0.00     0.001 C 
BRANCH   5   6
ATOM      6  C   UNL     1       0.605  65.409   7.840  1.00  0.00     0.009 C 
BRANCH   6   7
ATOM      7  C   UNL     1       1.920  64.748   8.306  1.00  0.00     0.032 C 
ATOM      8  C   UNL     1       3.133  65.246   7.506  1.00  0.00     0.014 C 
BRANCH   7   9
ATOM      9  C   UNL     1       1.811  63.254   8.176  1.00  0.00     0.044 C 
ATOM     10  O   UNL     1       0.884  62.744   7.492  1.00  0.00    -0.550 OA
ATOM     11  O   UNL     1       2.731  62.425   8.807  1.00  0.00    -0.550 OA
ENDBRANCH   7   9
ENDBRANCH   6   7
ENDBRANCH   5   6
ENDBRANCH   4   5
ENDBRANCH   3   4
ENDBRANCH   2   3
ENDBRANCH   1   2
BRANCH   1  12
ATOM     12  C   UNL     1       3.344  67.723  10.494  1.00  0.00     0.000 C 
BRANCH  12  13
ATOM     13  C   UNL     1       3.395  66.796  11.721  1.00  0.00    -0.000 C 
BRANCH  13  14
ATOM     14  C   UNL     1       2.275  65.743  11.711  1.00  0.00    -0.000 C 
BRANCH  14  15
ATOM     15  C   UNL     1       1.495  65.701  13.037  1.00  0.00    -0.000 C 
BRANCH  15  16
ATOM     16  C   UNL     1       0.858  67.054  13.393  1.00  0.00    -0.000 C 
BRANCH  16  17
ATOM     17  C   UNL     1       1.340  67.593  14.751  1.00  0.00    -0.000 C 
BRANCH  17  18
ATOM     18  C   UNL     1       2.175  68.876  14.611  1.00  0.00    -0.003 C 
ATOM     19  C   UNL     1       1.410  70.011  13.930  1.00  0.00     0.004 C 
ENDBRANCH  17  18
ENDBRANCH  16  17
ENDBRANCH  15  16
ENDBRANCH  14  15
ENDBRANCH  13  14
ENDBRANCH  12  13
ENDBRANCH   1  12
TORSDOF 14
ENDMDL
MODEL 6
REMARK VINA RESULT:    -3.285      5.311      9.182
REMARK INTER + INTRA:          -7.649
REMARK INTER:                  -5.261
REMARK INTRA:                  -2.388
REMARK UNBOUND:                -1.676
REMARK SMILES CCCCCCCCCCCCCC[C@H](C)C(=O)[O-]
REMARK SMILES IDX 9 1 10 2 11 3 12 4 13 5 14 6 15 7 16 8 17 9 18 10 19 11 8 12
REMARK SMILES IDX 7 13 6 14 5 15 4 16 3 17 2 18 1 19
REMARK H PARENT
REMARK Flexibility Score: inf
ROOT
ATOM      1  C   UNL     1       3.738  68.497  15.997  1.00  0.00     0.000 C 
ENDROOT
BRANCH   1   2
ATOM      2  C   UNL     1       2.647  68.992  15.031  1.00  0.00     0.000 C 
BRANCH   2   3
ATOM      3  C   UNL     1       1.282  69.158  15.720  1.00  0.00     0.000 C 
BRANCH   3   4
ATOM      4  C   UNL     1       1.304  68.703  17.189  1.00  0.00     0.000 C 
BRANCH   4   5
ATOM      5  C   UNL     1       0.399  69.563  18.085  1.00  0.00     0.001 C 
BRANCH   5   6
ATOM      6  C   UNL     1       1.167  70.212  19.251  1.00  0.00     0.009 C 
BRANCH   6   7
ATOM      7  C   UNL     1       2.518  70.813  18.811  1.00  0.00     0.032 C 
ATOM      8  C   UNL     1       3.657  70.448  19.774  1.00  0.00     0.014 C 
BRANCH   7   9
ATOM      9  C   UNL     1       2.400  72.309  18.715  1.00  0.00     0.044 C 
ATOM     10  O   UNL     1       3.256  72.971  18.070  1.00  0.00    -0.550 OA
ATOM     11  O   UNL     1       1.349  72.973  19.337  1.00  0.00    -0.550 OA
ENDBRANCH   7   9
ENDBRANCH   6   7
ENDBRANCH   5   6
ENDBRANCH   4   5
ENDBRANCH   3   4
ENDBRANCH   2   3
ENDBRANCH   1   2
BRANCH   1  12
ATOM     12  C   UNL     1       4.524  67.301  15.434  1.00  0.00     0.000 C 
BRANCH  12  13
ATOM     13  C   UNL     1       4.624  66.138  16.436  1.00  0.00    -0.000 C 
BRANCH  13  14
ATOM     14  C   UNL     1       3.259  65.501  16.739  1.00  0.00    -0.000 C 
BRANCH  14  15
ATOM     15  C   UNL     1       3.107  64.105  16.107  1.00  0.00    -0.000 C 
BRANCH  15  16
ATOM     16  C   UNL     1       2.048  64.071  14.994  1.00  0.00    -0.000 C 
BRANCH  16  17
ATOM     17  C   UNL     1       1.219  65.367  14.929  1.00  0.00    -0.000 C 
BRANCH  17  18
ATOM     18  C   UNL     1       1.201  65.983  13.521  1.00  0.00    -0.003 C 
ATOM     19  C   UNL     1       2.477  65.696  12.731  1.00  0.00     0.004 C 
ENDBRANCH  17  18
ENDBRANCH  16  17
ENDBRANCH  15  16
ENDBRANCH  14  15
ENDBRANCH  13  14
ENDBRANCH  12  13
ENDBRANCH   1  12
TORSDOF 14
ENDMDL
MODEL 7
REMARK VINA RESULT:    -3.274     13.378     16.153
REMARK INTER + INTRA:          -7.629
REMARK INTER:                  -5.440
REMARK INTRA:                  -2.189
REMARK UNBOUND:                -1.676
REMARK SMILES CCCCCCCCCCCCCC[C@H](C)C(=O)[O-]
REMARK SMILES IDX 9 1 10 2 11 3 12 4 13 5 14 6 15 7 16 8 17 9 18 10 19 11 8 12
REMARK SMILES IDX 7 13 6 14 5 15 4 16 3 17 2 18 1 19
REMARK H PARENT
REMARK Flexibility Score: inf
ROOT
ATOM      1  C   UNL     1       4.419  66.313   5.211  1.00  0.00     0.000 C 
ENDROOT
BRANCH   1   2
ATOM      2  C   UNL     1       5.685  67.185   5.129  1.00  0.00     0.000 C 
BRANCH   2   3
ATOM      3  C   UNL     1       5.366  68.689   5.162  1.00  0.00     0.000 C 
BRANCH   3   4
ATOM      4  C   UNL     1       6.110  69.424   6.290  1.00  0.00     0.000 C 
BRANCH   4   5
ATOM      5  C   UNL     1       5.155  70.171   7.235  1.00  0.00     0.001 C 
BRANCH   5   6
ATOM      6  C   UNL     1       4.076  69.250   7.834  1.00  0.00     0.009 C 
BRANCH   6   7
ATOM      7  C   UNL     1       2.672  69.892   7.819  1.00  0.00     0.032 C 
ATOM      8  C   UNL     1       2.310  70.463   6.441  1.00  0.00     0.014 C 
BRANCH   7   9
ATOM      9  C   UNL     1       2.604  70.985   8.850  1.00  0.00     0.044 C 
ATOM     10  O   UNL     1       2.574  72.192   8.491  1.00  0.00    -0.550 OA
ATOM     11  O   UNL     1       2.572  70.673  10.204  1.00  0.00    -0.550 OA
ENDBRANCH   7   9
ENDBRANCH   6   7
ENDBRANCH   5   6
ENDBRANCH   4   5
ENDBRANCH   3   4
ENDBRANCH   2   3
ENDBRANCH   1   2
BRANCH   1  12
ATOM     12  C   UNL     1       3.209  66.968   4.526  1.00  0.00     0.000 C 
BRANCH  12  13
ATOM     13  C   UNL     1       1.932  66.890   5.382  1.00  0.00    -0.000 C 
BRANCH  13  14
ATOM     14  C   UNL     1       2.197  66.313   6.782  1.00  0.00    -0.000 C 
BRANCH  14  15
ATOM     15  C   UNL     1       0.918  66.232   7.636  1.00  0.00    -0.000 C 
BRANCH  15  16
ATOM     16  C   UNL     1       0.902  65.005   8.562  1.00  0.00    -0.000 C 
BRANCH  16  17
ATOM     17  C   UNL     1       0.863  63.679   7.781  1.00  0.00    -0.000 C 
BRANCH  17  18
ATOM     18  C   UNL     1       2.101  62.806   8.043  1.00  0.00    -0.003 C 
ATOM     19  C   UNL     1       3.016  63.384   9.122  1.00  0.00     0.004 C 
ENDBRANCH  17  18
ENDBRANCH  16  17
ENDBRANCH  15  16
ENDBRANCH  14  15
ENDBRANCH  13  14
ENDBRANCH  12  13
ENDBRANCH   1  12
TORSDOF 14
ENDMDL
MODEL 8
REMARK VINA RESULT:    -3.264     10.374     13.063
REMARK INTER + INTRA:          -7.612
REMARK INTER:                  -5.474
REMARK INTRA:                  -2.138
REMARK UNBOUND:                -1.676
REMARK SMILES CCCCCCCCCCCCCC[C@H](C)C(=O)[O-]
REMARK SMILES IDX 9 1 10 2 11 3 12 4 13 5 14 6 15 7 16 8 17 9 18 10 19 11 8 12
REMARK SMILES IDX 7 13 6 14 5 15 4 16 3 17 2 18 1 19
REMARK H PARENT
REMARK Flexibility Score: inf
ROOT
ATOM      1  C   UNL     1       0.815  69.469  12.138  1.00  0.00     0.000 C 
ENDROOT
BRANCH   1   2
ATOM      2  C   UNL     1       0.919  69.510  10.604  1.00  0.00     0.000 C 
BRANCH   2   3
ATOM      3  C   UNL     1       1.427  68.184  10.013  1.00  0.00     0.000 C 
BRANCH   3   4
ATOM      4  C   UNL     1       2.667  67.648  10.748  1.00  0.00     0.000 C 
BRANCH   4   5
ATOM      5  C   UNL     1       2.695  66.112  10.815  1.00  0.00     0.001 C 
BRANCH   5   6
ATOM      6  C   UNL     1       1.774  65.459   9.768  1.00  0.00     0.009 C 
BRANCH   6   7
ATOM      7  C   UNL     1       2.560  64.816   8.605  1.00  0.00     0.032 C 
ATOM      8  C   UNL     1       2.206  65.442   7.249  1.00  0.00     0.014 C 
BRANCH   7   9
ATOM      9  C   UNL     1       2.286  63.338   8.563  1.00  0.00     0.044 C 
ATOM     10  O   UNL     1       3.001  62.542   9.229  1.00  0.00    -0.550 OA
ATOM     11  O   UNL     1       1.244  62.838   7.792  1.00  0.00    -0.550 OA
ENDBRANCH   7   9
ENDBRANCH   6   7
ENDBRANCH   5   6
ENDBRANCH   4   5
ENDBRANCH   3   4
ENDBRANCH   2   3
ENDBRANCH   1   2
BRANCH   1  12
ATOM     12  C   UNL     1       1.175  70.815  12.788  1.00  0.00     0.000 C 
BRANCH  12  13
ATOM     13  C   UNL     1       1.751  71.822  11.778  1.00  0.00    -0.000 C 
BRANCH  13  14
ATOM     14  C   UNL     1       3.083  72.430  12.246  1.00  0.00    -0.000 C 
BRANCH  14  15
ATOM     15  C   UNL     1       3.968  71.410  12.985  1.00  0.00    -0.000 C 
BRANCH  15  16
ATOM     16  C   UNL     1       4.722  70.475  12.025  1.00  0.00    -0.000 C 
BRANCH  16  17
ATOM     17  C   UNL     1       5.322  71.226  10.823  1.00  0.00    -0.000 C 
BRANCH  17  18
ATOM     18  C   UNL     1       5.195  70.432   9.512  1.00  0.00    -0.003 C 
ATOM     19  C   UNL     1       3.899  70.731   8.760  1.00  0.00     0.004 C 
ENDBRANCH  17  18
ENDBRANCH  16  17
ENDBRANCH  15  16
ENDBRANCH  14  15
ENDBRANCH  13  14
ENDBRANCH  12  13
ENDBRANCH   1  12
TORSDOF 14
ENDMDL
MODEL 9
REMARK VINA RESULT:    -3.213      5.885      9.386
REMARK INTER + INTRA:          -7.518
REMARK INTER:                  -5.039
REMARK INTRA:                  -2.479
REMARK UNBOUND:                -1.676
REMARK SMILES CCCCCCCCCCCCCC[C@H](C)C(=O)[O-]
REMARK SMILES IDX 9 1 10 2 11 3 12 4 13 5 14 6 15 7 16 8 17 9 18 10 19 11 8 12
REMARK SMILES IDX 7 13 6 14 5 15 4 16 3 17 2 18 1 19
REMARK H PARENT
REMARK Flexibility Score: inf
ROOT
ATOM      1  C   UNL     1       1.065  65.381  15.482  1.00  0.00     0.000 C 
ENDROOT
BRANCH   1   2
ATOM      2  C   UNL     1       1.203  66.545  16.479  1.00  0.00     0.000 C 
BRANCH   2   3
ATOM      3  C   UNL     1       0.121  67.620  16.282  1.00  0.00     0.000 C 
BRANCH   3   4
ATOM      4  C   UNL     1       0.459  68.935  17.004  1.00  0.00     0.000 C 
BRANCH   4   5
ATOM      5  C   UNL     1       1.899  68.959  17.542  1.00  0.00     0.001 C 
BRANCH   5   6
ATOM      6  C   UNL     1       2.589  70.318  17.323  1.00  0.00     0.009 C 
BRANCH   6   7
ATOM      7  C   UNL     1       3.002  70.995  18.648  1.00  0.00     0.032 C 
ATOM      8  C   UNL     1       2.598  70.164  19.874  1.00  0.00     0.014 C 
BRANCH   7   9
ATOM      9  C   UNL     1       2.376  72.360  18.737  1.00  0.00     0.044 C 
ATOM     10  O   UNL     1       1.287  72.518  19.350  1.00  0.00    -0.550 OA
ATOM     11  O   UNL     1       2.993  73.455  18.145  1.00  0.00    -0.550 OA
ENDBRANCH   7   9
ENDBRANCH   6   7
ENDBRANCH   5   6
ENDBRANCH   4   5
ENDBRANCH   3   4
ENDBRANCH   2   3
ENDBRANCH   1   2
BRANCH   1  12
ATOM     12  C   UNL     1       2.367  64.578  15.331  1.00  0.00     0.000 C 
BRANCH  12  13
ATOM     13  C   UNL     1       2.980  64.706  13.926  1.00  0.00    -0.000 C 
BRANCH  13  14
ATOM     14  C   UNL     1       2.105  65.539  12.976  1.00  0.00    -0.000 C 
BRANCH  14  15
ATOM     15  C   UNL     1       2.889  66.680  12.302  1.00  0.00    -0.000 C 
BRANCH  15  16
ATOM     16  C   UNL     1       2.317  68.068  12.632  1.00  0.00    -0.000 C 
BRANCH  16  17
ATOM     17  C   UNL     1       2.879  68.639  13.946  1.00  0.00    -0.000 C 
BRANCH  17  18
ATOM     18  C   UNL     1       4.375  68.334  14.128  1.00  0.00    -0.003 C 
ATOM     19  C   UNL     1       4.689  67.687  15.476  1.00  0.00     0.004 C 
ENDBRANCH  17  18
ENDBRANCH  16  17
ENDBRANCH  15  16
ENDBRANCH  14  15
ENDBRANCH  13  14
ENDBRANCH  12  13
ENDBRANCH   1  12
TORSDOF 14
ENDMDL
