MODEL 1
REMARK VINA RESULT:    -4.231      0.000      0.000
REMARK INTER + INTRA:          -4.911
REMARK INTER:                  -4.726
REMARK INTRA:                  -0.186
REMARK UNBOUND:                -0.186
REMARK SMILES O=C([O-])c1ccccc1C(=O)[O-]
REMARK SMILES IDX 4 1 9 2 5 3 8 4 6 5 7 6 2 7 1 8 3 9 10 10 11 11 12 12
REMARK H PARENT
REMARK Flexibility Score: inf
ROOT
ATOM      1  C   UNL     1      62.209  34.613  60.608  1.00  0.00     0.006 A 
ATOM      2  C   UNL     1      63.553  34.270  60.923  1.00  0.00     0.006 A 
ATOM      3  C   UNL     1      61.761  35.926  60.854  1.00  0.00     0.010 A 
ATOM      4  C   UNL     1      64.379  35.232  61.533  1.00  0.00     0.010 A 
ATOM      5  C   UNL     1      62.606  36.869  61.439  1.00  0.00     0.001 A 
ATOM      6  C   UNL     1      63.908  36.520  61.789  1.00  0.00     0.001 A 
ENDROOT
BRANCH   1   7
ATOM      7  C   UNL     1      61.230  33.627  60.094  1.00  0.00     0.072 C 
ATOM      8  O   UNL     1      60.769  33.740  58.927  1.00  0.00    -0.545 OA
ATOM      9  O   UNL     1      60.758  32.606  60.909  1.00  0.00    -0.545 OA
ENDBRANCH   1   7
BRANCH   2  10
ATOM     10  C   UNL     1      64.153  32.961  60.577  1.00  0.00     0.072 C 
ATOM     11  O   UNL     1      64.086  31.989  61.376  1.00  0.00    -0.545 OA
ATOM     12  O   UNL     1      64.738  32.771  59.330  1.00  0.00    -0.545 OA
ENDBRANCH   2  10
TORSDOF 2
ENDMDL
MODEL 2
REMARK VINA RESULT:    -4.208     12.507     14.506
REMARK INTER + INTRA:          -4.885
REMARK INTER:                  -4.694
REMARK INTRA:                  -0.191
REMARK UNBOUND:                -0.186
REMARK SMILES O=C([O-])c1ccccc1C(=O)[O-]
REMARK SMILES IDX 4 1 9 2 5 3 8 4 6 5 7 6 2 7 1 8 3 9 10 10 11 11 12 12
REMARK H PARENT
REMARK Flexibility Score: inf
ROOT
ATOM      1  C   UNL     1      56.029  26.855  50.096  1.00  0.00     0.006 A 
ATOM      2  C   UNL     1      55.927  28.247  50.374  1.00  0.00     0.006 A 
ATOM      3  C   UNL     1      54.889  26.164  49.641  1.00  0.00     0.010 A 
ATOM      4  C   UNL     1      54.677  28.880  50.250  1.00  0.00     0.010 A 
ATOM      5  C   UNL     1      53.664  26.818  49.504  1.00  0.00     0.001 A 
ATOM      6  C   UNL     1      53.556  28.170  49.819  1.00  0.00     0.001 A 
ENDROOT
BRANCH   1   7
ATOM      7  C   UNL     1      57.268  26.079  50.332  1.00  0.00     0.072 C 
ATOM      8  O   UNL     1      57.387  25.375  51.370  1.00  0.00    -0.545 OA
ATOM      9  O   UNL     1      58.338  26.167  49.450  1.00  0.00    -0.545 OA
ENDBRANCH   1   7
BRANCH   2  10
ATOM     10  C   UNL     1      57.097  29.085  50.725  1.00  0.00     0.072 C 
ATOM     11  O   UNL     1      57.351  29.368  51.927  1.00  0.00    -0.545 OA
ATOM     12  O   UNL     1      57.971  29.513  49.732  1.00  0.00    -0.545 OA
ENDBRANCH   2  10
TORSDOF 2
ENDMDL
MODEL 3
REMARK VINA RESULT:    -4.199      0.044      3.148
REMARK INTER + INTRA:          -4.876
REMARK INTER:                  -4.689
REMARK INTRA:                  -0.186
REMARK UNBOUND:                -0.186
REMARK SMILES O=C([O-])c1ccccc1C(=O)[O-]
REMARK SMILES IDX 4 1 9 2 5 3 8 4 6 5 7 6 2 7 1 8 3 9 10 10 11 11 12 12
REMARK H PARENT
REMARK Flexibility Score: inf
ROOT
ATOM      1  C   UNL     1      63.523  34.271  60.894  1.00  0.00     0.006 A 
ATOM      2  C   UNL     1      62.172  34.614  60.606  1.00  0.00     0.006 A 
ATOM      3  C   UNL     1      64.362  35.235  61.487  1.00  0.00     0.010 A 
ATOM      4  C   UNL     1      61.730  35.924  60.861  1.00  0.00     0.010 A 
ATOM      5  C   UNL     1      63.894  36.523  61.752  1.00  0.00     0.001 A 
ATOM      6  C   UNL     1      62.585  36.870  61.429  1.00  0.00     0.001 A 
ENDROOT
BRANCH   1   7
ATOM      7  C   UNL     1      64.113  32.962  60.532  1.00  0.00     0.072 C 
ATOM      8  O   UNL     1      64.096  32.009  61.356  1.00  0.00    -0.545 OA
ATOM      9  O   UNL     1      64.748  32.785  59.309  1.00  0.00    -0.545 OA
ENDBRANCH   1   7
BRANCH   2  10
ATOM     10  C   UNL     1      61.181  33.631  60.111  1.00  0.00     0.072 C 
ATOM     11  O   UNL     1      60.778  33.667  58.918  1.00  0.00    -0.545 OA
ATOM     12  O   UNL     1      60.736  32.611  60.943  1.00  0.00    -0.545 OA
ENDBRANCH   2  10
TORSDOF 2
ENDMDL
MODEL 4
REMARK VINA RESULT:    -4.145     12.364     14.327
REMARK INTER + INTRA:          -4.815
REMARK INTER:                  -4.631
REMARK INTRA:                  -0.184
REMARK UNBOUND:                -0.186
REMARK SMILES O=C([O-])c1ccccc1C(=O)[O-]
REMARK SMILES IDX 4 1 9 2 5 3 8 4 6 5 7 6 2 7 1 8 3 9 10 10 11 11 12 12
REMARK H PARENT
REMARK Flexibility Score: inf
ROOT
ATOM      1  C   UNL     1      55.961  28.425  50.493  1.00  0.00     0.006 A 
ATOM      2  C   UNL     1      55.943  27.041  50.161  1.00  0.00     0.006 A 
ATOM      3  C   UNL     1      54.772  29.172  50.382  1.00  0.00     0.010 A 
ATOM      4  C   UNL     1      54.754  26.472  49.670  1.00  0.00     0.010 A 
ATOM      5  C   UNL     1      53.599  28.580  49.913  1.00  0.00     0.001 A 
ATOM      6  C   UNL     1      53.593  27.237  49.546  1.00  0.00     0.001 A 
ENDROOT
BRANCH   1   7
ATOM      7  C   UNL     1      57.199  29.138  50.885  1.00  0.00     0.072 C 
ATOM      8  O   UNL     1      57.392  29.461  52.087  1.00  0.00    -0.545 OA
ATOM      9  O   UNL     1      58.131  29.519  49.927  1.00  0.00    -0.545 OA
ENDBRANCH   1   7
BRANCH   2  10
ATOM     10  C   UNL     1      57.104  26.147  50.375  1.00  0.00     0.072 C 
ATOM     11  O   UNL     1      58.051  26.110  49.545  1.00  0.00    -0.545 OA
ATOM     12  O   UNL     1      57.192  25.385  51.534  1.00  0.00    -0.545 OA
ENDBRANCH   2  10
TORSDOF 2
ENDMDL
MODEL 5
REMARK VINA RESULT:    -3.892      1.232      3.324
REMARK INTER + INTRA:          -4.533
REMARK INTER:                  -4.352
REMARK INTRA:                  -0.181
REMARK UNBOUND:                -0.186
REMARK SMILES O=C([O-])c1ccccc1C(=O)[O-]
REMARK SMILES IDX 4 1 9 2 5 3 8 4 6 5 7 6 2 7 1 8 3 9 10 10 11 11 12 12
REMARK H PARENT
REMARK Flexibility Score: inf
ROOT
ATOM      1  C   UNL     1      63.225  33.028  60.830  1.00  0.00     0.006 A 
ATOM      2  C   UNL     1      61.832  33.272  60.669  1.00  0.00     0.006 A 
ATOM      3  C   UNL     1      64.093  34.121  61.023  1.00  0.00     0.010 A 
ATOM      4  C   UNL     1      61.369  34.600  60.643  1.00  0.00     0.010 A 
ATOM      5  C   UNL     1      63.606  35.429  61.015  1.00  0.00     0.001 A 
ATOM      6  C   UNL     1      62.250  35.668  60.814  1.00  0.00     0.001 A 
ENDROOT
BRANCH   1   7
ATOM      7  C   UNL     1      63.818  31.675  60.731  1.00  0.00     0.072 C 
ATOM      8  O   UNL     1      64.394  31.310  59.672  1.00  0.00    -0.545 OA
ATOM      9  O   UNL     1      63.692  30.768  61.777  1.00  0.00    -0.545 OA
ENDBRANCH   1   7
BRANCH   2  10
ATOM     10  C   UNL     1      60.828  32.185  60.597  1.00  0.00     0.072 C 
ATOM     11  O   UNL     1      60.364  31.808  59.488  1.00  0.00    -0.545 OA
ATOM     12  O   UNL     1      60.436  31.520  61.753  1.00  0.00    -0.545 OA
ENDBRANCH   2  10
TORSDOF 2
ENDMDL
MODEL 6
REMARK VINA RESULT:    -3.742     12.838     13.989
REMARK INTER + INTRA:          -4.365
REMARK INTER:                  -4.178
REMARK INTRA:                  -0.187
REMARK UNBOUND:                -0.186
REMARK SMILES O=C([O-])c1ccccc1C(=O)[O-]
REMARK SMILES IDX 4 1 9 2 5 3 8 4 6 5 7 6 2 7 1 8 3 9 10 10 11 11 12 12
REMARK H PARENT
REMARK Flexibility Score: inf
ROOT
ATOM      1  C   UNL     1      56.954  28.494  50.268  1.00  0.00     0.006 A 
ATOM      2  C   UNL     1      57.024  27.075  50.185  1.00  0.00     0.006 A 
ATOM      3  C   UNL     1      58.040  29.260  49.803  1.00  0.00     0.010 A 
ATOM      4  C   UNL     1      58.200  26.475  49.701  1.00  0.00     0.010 A 
ATOM      5  C   UNL     1      59.188  28.643  49.306  1.00  0.00     0.001 A 
ATOM      6  C   UNL     1      59.273  27.254  49.266  1.00  0.00     0.001 A 
ENDROOT
BRANCH   1   7
ATOM      7  C   UNL     1      55.814  29.205  50.891  1.00  0.00     0.072 C 
ATOM      8  O   UNL     1      55.916  29.666  52.060  1.00  0.00    -0.545 OA
ATOM      9  O   UNL     1      54.599  29.317  50.226  1.00  0.00    -0.545 OA
ENDBRANCH   1   7
BRANCH   2  10
ATOM     10  C   UNL     1      55.883  26.192  50.522  1.00  0.00     0.072 C 
ATOM     11  O   UNL     1      55.774  25.689  51.672  1.00  0.00    -0.545 OA
ATOM     12  O   UNL     1      54.880  25.963  49.587  1.00  0.00    -0.545 OA
ENDBRANCH   2  10
TORSDOF 2
ENDMDL
MODEL 7
REMARK VINA RESULT:    -3.726     12.841     14.020
REMARK INTER + INTRA:          -4.347
REMARK INTER:                  -4.151
REMARK INTRA:                  -0.197
REMARK UNBOUND:                -0.186
REMARK SMILES O=C([O-])c1ccccc1C(=O)[O-]
REMARK SMILES IDX 4 1 9 2 5 3 8 4 6 5 7 6 2 7 1 8 3 9 10 10 11 11 12 12
REMARK H PARENT
REMARK Flexibility Score: inf
ROOT
ATOM      1  C   UNL     1      57.026  27.056  50.295  1.00  0.00     0.006 A 
ATOM      2  C   UNL     1      56.932  28.476  50.323  1.00  0.00     0.006 A 
ATOM      3  C   UNL     1      58.206  26.457  49.813  1.00  0.00     0.010 A 
ATOM      4  C   UNL     1      57.995  29.241  49.808  1.00  0.00     0.010 A 
ATOM      5  C   UNL     1      59.256  27.238  49.328  1.00  0.00     0.001 A 
ATOM      6  C   UNL     1      59.146  28.626  49.315  1.00  0.00     0.001 A 
ENDROOT
BRANCH   1   7
ATOM      7  C   UNL     1      55.904  26.172  50.686  1.00  0.00     0.072 C 
ATOM      8  O   UNL     1      55.908  25.600  51.808  1.00  0.00    -0.545 OA
ATOM      9  O   UNL     1      54.867  25.909  49.799  1.00  0.00    -0.545 OA
ENDBRANCH   1   7
BRANCH   2  10
ATOM     10  C   UNL     1      55.792  29.196  50.935  1.00  0.00     0.072 C 
ATOM     11  O   UNL     1      55.905  29.743  52.064  1.00  0.00    -0.545 OA
ATOM     12  O   UNL     1      54.599  29.335  50.235  1.00  0.00    -0.545 OA
ENDBRANCH   2  10
TORSDOF 2
ENDMDL
MODEL 8
REMARK VINA RESULT:    -3.678      2.052      3.416
REMARK INTER + INTRA:          -4.293
REMARK INTER:                  -4.077
REMARK INTRA:                  -0.216
REMARK UNBOUND:                -0.186
REMARK SMILES O=C([O-])c1ccccc1C(=O)[O-]
REMARK SMILES IDX 4 1 9 2 5 3 8 4 6 5 7 6 2 7 1 8 3 9 10 10 11 11 12 12
REMARK H PARENT
REMARK Flexibility Score: inf
ROOT
ATOM      1  C   UNL     1      61.678  32.857  60.638  1.00  0.00     0.006 A 
ATOM      2  C   UNL     1      63.078  32.610  60.703  1.00  0.00     0.006 A 
ATOM      3  C   UNL     1      60.790  31.904  61.173  1.00  0.00     0.010 A 
ATOM      4  C   UNL     1      63.534  31.392  61.240  1.00  0.00     0.010 A 
ATOM      5  C   UNL     1      61.267  30.712  61.721  1.00  0.00     0.001 A 
ATOM      6  C   UNL     1      62.634  30.452  61.744  1.00  0.00     0.001 A 
ENDROOT
BRANCH   1   7
ATOM      7  C   UNL     1      61.105  34.045  59.966  1.00  0.00     0.072 C 
ATOM      8  O   UNL     1      60.728  33.975  58.765  1.00  0.00    -0.545 OA
ATOM      9  O   UNL     1      61.034  35.267  60.624  1.00  0.00    -0.545 OA
ENDBRANCH   1   7
BRANCH   2  10
ATOM     10  C   UNL     1      64.092  33.609  60.292  1.00  0.00     0.072 C 
ATOM     11  O   UNL     1      64.638  33.545  59.158  1.00  0.00    -0.545 OA
ATOM     12  O   UNL     1      64.401  34.673  61.131  1.00  0.00    -0.545 OA
ENDBRANCH   2  10
TORSDOF 2
ENDMDL
MODEL 9
REMARK VINA RESULT:    -3.659     13.682     15.080
REMARK INTER + INTRA:          -4.272
REMARK INTER:                  -4.053
REMARK INTRA:                  -0.219
REMARK UNBOUND:                -0.186
REMARK SMILES O=C([O-])c1ccccc1C(=O)[O-]
REMARK SMILES IDX 4 1 9 2 5 3 8 4 6 5 7 6 2 7 1 8 3 9 10 10 11 11 12 12
REMARK H PARENT
REMARK Flexibility Score: inf
ROOT
ATOM      1  C   UNL     1      54.875  28.191  50.389  1.00  0.00     0.006 A 
ATOM      2  C   UNL     1      55.058  26.807  50.113  1.00  0.00     0.006 A 
ATOM      3  C   UNL     1      56.006  29.023  50.496  1.00  0.00     0.010 A 
ATOM      4  C   UNL     1      56.365  26.296  50.019  1.00  0.00     0.010 A 
ATOM      5  C   UNL     1      57.293  28.497  50.377  1.00  0.00     0.001 A 
ATOM      6  C   UNL     1      57.472  27.136  50.150  1.00  0.00     0.001 A 
ENDROOT
BRANCH   1   7
ATOM      7  C   UNL     1      53.543  28.788  50.642  1.00  0.00     0.072 C 
ATOM      8  O   UNL     1      52.939  29.403  49.723  1.00  0.00    -0.545 OA
ATOM      9  O   UNL     1      52.972  28.736  51.907  1.00  0.00    -0.545 OA
ENDBRANCH   1   7
BRANCH   2  10
ATOM     10  C   UNL     1      53.931  25.883  49.848  1.00  0.00     0.072 C 
ATOM     11  O   UNL     1      53.496  25.714  48.678  1.00  0.00    -0.545 OA
ATOM     12  O   UNL     1      53.385  25.136  50.886  1.00  0.00    -0.545 OA
ENDBRANCH   2  10
TORSDOF 2
ENDMDL
