MODEL 1
REMARK VINA RESULT:    -5.643      0.000      0.000
REMARK INTER + INTRA:          -7.221
REMARK INTER:                  -6.797
REMARK INTRA:                  -0.424
REMARK UNBOUND:                -0.424
REMARK SMILES O=c1c(O)c(-c2ccc(O)cc2O)oc2cc(O)cc(O)c12
REMARK SMILES IDX 5 1 3 2 2 3 1 4 22 5 20 6 19 7 17 8 16 9 15 10 14 11 6 12
REMARK SMILES IDX 8 13 7 14 9 15 11 16 12 17 10 18 13 20 4 22 21 24 18 26
REMARK H PARENT 10 19 13 21 4 23 21 25 18 27
REMARK Flexibility Score: inf
ROOT
ATOM      1  C   UNL     1    -105.944  44.616  54.255  1.00  0.00     0.184 A 
ATOM      2  C   UNL     1    -107.033  43.785  54.569  1.00  0.00     0.208 A 
ATOM      3  C   UNL     1    -106.869  42.789  55.546  1.00  0.00     0.238 A 
ATOM      4  O   UNL     1    -107.864  42.087  55.863  1.00  0.00    -0.285 OA
ATOM      5  C   UNL     1    -105.616  42.625  56.181  1.00  0.00     0.111 A 
ATOM      6  C   UNL     1    -105.325  41.623  57.156  1.00  0.00     0.134 A 
ATOM      7  C   UNL     1    -104.088  41.634  57.811  1.00  0.00     0.093 A 
ATOM      8  C   UNL     1    -103.106  42.570  57.478  1.00  0.00     0.123 A 
ATOM      9  C   UNL     1    -103.357  43.515  56.487  1.00  0.00     0.094 A 
ATOM     10  C   UNL     1    -104.596  43.552  55.842  1.00  0.00     0.146 A 
ATOM     11  O   UNL     1    -104.798  44.476  54.910  1.00  0.00    -0.451 OA
ENDROOT
BRANCH   1  12
ATOM     12  C   UNL     1    -106.040  45.670  53.218  1.00  0.00     0.063 A 
ATOM     13  C   UNL     1    -106.812  47.866  52.507  1.00  0.00     0.047 A 
ATOM     14  C   UNL     1    -106.696  46.883  53.493  1.00  0.00     0.020 A 
ATOM     15  C   UNL     1    -106.282  47.647  51.230  1.00  0.00     0.119 A 
ATOM     16  C   UNL     1    -105.640  46.440  50.943  1.00  0.00     0.093 A 
ATOM     17  C   UNL     1    -105.517  45.448  51.928  1.00  0.00     0.130 A 
BRANCH  15  18
ATOM     18  O   UNL     1    -106.391  48.621  50.238  1.00  0.00    -0.508 OA
ATOM     19  H   UNL     1    -107.196  49.234  50.186  1.00  0.00     0.293 HD
ENDBRANCH  15  18
BRANCH  17  20
ATOM     20  O   UNL     1    -104.868  44.250  51.628  1.00  0.00    -0.507 OA
ATOM     21  H   UNL     1    -104.811  43.899  50.680  1.00  0.00     0.293 HD
ENDBRANCH  17  20
ENDBRANCH   1  12
BRANCH   2  22
ATOM     22  O   UNL     1    -108.266  43.976  53.939  1.00  0.00    -0.502 OA
ATOM     23  H   UNL     1    -109.121  44.136  54.456  1.00  0.00     0.293 HD
ENDBRANCH   2  22
BRANCH   6  24
ATOM     24  O   UNL     1    -106.201  40.588  57.495  1.00  0.00    -0.507 OA
ATOM     25  H   UNL     1    -106.419  40.305  58.438  1.00  0.00     0.293 HD
ENDBRANCH   6  24
BRANCH   8  26
ATOM     26  O   UNL     1    -101.870  42.564  58.124  1.00  0.00    -0.508 OA
ATOM     27  H   UNL     1    -101.784  42.310  59.101  1.00  0.00     0.293 HD
ENDBRANCH   8  26
TORSDOF 6
ENDMDL
MODEL 2
REMARK VINA RESULT:    -5.423      2.868      4.841
REMARK INTER + INTRA:          -6.956
REMARK INTER:                  -6.582
REMARK INTRA:                  -0.374
REMARK UNBOUND:                -0.424
REMARK SMILES O=c1c(O)c(-c2ccc(O)cc2O)oc2cc(O)cc(O)c12
REMARK SMILES IDX 5 1 3 2 2 3 1 4 22 5 20 6 19 7 17 8 16 9 15 10 14 11 6 12
REMARK SMILES IDX 8 13 7 14 9 15 11 16 12 17 10 18 13 20 4 22 21 24 18 26
REMARK H PARENT 10 19 13 21 4 23 21 25 18 27
REMARK Flexibility Score: inf
ROOT
ATOM      1  C   UNL     1    -106.740  48.057  53.695  1.00  0.00     0.184 A 
ATOM      2  C   UNL     1    -106.325  47.589  52.436  1.00  0.00     0.208 A 
ATOM      3  C   UNL     1    -105.880  46.263  52.316  1.00  0.00     0.238 A 
ATOM      4  O   UNL     1    -105.564  45.833  51.176  1.00  0.00    -0.285 OA
ATOM      5  C   UNL     1    -105.835  45.429  53.458  1.00  0.00     0.111 A 
ATOM      6  C   UNL     1    -105.363  44.081  53.461  1.00  0.00     0.134 A 
ATOM      7  C   UNL     1    -105.484  43.309  54.623  1.00  0.00     0.093 A 
ATOM      8  C   UNL     1    -105.998  43.857  55.801  1.00  0.00     0.123 A 
ATOM      9  C   UNL     1    -106.407  45.188  55.825  1.00  0.00     0.094 A 
ATOM     10  C   UNL     1    -106.332  45.972  54.671  1.00  0.00     0.146 A 
ATOM     11  O   UNL     1    -106.742  47.234  54.735  1.00  0.00    -0.451 OA
ENDROOT
BRANCH   1  12
ATOM     12  C   UNL     1    -107.198  49.451  53.897  1.00  0.00     0.063 A 
ATOM     13  C   UNL     1    -109.001  51.081  54.029  1.00  0.00     0.047 A 
ATOM     14  C   UNL     1    -108.570  49.762  53.867  1.00  0.00     0.020 A 
ATOM     15  C   UNL     1    -108.070  52.108  54.215  1.00  0.00     0.119 A 
ATOM     16  C   UNL     1    -106.704  51.812  54.232  1.00  0.00     0.093 A 
ATOM     17  C   UNL     1    -106.262  50.490  54.072  1.00  0.00     0.130 A 
BRANCH  15  18
ATOM     18  O   UNL     1    -108.489  53.428  54.378  1.00  0.00    -0.508 OA
ATOM     19  H   UNL     1    -108.693  54.020  53.581  1.00  0.00     0.293 HD
ENDBRANCH  15  18
BRANCH  17  20
ATOM     20  O   UNL     1    -104.895  50.208  54.099  1.00  0.00    -0.507 OA
ATOM     21  H   UNL     1    -104.429  49.764  53.316  1.00  0.00     0.293 HD
ENDBRANCH  17  20
ENDBRANCH   1  12
BRANCH   2  22
ATOM     22  O   UNL     1    -106.392  48.427  51.319  1.00  0.00    -0.502 OA
ATOM     23  H   UNL     1    -107.180  49.038  51.144  1.00  0.00     0.293 HD
ENDBRANCH   2  22
BRANCH   6  24
ATOM     24  O   UNL     1    -104.749  43.468  52.365  1.00  0.00    -0.507 OA
ATOM     25  H   UNL     1    -104.590  42.476  52.276  1.00  0.00     0.293 HD
ENDBRANCH   6  24
BRANCH   8  26
ATOM     26  O   UNL     1    -106.100  43.086  56.957  1.00  0.00    -0.508 OA
ATOM     27  H   UNL     1    -106.471  42.142  56.935  1.00  0.00     0.293 HD
ENDBRANCH   8  26
TORSDOF 6
ENDMDL
MODEL 3
REMARK VINA RESULT:    -5.062      1.671      3.239
REMARK INTER + INTRA:          -6.522
REMARK INTER:                  -6.055
REMARK INTRA:                  -0.467
REMARK UNBOUND:                -0.424
REMARK SMILES O=c1c(O)c(-c2ccc(O)cc2O)oc2cc(O)cc(O)c12
REMARK SMILES IDX 5 1 3 2 2 3 1 4 22 5 20 6 19 7 17 8 16 9 15 10 14 11 6 12
REMARK SMILES IDX 8 13 7 14 9 15 11 16 12 17 10 18 13 20 4 22 21 24 18 26
REMARK H PARENT 10 19 13 21 4 23 21 25 18 27
REMARK Flexibility Score: inf
ROOT
ATOM      1  C   UNL     1    -105.976  43.890  54.211  1.00  0.00     0.184 A 
ATOM      2  C   UNL     1    -105.078  43.770  55.286  1.00  0.00     0.208 A 
ATOM      3  C   UNL     1    -105.152  42.636  56.111  1.00  0.00     0.238 A 
ATOM      4  O   UNL     1    -104.309  42.507  57.036  1.00  0.00    -0.285 OA
ATOM      5  C   UNL     1    -106.133  41.647  55.862  1.00  0.00     0.111 A 
ATOM      6  C   UNL     1    -106.325  40.477  56.657  1.00  0.00     0.134 A 
ATOM      7  C   UNL     1    -107.242  39.503  56.244  1.00  0.00     0.093 A 
ATOM      8  C   UNL     1    -108.022  39.689  55.100  1.00  0.00     0.123 A 
ATOM      9  C   UNL     1    -107.885  40.854  54.350  1.00  0.00     0.094 A 
ATOM     10  C   UNL     1    -106.952  41.827  54.717  1.00  0.00     0.146 A 
ATOM     11  O   UNL     1    -106.846  42.918  53.968  1.00  0.00    -0.451 OA
ENDROOT
BRANCH   1  12
ATOM     12  C   UNL     1    -105.970  45.072  53.317  1.00  0.00     0.063 A 
ATOM     13  C   UNL     1    -106.677  47.348  52.825  1.00  0.00     0.047 A 
ATOM     14  C   UNL     1    -106.659  46.243  53.680  1.00  0.00     0.020 A 
ATOM     15  C   UNL     1    -106.017  47.295  51.592  1.00  0.00     0.119 A 
ATOM     16  C   UNL     1    -105.342  46.131  51.216  1.00  0.00     0.093 A 
ATOM     17  C   UNL     1    -105.316  45.017  52.070  1.00  0.00     0.130 A 
BRANCH  15  18
ATOM     18  O   UNL     1    -106.029  48.391  50.731  1.00  0.00    -0.508 OA
ATOM     19  H   UNL     1    -105.283  49.077  50.737  1.00  0.00     0.293 HD
ENDBRANCH  15  18
BRANCH  17  20
ATOM     20  O   UNL     1    -104.632  43.863  51.684  1.00  0.00    -0.507 OA
ATOM     21  H   UNL     1    -104.388  43.142  52.352  1.00  0.00     0.293 HD
ENDBRANCH  17  20
ENDBRANCH   1  12
BRANCH   2  22
ATOM     22  O   UNL     1    -104.108  44.753  55.503  1.00  0.00    -0.502 OA
ATOM     23  H   UNL     1    -104.218  45.706  55.178  1.00  0.00     0.293 HD
ENDBRANCH   2  22
BRANCH   6  24
ATOM     24  O   UNL     1    -105.663  40.238  57.865  1.00  0.00    -0.507 OA
ATOM     25  H   UNL     1    -104.773  39.771  57.951  1.00  0.00     0.293 HD
ENDBRANCH   6  24
BRANCH   8  26
ATOM     26  O   UNL     1    -108.945  38.722  54.704  1.00  0.00    -0.508 OA
ATOM     27  H   UNL     1    -108.650  37.854  54.271  1.00  0.00     0.293 HD
ENDBRANCH   8  26
TORSDOF 6
ENDMDL
MODEL 4
REMARK VINA RESULT:    -4.981      1.628      6.741
REMARK INTER + INTRA:          -6.424
REMARK INTER:                  -5.941
REMARK INTRA:                  -0.483
REMARK UNBOUND:                -0.424
REMARK SMILES O=c1c(O)c(-c2ccc(O)cc2O)oc2cc(O)cc(O)c12
REMARK SMILES IDX 5 1 3 2 2 3 1 4 22 5 20 6 19 7 17 8 16 9 15 10 14 11 6 12
REMARK SMILES IDX 8 13 7 14 9 15 11 16 12 17 10 18 13 20 4 22 21 24 18 26
REMARK H PARENT 10 19 13 21 4 23 21 25 18 27
REMARK Flexibility Score: inf
ROOT
ATOM      1  C   UNL     1    -105.720  44.590  54.564  1.00  0.00     0.184 A 
ATOM      2  C   UNL     1    -105.453  44.509  53.187  1.00  0.00     0.208 A 
ATOM      3  C   UNL     1    -105.713  45.625  52.376  1.00  0.00     0.238 A 
ATOM      4  O   UNL     1    -105.419  45.565  51.154  1.00  0.00    -0.285 OA
ATOM      5  C   UNL     1    -106.254  46.801  52.948  1.00  0.00     0.111 A 
ATOM      6  C   UNL     1    -106.595  47.978  52.216  1.00  0.00     0.134 A 
ATOM      7  C   UNL     1    -107.004  49.126  52.904  1.00  0.00     0.093 A 
ATOM      8  C   UNL     1    -107.148  49.120  54.293  1.00  0.00     0.123 A 
ATOM      9  C   UNL     1    -106.876  47.959  55.012  1.00  0.00     0.094 A 
ATOM     10  C   UNL     1    -106.430  46.808  54.357  1.00  0.00     0.146 A 
ATOM     11  O   UNL     1    -106.171  45.726  55.081  1.00  0.00    -0.451 OA
ENDROOT
BRANCH   1  12
ATOM     12  C   UNL     1    -105.492  43.443  55.473  1.00  0.00     0.063 A 
ATOM     13  C   UNL     1    -106.221  41.318  56.411  1.00  0.00     0.047 A 
ATOM     14  C   UNL     1    -106.421  42.387  55.534  1.00  0.00     0.020 A 
ATOM     15  C   UNL     1    -105.098  41.293  57.246  1.00  0.00     0.119 A 
ATOM     16  C   UNL     1    -104.178  42.343  57.202  1.00  0.00     0.093 A 
ATOM     17  C   UNL     1    -104.368  43.420  56.323  1.00  0.00     0.130 A 
BRANCH  15  18
ATOM     18  O   UNL     1    -104.889  40.231  58.125  1.00  0.00    -0.508 OA
ATOM     19  H   UNL     1    -104.303  39.444  57.873  1.00  0.00     0.293 HD
ENDBRANCH  15  18
BRANCH  17  20
ATOM     20  O   UNL     1    -103.437  44.458  56.286  1.00  0.00    -0.507 OA
ATOM     21  H   UNL     1    -103.171  44.902  55.415  1.00  0.00     0.293 HD
ENDBRANCH  17  20
ENDBRANCH   1  12
BRANCH   2  22
ATOM     22  O   UNL     1    -104.906  43.342  52.646  1.00  0.00    -0.502 OA
ATOM     23  H   UNL     1    -103.961  43.302  52.285  1.00  0.00     0.293 HD
ENDBRANCH   2  22
BRANCH   6  24
ATOM     24  O   UNL     1    -106.573  48.061  50.820  1.00  0.00    -0.507 OA
ATOM     25  H   UNL     1    -107.309  48.457  50.256  1.00  0.00     0.293 HD
ENDBRANCH   6  24
BRANCH   8  26
ATOM     26  O   UNL     1    -107.571  50.263  54.969  1.00  0.00    -0.508 OA
ATOM     27  H   UNL     1    -107.907  50.220  55.925  1.00  0.00     0.293 HD
ENDBRANCH   8  26
TORSDOF 6
ENDMDL
MODEL 5
REMARK VINA RESULT:    -4.931      2.647      6.296
REMARK INTER + INTRA:          -6.364
REMARK INTER:                  -5.896
REMARK INTRA:                  -0.468
REMARK UNBOUND:                -0.424
REMARK SMILES O=c1c(O)c(-c2ccc(O)cc2O)oc2cc(O)cc(O)c12
REMARK SMILES IDX 5 1 3 2 2 3 1 4 22 5 20 6 19 7 17 8 16 9 15 10 14 11 6 12
REMARK SMILES IDX 8 13 7 14 9 15 11 16 12 17 10 18 13 20 4 22 21 24 18 26
REMARK H PARENT 10 19 13 21 4 23 21 25 18 27
REMARK Flexibility Score: inf
ROOT
ATOM      1  C   UNL     1    -106.789  45.629  53.742  1.00  0.00     0.184 A 
ATOM      2  C   UNL     1    -106.578  46.315  52.534  1.00  0.00     0.208 A 
ATOM      3  C   UNL     1    -106.322  47.694  52.569  1.00  0.00     0.238 A 
ATOM      4  O   UNL     1    -106.078  48.291  51.488  1.00  0.00    -0.285 OA
ATOM      5  C   UNL     1    -106.300  48.375  53.809  1.00  0.00     0.111 A 
ATOM      6  C   UNL     1    -106.090  49.779  53.961  1.00  0.00     0.134 A 
ATOM      7  C   UNL     1    -105.961  50.324  55.244  1.00  0.00     0.093 A 
ATOM      8  C   UNL     1    -106.101  49.526  56.382  1.00  0.00     0.123 A 
ATOM      9  C   UNL     1    -106.365  48.166  56.247  1.00  0.00     0.094 A 
ATOM     10  C   UNL     1    -106.462  47.587  54.979  1.00  0.00     0.146 A 
ATOM     11  O   UNL     1    -106.703  46.284  54.894  1.00  0.00    -0.451 OA
ENDROOT
BRANCH   1  12
ATOM     12  C   UNL     1    -107.089  44.179  53.776  1.00  0.00     0.063 A 
ATOM     13  C   UNL     1    -108.692  42.352  53.643  1.00  0.00     0.047 A 
ATOM     14  C   UNL     1    -108.404  43.718  53.583  1.00  0.00     0.020 A 
ATOM     15  C   UNL     1    -107.673  41.429  53.905  1.00  0.00     0.119 A 
ATOM     16  C   UNL     1    -106.366  41.878  54.112  1.00  0.00     0.093 A 
ATOM     17  C   UNL     1    -106.067  43.247  54.052  1.00  0.00     0.130 A 
BRANCH  15  18
ATOM     18  O   UNL     1    -107.949  40.064  53.967  1.00  0.00    -0.508 OA
ATOM     19  H   UNL     1    -108.900  39.719  54.030  1.00  0.00     0.293 HD
ENDBRANCH  15  18
BRANCH  17  20
ATOM     20  O   UNL     1    -104.756  43.681  54.254  1.00  0.00    -0.507 OA
ATOM     21  H   UNL     1    -104.231  44.144  53.522  1.00  0.00     0.293 HD
ENDBRANCH  17  20
ENDBRANCH   1  12
BRANCH   2  22
ATOM     22  O   UNL     1    -106.591  45.618  51.321  1.00  0.00    -0.502 OA
ATOM     23  H   UNL     1    -106.413  46.070  50.433  1.00  0.00     0.293 HD
ENDBRANCH   2  22
BRANCH   6  24
ATOM     24  O   UNL     1    -106.028  50.678  52.893  1.00  0.00    -0.507 OA
ATOM     25  H   UNL     1    -106.614  50.638  52.073  1.00  0.00     0.293 HD
ENDBRANCH   6  24
BRANCH   8  26
ATOM     26  O   UNL     1    -105.987  50.079  57.657  1.00  0.00    -0.508 OA
ATOM     27  H   UNL     1    -106.805  50.296  58.216  1.00  0.00     0.293 HD
ENDBRANCH   8  26
TORSDOF 6
ENDMDL
MODEL 6
REMARK VINA RESULT:    -4.858      1.882      2.489
REMARK INTER + INTRA:          -6.275
REMARK INTER:                  -6.045
REMARK INTRA:                  -0.230
REMARK UNBOUND:                -0.424
REMARK SMILES O=c1c(O)c(-c2ccc(O)cc2O)oc2cc(O)cc(O)c12
REMARK SMILES IDX 5 1 3 2 2 3 1 4 22 5 20 6 19 7 17 8 16 9 15 10 14 11 6 12
REMARK SMILES IDX 8 13 7 14 9 15 11 16 12 17 10 18 13 20 4 22 21 24 18 26
REMARK H PARENT 10 19 13 21 4 23 21 25 18 27
REMARK Flexibility Score: inf
ROOT
ATOM      1  C   UNL     1    -107.020  44.429  54.049  1.00  0.00     0.184 A 
ATOM      2  C   UNL     1    -107.889  43.648  53.268  1.00  0.00     0.208 A 
ATOM      3  C   UNL     1    -108.058  42.291  53.586  1.00  0.00     0.238 A 
ATOM      4  O   UNL     1    -108.880  41.612  52.917  1.00  0.00    -0.285 OA
ATOM      5  C   UNL     1    -107.341  41.727  54.668  1.00  0.00     0.111 A 
ATOM      6  C   UNL     1    -107.404  40.354  55.055  1.00  0.00     0.134 A 
ATOM      7  C   UNL     1    -106.750  39.934  56.220  1.00  0.00     0.093 A 
ATOM      8  C   UNL     1    -105.983  40.824  56.975  1.00  0.00     0.123 A 
ATOM      9  C   UNL     1    -105.866  42.152  56.574  1.00  0.00     0.094 A 
ATOM     10  C   UNL     1    -106.537  42.609  55.436  1.00  0.00     0.146 A 
ATOM     11  O   UNL     1    -106.408  43.886  55.094  1.00  0.00    -0.451 OA
ENDROOT
BRANCH   1  12
ATOM     12  C   UNL     1    -106.777  45.860  53.755  1.00  0.00     0.063 A 
ATOM     13  C   UNL     1    -106.990  48.206  54.369  1.00  0.00     0.047 A 
ATOM     14  C   UNL     1    -107.193  46.854  54.659  1.00  0.00     0.020 A 
ATOM     15  C   UNL     1    -106.378  48.583  53.168  1.00  0.00     0.119 A 
ATOM     16  C   UNL     1    -105.974  47.603  52.258  1.00  0.00     0.093 A 
ATOM     17  C   UNL     1    -106.171  46.244  52.541  1.00  0.00     0.130 A 
BRANCH  15  18
ATOM     18  O   UNL     1    -106.170  49.928  52.868  1.00  0.00    -0.508 OA
ATOM     19  H   UNL     1    -106.392  50.659  53.535  1.00  0.00     0.293 HD
ENDBRANCH  15  18
BRANCH  17  20
ATOM     20  O   UNL     1    -105.757  45.276  51.625  1.00  0.00    -0.507 OA
ATOM     21  H   UNL     1    -104.806  45.247  51.278  1.00  0.00     0.293 HD
ENDBRANCH  17  20
ENDBRANCH   1  12
BRANCH   2  22
ATOM     22  O   UNL     1    -108.597  44.230  52.212  1.00  0.00    -0.502 OA
ATOM     23  H   UNL     1    -108.871  45.205  52.214  1.00  0.00     0.293 HD
ENDBRANCH   2  22
BRANCH   6  24
ATOM     24  O   UNL     1    -108.067  39.367  54.321  1.00  0.00    -0.507 OA
ATOM     25  H   UNL     1    -108.664  38.658  54.719  1.00  0.00     0.293 HD
ENDBRANCH   6  24
BRANCH   8  26
ATOM     26  O   UNL     1    -105.322  40.394  58.125  1.00  0.00    -0.508 OA
ATOM     27  H   UNL     1    -105.512  40.807  59.031  1.00  0.00     0.293 HD
ENDBRANCH   8  26
TORSDOF 6
ENDMDL
MODEL 7
REMARK VINA RESULT:    -4.834      2.342      6.692
REMARK INTER + INTRA:          -6.247
REMARK INTER:                  -5.767
REMARK INTRA:                  -0.480
REMARK UNBOUND:                -0.424
REMARK SMILES O=c1c(O)c(-c2ccc(O)cc2O)oc2cc(O)cc(O)c12
REMARK SMILES IDX 5 1 3 2 2 3 1 4 22 5 20 6 19 7 17 8 16 9 15 10 14 11 6 12
REMARK SMILES IDX 8 13 7 14 9 15 11 16 12 17 10 18 13 20 4 22 21 24 18 26
REMARK H PARENT 10 19 13 21 4 23 21 25 18 27
REMARK Flexibility Score: inf
ROOT
ATOM      1  C   UNL     1    -107.547  44.157  53.906  1.00  0.00     0.184 A 
ATOM      2  C   UNL     1    -108.839  44.688  53.749  1.00  0.00     0.208 A 
ATOM      3  C   UNL     1    -109.023  45.794  52.905  1.00  0.00     0.238 A 
ATOM      4  O   UNL     1    -110.190  46.228  52.724  1.00  0.00    -0.285 OA
ATOM      5  C   UNL     1    -107.911  46.368  52.244  1.00  0.00     0.111 A 
ATOM      6  C   UNL     1    -107.975  47.515  51.396  1.00  0.00     0.134 A 
ATOM      7  C   UNL     1    -106.833  47.919  50.693  1.00  0.00     0.093 A 
ATOM      8  C   UNL     1    -105.614  47.257  50.859  1.00  0.00     0.123 A 
ATOM      9  C   UNL     1    -105.527  46.174  51.728  1.00  0.00     0.094 A 
ATOM     10  C   UNL     1    -106.658  45.725  52.415  1.00  0.00     0.146 A 
ATOM     11  O   UNL     1    -106.534  44.681  53.227  1.00  0.00    -0.451 OA
ENDROOT
BRANCH   1  12
ATOM     12  C   UNL     1    -107.278  43.008  54.800  1.00  0.00     0.063 A 
ATOM     13  C   UNL     1    -106.870  42.119  57.029  1.00  0.00     0.047 A 
ATOM     14  C   UNL     1    -107.152  43.198  56.188  1.00  0.00     0.020 A 
ATOM     15  C   UNL     1    -106.700  40.837  56.495  1.00  0.00     0.119 A 
ATOM     16  C   UNL     1    -106.809  40.639  55.116  1.00  0.00     0.093 A 
ATOM     17  C   UNL     1    -107.095  41.717  54.264  1.00  0.00     0.130 A 
BRANCH  15  18
ATOM     18  O   UNL     1    -106.419  39.752  57.325  1.00  0.00    -0.508 OA
ATOM     19  H   UNL     1    -106.495  38.798  56.992  1.00  0.00     0.293 HD
ENDBRANCH  15  18
BRANCH  17  20
ATOM     20  O   UNL     1    -107.207  41.503  52.890  1.00  0.00    -0.507 OA
ATOM     21  H   UNL     1    -107.601  40.648  52.516  1.00  0.00     0.293 HD
ENDBRANCH  17  20
ENDBRANCH   1  12
BRANCH   2  22
ATOM     22  O   UNL     1    -109.924  44.095  54.401  1.00  0.00    -0.502 OA
ATOM     23  H   UNL     1    -109.808  43.381  55.110  1.00  0.00     0.293 HD
ENDBRANCH   2  22
BRANCH   6  24
ATOM     24  O   UNL     1    -109.119  48.301  51.232  1.00  0.00    -0.507 OA
ATOM     25  H   UNL     1    -109.737  48.579  51.979  1.00  0.00     0.293 HD
ENDBRANCH   6  24
BRANCH   8  26
ATOM     26  O   UNL     1    -104.479  47.676  50.168  1.00  0.00    -0.508 OA
ATOM     27  H   UNL     1    -104.144  48.632  50.227  1.00  0.00     0.293 HD
ENDBRANCH   8  26
TORSDOF 6
ENDMDL
MODEL 8
REMARK VINA RESULT:    -4.705      2.851      4.978
REMARK INTER + INTRA:          -6.092
REMARK INTER:                  -5.619
REMARK INTRA:                  -0.473
REMARK UNBOUND:                -0.424
REMARK SMILES O=c1c(O)c(-c2ccc(O)cc2O)oc2cc(O)cc(O)c12
REMARK SMILES IDX 5 1 3 2 2 3 1 4 22 5 20 6 19 7 17 8 16 9 15 10 14 11 6 12
REMARK SMILES IDX 8 13 7 14 9 15 11 16 12 17 10 18 13 20 4 22 21 24 18 26
REMARK H PARENT 10 19 13 21 4 23 21 25 18 27
REMARK Flexibility Score: inf
ROOT
ATOM      1  C   UNL     1    -107.509  44.480  53.232  1.00  0.00     0.184 A 
ATOM      2  C   UNL     1    -106.749  43.508  53.904  1.00  0.00     0.208 A 
ATOM      3  C   UNL     1    -107.211  42.183  53.934  1.00  0.00     0.238 A 
ATOM      4  O   UNL     1    -106.497  41.307  54.488  1.00  0.00    -0.285 OA
ATOM      5  C   UNL     1    -108.436  41.850  53.309  1.00  0.00     0.111 A 
ATOM      6  C   UNL     1    -109.020  40.547  53.310  1.00  0.00     0.134 A 
ATOM      7  C   UNL     1    -110.171  40.305  52.551  1.00  0.00     0.093 A 
ATOM      8  C   UNL     1    -110.797  41.335  51.844  1.00  0.00     0.123 A 
ATOM      9  C   UNL     1    -110.269  42.622  51.883  1.00  0.00     0.094 A 
ATOM     10  C   UNL     1    -109.100  42.886  52.602  1.00  0.00     0.146 A 
ATOM     11  O   UNL     1    -108.624  44.126  52.604  1.00  0.00    -0.451 OA
ENDROOT
BRANCH   1  12
ATOM     12  C   UNL     1    -107.093  45.901  53.182  1.00  0.00     0.063 A 
ATOM     13  C   UNL     1    -107.012  48.112  54.197  1.00  0.00     0.047 A 
ATOM     14  C   UNL     1    -107.380  46.765  54.255  1.00  0.00     0.020 A 
ATOM     15  C   UNL     1    -106.363  48.617  53.065  1.00  0.00     0.119 A 
ATOM     16  C   UNL     1    -106.086  47.770  51.989  1.00  0.00     0.093 A 
ATOM     17  C   UNL     1    -106.449  46.415  52.039  1.00  0.00     0.130 A 
BRANCH  15  18
ATOM     18  O   UNL     1    -105.992  49.959  52.997  1.00  0.00    -0.508 OA
ATOM     19  H   UNL     1    -105.797  50.496  53.834  1.00  0.00     0.293 HD
ENDBRANCH  15  18
BRANCH  17  20
ATOM     20  O   UNL     1    -106.160  45.579  50.959  1.00  0.00    -0.507 OA
ATOM     21  H   UNL     1    -105.404  44.906  50.996  1.00  0.00     0.293 HD
ENDBRANCH  17  20
ENDBRANCH   1  12
BRANCH   2  22
ATOM     22  O   UNL     1    -105.534  43.858  54.502  1.00  0.00    -0.502 OA
ATOM     23  H   UNL     1    -104.668  43.915  53.981  1.00  0.00     0.293 HD
ENDBRANCH   2  22
BRANCH   6  24
ATOM     24  O   UNL     1    -108.527  39.473  54.056  1.00  0.00    -0.507 OA
ATOM     25  H   UNL     1    -108.709  38.502  53.855  1.00  0.00     0.293 HD
ENDBRANCH   6  24
BRANCH   8  26
ATOM     26  O   UNL     1    -111.952  41.089  51.104  1.00  0.00    -0.508 OA
ATOM     27  H   UNL     1    -112.868  41.354  51.447  1.00  0.00     0.293 HD
ENDBRANCH   8  26
TORSDOF 6
ENDMDL
MODEL 9
REMARK VINA RESULT:    -4.667      4.192      6.706
REMARK INTER + INTRA:          -6.046
REMARK INTER:                  -5.642
REMARK INTRA:                  -0.403
REMARK UNBOUND:                -0.424
REMARK SMILES O=c1c(O)c(-c2ccc(O)cc2O)oc2cc(O)cc(O)c12
REMARK SMILES IDX 5 1 3 2 2 3 1 4 22 5 20 6 19 7 17 8 16 9 15 10 14 11 6 12
REMARK SMILES IDX 8 13 7 14 9 15 11 16 12 17 10 18 13 20 4 22 21 24 18 26
REMARK H PARENT 10 19 13 21 4 23 21 25 18 27
REMARK Flexibility Score: inf
ROOT
ATOM      1  C   UNL     1    -106.883  48.633  53.607  1.00  0.00     0.184 A 
ATOM      2  C   UNL     1    -108.250  48.961  53.596  1.00  0.00     0.208 A 
ATOM      3  C   UNL     1    -108.740  49.871  54.546  1.00  0.00     0.238 A 
ATOM      4  O   UNL     1    -109.952  50.204  54.494  1.00  0.00    -0.285 OA
ATOM      5  C   UNL     1    -107.862  50.426  55.507  1.00  0.00     0.111 A 
ATOM      6  C   UNL     1    -108.257  51.327  56.541  1.00  0.00     0.134 A 
ATOM      7  C   UNL     1    -107.281  51.912  57.358  1.00  0.00     0.093 A 
ATOM      8  C   UNL     1    -105.932  51.578  57.219  1.00  0.00     0.123 A 
ATOM      9  C   UNL     1    -105.542  50.655  56.252  1.00  0.00     0.094 A 
ATOM     10  C   UNL     1    -106.489  50.082  55.399  1.00  0.00     0.146 A 
ATOM     11  O   UNL     1    -106.074  49.215  54.483  1.00  0.00    -0.451 OA
ENDROOT
BRANCH   1  12
ATOM     12  C   UNL     1    -106.305  47.662  52.649  1.00  0.00     0.063 A 
ATOM     13  C   UNL     1    -105.287  47.177  50.492  1.00  0.00     0.047 A 
ATOM     14  C   UNL     1    -105.807  48.096  51.407  1.00  0.00     0.020 A 
ATOM     15  C   UNL     1    -105.267  45.812  50.799  1.00  0.00     0.119 A 
ATOM     16  C   UNL     1    -105.772  45.370  52.024  1.00  0.00     0.093 A 
ATOM     17  C   UNL     1    -106.294  46.285  52.951  1.00  0.00     0.130 A 
BRANCH  15  18
ATOM     18  O   UNL     1    -104.750  44.887  49.893  1.00  0.00    -0.508 OA
ATOM     19  H   UNL     1    -103.796  44.554  49.964  1.00  0.00     0.293 HD
ENDBRANCH  15  18
BRANCH  17  20
ATOM     20  O   UNL     1    -106.789  45.829  54.173  1.00  0.00    -0.507 OA
ATOM     21  H   UNL     1    -106.197  45.759  54.993  1.00  0.00     0.293 HD
ENDBRANCH  17  20
ENDBRANCH   1  12
BRANCH   2  22
ATOM     22  O   UNL     1    -109.095  48.411  52.627  1.00  0.00    -0.502 OA
ATOM     23  H   UNL     1    -109.746  47.663  52.835  1.00  0.00     0.293 HD
ENDBRANCH   2  22
BRANCH   6  24
ATOM     24  O   UNL     1    -109.585  51.657  56.823  1.00  0.00    -0.507 OA
ATOM     25  H   UNL     1    -110.389  51.232  56.386  1.00  0.00     0.293 HD
ENDBRANCH   6  24
BRANCH   8  26
ATOM     26  O   UNL     1    -104.969  52.153  58.046  1.00  0.00    -0.508 OA
ATOM     27  H   UNL     1    -103.979  51.989  57.902  1.00  0.00     0.293 HD
ENDBRANCH   8  26
TORSDOF 6
ENDMDL
