MODEL 1
REMARK VINA RESULT:    -3.140      0.000      0.000
REMARK INTER + INTRA:          -8.240
REMARK INTER:                  -5.710
REMARK INTRA:                  -2.530
REMARK UNBOUND:                -2.530
REMARK SMILES CCCCCCCCCCCCCCCCC
REMARK SMILES IDX 9 1 8 2 7 3 6 4 5 5 4 6 3 7 2 8 1 9 10 10 11 11 12 12 13 13
REMARK SMILES IDX 14 14 15 15 16 16 17 17
REMARK H PARENT
REMARK Flexibility Score: inf
ROOT
ATOM      1  C   UNL     1      43.646  20.512  -2.196  1.00  0.00    -0.000 C 
ENDROOT
BRANCH   1   2
ATOM      2  C   UNL     1      42.803  21.298  -3.211  1.00  0.00    -0.000 C 
BRANCH   2   3
ATOM      3  C   UNL     1      42.899  20.721  -4.632  1.00  0.00    -0.000 C 
BRANCH   3   4
ATOM      4  C   UNL     1      43.954  19.609  -4.748  1.00  0.00    -0.000 C 
BRANCH   4   5
ATOM      5  C   UNL     1      43.462  18.402  -5.564  1.00  0.00    -0.000 C 
BRANCH   5   6
ATOM      6  C   UNL     1      44.542  17.317  -5.772  1.00  0.00    -0.000 C 
BRANCH   6   7
ATOM      7  C   UNL     1      45.896  17.723  -5.164  1.00  0.00    -0.000 C 
BRANCH   7   8
ATOM      8  C   UNL     1      46.514  16.611  -4.302  1.00  0.00    -0.003 C 
ATOM      9  C   UNL     1      47.996  16.385  -4.602  1.00  0.00     0.004 C 
ENDBRANCH   7   8
ENDBRANCH   6   7
ENDBRANCH   5   6
ENDBRANCH   4   5
ENDBRANCH   3   4
ENDBRANCH   2   3
ENDBRANCH   1   2
BRANCH   1  10
ATOM     10  C   UNL     1      43.089  20.673  -0.776  1.00  0.00    -0.000 C 
BRANCH  10  11
ATOM     11  C   UNL     1      41.572  20.914  -0.804  1.00  0.00    -0.000 C 
BRANCH  11  12
ATOM     12  C   UNL     1      40.764  19.626  -0.585  1.00  0.00    -0.000 C 
BRANCH  12  13
ATOM     13  C   UNL     1      40.015  19.173  -1.847  1.00  0.00    -0.000 C 
BRANCH  13  14
ATOM     14  C   UNL     1      40.872  18.207  -2.677  1.00  0.00    -0.000 C 
BRANCH  14  15
ATOM     15  C   UNL     1      41.652  17.201  -1.811  1.00  0.00    -0.000 C 
BRANCH  15  16
ATOM     16  C   UNL     1      43.105  16.956  -2.256  1.00  0.00    -0.003 C 
ATOM     17  C   UNL     1      43.358  15.517  -2.705  1.00  0.00     0.004 C 
ENDBRANCH  15  16
ENDBRANCH  14  15
ENDBRANCH  13  14
ENDBRANCH  12  13
ENDBRANCH  11  12
ENDBRANCH  10  11
ENDBRANCH   1  10
TORSDOF 14
ENDMDL
MODEL 2
REMARK VINA RESULT:    -3.089      1.428      4.637
REMARK INTER + INTRA:          -8.148
REMARK INTER:                  -5.830
REMARK INTRA:                  -2.318
REMARK UNBOUND:                -2.530
REMARK SMILES CCCCCCCCCCCCCCCCC
REMARK SMILES IDX 9 1 8 2 7 3 6 4 5 5 4 6 3 7 2 8 1 9 10 10 11 11 12 12 13 13
REMARK SMILES IDX 14 14 15 15 16 16 17 17
REMARK H PARENT
REMARK Flexibility Score: inf
ROOT
ATOM      1  C   UNL     1      45.520  18.850  -6.124  1.00  0.00    -0.000 C 
ENDROOT
BRANCH   1   2
ATOM      2  C   UNL     1      45.437  17.346  -5.822  1.00  0.00    -0.000 C 
BRANCH   2   3
ATOM      3  C   UNL     1      46.336  16.929  -4.647  1.00  0.00    -0.000 C 
BRANCH   3   4
ATOM      4  C   UNL     1      45.535  16.365  -3.462  1.00  0.00    -0.000 C 
BRANCH   4   5
ATOM      5  C   UNL     1      44.252  17.163  -3.174  1.00  0.00    -0.000 C 
BRANCH   5   6
ATOM      6  C   UNL     1      43.207  16.373  -2.356  1.00  0.00    -0.000 C 
BRANCH   6   7
ATOM      7  C   UNL     1      41.797  16.476  -2.963  1.00  0.00    -0.000 C 
BRANCH   7   8
ATOM      8  C   UNL     1      41.797  16.294  -4.489  1.00  0.00    -0.003 C 
ATOM      9  C   UNL     1      41.236  17.509  -5.229  1.00  0.00     0.004 C 
ENDBRANCH   7   8
ENDBRANCH   6   7
ENDBRANCH   5   6
ENDBRANCH   4   5
ENDBRANCH   3   4
ENDBRANCH   2   3
ENDBRANCH   1   2
BRANCH   1  10
ATOM     10  C   UNL     1      44.132  19.500  -6.060  1.00  0.00    -0.000 C 
BRANCH  10  11
ATOM     11  C   UNL     1      44.187  20.842  -5.315  1.00  0.00    -0.000 C 
BRANCH  11  12
ATOM     12  C   UNL     1      43.622  20.752  -3.889  1.00  0.00    -0.000 C 
BRANCH  12  13
ATOM     13  C   UNL     1      42.125  21.090  -3.821  1.00  0.00    -0.000 C 
BRANCH  13  14
ATOM     14  C   UNL     1      41.412  20.213  -2.782  1.00  0.00    -0.000 C 
BRANCH  14  15
ATOM     15  C   UNL     1      42.302  19.866  -1.576  1.00  0.00    -0.000 C 
BRANCH  15  16
ATOM     16  C   UNL     1      41.581  19.873  -0.217  1.00  0.00    -0.003 C 
ATOM     17  C   UNL     1      40.241  20.607  -0.254  1.00  0.00     0.004 C 
ENDBRANCH  15  16
ENDBRANCH  14  15
ENDBRANCH  13  14
ENDBRANCH  12  13
ENDBRANCH  11  12
ENDBRANCH  10  11
ENDBRANCH   1  10
TORSDOF 14
ENDMDL
MODEL 3
REMARK VINA RESULT:    -3.071      1.642      5.269
REMARK INTER + INTRA:          -8.114
REMARK INTER:                  -5.757
REMARK INTRA:                  -2.357
REMARK UNBOUND:                -2.530
REMARK SMILES CCCCCCCCCCCCCCCCC
REMARK SMILES IDX 9 1 8 2 7 3 6 4 5 5 4 6 3 7 2 8 1 9 10 10 11 11 12 12 13 13
REMARK SMILES IDX 14 14 15 15 16 16 17 17
REMARK H PARENT
REMARK Flexibility Score: inf
ROOT
ATOM      1  C   UNL     1      40.624  17.263  -2.411  1.00  0.00    -0.000 C 
ENDROOT
BRANCH   1   2
ATOM      2  C   UNL     1      41.043  17.861  -3.763  1.00  0.00    -0.000 C 
BRANCH   2   3
ATOM      3  C   UNL     1      40.479  19.273  -3.984  1.00  0.00    -0.000 C 
BRANCH   3   4
ATOM      4  C   UNL     1      41.581  20.320  -4.214  1.00  0.00    -0.000 C 
BRANCH   4   5
ATOM      5  C   UNL     1      42.941  19.892  -3.638  1.00  0.00    -0.000 C 
BRANCH   5   6
ATOM      6  C   UNL     1      43.361  20.696  -2.388  1.00  0.00    -0.000 C 
BRANCH   6   7
ATOM      7  C   UNL     1      42.685  20.172  -1.108  1.00  0.00    -0.000 C 
BRANCH   7   8
ATOM      8  C   UNL     1      41.558  21.094  -0.616  1.00  0.00    -0.003 C 
ATOM      9  C   UNL     1      40.262  20.339  -0.321  1.00  0.00     0.004 C 
ENDBRANCH   7   8
ENDBRANCH   6   7
ENDBRANCH   5   6
ENDBRANCH   4   5
ENDBRANCH   3   4
ENDBRANCH   2   3
ENDBRANCH   1   2
BRANCH   1  10
ATOM     10  C   UNL     1      41.835  16.685  -1.668  1.00  0.00    -0.000 C 
BRANCH  10  11
ATOM     11  C   UNL     1      42.796  15.986  -2.640  1.00  0.00    -0.000 C 
BRANCH  11  12
ATOM     12  C   UNL     1      44.237  16.505  -2.525  1.00  0.00    -0.000 C 
BRANCH  12  13
ATOM     13  C   UNL     1      44.995  16.453  -3.860  1.00  0.00    -0.000 C 
BRANCH  13  14
ATOM     14  C   UNL     1      46.273  15.612  -3.732  1.00  0.00    -0.000 C 
BRANCH  14  15
ATOM     15  C   UNL     1      46.212  14.597  -2.577  1.00  0.00    -0.000 C 
BRANCH  15  16
ATOM     16  C   UNL     1      45.991  13.137  -3.011  1.00  0.00    -0.003 C 
ATOM     17  C   UNL     1      44.527  12.814  -3.305  1.00  0.00     0.004 C 
ENDBRANCH  15  16
ENDBRANCH  14  15
ENDBRANCH  13  14
ENDBRANCH  12  13
ENDBRANCH  11  12
ENDBRANCH  10  11
ENDBRANCH   1  10
TORSDOF 14
ENDMDL
MODEL 4
REMARK VINA RESULT:    -3.044      2.169      5.493
REMARK INTER + INTRA:          -8.066
REMARK INTER:                  -6.687
REMARK INTRA:                  -1.379
REMARK UNBOUND:                -2.530
REMARK SMILES CCCCCCCCCCCCCCCCC
REMARK SMILES IDX 9 1 8 2 7 3 6 4 5 5 4 6 3 7 2 8 1 9 10 10 11 11 12 12 13 13
REMARK SMILES IDX 14 14 15 15 16 16 17 17
REMARK H PARENT
REMARK Flexibility Score: inf
ROOT
ATOM      1  C   UNL     1      46.928  16.623  -4.190  1.00  0.00    -0.000 C 
ENDROOT
BRANCH   1   2
ATOM      2  C   UNL     1      47.546  17.364  -5.385  1.00  0.00    -0.000 C 
BRANCH   2   3
ATOM      3  C   UNL     1      49.044  17.068  -5.553  1.00  0.00    -0.000 C 
BRANCH   3   4
ATOM      4  C   UNL     1      49.601  16.179  -4.429  1.00  0.00    -0.000 C 
BRANCH   4   5
ATOM      5  C   UNL     1      50.794  15.319  -4.882  1.00  0.00    -0.000 C 
BRANCH   5   6
ATOM      6  C   UNL     1      50.647  13.825  -4.525  1.00  0.00    -0.000 C 
BRANCH   6   7
ATOM      7  C   UNL     1      49.173  13.398  -4.411  1.00  0.00    -0.000 C 
BRANCH   7   8
ATOM      8  C   UNL     1      48.831  12.816  -3.030  1.00  0.00    -0.003 C 
ATOM      9  C   UNL     1      47.494  13.323  -2.489  1.00  0.00     0.004 C 
ENDBRANCH   7   8
ENDBRANCH   6   7
ENDBRANCH   5   6
ENDBRANCH   4   5
ENDBRANCH   3   4
ENDBRANCH   2   3
ENDBRANCH   1   2
BRANCH   1  10
ATOM     10  C   UNL     1      45.397  16.603  -4.287  1.00  0.00    -0.000 C 
BRANCH  10  11
ATOM     11  C   UNL     1      44.757  16.601  -2.892  1.00  0.00    -0.000 C 
BRANCH  11  12
ATOM     12  C   UNL     1      43.547  17.544  -2.794  1.00  0.00    -0.000 C 
BRANCH  12  13
ATOM     13  C   UNL     1      43.684  18.780  -3.696  1.00  0.00    -0.000 C 
BRANCH  13  14
ATOM     14  C   UNL     1      42.856  19.952  -3.149  1.00  0.00    -0.000 C 
BRANCH  14  15
ATOM     15  C   UNL     1      43.399  20.502  -1.819  1.00  0.00    -0.000 C 
BRANCH  15  16
ATOM     16  C   UNL     1      42.342  20.683  -0.715  1.00  0.00    -0.003 C 
ATOM     17  C   UNL     1      41.237  19.630  -0.765  1.00  0.00     0.004 C 
ENDBRANCH  15  16
ENDBRANCH  14  15
ENDBRANCH  13  14
ENDBRANCH  12  13
ENDBRANCH  11  12
ENDBRANCH  10  11
ENDBRANCH   1  10
TORSDOF 14
ENDMDL
MODEL 5
REMARK VINA RESULT:    -3.003      1.848      5.645
REMARK INTER + INTRA:          -7.991
REMARK INTER:                  -6.316
REMARK INTRA:                  -1.675
REMARK UNBOUND:                -2.530
REMARK SMILES CCCCCCCCCCCCCCCCC
REMARK SMILES IDX 9 1 8 2 7 3 6 4 5 5 4 6 3 7 2 8 1 9 10 10 11 11 12 12 13 13
REMARK SMILES IDX 14 14 15 15 16 16 17 17
REMARK H PARENT
REMARK Flexibility Score: inf
ROOT
ATOM      1  C   UNL     1      45.488  18.077  -5.356  1.00  0.00    -0.000 C 
ENDROOT
BRANCH   1   2
ATOM      2  C   UNL     1      44.080  18.614  -5.059  1.00  0.00    -0.000 C 
BRANCH   2   3
ATOM      3  C   UNL     1      44.037  20.147  -4.974  1.00  0.00    -0.000 C 
BRANCH   3   4
ATOM      4  C   UNL     1      43.632  20.651  -3.579  1.00  0.00    -0.000 C 
BRANCH   4   5
ATOM      5  C   UNL     1      42.148  21.045  -3.494  1.00  0.00    -0.000 C 
BRANCH   5   6
ATOM      6  C   UNL     1      41.240  19.912  -2.968  1.00  0.00    -0.000 C 
BRANCH   6   7
ATOM      7  C   UNL     1      41.936  19.064  -1.889  1.00  0.00    -0.000 C 
BRANCH   7   8
ATOM      8  C   UNL     1      41.696  19.600  -0.469  1.00  0.00    -0.003 C 
ATOM      9  C   UNL     1      40.409  20.418  -0.356  1.00  0.00     0.004 C 
ENDBRANCH   7   8
ENDBRANCH   6   7
ENDBRANCH   5   6
ENDBRANCH   4   5
ENDBRANCH   3   4
ENDBRANCH   2   3
ENDBRANCH   1   2
BRANCH   1  10
ATOM     10  C   UNL     1      45.800  16.848  -4.494  1.00  0.00    -0.000 C 
BRANCH  10  11
ATOM     11  C   UNL     1      45.016  16.887  -3.174  1.00  0.00    -0.000 C 
BRANCH  11  12
ATOM     12  C   UNL     1      44.280  15.570  -2.882  1.00  0.00    -0.000 C 
BRANCH  12  13
ATOM     13  C   UNL     1      44.799  14.400  -3.732  1.00  0.00    -0.000 C 
BRANCH  13  14
ATOM     14  C   UNL     1      45.227  13.224  -2.842  1.00  0.00    -0.000 C 
BRANCH  14  15
ATOM     15  C   UNL     1      46.734  12.923  -2.928  1.00  0.00    -0.000 C 
BRANCH  15  16
ATOM     16  C   UNL     1      47.650  14.126  -2.640  1.00  0.00    -0.003 C 
ATOM     17  C   UNL     1      48.589  14.455  -3.800  1.00  0.00     0.004 C 
ENDBRANCH  15  16
ENDBRANCH  14  15
ENDBRANCH  13  14
ENDBRANCH  12  13
ENDBRANCH  11  12
ENDBRANCH  10  11
ENDBRANCH   1  10
TORSDOF 14
ENDMDL
MODEL 6
REMARK VINA RESULT:    -2.997      2.244      7.098
REMARK INTER + INTRA:          -7.980
REMARK INTER:                  -6.640
REMARK INTRA:                  -1.339
REMARK UNBOUND:                -2.530
REMARK SMILES CCCCCCCCCCCCCCCCC
REMARK SMILES IDX 9 1 8 2 7 3 6 4 5 5 4 6 3 7 2 8 1 9 10 10 11 11 12 12 13 13
REMARK SMILES IDX 14 14 15 15 16 16 17 17
REMARK H PARENT
REMARK Flexibility Score: inf
ROOT
ATOM      1  C   UNL     1      46.486  17.237  -5.077  1.00  0.00    -0.000 C 
ENDROOT
BRANCH   1   2
ATOM      2  C   UNL     1      46.099  16.383  -3.860  1.00  0.00    -0.000 C 
BRANCH   2   3
ATOM      3  C   UNL     1      44.826  16.889  -3.164  1.00  0.00    -0.000 C 
BRANCH   3   4
ATOM      4  C   UNL     1      43.945  17.744  -4.090  1.00  0.00    -0.000 C 
BRANCH   4   5
ATOM      5  C   UNL     1      42.978  18.658  -3.318  1.00  0.00    -0.000 C 
BRANCH   5   6
ATOM      6  C   UNL     1      43.474  20.115  -3.195  1.00  0.00    -0.000 C 
BRANCH   6   7
ATOM      7  C   UNL     1      42.513  20.987  -2.368  1.00  0.00    -0.000 C 
BRANCH   7   8
ATOM      8  C   UNL     1      42.385  20.509  -0.913  1.00  0.00    -0.003 C 
ATOM      9  C   UNL     1      40.941  20.520  -0.412  1.00  0.00     0.004 C 
ENDBRANCH   7   8
ENDBRANCH   6   7
ENDBRANCH   5   6
ENDBRANCH   4   5
ENDBRANCH   3   4
ENDBRANCH   2   3
ENDBRANCH   1   2
BRANCH   1  10
ATOM     10  C   UNL     1      47.999  17.191  -5.322  1.00  0.00    -0.000 C 
BRANCH  10  11
ATOM     11  C   UNL     1      48.700  16.317  -4.272  1.00  0.00    -0.000 C 
BRANCH  11  12
ATOM     12  C   UNL     1      49.987  15.667  -4.806  1.00  0.00    -0.000 C 
BRANCH  12  13
ATOM     13  C   UNL     1      50.110  14.187  -4.416  1.00  0.00    -0.000 C 
BRANCH  13  14
ATOM     14  C   UNL     1      48.731  13.583  -4.114  1.00  0.00    -0.000 C 
BRANCH  14  15
ATOM     15  C   UNL     1      48.632  12.989  -2.698  1.00  0.00    -0.000 C 
BRANCH  15  16
ATOM     16  C   UNL     1      47.352  13.360  -1.929  1.00  0.00    -0.003 C 
ATOM     17  C   UNL     1      46.076  12.908  -2.637  1.00  0.00     0.004 C 
ENDBRANCH  15  16
ENDBRANCH  14  15
ENDBRANCH  13  14
ENDBRANCH  12  13
ENDBRANCH  11  12
ENDBRANCH  10  11
ENDBRANCH   1  10
TORSDOF 14
ENDMDL
MODEL 7
REMARK VINA RESULT:    -2.995      1.205      3.534
REMARK INTER + INTRA:          -7.977
REMARK INTER:                  -5.762
REMARK INTRA:                  -2.215
REMARK UNBOUND:                -2.530
REMARK SMILES CCCCCCCCCCCCCCCCC
REMARK SMILES IDX 9 1 8 2 7 3 6 4 5 5 4 6 3 7 2 8 1 9 10 10 11 11 12 12 13 13
REMARK SMILES IDX 14 14 15 15 16 16 17 17
REMARK H PARENT
REMARK Flexibility Score: inf
ROOT
ATOM      1  C   UNL     1      44.357  20.135  -5.485  1.00  0.00    -0.000 C 
ENDROOT
BRANCH   1   2
ATOM      2  C   UNL     1      44.289  18.620  -5.243  1.00  0.00    -0.000 C 
BRANCH   2   3
ATOM      3  C   UNL     1      45.664  17.942  -5.351  1.00  0.00    -0.000 C 
BRANCH   3   4
ATOM      4  C   UNL     1      45.937  16.969  -4.192  1.00  0.00    -0.000 C 
BRANCH   4   5
ATOM      5  C   UNL     1      44.816  16.965  -3.139  1.00  0.00    -0.000 C 
BRANCH   5   6
ATOM      6  C   UNL     1      44.406  15.548  -2.681  1.00  0.00    -0.000 C 
BRANCH   6   7
ATOM      7  C   UNL     1      42.949  15.218  -3.051  1.00  0.00    -0.000 C 
BRANCH   7   8
ATOM      8  C   UNL     1      42.746  15.060  -4.566  1.00  0.00    -0.003 C 
ATOM      9  C   UNL     1      43.738  14.083  -5.198  1.00  0.00     0.004 C 
ENDBRANCH   7   8
ENDBRANCH   6   7
ENDBRANCH   5   6
ENDBRANCH   4   5
ENDBRANCH   3   4
ENDBRANCH   2   3
ENDBRANCH   1   2
BRANCH   1  10
ATOM     10  C   UNL     1      43.329  20.876  -4.621  1.00  0.00    -0.000 C 
BRANCH  10  11
ATOM     11  C   UNL     1      43.589  20.634  -3.127  1.00  0.00    -0.000 C 
BRANCH  11  12
ATOM     12  C   UNL     1      42.465  21.181  -2.233  1.00  0.00    -0.000 C 
BRANCH  12  13
ATOM     13  C   UNL     1      42.419  20.503  -0.856  1.00  0.00    -0.000 C 
BRANCH  13  14
ATOM     14  C   UNL     1      41.006  19.988  -0.545  1.00  0.00    -0.000 C 
BRANCH  14  15
ATOM     15  C   UNL     1      40.254  19.506  -1.798  1.00  0.00    -0.000 C 
BRANCH  15  16
ATOM     16  C   UNL     1      40.745  18.165  -2.372  1.00  0.00    -0.003 C 
ATOM     17  C   UNL     1      40.817  18.156  -3.898  1.00  0.00     0.004 C 
ENDBRANCH  15  16
ENDBRANCH  14  15
ENDBRANCH  13  14
ENDBRANCH  12  13
ENDBRANCH  11  12
ENDBRANCH  10  11
ENDBRANCH   1  10
TORSDOF 14
ENDMDL
MODEL 8
REMARK VINA RESULT:    -2.993      2.555      6.642
REMARK INTER + INTRA:          -7.973
REMARK INTER:                  -6.460
REMARK INTRA:                  -1.514
REMARK UNBOUND:                -2.530
REMARK SMILES CCCCCCCCCCCCCCCCC
REMARK SMILES IDX 9 1 8 2 7 3 6 4 5 5 4 6 3 7 2 8 1 9 10 10 11 11 12 12 13 13
REMARK SMILES IDX 14 14 15 15 16 16 17 17
REMARK H PARENT
REMARK Flexibility Score: inf
ROOT
ATOM      1  C   UNL     1      49.159  17.158  -5.736  1.00  0.00    -0.000 C 
ENDROOT
BRANCH   1   2
ATOM      2  C   UNL     1      49.539  16.170  -4.624  1.00  0.00    -0.000 C 
BRANCH   2   3
ATOM      3  C   UNL     1      50.877  15.462  -4.893  1.00  0.00    -0.000 C 
BRANCH   3   4
ATOM      4  C   UNL     1      50.802  13.945  -4.657  1.00  0.00    -0.000 C 
BRANCH   4   5
ATOM      5  C   UNL     1      49.371  13.454  -4.378  1.00  0.00    -0.000 C 
BRANCH   5   6
ATOM      6  C   UNL     1      49.310  12.260  -3.400  1.00  0.00    -0.000 C 
BRANCH   6   7
ATOM      7  C   UNL     1      48.324  12.507  -2.245  1.00  0.00    -0.000 C 
BRANCH   7   8
ATOM      8  C   UNL     1      47.552  13.826  -2.398  1.00  0.00    -0.003 C 
ATOM      9  C   UNL     1      46.075  13.612  -2.730  1.00  0.00     0.004 C 
ENDBRANCH   7   8
ENDBRANCH   6   7
ENDBRANCH   5   6
ENDBRANCH   4   5
ENDBRANCH   3   4
ENDBRANCH   2   3
ENDBRANCH   1   2
BRANCH   1  10
ATOM     10  C   UNL     1      47.642  17.374  -5.785  1.00  0.00    -0.000 C 
BRANCH  10  11
ATOM     11  C   UNL     1      46.964  16.800  -4.532  1.00  0.00    -0.000 C 
BRANCH  11  12
ATOM     12  C   UNL     1      45.488  17.213  -4.416  1.00  0.00    -0.000 C 
BRANCH  12  13
ATOM     13  C   UNL     1      45.085  18.273  -5.452  1.00  0.00    -0.000 C 
BRANCH  13  14
ATOM     14  C   UNL     1      43.771  18.959  -5.052  1.00  0.00    -0.000 C 
BRANCH  14  15
ATOM     15  C   UNL     1      43.969  20.415  -4.594  1.00  0.00    -0.000 C 
BRANCH  15  16
ATOM     16  C   UNL     1      43.432  20.728  -3.186  1.00  0.00    -0.003 C 
ATOM     17  C   UNL     1      43.056  19.475  -2.397  1.00  0.00     0.004 C 
ENDBRANCH  15  16
ENDBRANCH  14  15
ENDBRANCH  13  14
ENDBRANCH  12  13
ENDBRANCH  11  12
ENDBRANCH  10  11
ENDBRANCH   1  10
TORSDOF 14
ENDMDL
MODEL 9
REMARK VINA RESULT:    -2.990      0.702      4.601
REMARK INTER + INTRA:          -7.966
REMARK INTER:                  -5.848
REMARK INTRA:                  -2.118
REMARK UNBOUND:                -2.530
REMARK SMILES CCCCCCCCCCCCCCCCC
REMARK SMILES IDX 9 1 8 2 7 3 6 4 5 5 4 6 3 7 2 8 1 9 10 10 11 11 12 12 13 13
REMARK SMILES IDX 14 14 15 15 16 16 17 17
REMARK H PARENT
REMARK Flexibility Score: inf
ROOT
ATOM      1  C   UNL     1      43.618  20.522  -1.770  1.00  0.00    -0.000 C 
ENDROOT
BRANCH   1   2
ATOM      2  C   UNL     1      42.675  20.647  -0.565  1.00  0.00    -0.000 C 
BRANCH   2   3
ATOM      3  C   UNL     1      41.214  20.880  -0.980  1.00  0.00    -0.000 C 
BRANCH   3   4
ATOM      4  C   UNL     1      40.392  19.581  -1.003  1.00  0.00    -0.000 C 
BRANCH   4   5
ATOM      5  C   UNL     1      40.116  19.074  -2.429  1.00  0.00    -0.000 C 
BRANCH   5   6
ATOM      6  C   UNL     1      40.718  17.681  -2.715  1.00  0.00    -0.000 C 
BRANCH   6   7
ATOM      7  C   UNL     1      41.737  17.259  -1.643  1.00  0.00    -0.000 C 
BRANCH   7   8
ATOM      8  C   UNL     1      42.859  16.374  -2.209  1.00  0.00    -0.003 C 
ATOM      9  C   UNL     1      42.335  15.278  -3.138  1.00  0.00     0.004 C 
ENDBRANCH   7   8
ENDBRANCH   6   7
ENDBRANCH   5   6
ENDBRANCH   4   5
ENDBRANCH   3   4
ENDBRANCH   2   3
ENDBRANCH   1   2
BRANCH   1  10
ATOM     10  C   UNL     1      42.971  21.096  -3.037  1.00  0.00    -0.000 C 
BRANCH  10  11
ATOM     11  C   UNL     1      43.695  20.601  -4.297  1.00  0.00    -0.000 C 
BRANCH  11  12
ATOM     12  C   UNL     1      43.965  19.088  -4.270  1.00  0.00    -0.000 C 
BRANCH  12  13
ATOM     13  C   UNL     1      44.513  18.559  -5.604  1.00  0.00    -0.000 C 
BRANCH  13  14
ATOM     14  C   UNL     1      44.652  17.031  -5.572  1.00  0.00    -0.000 C 
BRANCH  14  15
ATOM     15  C   UNL     1      45.744  16.547  -4.602  1.00  0.00    -0.000 C 
BRANCH  15  16
ATOM     16  C   UNL     1      47.142  17.139  -4.855  1.00  0.00    -0.003 C 
ATOM     17  C   UNL     1      48.274  16.217  -4.405  1.00  0.00     0.004 C 
ENDBRANCH  15  16
ENDBRANCH  14  15
ENDBRANCH  13  14
ENDBRANCH  12  13
ENDBRANCH  11  12
ENDBRANCH  10  11
ENDBRANCH   1  10
TORSDOF 14
ENDMDL
