MODEL 1
REMARK VINA RESULT:    -3.128      0.000      0.000
REMARK INTER + INTRA:          -8.234
REMARK INTER:                  -5.688
REMARK INTRA:                  -2.546
REMARK UNBOUND:                -2.546
REMARK SMILES CCCCCCCCCCCCCCCC(=O)[O-]
REMARK SMILES IDX 9 1 10 2 11 3 12 4 13 5 14 6 15 7 16 8 17 9 18 10 8 11 7 12
REMARK SMILES IDX 6 13 5 14 4 15 3 16 2 17 1 18
REMARK H PARENT
REMARK Flexibility Score: inf
ROOT
ATOM      1  C   UNL     1      56.247  29.960  50.789  1.00  0.00     0.000 C 
ENDROOT
BRANCH   1   2
ATOM      2  C   UNL     1      57.343  30.062  51.860  1.00  0.00     0.000 C 
BRANCH   2   3
ATOM      3  C   UNL     1      58.653  29.379  51.432  1.00  0.00     0.000 C 
BRANCH   3   4
ATOM      4  C   UNL     1      58.556  28.738  50.037  1.00  0.00     0.000 C 
BRANCH   4   5
ATOM      5  C   UNL     1      59.787  27.885  49.691  1.00  0.00     0.000 C 
BRANCH   5   6
ATOM      6  C   UNL     1      59.619  26.412  50.102  1.00  0.00     0.006 C 
BRANCH   6   7
ATOM      7  C   UNL     1      60.312  26.100  51.435  1.00  0.00     0.053 C 
BRANCH   7   8
ATOM      8  C   UNL     1      60.363  24.627  51.706  1.00  0.00     0.041 C 
ATOM      9  O   UNL     1      59.296  23.960  51.776  1.00  0.00    -0.550 OA
ATOM     10  O   UNL     1      61.586  23.986  51.850  1.00  0.00    -0.550 OA
ENDBRANCH   7   8
ENDBRANCH   6   7
ENDBRANCH   5   6
ENDBRANCH   4   5
ENDBRANCH   3   4
ENDBRANCH   2   3
ENDBRANCH   1   2
BRANCH   1  11
ATOM     11  C   UNL     1      54.889  29.637  51.423  1.00  0.00     0.000 C 
BRANCH  11  12
ATOM     12  C   UNL     1      54.040  28.763  50.490  1.00  0.00    -0.000 C 
BRANCH  12  13
ATOM     13  C   UNL     1      54.053  27.274  50.883  1.00  0.00    -0.000 C 
BRANCH  13  14
ATOM     14  C   UNL     1      55.009  26.389  50.061  1.00  0.00    -0.000 C 
BRANCH  14  15
ATOM     15  C   UNL     1      56.198  25.866  50.885  1.00  0.00    -0.000 C 
BRANCH  15  16
ATOM     16  C   UNL     1      55.921  25.883  52.396  1.00  0.00    -0.000 C 
BRANCH  16  17
ATOM     17  C   UNL     1      57.040  26.566  53.197  1.00  0.00    -0.003 C 
ATOM     18  C   UNL     1      56.464  27.485  54.270  1.00  0.00     0.004 C 
ENDBRANCH  16  17
ENDBRANCH  15  16
ENDBRANCH  14  15
ENDBRANCH  13  14
ENDBRANCH  12  13
ENDBRANCH  11  12
ENDBRANCH   1  11
TORSDOF 14
ENDMDL
MODEL 2
REMARK VINA RESULT:    -3.088      1.755      3.701
REMARK INTER + INTRA:          -8.161
REMARK INTER:                  -6.012
REMARK INTRA:                  -2.150
REMARK UNBOUND:                -2.546
REMARK SMILES CCCCCCCCCCCCCCCC(=O)[O-]
REMARK SMILES IDX 9 1 10 2 11 3 12 4 13 5 14 6 15 7 16 8 17 9 18 10 8 11 7 12
REMARK SMILES IDX 6 13 5 14 4 15 3 16 2 17 1 18
REMARK H PARENT
REMARK Flexibility Score: inf
ROOT
ATOM      1  C   UNL     1      55.766  25.253  51.670  1.00  0.00     0.000 C 
ENDROOT
BRANCH   1   2
ATOM      2  C   UNL     1      56.569  26.033  52.722  1.00  0.00     0.000 C 
BRANCH   2   3
ATOM      3  C   UNL     1      56.679  27.530  52.391  1.00  0.00     0.000 C 
BRANCH   3   4
ATOM      4  C   UNL     1      57.941  28.177  52.990  1.00  0.00     0.000 C 
BRANCH   4   5
ATOM      5  C   UNL     1      58.639  29.132  52.009  1.00  0.00     0.000 C 
BRANCH   5   6
ATOM      6  C   UNL     1      58.077  29.026  50.581  1.00  0.00     0.006 C 
BRANCH   6   7
ATOM      7  C   UNL     1      59.168  28.697  49.553  1.00  0.00     0.053 C 
BRANCH   7   8
ATOM      8  C   UNL     1      59.838  27.390  49.850  1.00  0.00     0.041 C 
ATOM      9  O   UNL     1      61.090  27.338  49.984  1.00  0.00    -0.550 OA
ATOM     10  O   UNL     1      59.081  26.238  50.007  1.00  0.00    -0.550 OA
ENDBRANCH   7   8
ENDBRANCH   6   7
ENDBRANCH   5   6
ENDBRANCH   4   5
ENDBRANCH   3   4
ENDBRANCH   2   3
ENDBRANCH   1   2
BRANCH   1  11
ATOM     11  C   UNL     1      55.528  26.106  50.418  1.00  0.00     0.000 C 
BRANCH  11  12
ATOM     12  C   UNL     1      54.300  25.611  49.640  1.00  0.00    -0.000 C 
BRANCH  12  13
ATOM     13  C   UNL     1      53.136  26.618  49.649  1.00  0.00    -0.000 C 
BRANCH  13  14
ATOM     14  C   UNL     1      53.125  27.595  50.839  1.00  0.00    -0.000 C 
BRANCH  14  15
ATOM     15  C   UNL     1      53.157  29.070  50.403  1.00  0.00    -0.000 C 
BRANCH  15  16
ATOM     16  C   UNL     1      54.519  29.732  50.666  1.00  0.00    -0.000 C 
BRANCH  16  17
ATOM     17  C   UNL     1      54.420  30.939  51.612  1.00  0.00    -0.003 C 
ATOM     18  C   UNL     1      54.691  30.528  53.056  1.00  0.00     0.004 C 
ENDBRANCH  16  17
ENDBRANCH  15  16
ENDBRANCH  14  15
ENDBRANCH  13  14
ENDBRANCH  12  13
ENDBRANCH  11  12
ENDBRANCH   1  11
TORSDOF 14
ENDMDL
MODEL 3
REMARK VINA RESULT:    -3.083      1.368      1.712
REMARK INTER + INTRA:          -8.153
REMARK INTER:                  -5.951
REMARK INTRA:                  -2.202
REMARK UNBOUND:                -2.546
REMARK SMILES CCCCCCCCCCCCCCCC(=O)[O-]
REMARK SMILES IDX 9 1 10 2 11 3 12 4 13 5 14 6 15 7 16 8 17 9 18 10 8 11 7 12
REMARK SMILES IDX 6 13 5 14 4 15 3 16 2 17 1 18
REMARK H PARENT
REMARK Flexibility Score: inf
ROOT
ATOM      1  C   UNL     1      55.482  30.752  51.106  1.00  0.00     0.000 C 
ENDROOT
BRANCH   1   2
ATOM      2  C   UNL     1      56.743  29.968  50.714  1.00  0.00     0.000 C 
BRANCH   2   3
ATOM      3  C   UNL     1      57.742  29.835  51.875  1.00  0.00     0.000 C 
BRANCH   3   4
ATOM      4  C   UNL     1      59.140  29.398  51.405  1.00  0.00     0.000 C 
BRANCH   4   5
ATOM      5  C   UNL     1      59.130  28.807  49.986  1.00  0.00     0.000 C 
BRANCH   5   6
ATOM      6  C   UNL     1      59.869  27.460  49.902  1.00  0.00     0.006 C 
BRANCH   6   7
ATOM      7  C   UNL     1      61.393  27.632  49.951  1.00  0.00     0.053 C 
BRANCH   7   8
ATOM      8  C   UNL     1      62.027  26.711  50.948  1.00  0.00     0.041 C 
ATOM      9  O   UNL     1      61.317  25.895  51.595  1.00  0.00    -0.550 OA
ATOM     10  O   UNL     1      63.401  26.732  51.142  1.00  0.00    -0.550 OA
ENDBRANCH   7   8
ENDBRANCH   6   7
ENDBRANCH   5   6
ENDBRANCH   4   5
ENDBRANCH   3   4
ENDBRANCH   2   3
ENDBRANCH   1   2
BRANCH   1  11
ATOM     11  C   UNL     1      54.215  29.954  50.778  1.00  0.00     0.000 C 
BRANCH  11  12
ATOM     12  C   UNL     1      54.343  28.499  51.251  1.00  0.00    -0.000 C 
BRANCH  12  13
ATOM     13  C   UNL     1      53.984  27.477  50.158  1.00  0.00    -0.000 C 
BRANCH  13  14
ATOM     14  C   UNL     1      54.790  26.165  50.198  1.00  0.00    -0.000 C 
BRANCH  14  15
ATOM     15  C   UNL     1      56.306  26.396  50.322  1.00  0.00    -0.000 C 
BRANCH  15  16
ATOM     16  C   UNL     1      56.936  25.578  51.459  1.00  0.00    -0.000 C 
BRANCH  16  17
ATOM     17  C   UNL     1      56.934  26.327  52.800  1.00  0.00    -0.003 C 
ATOM     18  C   UNL     1      58.329  26.352  53.416  1.00  0.00     0.004 C 
ENDBRANCH  16  17
ENDBRANCH  15  16
ENDBRANCH  14  15
ENDBRANCH  13  14
ENDBRANCH  12  13
ENDBRANCH  11  12
ENDBRANCH   1  11
TORSDOF 14
ENDMDL
MODEL 4
REMARK VINA RESULT:    -3.077      2.511      5.066
REMARK INTER + INTRA:          -8.141
REMARK INTER:                  -5.727
REMARK INTRA:                  -2.414
REMARK UNBOUND:                -2.546
REMARK SMILES CCCCCCCCCCCCCCCC(=O)[O-]
REMARK SMILES IDX 9 1 10 2 11 3 12 4 13 5 14 6 15 7 16 8 17 9 18 10 8 11 7 12
REMARK SMILES IDX 6 13 5 14 4 15 3 16 2 17 1 18
REMARK H PARENT
REMARK Flexibility Score: inf
ROOT
ATOM      1  C   UNL     1      56.072  28.250  50.749  1.00  0.00     0.000 C 
ENDROOT
BRANCH   1   2
ATOM      2  C   UNL     1      54.556  28.495  50.697  1.00  0.00     0.000 C 
BRANCH   2   3
ATOM      3  C   UNL     1      53.794  27.341  50.028  1.00  0.00     0.000 C 
BRANCH   3   4
ATOM      4  C   UNL     1      54.653  26.073  49.878  1.00  0.00     0.000 C 
BRANCH   4   5
ATOM      5  C   UNL     1      53.879  24.789  50.216  1.00  0.00     0.000 C 
BRANCH   5   6
ATOM      6  C   UNL     1      53.464  24.722  51.696  1.00  0.00     0.006 C 
BRANCH   6   7
ATOM      7  C   UNL     1      54.634  25.026  52.640  1.00  0.00     0.053 C 
BRANCH   7   8
ATOM      8  C   UNL     1      54.301  26.122  53.606  1.00  0.00     0.041 C 
ATOM      9  O   UNL     1      55.186  26.946  53.958  1.00  0.00    -0.550 OA
ATOM     10  O   UNL     1      53.008  26.251  54.094  1.00  0.00    -0.550 OA
ENDBRANCH   7   8
ENDBRANCH   6   7
ENDBRANCH   5   6
ENDBRANCH   4   5
ENDBRANCH   3   4
ENDBRANCH   2   3
ENDBRANCH   1   2
BRANCH   1  11
ATOM     11  C   UNL     1      56.761  29.270  51.663  1.00  0.00     0.000 C 
BRANCH  11  12
ATOM     12  C   UNL     1      58.200  29.541  51.198  1.00  0.00    -0.000 C 
BRANCH  12  13
ATOM     13  C   UNL     1      58.587  28.741  49.941  1.00  0.00    -0.000 C 
BRANCH  13  14
ATOM     14  C   UNL     1      59.989  28.104  49.977  1.00  0.00    -0.000 C 
BRANCH  14  15
ATOM     15  C   UNL     1      60.002  26.723  50.656  1.00  0.00    -0.000 C 
BRANCH  15  16
ATOM     16  C   UNL     1      58.792  25.861  50.261  1.00  0.00    -0.000 C 
BRANCH  16  17
ATOM     17  C   UNL     1      58.083  25.242  51.475  1.00  0.00    -0.003 C 
ATOM     18  C   UNL     1      58.389  26.027  52.747  1.00  0.00     0.004 C 
ENDBRANCH  16  17
ENDBRANCH  15  16
ENDBRANCH  14  15
ENDBRANCH  13  14
ENDBRANCH  12  13
ENDBRANCH  11  12
ENDBRANCH   1  11
TORSDOF 14
ENDMDL
MODEL 5
REMARK VINA RESULT:    -2.992      3.133      6.079
REMARK INTER + INTRA:          -7.987
REMARK INTER:                  -5.587
REMARK INTRA:                  -2.400
REMARK UNBOUND:                -2.546
REMARK SMILES CCCCCCCCCCCCCCCC(=O)[O-]
REMARK SMILES IDX 9 1 10 2 11 3 12 4 13 5 14 6 15 7 16 8 17 9 18 10 8 11 7 12
REMARK SMILES IDX 6 13 5 14 4 15 3 16 2 17 1 18
REMARK H PARENT
REMARK Flexibility Score: inf
ROOT
ATOM      1  C   UNL     1      58.862  24.845  51.347  1.00  0.00     0.000 C 
ENDROOT
BRANCH   1   2
ATOM      2  C   UNL     1      57.434  25.228  51.764  1.00  0.00     0.000 C 
BRANCH   2   3
ATOM      3  C   UNL     1      56.638  25.877  50.621  1.00  0.00     0.000 C 
BRANCH   3   4
ATOM      4  C   UNL     1      56.114  27.278  50.987  1.00  0.00     0.000 C 
BRANCH   4   5
ATOM      5  C   UNL     1      54.739  27.576  50.367  1.00  0.00     0.000 C 
BRANCH   5   6
ATOM      6  C   UNL     1      54.251  29.002  50.673  1.00  0.00     0.006 C 
BRANCH   6   7
ATOM      7  C   UNL     1      54.979  29.618  51.875  1.00  0.00     0.053 C 
BRANCH   7   8
ATOM      8  C   UNL     1      55.704  30.875  51.504  1.00  0.00     0.041 C 
ATOM      9  O   UNL     1      55.489  31.424  50.390  1.00  0.00    -0.550 OA
ATOM     10  O   UNL     1      56.593  31.458  52.397  1.00  0.00    -0.550 OA
ENDBRANCH   7   8
ENDBRANCH   6   7
ENDBRANCH   5   6
ENDBRANCH   4   5
ENDBRANCH   3   4
ENDBRANCH   2   3
ENDBRANCH   1   2
BRANCH   1  11
ATOM     11  C   UNL     1      59.884  25.329  52.382  1.00  0.00     0.000 C 
BRANCH  11  12
ATOM     12  C   UNL     1      59.226  26.253  53.416  1.00  0.00    -0.000 C 
BRANCH  12  13
ATOM     13  C   UNL     1      59.759  27.696  53.359  1.00  0.00    -0.000 C 
BRANCH  13  14
ATOM     14  C   UNL     1      58.843  28.705  52.640  1.00  0.00    -0.000 C 
BRANCH  14  15
ATOM     15  C   UNL     1      59.579  29.518  51.561  1.00  0.00    -0.000 C 
BRANCH  15  16
ATOM     16  C   UNL     1      59.085  29.197  50.142  1.00  0.00    -0.000 C 
BRANCH  16  17
ATOM     17  C   UNL     1      59.637  27.866  49.609  1.00  0.00    -0.003 C 
ATOM     18  C   UNL     1      61.136  27.751  49.866  1.00  0.00     0.004 C 
ENDBRANCH  16  17
ENDBRANCH  15  16
ENDBRANCH  14  15
ENDBRANCH  13  14
ENDBRANCH  12  13
ENDBRANCH  11  12
ENDBRANCH   1  11
TORSDOF 14
ENDMDL
MODEL 6
REMARK VINA RESULT:    -2.992      3.147      5.898
REMARK INTER + INTRA:          -7.986
REMARK INTER:                  -5.847
REMARK INTRA:                  -2.139
REMARK UNBOUND:                -2.546
REMARK SMILES CCCCCCCCCCCCCCCC(=O)[O-]
REMARK SMILES IDX 9 1 10 2 11 3 12 4 13 5 14 6 15 7 16 8 17 9 18 10 8 11 7 12
REMARK SMILES IDX 6 13 5 14 4 15 3 16 2 17 1 18
REMARK H PARENT
REMARK Flexibility Score: inf
ROOT
ATOM      1  C   UNL     1      56.504  25.487  51.797  1.00  0.00     0.000 C 
ENDROOT
BRANCH   1   2
ATOM      2  C   UNL     1      56.011  26.135  50.494  1.00  0.00     0.000 C 
BRANCH   2   3
ATOM      3  C   UNL     1      55.477  27.561  50.708  1.00  0.00     0.000 C 
BRANCH   3   4
ATOM      4  C   UNL     1      53.988  27.695  50.344  1.00  0.00     0.000 C 
BRANCH   4   5
ATOM      5  C   UNL     1      53.508  29.156  50.345  1.00  0.00     0.000 C 
BRANCH   5   6
ATOM      6  C   UNL     1      54.585  30.131  50.849  1.00  0.00     0.006 C 
BRANCH   6   7
ATOM      7  C   UNL     1      54.081  31.004  52.005  1.00  0.00     0.053 C 
BRANCH   7   8
ATOM      8  C   UNL     1      54.467  30.441  53.339  1.00  0.00     0.041 C 
ATOM      9  O   UNL     1      53.929  29.382  53.758  1.00  0.00    -0.550 OA
ATOM     10  O   UNL     1      55.442  31.067  54.105  1.00  0.00    -0.550 OA
ENDBRANCH   7   8
ENDBRANCH   6   7
ENDBRANCH   5   6
ENDBRANCH   4   5
ENDBRANCH   3   4
ENDBRANCH   2   3
ENDBRANCH   1   2
BRANCH   1  11
ATOM     11  C   UNL     1      58.012  25.213  51.736  1.00  0.00     0.000 C 
BRANCH  11  12
ATOM     12  C   UNL     1      58.591  25.619  50.373  1.00  0.00    -0.000 C 
BRANCH  12  13
ATOM     13  C   UNL     1      59.772  26.600  50.489  1.00  0.00    -0.000 C 
BRANCH  13  14
ATOM     14  C   UNL     1      59.650  27.874  49.632  1.00  0.00    -0.000 C 
BRANCH  14  15
ATOM     15  C   UNL     1      58.747  28.942  50.273  1.00  0.00    -0.000 C 
BRANCH  15  16
ATOM     16  C   UNL     1      59.425  29.657  51.453  1.00  0.00    -0.000 C 
BRANCH  16  17
ATOM     17  C   UNL     1      58.455  29.947  52.607  1.00  0.00    -0.003 C 
ATOM     18  C   UNL     1      57.862  28.657  53.163  1.00  0.00     0.004 C 
ENDBRANCH  16  17
ENDBRANCH  15  16
ENDBRANCH  14  15
ENDBRANCH  13  14
ENDBRANCH  12  13
ENDBRANCH  11  12
ENDBRANCH   1  11
TORSDOF 14
ENDMDL
MODEL 7
REMARK VINA RESULT:    -2.896      3.173      4.041
REMARK INTER + INTRA:          -7.812
REMARK INTER:                  -5.722
REMARK INTRA:                  -2.090
REMARK UNBOUND:                -2.546
REMARK SMILES CCCCCCCCCCCCCCCC(=O)[O-]
REMARK SMILES IDX 9 1 10 2 11 3 12 4 13 5 14 6 15 7 16 8 17 9 18 10 8 11 7 12
REMARK SMILES IDX 6 13 5 14 4 15 3 16 2 17 1 18
REMARK H PARENT
REMARK Flexibility Score: inf
ROOT
ATOM      1  C   UNL     1      58.881  29.192  51.719  1.00  0.00     0.000 C 
ENDROOT
BRANCH   1   2
ATOM      2  C   UNL     1      58.951  29.293  50.188  1.00  0.00     0.000 C 
BRANCH   2   3
ATOM      3  C   UNL     1      59.407  27.981  49.529  1.00  0.00     0.000 C 
BRANCH   3   4
ATOM      4  C   UNL     1      60.540  27.291  50.309  1.00  0.00     0.000 C 
BRANCH   4   5
ATOM      5  C   UNL     1      61.932  27.815  49.919  1.00  0.00     0.000 C 
BRANCH   5   6
ATOM      6  C   UNL     1      62.648  28.515  51.087  1.00  0.00     0.006 C 
BRANCH   6   7
ATOM      7  C   UNL     1      63.401  29.773  50.634  1.00  0.00     0.053 C 
BRANCH   7   8
ATOM      8  C   UNL     1      62.538  30.996  50.707  1.00  0.00     0.041 C 
ATOM      9  O   UNL     1      61.754  31.160  51.680  1.00  0.00    -0.550 OA
ATOM     10  O   UNL     1      62.621  31.968  49.719  1.00  0.00    -0.550 OA
ENDBRANCH   7   8
ENDBRANCH   6   7
ENDBRANCH   5   6
ENDBRANCH   4   5
ENDBRANCH   3   4
ENDBRANCH   2   3
ENDBRANCH   1   2
BRANCH   1  11
ATOM     11  C   UNL     1      57.455  29.452  52.221  1.00  0.00     0.000 C 
BRANCH  11  12
ATOM     12  C   UNL     1      56.661  30.293  51.212  1.00  0.00    -0.000 C 
BRANCH  12  13
ATOM     13  C   UNL     1      55.272  29.707  50.901  1.00  0.00    -0.000 C 
BRANCH  13  14
ATOM     14  C   UNL     1      55.036  28.274  51.415  1.00  0.00    -0.000 C 
BRANCH  14  15
ATOM     15  C   UNL     1      55.107  27.218  50.298  1.00  0.00    -0.000 C 
BRANCH  15  16
ATOM     16  C   UNL     1      55.618  25.859  50.804  1.00  0.00    -0.000 C 
BRANCH  16  17
ATOM     17  C   UNL     1      57.151  25.769  50.815  1.00  0.00    -0.003 C 
ATOM     18  C   UNL     1      57.686  25.708  52.242  1.00  0.00     0.004 C 
ENDBRANCH  16  17
ENDBRANCH  15  16
ENDBRANCH  14  15
ENDBRANCH  13  14
ENDBRANCH  12  13
ENDBRANCH  11  12
ENDBRANCH   1  11
TORSDOF 14
ENDMDL
MODEL 8
REMARK VINA RESULT:    -2.872      2.970      5.030
REMARK INTER + INTRA:          -7.768
REMARK INTER:                  -5.536
REMARK INTRA:                  -2.231
REMARK UNBOUND:                -2.546
REMARK SMILES CCCCCCCCCCCCCCCC(=O)[O-]
REMARK SMILES IDX 9 1 10 2 11 3 12 4 13 5 14 6 15 7 16 8 17 9 18 10 8 11 7 12
REMARK SMILES IDX 6 13 5 14 4 15 3 16 2 17 1 18
REMARK H PARENT
REMARK Flexibility Score: inf
ROOT
ATOM      1  C   UNL     1      59.627  25.552  51.170  1.00  0.00     0.000 C 
ENDROOT
BRANCH   1   2
ATOM      2  C   UNL     1      59.197  26.437  49.991  1.00  0.00     0.000 C 
BRANCH   2   3
ATOM      3  C   UNL     1      60.103  27.666  49.812  1.00  0.00     0.000 C 
BRANCH   3   4
ATOM      4  C   UNL     1      59.333  28.992  49.944  1.00  0.00     0.000 C 
BRANCH   4   5
ATOM      5  C   UNL     1      57.857  28.785  50.323  1.00  0.00     0.000 C 
BRANCH   5   6
ATOM      6  C   UNL     1      57.370  29.796  51.374  1.00  0.00     0.006 C 
BRANCH   6   7
ATOM      7  C   UNL     1      58.408  30.025  52.482  1.00  0.00     0.053 C 
BRANCH   7   8
ATOM      8  C   UNL     1      58.103  31.252  53.286  1.00  0.00     0.041 C 
ATOM      9  O   UNL     1      58.793  31.528  54.304  1.00  0.00    -0.550 OA
ATOM     10  O   UNL     1      57.079  32.105  52.897  1.00  0.00    -0.550 OA
ENDBRANCH   7   8
ENDBRANCH   6   7
ENDBRANCH   5   6
ENDBRANCH   4   5
ENDBRANCH   3   4
ENDBRANCH   2   3
ENDBRANCH   1   2
BRANCH   1  11
ATOM     11  C   UNL     1      59.656  26.354  52.476  1.00  0.00     0.000 C 
BRANCH  11  12
ATOM     12  C   UNL     1      58.501  25.943  53.401  1.00  0.00    -0.000 C 
BRANCH  12  13
ATOM     13  C   UNL     1      57.694  24.748  52.860  1.00  0.00    -0.000 C 
BRANCH  13  14
ATOM     14  C   UNL     1      56.179  24.991  52.724  1.00  0.00    -0.000 C 
BRANCH  14  15
ATOM     15  C   UNL     1      55.845  26.270  51.936  1.00  0.00    -0.000 C 
BRANCH  15  16
ATOM     16  C   UNL     1      55.518  25.985  50.461  1.00  0.00    -0.000 C 
BRANCH  16  17
ATOM     17  C   UNL     1      54.180  26.597  50.022  1.00  0.00    -0.003 C 
ATOM     18  C   UNL     1      54.151  28.099  50.287  1.00  0.00     0.004 C 
ENDBRANCH  16  17
ENDBRANCH  15  16
ENDBRANCH  14  15
ENDBRANCH  13  14
ENDBRANCH  12  13
ENDBRANCH  11  12
ENDBRANCH   1  11
TORSDOF 14
ENDMDL
MODEL 9
REMARK VINA RESULT:    -1.390      3.173      6.035
REMARK INTER + INTRA:          -5.073
REMARK INTER:                  -3.090
REMARK INTRA:                  -1.982
REMARK UNBOUND:                -2.546
REMARK SMILES CCCCCCCCCCCCCCCC(=O)[O-]
REMARK SMILES IDX 9 1 10 2 11 3 12 4 13 5 14 6 15 7 16 8 17 9 18 10 8 11 7 12
REMARK SMILES IDX 6 13 5 14 4 15 3 16 2 17 1 18
REMARK H PARENT
REMARK Flexibility Score: inf
ROOT
ATOM      1  C   UNL     1      54.814  26.136  50.174  1.00  0.00     0.000 C 
ENDROOT
BRANCH   1   2
ATOM      2  C   UNL     1      54.064  26.257  51.509  1.00  0.00     0.000 C 
BRANCH   2   3
ATOM      3  C   UNL     1      52.875  27.228  51.433  1.00  0.00     0.000 C 
BRANCH   3   4
ATOM      4  C   UNL     1      52.984  28.204  50.247  1.00  0.00     0.000 C 
BRANCH   4   5
ATOM      5  C   UNL     1      53.226  29.654  50.695  1.00  0.00     0.000 C 
BRANCH   5   6
ATOM      6  C   UNL     1      54.721  29.986  50.839  1.00  0.00     0.006 C 
BRANCH   6   7
ATOM      7  C   UNL     1      55.151  30.097  52.307  1.00  0.00     0.053 C 
BRANCH   7   8
ATOM      8  C   UNL     1      55.874  31.381  52.581  1.00  0.00     0.041 C 
ATOM      9  O   UNL     1      57.025  31.362  53.092  1.00  0.00    -0.550 OA
ATOM     10  O   UNL     1      55.290  32.595  52.245  1.00  0.00    -0.550 OA
ENDBRANCH   7   8
ENDBRANCH   6   7
ENDBRANCH   5   6
ENDBRANCH   4   5
ENDBRANCH   3   4
ENDBRANCH   2   3
ENDBRANCH   1   2
BRANCH   1  11
ATOM     11  C   UNL     1      56.332  26.133  50.395  1.00  0.00     0.000 C 
BRANCH  11  12
ATOM     12  C   UNL     1      56.698  26.839  51.708  1.00  0.00    -0.000 C 
BRANCH  12  13
ATOM     13  C   UNL     1      57.960  27.713  51.590  1.00  0.00    -0.000 C 
BRANCH  13  14
ATOM     14  C   UNL     1      57.947  28.728  50.432  1.00  0.00    -0.000 C 
BRANCH  14  15
ATOM     15  C   UNL     1      59.274  28.768  49.655  1.00  0.00    -0.000 C 
BRANCH  15  16
ATOM     16  C   UNL     1      60.003  27.415  49.664  1.00  0.00    -0.000 C 
BRANCH  16  17
ATOM     17  C   UNL     1      61.452  27.526  50.161  1.00  0.00    -0.003 C 
ATOM     18  C   UNL     1      61.680  28.841  50.899  1.00  0.00     0.004 C 
ENDBRANCH  16  17
ENDBRANCH  15  16
ENDBRANCH  14  15
ENDBRANCH  13  14
ENDBRANCH  12  13
ENDBRANCH  11  12
ENDBRANCH   1  11
TORSDOF 14
ENDMDL
