MODEL 1
REMARK VINA RESULT:    52.630      0.000      0.000
REMARK INTER + INTRA:          65.204
REMARK INTER:                  64.937
REMARK INTRA:                   0.267
REMARK UNBOUND:                 0.267
REMARK SMILES O=c1c(O)c(-c2cc(O)c(O)c(O)c2)oc2cc(O)cc(O)c12
REMARK SMILES IDX 5 1 3 2 2 3 1 4 23 5 21 6 20 7 18 8 17 9 16 10 15 11 6 12
REMARK SMILES IDX 7 13 8 14 14 15 10 16 12 17 9 18 11 20 13 22 4 24 22 26
REMARK SMILES IDX 19 28
REMARK H PARENT 9 19 11 21 13 23 4 25 22 27 19 29
REMARK Flexibility Score: inf
ROOT
ATOM      1  C   UNL     1      17.995  21.720  11.490  1.00  0.00     0.180 A 
ATOM      2  C   UNL     1      17.778  21.505  10.118  1.00  0.00     0.208 A 
ATOM      3  C   UNL     1      18.851  21.079   9.317  1.00  0.00     0.238 A 
ATOM      4  O   UNL     1      18.638  20.837   8.101  1.00  0.00    -0.285 OA
ATOM      5  C   UNL     1      20.129  20.892   9.895  1.00  0.00     0.111 A 
ATOM      6  C   UNL     1      21.296  20.503   9.170  1.00  0.00     0.134 A 
ATOM      7  C   UNL     1      22.479  20.220   9.866  1.00  0.00     0.093 A 
ATOM      8  C   UNL     1      22.553  20.376  11.253  1.00  0.00     0.123 A 
ATOM      9  C   UNL     1      21.436  20.812  11.961  1.00  0.00     0.094 A 
ATOM     10  C   UNL     1      20.233  21.067  11.300  1.00  0.00     0.146 A 
ATOM     11  O   UNL     1      19.189  21.472  12.014  1.00  0.00    -0.452 OA
ENDROOT
BRANCH   1  12
ATOM     12  C   UNL     1      16.920  22.191  12.393  1.00  0.00     0.029 A 
ATOM     13  C   UNL     1      17.206  22.982  13.519  1.00  0.00     0.062 A 
ATOM     14  C   UNL     1      16.179  23.400  14.376  1.00  0.00     0.162 A 
ATOM     15  C   UNL     1      15.596  21.794  12.156  1.00  0.00     0.062 A 
ATOM     16  C   UNL     1      14.851  23.016  14.117  1.00  0.00     0.200 A 
ATOM     17  C   UNL     1      14.564  22.207  13.005  1.00  0.00     0.162 A 
BRANCH  14  18
ATOM     18  O   UNL     1      16.473  24.190  15.485  1.00  0.00    -0.504 OA
ATOM     19  H   UNL     1      17.085  24.994  15.417  1.00  0.00     0.293 HD
ENDBRANCH  14  18
BRANCH  16  20
ATOM     20  O   UNL     1      13.816  23.426  14.958  1.00  0.00    -0.502 OA
ATOM     21  H   UNL     1      13.165  24.157  14.696  1.00  0.00     0.293 HD
ENDBRANCH  16  20
BRANCH  17  22
ATOM     22  O   UNL     1      13.258  21.802  12.726  1.00  0.00    -0.504 OA
ATOM     23  H   UNL     1      12.689  22.266  12.029  1.00  0.00     0.293 HD
ENDBRANCH  17  22
ENDBRANCH   1  12
BRANCH   2  24
ATOM     24  O   UNL     1      16.503  21.676   9.573  1.00  0.00    -0.502 OA
ATOM     25  H   UNL     1      15.657  21.494  10.100  1.00  0.00     0.293 HD
ENDBRANCH   2  24
BRANCH   6  26
ATOM     26  O   UNL     1      21.354  20.407   7.777  1.00  0.00    -0.507 OA
ATOM     27  H   UNL     1      22.014  20.899   7.195  1.00  0.00     0.293 HD
ENDBRANCH   6  26
BRANCH   8  28
ATOM     28  O   UNL     1      23.738  20.107  11.935  1.00  0.00    -0.508 OA
ATOM     29  H   UNL     1      23.759  19.489  12.738  1.00  0.00     0.293 HD
ENDBRANCH   8  28
TORSDOF 7
ENDMDL
MODEL 2
REMARK VINA RESULT:    54.186      2.980      4.949
REMARK INTER + INTRA:          67.125
REMARK INTER:                  67.476
REMARK INTRA:                  -0.351
REMARK UNBOUND:                 0.267
REMARK SMILES O=c1c(O)c(-c2cc(O)c(O)c(O)c2)oc2cc(O)cc(O)c12
REMARK SMILES IDX 5 1 3 2 2 3 1 4 23 5 21 6 20 7 18 8 17 9 16 10 15 11 6 12
REMARK SMILES IDX 7 13 8 14 14 15 10 16 12 17 9 18 11 20 13 22 4 24 22 26
REMARK SMILES IDX 19 28
REMARK H PARENT 9 19 11 21 13 23 4 25 22 27 19 29
REMARK Flexibility Score: inf
ROOT
ATOM      1  C   UNL     1      17.815  22.048   9.381  1.00  0.00     0.180 A 
ATOM      2  C   UNL     1      18.082  20.827   8.738  1.00  0.00     0.208 A 
ATOM      3  C   UNL     1      18.169  20.801   7.336  1.00  0.00     0.238 A 
ATOM      4  O   UNL     1      18.460  19.716   6.770  1.00  0.00    -0.285 OA
ATOM      5  C   UNL     1      17.972  21.991   6.596  1.00  0.00     0.111 A 
ATOM      6  C   UNL     1      17.997  22.073   5.171  1.00  0.00     0.134 A 
ATOM      7  C   UNL     1      17.920  23.326   4.550  1.00  0.00     0.093 A 
ATOM      8  C   UNL     1      17.753  24.493   5.300  1.00  0.00     0.123 A 
ATOM      9  C   UNL     1      17.668  24.416   6.688  1.00  0.00     0.094 A 
ATOM     10  C   UNL     1      17.778  23.185   7.338  1.00  0.00     0.146 A 
ATOM     11  O   UNL     1      17.701  23.159   8.664  1.00  0.00    -0.452 OA
ENDROOT
BRANCH   1  12
ATOM     12  C   UNL     1      17.685  22.150  10.853  1.00  0.00     0.029 A 
ATOM     13  C   UNL     1      16.487  21.814  11.506  1.00  0.00     0.062 A 
ATOM     14  C   UNL     1      16.373  21.940  12.897  1.00  0.00     0.162 A 
ATOM     15  C   UNL     1      18.758  22.647  11.608  1.00  0.00     0.062 A 
ATOM     16  C   UNL     1      17.462  22.417  13.649  1.00  0.00     0.200 A 
ATOM     17  C   UNL     1      18.654  22.775  12.998  1.00  0.00     0.162 A 
BRANCH  14  18
ATOM     18  O   UNL     1      15.182  21.597  13.535  1.00  0.00    -0.504 OA
ATOM     19  H   UNL     1      15.161  20.930  14.297  1.00  0.00     0.293 HD
ENDBRANCH  14  18
BRANCH  16  20
ATOM     20  O   UNL     1      17.368  22.545  15.035  1.00  0.00    -0.502 OA
ATOM     21  H   UNL     1      16.594  22.158  15.562  1.00  0.00     0.293 HD
ENDBRANCH  16  20
BRANCH  17  22
ATOM     22  O   UNL     1      19.749  23.259  13.713  1.00  0.00    -0.504 OA
ATOM     23  H   UNL     1      19.956  22.949  14.655  1.00  0.00     0.293 HD
ENDBRANCH  17  22
ENDBRANCH   1  12
BRANCH   2  24
ATOM     24  O   UNL     1      18.294  19.668   9.489  1.00  0.00    -0.502 OA
ATOM     25  H   UNL     1      19.097  19.067   9.347  1.00  0.00     0.293 HD
ENDBRANCH   2  24
BRANCH   6  26
ATOM     26  O   UNL     1      18.068  20.961   4.327  1.00  0.00    -0.507 OA
ATOM     27  H   UNL     1      17.750  20.035   4.569  1.00  0.00     0.293 HD
ENDBRANCH   6  26
BRANCH   8  28
ATOM     28  O   UNL     1      17.661  25.734   4.673  1.00  0.00    -0.508 OA
ATOM     29  H   UNL     1      16.765  26.147   4.443  1.00  0.00     0.293 HD
ENDBRANCH   8  28
TORSDOF 7
ENDMDL
MODEL 3
REMARK VINA RESULT:    55.255      3.457      6.391
REMARK INTER + INTRA:          68.443
REMARK INTER:                  68.789
REMARK INTRA:                  -0.346
REMARK UNBOUND:                 0.267
REMARK SMILES O=c1c(O)c(-c2cc(O)c(O)c(O)c2)oc2cc(O)cc(O)c12
REMARK SMILES IDX 5 1 3 2 2 3 1 4 23 5 21 6 20 7 18 8 17 9 16 10 15 11 6 12
REMARK SMILES IDX 7 13 8 14 14 15 10 16 12 17 9 18 11 20 13 22 4 24 22 26
REMARK SMILES IDX 19 28
REMARK H PARENT 9 19 11 21 13 23 4 25 22 27 19 29
REMARK Flexibility Score: inf
ROOT
ATOM      1  C   UNL     1      19.437  22.274  14.385  1.00  0.00     0.180 A 
ATOM      2  C   UNL     1      18.128  22.321  14.894  1.00  0.00     0.208 A 
ATOM      3  C   UNL     1      17.047  22.247  14.000  1.00  0.00     0.238 A 
ATOM      4  O   UNL     1      15.878  22.236  14.467  1.00  0.00    -0.285 OA
ATOM      5  C   UNL     1      17.289  22.144  12.610  1.00  0.00     0.111 A 
ATOM      6  C   UNL     1      16.269  22.103  11.611  1.00  0.00     0.134 A 
ATOM      7  C   UNL     1      16.620  21.868  10.275  1.00  0.00     0.093 A 
ATOM      8  C   UNL     1      17.958  21.738   9.895  1.00  0.00     0.123 A 
ATOM      9  C   UNL     1      18.963  21.836  10.854  1.00  0.00     0.094 A 
ATOM     10  C   UNL     1      18.643  22.033  12.199  1.00  0.00     0.146 A 
ATOM     11  O   UNL     1      19.632  22.110  13.082  1.00  0.00    -0.452 OA
ENDROOT
BRANCH   1  12
ATOM     12  C   UNL     1      20.628  22.371  15.261  1.00  0.00     0.029 A 
ATOM     13  C   UNL     1      21.300  23.590  15.448  1.00  0.00     0.062 A 
ATOM     14  C   UNL     1      22.439  23.659  16.262  1.00  0.00     0.162 A 
ATOM     15  C   UNL     1      21.130  21.213  15.873  1.00  0.00     0.062 A 
ATOM     16  C   UNL     1      22.922  22.498  16.890  1.00  0.00     0.200 A 
ATOM     17  C   UNL     1      22.265  21.272  16.689  1.00  0.00     0.162 A 
BRANCH  14  18
ATOM     18  O   UNL     1      23.094  24.876  16.446  1.00  0.00    -0.504 OA
ATOM     19  H   UNL     1      23.966  24.937  16.957  1.00  0.00     0.293 HD
ENDBRANCH  14  18
BRANCH  16  20
ATOM     20  O   UNL     1      24.052  22.548  17.707  1.00  0.00    -0.502 OA
ATOM     21  H   UNL     1      24.303  21.788  18.329  1.00  0.00     0.293 HD
ENDBRANCH  16  20
BRANCH  17  22
ATOM     22  O   UNL     1      22.725  20.100  17.291  1.00  0.00    -0.504 OA
ATOM     23  H   UNL     1      22.767  19.220  16.792  1.00  0.00     0.293 HD
ENDBRANCH  17  22
ENDBRANCH   1  12
BRANCH   2  24
ATOM     24  O   UNL     1      17.913  22.402  16.272  1.00  0.00    -0.502 OA
ATOM     25  H   UNL     1      18.175  23.215  16.817  1.00  0.00     0.293 HD
ENDBRANCH   2  24
BRANCH   6  26
ATOM     26  O   UNL     1      14.912  22.312  11.872  1.00  0.00    -0.507 OA
ATOM     27  H   UNL     1      14.167  22.129  11.218  1.00  0.00     0.293 HD
ENDBRANCH   6  26
BRANCH   8  28
ATOM     28  O   UNL     1      18.299  21.519   8.561  1.00  0.00    -0.508 OA
ATOM     29  H   UNL     1      18.754  20.665   8.264  1.00  0.00     0.293 HD
ENDBRANCH   8  28
TORSDOF 7
ENDMDL
