MODEL 1
REMARK VINA RESULT:    -4.328      0.000      0.000
REMARK INTER + INTRA:          -7.235
REMARK INTER:                  -6.605
REMARK INTRA:                  -0.630
REMARK UNBOUND:                -0.630
REMARK SMILES O=C([O-])CCCCCCCCC(=O)[O-]
REMARK SMILES IDX 7 1 6 2 5 3 4 4 2 5 1 6 3 7 8 8 9 9 10 10 11 11 12 12 13 13
REMARK SMILES IDX 14 14
REMARK H PARENT
REMARK Flexibility Score: inf
ROOT
ATOM      1  C   UNL     1      50.934  21.042  49.899  1.00  0.00     0.000 C 
ENDROOT
BRANCH   1   2
ATOM      2  C   UNL     1      51.935  21.157  51.061  1.00  0.00     0.000 C 
BRANCH   2   3
ATOM      3  C   UNL     1      53.386  20.908  50.621  1.00  0.00     0.006 C 
BRANCH   3   4
ATOM      4  C   UNL     1      53.470  20.706  49.105  1.00  0.00     0.053 C 
BRANCH   4   5
ATOM      5  C   UNL     1      54.898  20.649  48.662  1.00  0.00     0.041 C 
ATOM      6  O   UNL     1      55.347  21.505  47.856  1.00  0.00    -0.550 OA
ATOM      7  O   UNL     1      55.721  19.619  49.101  1.00  0.00    -0.550 OA
ENDBRANCH   4   5
ENDBRANCH   3   4
ENDBRANCH   2   3
ENDBRANCH   1   2
BRANCH   1   8
ATOM      8  C   UNL     1      49.805  20.040  50.188  1.00  0.00     0.000 C 
BRANCH   8   9
ATOM      9  C   UNL     1      48.411  20.687  50.132  1.00  0.00     0.000 C 
BRANCH   9  10
ATOM     10  C   UNL     1      47.861  21.032  51.528  1.00  0.00     0.006 C 
BRANCH  10  11
ATOM     11  C   UNL     1      47.919  22.538  51.818  1.00  0.00     0.053 C 
BRANCH  11  12
ATOM     12  C   UNL     1      49.162  22.915  52.564  1.00  0.00     0.041 C 
ATOM     13  O   UNL     1      49.799  23.955  52.250  1.00  0.00    -0.550 OA
ATOM     14  O   UNL     1      49.601  22.136  53.627  1.00  0.00    -0.550 OA
ENDBRANCH  11  12
ENDBRANCH  10  11
ENDBRANCH   9  10
ENDBRANCH   8   9
ENDBRANCH   1   8
TORSDOF 9
ENDMDL
MODEL 2
REMARK VINA RESULT:    -4.291      0.613      6.200
REMARK INTER + INTRA:          -7.179
REMARK INTER:                  -6.574
REMARK INTRA:                  -0.605
REMARK UNBOUND:                -0.630
REMARK SMILES O=C([O-])CCCCCCCCC(=O)[O-]
REMARK SMILES IDX 7 1 6 2 5 3 4 4 2 5 1 6 3 7 8 8 9 9 10 10 11 11 12 12 13 13
REMARK SMILES IDX 14 14
REMARK H PARENT
REMARK Flexibility Score: inf
ROOT
ATOM      1  C   UNL     1      49.573  20.592  49.662  1.00  0.00     0.000 C 
ENDROOT
BRANCH   1   2
ATOM      2  C   UNL     1      48.382  20.341  50.603  1.00  0.00     0.000 C 
BRANCH   2   3
ATOM      3  C   UNL     1      47.734  21.643  51.100  1.00  0.00     0.006 C 
BRANCH   3   4
ATOM      4  C   UNL     1      48.010  21.856  52.592  1.00  0.00     0.053 C 
BRANCH   4   5
ATOM      5  C   UNL     1      49.282  22.619  52.787  1.00  0.00     0.041 C 
ATOM      6  O   UNL     1      49.475  23.698  52.168  1.00  0.00    -0.550 OA
ATOM      7  O   UNL     1      50.277  22.112  53.613  1.00  0.00    -0.550 OA
ENDBRANCH   4   5
ENDBRANCH   3   4
ENDBRANCH   2   3
ENDBRANCH   1   2
BRANCH   1   8
ATOM      8  C   UNL     1      50.912  20.144  50.272  1.00  0.00     0.000 C 
BRANCH   8   9
ATOM      9  C   UNL     1      51.852  21.325  50.564  1.00  0.00     0.000 C 
BRANCH   9  10
ATOM     10  C   UNL     1      53.338  20.937  50.474  1.00  0.00     0.006 C 
BRANCH  10  11
ATOM     11  C   UNL     1      53.652  20.133  49.205  1.00  0.00     0.053 C 
BRANCH  11  12
ATOM     12  C   UNL     1      55.059  20.350  48.740  1.00  0.00     0.041 C 
ATOM     13  O   UNL     1      55.946  19.490  48.986  1.00  0.00    -0.550 OA
ATOM     14  O   UNL     1      55.386  21.485  48.008  1.00  0.00    -0.550 OA
ENDBRANCH  11  12
ENDBRANCH  10  11
ENDBRANCH   9  10
ENDBRANCH   8   9
ENDBRANCH   1   8
TORSDOF 9
ENDMDL
MODEL 3
REMARK VINA RESULT:    -4.167      3.318      4.512
REMARK INTER + INTRA:          -6.990
REMARK INTER:                  -6.468
REMARK INTRA:                  -0.522
REMARK UNBOUND:                -0.630
REMARK SMILES O=C([O-])CCCCCCCCC(=O)[O-]
REMARK SMILES IDX 7 1 6 2 5 3 4 4 2 5 1 6 3 7 8 8 9 9 10 10 11 11 12 12 13 13
REMARK SMILES IDX 14 14
REMARK H PARENT
REMARK Flexibility Score: inf
ROOT
ATOM      1  C   UNL     1      53.343  21.158  50.995  1.00  0.00     0.000 C 
ENDROOT
BRANCH   1   2
ATOM      2  C   UNL     1      52.611  22.215  51.839  1.00  0.00     0.000 C 
BRANCH   2   3
ATOM      3  C   UNL     1      53.349  22.546  53.145  1.00  0.00     0.006 C 
BRANCH   3   4
ATOM      4  C   UNL     1      53.485  21.300  54.027  1.00  0.00     0.053 C 
BRANCH   4   5
ATOM      5  C   UNL     1      52.173  20.960  54.660  1.00  0.00     0.041 C 
ATOM      6  O   UNL     1      51.800  19.760  54.742  1.00  0.00    -0.550 OA
ATOM      7  O   UNL     1      51.338  21.973  55.115  1.00  0.00    -0.550 OA
ENDBRANCH   4   5
ENDBRANCH   3   4
ENDBRANCH   2   3
ENDBRANCH   1   2
BRANCH   1   8
ATOM      8  C   UNL     1      52.506  20.674  49.799  1.00  0.00     0.000 C 
BRANCH   8   9
ATOM      9  C   UNL     1      51.031  21.096  49.901  1.00  0.00     0.000 C 
BRANCH   9  10
ATOM     10  C   UNL     1      50.106  19.931  50.296  1.00  0.00     0.006 C 
BRANCH  10  11
ATOM     11  C   UNL     1      48.692  20.093  49.721  1.00  0.00     0.053 C 
BRANCH  11  12
ATOM     12  C   UNL     1      47.715  20.549  50.761  1.00  0.00     0.041 C 
ATOM     13  O   UNL     1      47.736  21.740  51.171  1.00  0.00    -0.550 OA
ATOM     14  O   UNL     1      46.761  19.669  51.256  1.00  0.00    -0.550 OA
ENDBRANCH  11  12
ENDBRANCH  10  11
ENDBRANCH   9  10
ENDBRANCH   8   9
ENDBRANCH   1   8
TORSDOF 9
ENDMDL
MODEL 4
REMARK VINA RESULT:    -4.150      1.960      2.641
REMARK INTER + INTRA:          -6.965
REMARK INTER:                  -6.408
REMARK INTRA:                  -0.557
REMARK UNBOUND:                -0.630
REMARK SMILES O=C([O-])CCCCCCCCC(=O)[O-]
REMARK SMILES IDX 7 1 6 2 5 3 4 4 2 5 1 6 3 7 8 8 9 9 10 10 11 11 12 12 13 13
REMARK SMILES IDX 14 14
REMARK H PARENT
REMARK Flexibility Score: inf
ROOT
ATOM      1  C   UNL     1      52.664  21.880  52.364  1.00  0.00     0.000 C 
ENDROOT
BRANCH   1   2
ATOM      2  C   UNL     1      53.524  21.370  51.195  1.00  0.00     0.000 C 
BRANCH   2   3
ATOM      3  C   UNL     1      52.686  20.985  49.966  1.00  0.00     0.006 C 
BRANCH   3   4
ATOM      4  C   UNL     1      53.387  19.898  49.145  1.00  0.00     0.053 C 
BRANCH   4   5
ATOM      5  C   UNL     1      54.756  20.346  48.741  1.00  0.00     0.041 C 
ATOM      6  O   UNL     1      54.904  21.394  48.059  1.00  0.00    -0.550 OA
ATOM      7  O   UNL     1      55.865  19.580  49.077  1.00  0.00    -0.550 OA
ENDBRANCH   4   5
ENDBRANCH   3   4
ENDBRANCH   2   3
ENDBRANCH   1   2
BRANCH   1   8
ATOM      8  C   UNL     1      51.472  20.958  52.667  1.00  0.00     0.000 C 
BRANCH   8   9
ATOM      9  C   UNL     1      50.184  21.739  52.974  1.00  0.00     0.000 C 
BRANCH   9  10
ATOM     10  C   UNL     1      49.502  22.282  51.705  1.00  0.00     0.006 C 
BRANCH  10  11
ATOM     11  C   UNL     1      48.023  21.882  51.626  1.00  0.00     0.053 C 
BRANCH  11  12
ATOM     12  C   UNL     1      47.818  20.661  50.783  1.00  0.00     0.041 C 
ATOM     13  O   UNL     1      46.931  19.821  51.088  1.00  0.00    -0.550 OA
ATOM     14  O   UNL     1      48.585  20.465  49.641  1.00  0.00    -0.550 OA
ENDBRANCH  11  12
ENDBRANCH  10  11
ENDBRANCH   9  10
ENDBRANCH   8   9
ENDBRANCH   1   8
TORSDOF 9
ENDMDL
MODEL 5
REMARK VINA RESULT:    -4.142      2.782      3.453
REMARK INTER + INTRA:          -6.952
REMARK INTER:                  -6.707
REMARK INTRA:                  -0.245
REMARK UNBOUND:                -0.630
REMARK SMILES O=C([O-])CCCCCCCCC(=O)[O-]
REMARK SMILES IDX 7 1 6 2 5 3 4 4 2 5 1 6 3 7 8 8 9 9 10 10 11 11 12 12 13 13
REMARK SMILES IDX 14 14
REMARK H PARENT
REMARK Flexibility Score: inf
ROOT
ATOM      1  C   UNL     1      50.812  21.364  50.505  1.00  0.00     0.000 C 
ENDROOT
BRANCH   1   2
ATOM      2  C   UNL     1      51.955  21.049  51.485  1.00  0.00     0.000 C 
BRANCH   2   3
ATOM      3  C   UNL     1      53.340  21.115  50.823  1.00  0.00     0.006 C 
BRANCH   3   4
ATOM      4  C   UNL     1      53.269  20.657  49.362  1.00  0.00     0.053 C 
BRANCH   4   5
ATOM      5  C   UNL     1      54.643  20.555  48.778  1.00  0.00     0.041 C 
ATOM      6  O   UNL     1      55.453  19.694  49.209  1.00  0.00    -0.550 OA
ATOM      7  O   UNL     1      55.045  21.445  47.790  1.00  0.00    -0.550 OA
ENDBRANCH   4   5
ENDBRANCH   3   4
ENDBRANCH   2   3
ENDBRANCH   1   2
BRANCH   1   8
ATOM      8  C   UNL     1      49.664  20.344  50.591  1.00  0.00     0.000 C 
BRANCH   8   9
ATOM      9  C   UNL     1      48.289  21.016  50.741  1.00  0.00     0.000 C 
BRANCH   9  10
ATOM     10  C   UNL     1      47.123  20.032  50.538  1.00  0.00     0.006 C 
BRANCH  10  11
ATOM     11  C   UNL     1      46.541  19.540  51.871  1.00  0.00     0.053 C 
BRANCH  11  12
ATOM     12  C   UNL     1      45.483  18.499  51.669  1.00  0.00     0.041 C 
ATOM     13  O   UNL     1      45.549  17.402  52.282  1.00  0.00    -0.550 OA
ATOM     14  O   UNL     1      44.407  18.752  50.827  1.00  0.00    -0.550 OA
ENDBRANCH  11  12
ENDBRANCH  10  11
ENDBRANCH   9  10
ENDBRANCH   8   9
ENDBRANCH   1   8
TORSDOF 9
ENDMDL
MODEL 6
REMARK VINA RESULT:    -4.121      3.305      5.479
REMARK INTER + INTRA:          -6.920
REMARK INTER:                  -6.417
REMARK INTRA:                  -0.503
REMARK UNBOUND:                -0.630
REMARK SMILES O=C([O-])CCCCCCCCC(=O)[O-]
REMARK SMILES IDX 7 1 6 2 5 3 4 4 2 5 1 6 3 7 8 8 9 9 10 10 11 11 12 12 13 13
REMARK SMILES IDX 14 14
REMARK H PARENT
REMARK Flexibility Score: inf
ROOT
ATOM      1  C   UNL     1      51.030  20.563  50.351  1.00  0.00     0.000 C 
ENDROOT
BRANCH   1   2
ATOM      2  C   UNL     1      50.390  19.170  50.221  1.00  0.00     0.000 C 
BRANCH   2   3
ATOM      3  C   UNL     1      48.972  19.222  49.630  1.00  0.00     0.006 C 
BRANCH   3   4
ATOM      4  C   UNL     1      48.334  20.596  49.861  1.00  0.00     0.053 C 
BRANCH   4   5
ATOM      5  C   UNL     1      47.498  20.584  51.102  1.00  0.00     0.041 C 
ATOM      6  O   UNL     1      47.667  21.463  51.988  1.00  0.00    -0.550 OA
ATOM      7  O   UNL     1      46.568  19.573  51.303  1.00  0.00    -0.550 OA
ENDBRANCH   4   5
ENDBRANCH   3   4
ENDBRANCH   2   3
ENDBRANCH   1   2
BRANCH   1   8
ATOM      8  C   UNL     1      52.513  20.571  49.945  1.00  0.00     0.000 C 
BRANCH   8   9
ATOM      9  C   UNL     1      53.401  21.300  50.966  1.00  0.00     0.000 C 
BRANCH   9  10
ATOM     10  C   UNL     1      52.606  21.830  52.173  1.00  0.00     0.006 C 
BRANCH  10  11
ATOM     11  C   UNL     1      53.106  21.243  53.499  1.00  0.00     0.053 C 
BRANCH  11  12
ATOM     12  C   UNL     1      51.974  20.838  54.393  1.00  0.00     0.041 C 
ATOM     13  O   UNL     1      51.865  19.643  54.774  1.00  0.00    -0.550 OA
ATOM     14  O   UNL     1      51.058  21.786  54.832  1.00  0.00    -0.550 OA
ENDBRANCH  11  12
ENDBRANCH  10  11
ENDBRANCH   9  10
ENDBRANCH   8   9
ENDBRANCH   1   8
TORSDOF 9
ENDMDL
MODEL 7
REMARK VINA RESULT:    -4.093      1.850      6.190
REMARK INTER + INTRA:          -6.876
REMARK INTER:                  -6.273
REMARK INTRA:                  -0.604
REMARK UNBOUND:                -0.630
REMARK SMILES O=C([O-])CCCCCCCCC(=O)[O-]
REMARK SMILES IDX 7 1 6 2 5 3 4 4 2 5 1 6 3 7 8 8 9 9 10 10 11 11 12 12 13 13
REMARK SMILES IDX 14 14
REMARK H PARENT
REMARK Flexibility Score: inf
ROOT
ATOM      1  C   UNL     1      51.535  21.320  52.968  1.00  0.00     0.000 C 
ENDROOT
BRANCH   1   2
ATOM      2  C   UNL     1      50.232  22.064  53.307  1.00  0.00     0.000 C 
BRANCH   2   3
ATOM      3  C   UNL     1      49.496  22.571  52.057  1.00  0.00     0.006 C 
BRANCH   3   4
ATOM      4  C   UNL     1      48.131  21.890  51.913  1.00  0.00     0.053 C 
BRANCH   4   5
ATOM      5  C   UNL     1      48.113  21.002  50.709  1.00  0.00     0.041 C 
ATOM      6  O   UNL     1      47.119  21.001  49.936  1.00  0.00    -0.550 OA
ATOM      7  O   UNL     1      49.172  20.136  50.468  1.00  0.00    -0.550 OA
ENDBRANCH   4   5
ENDBRANCH   3   4
ENDBRANCH   2   3
ENDBRANCH   1   2
BRANCH   1   8
ATOM      8  C   UNL     1      52.480  22.155  52.087  1.00  0.00     0.000 C 
BRANCH   8   9
ATOM      9  C   UNL     1      53.363  21.285  51.178  1.00  0.00     0.000 C 
BRANCH   9  10
ATOM     10  C   UNL     1      52.661  20.897  49.864  1.00  0.00     0.006 C 
BRANCH  10  11
ATOM     11  C   UNL     1      53.442  19.833  49.082  1.00  0.00     0.053 C 
BRANCH  11  12
ATOM     12  C   UNL     1      54.827  20.294  48.741  1.00  0.00     0.041 C 
ATOM     13  O   UNL     1      55.825  19.610  49.089  1.00  0.00    -0.550 OA
ATOM     14  O   UNL     1      55.014  21.462  48.013  1.00  0.00    -0.550 OA
ENDBRANCH  11  12
ENDBRANCH  10  11
ENDBRANCH   9  10
ENDBRANCH   8   9
ENDBRANCH   1   8
TORSDOF 9
ENDMDL
MODEL 8
REMARK VINA RESULT:    -4.082      2.699      5.426
REMARK INTER + INTRA:          -6.860
REMARK INTER:                  -5.844
REMARK INTRA:                  -1.016
REMARK UNBOUND:                -0.630
REMARK SMILES O=C([O-])CCCCCCCCC(=O)[O-]
REMARK SMILES IDX 7 1 6 2 5 3 4 4 2 5 1 6 3 7 8 8 9 9 10 10 11 11 12 12 13 13
REMARK SMILES IDX 14 14
REMARK H PARENT
REMARK Flexibility Score: inf
ROOT
ATOM      1  C   UNL     1      53.023  21.379  53.049  1.00  0.00     0.000 C 
ENDROOT
BRANCH   1   2
ATOM      2  C   UNL     1      51.666  20.986  53.657  1.00  0.00     0.000 C 
BRANCH   2   3
ATOM      3  C   UNL     1      50.767  22.201  53.935  1.00  0.00     0.006 C 
BRANCH   3   4
ATOM      4  C   UNL     1      49.384  22.014  53.302  1.00  0.00     0.053 C 
BRANCH   4   5
ATOM      5  C   UNL     1      49.030  23.196  52.456  1.00  0.00     0.041 C 
ATOM      6  O   UNL     1      49.937  23.906  51.947  1.00  0.00    -0.550 OA
ATOM      7  O   UNL     1      47.698  23.543  52.270  1.00  0.00    -0.550 OA
ENDBRANCH   4   5
ENDBRANCH   3   4
ENDBRANCH   2   3
ENDBRANCH   1   2
BRANCH   1   8
ATOM      8  C   UNL     1      52.887  21.986  51.642  1.00  0.00     0.000 C 
BRANCH   8   9
ATOM      9  C   UNL     1      53.404  21.046  50.541  1.00  0.00     0.000 C 
BRANCH   9  10
ATOM     10  C   UNL     1      52.267  20.360  49.763  1.00  0.00     0.006 C 
BRANCH  10  11
ATOM     11  C   UNL     1      50.921  21.071  49.957  1.00  0.00     0.053 C 
BRANCH  11  12
ATOM     12  C   UNL     1      49.792  20.099  50.107  1.00  0.00     0.041 C 
ATOM     13  O   UNL     1      50.027  18.867  50.218  1.00  0.00    -0.550 OA
ATOM     14  O   UNL     1      48.480  20.555  50.157  1.00  0.00    -0.550 OA
ENDBRANCH  11  12
ENDBRANCH  10  11
ENDBRANCH   9  10
ENDBRANCH   8   9
ENDBRANCH   1   8
TORSDOF 9
ENDMDL
MODEL 9
REMARK VINA RESULT:    -4.058      2.704      3.905
REMARK INTER + INTRA:          -6.824
REMARK INTER:                  -5.890
REMARK INTRA:                  -0.933
REMARK UNBOUND:                -0.630
REMARK SMILES O=C([O-])CCCCCCCCC(=O)[O-]
REMARK SMILES IDX 7 1 6 2 5 3 4 4 2 5 1 6 3 7 8 8 9 9 10 10 11 11 12 12 13 13
REMARK SMILES IDX 14 14
REMARK H PARENT
REMARK Flexibility Score: inf
ROOT
ATOM      1  C   UNL     1      52.835  21.967  51.709  1.00  0.00     0.000 C 
ENDROOT
BRANCH   1   2
ATOM      2  C   UNL     1      53.373  21.079  50.573  1.00  0.00     0.000 C 
BRANCH   2   3
ATOM      3  C   UNL     1      52.253  20.402  49.768  1.00  0.00     0.006 C 
BRANCH   3   4
ATOM      4  C   UNL     1      50.903  21.074  50.039  1.00  0.00     0.053 C 
BRANCH   4   5
ATOM      5  C   UNL     1      49.804  20.059  50.039  1.00  0.00     0.041 C 
ATOM      6  O   UNL     1      50.049  18.858  50.324  1.00  0.00    -0.550 OA
ATOM      7  O   UNL     1      48.516  20.430  49.675  1.00  0.00    -0.550 OA
ENDBRANCH   4   5
ENDBRANCH   3   4
ENDBRANCH   2   3
ENDBRANCH   1   2
BRANCH   1   8
ATOM      8  C   UNL     1      52.998  21.317  53.093  1.00  0.00     0.000 C 
BRANCH   8   9
ATOM      9  C   UNL     1      51.649  20.968  53.744  1.00  0.00     0.000 C 
BRANCH   9  10
ATOM     10  C   UNL     1      50.729  22.193  53.897  1.00  0.00     0.006 C 
BRANCH  10  11
ATOM     11  C   UNL     1      49.367  21.983  53.222  1.00  0.00     0.053 C 
BRANCH  11  12
ATOM     12  C   UNL     1      48.942  23.185  52.437  1.00  0.00     0.041 C 
ATOM     13  O   UNL     1      49.802  23.901  51.859  1.00  0.00    -0.550 OA
ATOM     14  O   UNL     1      47.594  23.498  52.315  1.00  0.00    -0.550 OA
ENDBRANCH  11  12
ENDBRANCH  10  11
ENDBRANCH   9  10
ENDBRANCH   8   9
ENDBRANCH   1   8
TORSDOF 9
ENDMDL
