MODEL 1
REMARK VINA RESULT:    -3.116      0.000      0.000
REMARK INTER + INTRA:          -5.115
REMARK INTER:                  -4.209
REMARK INTRA:                  -0.906
REMARK UNBOUND:                -0.906
REMARK SMILES CC[C@H](CC[C@@H](C)[C@@H]1CC[C@H]2[C@H]3CC(=O)C4=CC(=O)CC[C@@]4(C)[C@@H]3CC[C@]21C)C(C)C
REMARK SMILES IDX 4 1 3 2 2 3 1 4 29 5 30 6 31 7 5 8 6 9 7 10 8 11 9 12 27 13
REMARK SMILES IDX 10 14 11 15 26 16 28 17 12 18 25 19 24 20 13 21 22 22 14 23
REMARK SMILES IDX 16 24 21 25 23 26 15 27 17 28 20 29 18 30 19 31
REMARK H PARENT
REMARK Flexibility Score: inf
ROOT
ATOM      1  C   UNL     1     -22.422  12.619 -30.642  1.00  0.00     0.004 C 
ENDROOT
BRANCH   1   2
ATOM      2  C   UNL     1     -23.330  13.882 -30.657  1.00  0.00    -0.009 C 
BRANCH   2   3
ATOM      3  C   UNL     1     -23.317  14.577 -32.048  1.00  0.00     0.000 C 
ATOM      4  C   UNL     1     -23.023  16.076 -31.971  1.00  0.00     0.004 C 
ENDBRANCH   2   3
BRANCH   2   5
ATOM      5  C   UNL     1     -24.751  13.595 -30.031  1.00  0.00    -0.014 C 
ATOM      6  C   UNL     1     -25.080  12.112 -29.775  1.00  0.00     0.007 C 
ATOM      7  C   UNL     1     -25.874  14.240 -30.860  1.00  0.00     0.007 C 
ENDBRANCH   2   5
ENDBRANCH   1   2
BRANCH   1   8
ATOM      8  C   UNL     1     -20.915  12.904 -30.464  1.00  0.00     0.004 C 
BRANCH   8   9
ATOM      9  C   UNL     1     -20.206  11.842 -29.570  1.00  0.00    -0.011 C 
ATOM     10  C   UNL     1     -21.097  10.607 -29.361  1.00  0.00     0.008 C 
BRANCH   9  11
ATOM     11  C   UNL     1     -18.721  11.470 -29.935  1.00  0.00    -0.002 C 
ATOM     12  C   UNL     1     -18.552  10.029 -30.395  1.00  0.00     0.005 C 
ATOM     13  C   UNL     1     -17.506  11.716 -28.965  1.00  0.00    -0.026 C 
ATOM     14  C   UNL     1     -17.059   9.875 -30.589  1.00  0.00     0.005 C 
ATOM     15  C   UNL     1     -16.407  10.711 -29.471  1.00  0.00    -0.001 C 
ATOM     16  C   UNL     1     -16.986  13.184 -29.016  1.00  0.00     0.007 C 
ATOM     17  C   UNL     1     -17.844  11.372 -27.492  1.00  0.00     0.012 C 
ATOM     18  C   UNL     1     -15.046  11.371 -29.864  1.00  0.00     0.004 C 
ATOM     19  C   UNL     1     -16.328  13.572 -30.350  1.00  0.00     0.005 C 
ATOM     20  C   UNL     1     -15.218  12.583 -30.831  1.00  0.00     0.003 C 
ATOM     21  C   UNL     1     -14.067  10.325 -30.434  1.00  0.00     0.085 C 
ATOM     22  C   UNL     1     -13.850  13.298 -31.177  1.00  0.00    -0.000 C 
ATOM     23  C   UNL     1     -12.785  10.946 -30.877  1.00  0.00     0.159 C 
ATOM     24  C   UNL     1     -12.793  12.257 -31.564  1.00  0.00     0.005 C 
ATOM     25  C   UNL     1     -14.082  14.265 -32.383  1.00  0.00     0.020 C 
ATOM     26  C   UNL     1     -13.285  14.095 -29.967  1.00  0.00     0.017 C 
ATOM     27  O   UNL     1     -11.711  10.294 -30.750  1.00  0.00    -0.295 OA
ATOM     28  C   UNL     1     -11.805  12.550 -32.431  1.00  0.00     0.055 C 
ATOM     29  C   UNL     1     -12.784  14.889 -32.914  1.00  0.00     0.081 C 
ATOM     30  C   UNL     1     -11.742  13.837 -33.138  1.00  0.00     0.156 C 
ATOM     31  O   UNL     1     -10.779  14.068 -33.916  1.00  0.00    -0.295 OA
ENDBRANCH   9  11
ENDBRANCH   8   9
ENDBRANCH   1   8
TORSDOF 6
ENDMDL
MODEL 2
REMARK VINA RESULT:    -2.462      1.369      2.175
REMARK INTER + INTRA:          -4.231
REMARK INTER:                  -3.849
REMARK INTRA:                  -0.382
REMARK UNBOUND:                -0.906
REMARK SMILES CC[C@H](CC[C@@H](C)[C@@H]1CC[C@H]2[C@H]3CC(=O)C4=CC(=O)CC[C@@]4(C)[C@@H]3CC[C@]21C)C(C)C
REMARK SMILES IDX 4 1 3 2 2 3 1 4 29 5 30 6 31 7 5 8 6 9 7 10 8 11 9 12 27 13
REMARK SMILES IDX 10 14 11 15 26 16 28 17 12 18 25 19 24 20 13 21 22 22 14 23
REMARK SMILES IDX 16 24 21 25 23 26 15 27 17 28 20 29 18 30 19 31
REMARK H PARENT
REMARK Flexibility Score: inf
ROOT
ATOM      1  C   UNL     1     -23.181  12.138 -30.091  1.00  0.00     0.004 C 
ENDROOT
BRANCH   1   2
ATOM      2  C   UNL     1     -24.461  11.254 -30.069  1.00  0.00    -0.009 C 
BRANCH   2   3
ATOM      3  C   UNL     1     -24.250   9.966 -29.222  1.00  0.00     0.000 C 
ATOM      4  C   UNL     1     -24.504  10.178 -27.729  1.00  0.00     0.004 C 
ENDBRANCH   2   3
BRANCH   2   5
ATOM      5  C   UNL     1     -25.757  12.098 -29.748  1.00  0.00    -0.014 C 
ATOM      6  C   UNL     1     -27.058  11.597 -30.403  1.00  0.00     0.007 C 
ATOM      7  C   UNL     1     -25.554  13.588 -30.068  1.00  0.00     0.007 C 
ENDBRANCH   2   5
ENDBRANCH   1   2
BRANCH   1   8
ATOM      8  C   UNL     1     -21.865  11.370 -30.335  1.00  0.00     0.004 C 
BRANCH   8   9
ATOM      9  C   UNL     1     -20.706  12.301 -30.805  1.00  0.00    -0.011 C 
ATOM     10  C   UNL     1     -20.847  13.710 -30.206  1.00  0.00     0.008 C 
BRANCH   9  11
ATOM     11  C   UNL     1     -19.241  11.735 -30.699  1.00  0.00    -0.002 C 
ATOM     12  C   UNL     1     -19.183  10.219 -30.571  1.00  0.00     0.005 C 
ATOM     13  C   UNL     1     -18.188  12.257 -29.653  1.00  0.00    -0.026 C 
ATOM     14  C   UNL     1     -17.711   9.920 -30.385  1.00  0.00     0.005 C 
ATOM     15  C   UNL     1     -17.157  11.075 -29.530  1.00  0.00    -0.001 C 
ATOM     16  C   UNL     1     -17.482  13.567 -30.115  1.00  0.00     0.007 C 
ATOM     17  C   UNL     1     -18.813  12.510 -28.257  1.00  0.00     0.012 C 
ATOM     18  C   UNL     1     -15.676  11.462 -29.843  1.00  0.00     0.004 C 
ATOM     19  C   UNL     1     -16.562  13.389 -31.334  1.00  0.00     0.005 C 
ATOM     20  C   UNL     1     -15.523  12.231 -31.191  1.00  0.00     0.003 C 
ATOM     21  C   UNL     1     -14.757  10.225 -29.788  1.00  0.00     0.085 C 
ATOM     22  C   UNL     1     -14.035  12.686 -31.480  1.00  0.00    -0.000 C 
ATOM     23  C   UNL     1     -13.349  10.561 -30.149  1.00  0.00     0.159 C 
ATOM     24  C   UNL     1     -13.071  11.517 -31.244  1.00  0.00     0.005 C 
ATOM     25  C   UNL     1     -13.932  13.142 -32.971  1.00  0.00     0.020 C 
ATOM     26  C   UNL     1     -13.587  13.845 -30.545  1.00  0.00     0.017 C 
ATOM     27  O   UNL     1     -12.405   9.944 -29.580  1.00  0.00    -0.295 OA
ATOM     28  C   UNL     1     -11.921  11.408 -31.935  1.00  0.00     0.055 C 
ATOM     29  C   UNL     1     -12.493  13.447 -33.410  1.00  0.00     0.081 C 
ATOM     30  C   UNL     1     -11.573  12.331 -33.025  1.00  0.00     0.156 C 
ATOM     31  O   UNL     1     -10.470  12.198 -33.619  1.00  0.00    -0.295 OA
ENDBRANCH   9  11
ENDBRANCH   8   9
ENDBRANCH   1   8
TORSDOF 6
ENDMDL
