MODEL 1
REMARK VINA RESULT:    -3.599      0.000      0.000
REMARK INTER + INTRA:          -4.680
REMARK INTER:                  -4.440
REMARK INTRA:                  -0.240
REMARK UNBOUND:                -0.240
REMARK SMILES C=CC[C@@H](C)C(=O)CC
REMARK SMILES IDX 4 1 5 2 6 3 7 4 8 5 9 6 3 7 2 8 1 9
REMARK H PARENT
REMARK Flexibility Score: inf
ROOT
ATOM      1  C   UNL     1     -18.346  19.915  42.790  1.00  0.00     0.057 C 
ATOM      2  C   UNL     1     -17.719  20.829  43.849  1.00  0.00     0.016 C 
ENDROOT
BRANCH   1   3
ATOM      3  C   UNL     1     -19.636  20.525  42.277  1.00  0.00     0.135 C 
ATOM      4  O   UNL     1     -20.708  20.143  42.726  1.00  0.00    -0.299 OA
BRANCH   3   5
ATOM      5  C   UNL     1     -19.621  21.609  41.232  1.00  0.00     0.072 C 
ATOM      6  C   UNL     1     -20.953  21.666  40.493  1.00  0.00     0.012 C 
ENDBRANCH   3   5
ENDBRANCH   1   3
BRANCH   1   7
ATOM      7  C   UNL     1     -17.353  19.662  41.637  1.00  0.00     0.038 C 
BRANCH   7   8
ATOM      8  C   UNL     1     -17.389  18.233  41.161  1.00  0.00    -0.034 C 
ATOM      9  C   UNL     1     -16.794  17.247  41.840  1.00  0.00     0.004 C 
ENDBRANCH   7   8
ENDBRANCH   1   7
TORSDOF 4
ENDMDL
MODEL 2
REMARK VINA RESULT:    -3.545      1.523      4.128
REMARK INTER + INTRA:          -4.614
REMARK INTER:                  -4.452
REMARK INTRA:                  -0.163
REMARK UNBOUND:                -0.240
REMARK SMILES C=CC[C@@H](C)C(=O)CC
REMARK SMILES IDX 4 1 5 2 6 3 7 4 8 5 9 6 3 7 2 8 1 9
REMARK H PARENT
REMARK Flexibility Score: inf
ROOT
ATOM      1  C   UNL     1     -18.015  20.193  42.150  1.00  0.00     0.057 C 
ATOM      2  C   UNL     1     -17.919  20.989  43.456  1.00  0.00     0.016 C 
ENDROOT
BRANCH   1   3
ATOM      3  C   UNL     1     -17.384  18.826  42.329  1.00  0.00     0.135 C 
ATOM      4  O   UNL     1     -17.063  18.448  43.447  1.00  0.00    -0.299 OA
BRANCH   3   5
ATOM      5  C   UNL     1     -17.158  17.915  41.151  1.00  0.00     0.072 C 
ATOM      6  C   UNL     1     -16.610  16.567  41.608  1.00  0.00     0.012 C 
ENDBRANCH   3   5
ENDBRANCH   1   3
BRANCH   1   7
ATOM      7  C   UNL     1     -19.484  20.072  41.697  1.00  0.00     0.038 C 
BRANCH   7   8
ATOM      8  C   UNL     1     -20.028  21.378  41.178  1.00  0.00    -0.034 C 
ATOM      9  C   UNL     1     -21.329  21.678  41.247  1.00  0.00     0.004 C 
ENDBRANCH   7   8
ENDBRANCH   1   7
TORSDOF 4
ENDMDL
MODEL 3
REMARK VINA RESULT:    -3.452      1.635      2.144
REMARK INTER + INTRA:          -4.500
REMARK INTER:                  -4.302
REMARK INTRA:                  -0.198
REMARK UNBOUND:                -0.240
REMARK SMILES C=CC[C@@H](C)C(=O)CC
REMARK SMILES IDX 4 1 5 2 6 3 7 4 8 5 9 6 3 7 2 8 1 9
REMARK H PARENT
REMARK Flexibility Score: inf
ROOT
ATOM      1  C   UNL     1     -19.649  20.599  41.474  1.00  0.00     0.057 C 
ATOM      2  C   UNL     1     -20.359  20.169  42.763  1.00  0.00     0.016 C 
ENDROOT
BRANCH   1   3
ATOM      3  C   UNL     1     -20.116  21.982  41.062  1.00  0.00     0.135 C 
ATOM      4  O   UNL     1     -19.310  22.787  40.618  1.00  0.00    -0.299 OA
BRANCH   3   5
ATOM      5  C   UNL     1     -21.566  22.377  41.174  1.00  0.00     0.072 C 
ATOM      6  C   UNL     1     -22.336  21.964  39.925  1.00  0.00     0.012 C 
ENDBRANCH   3   5
ENDBRANCH   1   3
BRANCH   1   7
ATOM      7  C   UNL     1     -18.119  20.562  41.661  1.00  0.00     0.038 C 
BRANCH   7   8
ATOM      8  C   UNL     1     -17.640  19.223  42.158  1.00  0.00    -0.034 C 
ATOM      9  C   UNL     1     -17.302  18.239  41.319  1.00  0.00     0.004 C 
ENDBRANCH   7   8
ENDBRANCH   1   7
TORSDOF 4
ENDMDL
MODEL 4
REMARK VINA RESULT:    -3.431      1.430      4.385
REMARK INTER + INTRA:          -4.474
REMARK INTER:                  -4.240
REMARK INTRA:                  -0.234
REMARK UNBOUND:                -0.240
REMARK SMILES C=CC[C@@H](C)C(=O)CC
REMARK SMILES IDX 4 1 5 2 6 3 7 4 8 5 9 6 3 7 2 8 1 9
REMARK H PARENT
REMARK Flexibility Score: inf
ROOT
ATOM      1  C   UNL     1     -20.204  21.450  40.846  1.00  0.00     0.057 C 
ATOM      2  C   UNL     1     -19.118  22.531  40.832  1.00  0.00     0.016 C 
ENDROOT
BRANCH   1   3
ATOM      3  C   UNL     1     -19.902  20.426  41.923  1.00  0.00     0.135 C 
ATOM      4  O   UNL     1     -20.770  20.120  42.729  1.00  0.00    -0.299 OA
BRANCH   3   5
ATOM      5  C   UNL     1     -18.552  19.764  42.009  1.00  0.00     0.072 C 
ATOM      6  C   UNL     1     -17.926  19.990  43.381  1.00  0.00     0.012 C 
ENDBRANCH   3   5
ENDBRANCH   1   3
BRANCH   1   7
ATOM      7  C   UNL     1     -21.595  22.082  41.053  1.00  0.00     0.038 C 
BRANCH   7   8
ATOM      8  C   UNL     1     -22.483  21.907  39.849  1.00  0.00    -0.034 C 
ATOM      9  C   UNL     1     -21.987  21.841  38.609  1.00  0.00     0.004 C 
ENDBRANCH   7   8
ENDBRANCH   1   7
TORSDOF 4
ENDMDL
MODEL 5
REMARK VINA RESULT:    -3.414      2.805      4.779
REMARK INTER + INTRA:          -4.452
REMARK INTER:                  -4.309
REMARK INTRA:                  -0.143
REMARK UNBOUND:                -0.240
REMARK SMILES C=CC[C@@H](C)C(=O)CC
REMARK SMILES IDX 4 1 5 2 6 3 7 4 8 5 9 6 3 7 2 8 1 9
REMARK H PARENT
REMARK Flexibility Score: inf
ROOT
ATOM      1  C   UNL     1     -21.987  21.924  40.013  1.00  0.00     0.057 C 
ATOM      2  C   UNL     1     -22.813  23.082  40.586  1.00  0.00     0.016 C 
ENDROOT
BRANCH   1   3
ATOM      3  C   UNL     1     -21.816  22.100  38.517  1.00  0.00     0.135 C 
ATOM      4  O   UNL     1     -21.090  22.986  38.090  1.00  0.00    -0.299 OA
BRANCH   3   5
ATOM      5  C   UNL     1     -22.516  21.188  37.543  1.00  0.00     0.072 C 
ATOM      6  C   UNL     1     -23.911  20.831  38.044  1.00  0.00     0.012 C 
ENDBRANCH   3   5
ENDBRANCH   1   3
BRANCH   1   7
ATOM      7  C   UNL     1     -20.621  21.831  40.722  1.00  0.00     0.038 C 
BRANCH   7   8
ATOM      8  C   UNL     1     -20.640  20.849  41.865  1.00  0.00    -0.034 C 
ATOM      9  C   UNL     1     -19.574  20.105  42.174  1.00  0.00     0.004 C 
ENDBRANCH   7   8
ENDBRANCH   1   7
TORSDOF 4
ENDMDL
MODEL 6
REMARK VINA RESULT:    -3.351      1.716      4.234
REMARK INTER + INTRA:          -4.375
REMARK INTER:                  -4.132
REMARK INTRA:                  -0.243
REMARK UNBOUND:                -0.240
REMARK SMILES C=CC[C@@H](C)C(=O)CC
REMARK SMILES IDX 4 1 5 2 6 3 7 4 8 5 9 6 3 7 2 8 1 9
REMARK H PARENT
REMARK Flexibility Score: inf
ROOT
ATOM      1  C   UNL     1     -19.092  21.323  42.138  1.00  0.00     0.057 C 
ATOM      2  C   UNL     1     -20.114  20.299  42.643  1.00  0.00     0.016 C 
ENDROOT
BRANCH   1   3
ATOM      3  C   UNL     1     -17.767  20.639  41.861  1.00  0.00     0.135 C 
ATOM      4  O   UNL     1     -16.898  21.231  41.237  1.00  0.00    -0.299 OA
BRANCH   3   5
ATOM      5  C   UNL     1     -17.496  19.243  42.356  1.00  0.00     0.072 C 
ATOM      6  C   UNL     1     -17.355  18.273  41.188  1.00  0.00     0.012 C 
ENDBRANCH   3   5
ENDBRANCH   1   3
BRANCH   1   7
ATOM      7  C   UNL     1     -19.620  22.042  40.880  1.00  0.00     0.038 C 
BRANCH   7   8
ATOM      8  C   UNL     1     -21.013  21.598  40.516  1.00  0.00    -0.034 C 
ATOM      9  C   UNL     1     -21.949  22.465  40.117  1.00  0.00     0.004 C 
ENDBRANCH   7   8
ENDBRANCH   1   7
TORSDOF 4
ENDMDL
MODEL 7
REMARK VINA RESULT:    -3.298     15.473     17.130
REMARK INTER + INTRA:          -4.310
REMARK INTER:                  -4.140
REMARK INTRA:                  -0.170
REMARK UNBOUND:                -0.240
REMARK SMILES C=CC[C@@H](C)C(=O)CC
REMARK SMILES IDX 4 1 5 2 6 3 7 4 8 5 9 6 3 7 2 8 1 9
REMARK H PARENT
REMARK Flexibility Score: inf
ROOT
ATOM      1  C   UNL     1      -6.661  30.065  47.281  1.00  0.00     0.057 C 
ATOM      2  C   UNL     1      -8.018  30.348  46.629  1.00  0.00     0.016 C 
ENDROOT
BRANCH   1   3
ATOM      3  C   UNL     1      -6.008  28.867  46.619  1.00  0.00     0.135 C 
ATOM      4  O   UNL     1      -4.826  28.629  46.826  1.00  0.00    -0.299 OA
BRANCH   3   5
ATOM      5  C   UNL     1      -6.797  27.950  45.721  1.00  0.00     0.072 C 
ATOM      6  C   UNL     1      -6.598  26.494  46.127  1.00  0.00     0.012 C 
ENDBRANCH   3   5
ENDBRANCH   1   3
BRANCH   1   7
ATOM      7  C   UNL     1      -5.752  31.308  47.201  1.00  0.00     0.038 C 
BRANCH   7   8
ATOM      8  C   UNL     1      -6.449  32.553  47.684  1.00  0.00    -0.034 C 
ATOM      9  C   UNL     1      -6.033  33.222  48.764  1.00  0.00     0.004 C 
ENDBRANCH   7   8
ENDBRANCH   1   7
TORSDOF 4
ENDMDL
MODEL 8
REMARK VINA RESULT:    -3.257     16.860     18.550
REMARK INTER + INTRA:          -4.259
REMARK INTER:                  -4.039
REMARK INTRA:                  -0.219
REMARK UNBOUND:                -0.240
REMARK SMILES C=CC[C@@H](C)C(=O)CC
REMARK SMILES IDX 4 1 5 2 6 3 7 4 8 5 9 6 3 7 2 8 1 9
REMARK H PARENT
REMARK Flexibility Score: inf
ROOT
ATOM      1  C   UNL     1      -6.813  32.585  47.682  1.00  0.00     0.057 C 
ATOM      2  C   UNL     1      -7.247  33.460  46.500  1.00  0.00     0.016 C 
ENDROOT
BRANCH   1   3
ATOM      3  C   UNL     1      -6.848  31.123  47.284  1.00  0.00     0.135 C 
ATOM      4  O   UNL     1      -7.923  30.548  47.180  1.00  0.00    -0.299 OA
BRANCH   3   5
ATOM      5  C   UNL     1      -5.579  30.365  46.996  1.00  0.00     0.072 C 
ATOM      6  C   UNL     1      -5.879  28.902  46.693  1.00  0.00     0.012 C 
ENDBRANCH   3   5
ENDBRANCH   1   3
BRANCH   1   7
ATOM      7  C   UNL     1      -5.410  32.995  48.172  1.00  0.00     0.038 C 
BRANCH   7   8
ATOM      8  C   UNL     1      -5.469  34.063  49.233  1.00  0.00    -0.034 C 
ATOM      9  C   UNL     1      -6.056  33.852  50.415  1.00  0.00     0.004 C 
ENDBRANCH   7   8
ENDBRANCH   1   7
TORSDOF 4
ENDMDL
MODEL 9
REMARK VINA RESULT:    -3.245      1.519      4.760
REMARK INTER + INTRA:          -4.244
REMARK INTER:                  -4.007
REMARK INTRA:                  -0.237
REMARK UNBOUND:                -0.240
REMARK SMILES C=CC[C@@H](C)C(=O)CC
REMARK SMILES IDX 4 1 5 2 6 3 7 4 8 5 9 6 3 7 2 8 1 9
REMARK H PARENT
REMARK Flexibility Score: inf
ROOT
ATOM      1  C   UNL     1     -20.353  21.473  40.861  1.00  0.00     0.057 C 
ATOM      2  C   UNL     1     -19.376  22.652  40.801  1.00  0.00     0.016 C 
ENDROOT
BRANCH   1   3
ATOM      3  C   UNL     1     -19.954  20.525  41.975  1.00  0.00     0.135 C 
ATOM      4  O   UNL     1     -20.800  20.125  42.763  1.00  0.00    -0.299 OA
BRANCH   3   5
ATOM      5  C   UNL     1     -18.532  20.051  42.119  1.00  0.00     0.072 C 
ATOM      6  C   UNL     1     -18.031  20.270  43.543  1.00  0.00     0.012 C 
ENDBRANCH   3   5
ENDBRANCH   1   3
BRANCH   1   7
ATOM      7  C   UNL     1     -21.798  21.977  41.050  1.00  0.00     0.038 C 
BRANCH   7   8
ATOM      8  C   UNL     1     -21.843  23.392  41.564  1.00  0.00    -0.034 C 
ATOM      9  C   UNL     1     -22.930  23.892  42.162  1.00  0.00     0.004 C 
ENDBRANCH   7   8
ENDBRANCH   1   7
TORSDOF 4
ENDMDL
