MODEL 1
REMARK VINA RESULT:     6.814      0.000      0.000
REMARK INTER + INTRA:           7.996
REMARK INTER:                   7.411
REMARK INTRA:                   0.585
REMARK UNBOUND:                 0.585
REMARK SMILES CC1(C)CC[C@@]2(C(=O)[O-])CC[C@@]3(C)C(=CC[C@@H]4[C@]5(C)CC[C@H](O)C(C)(C)[C@H]5CC[C@]43C)[C@@H]2C1
REMARK SMILES IDX 6 1 5 2 10 3 32 4 4 5 11 6 14 7 33 8 2 9 12 10 15 11 1 12
REMARK SMILES IDX 3 13 13 14 30 15 16 16 17 17 29 18 31 19 18 20 28 21 27 22
REMARK SMILES IDX 20 23 19 24 24 25 21 26 22 27 25 28 26 29 7 30 8 31 9 32
REMARK SMILES IDX 23 33
REMARK H PARENT 23 34
REMARK Flexibility Score: inf
ROOT
ATOM      1  C   UNL     1       1.912 -15.385  17.673  1.00  0.00     0.017 C 
ATOM      2  C   UNL     1       3.024 -14.289  17.642  1.00  0.00     0.014 C 
ATOM      3  C   UNL     1       1.132 -15.279  18.983  1.00  0.00     0.014 C 
ATOM      4  C   UNL     1       0.875 -15.154  16.523  1.00  0.00     0.028 C 
ATOM      5  C   UNL     1       3.030 -13.428  16.379  1.00  0.00     0.007 C 
ATOM      6  C   UNL     1       0.180 -16.470  19.136  1.00  0.00     0.013 C 
ATOM      7  C   UNL     1      -0.527 -15.723  16.734  1.00  0.00    -0.064 C 
ATOM      8  C   UNL     1       1.607 -15.297  15.164  1.00  0.00     0.015 C 
ATOM      9  C   UNL     1       2.923 -14.381  15.114  1.00  0.00    -0.035 C 
ATOM     10  C   UNL     1      -0.963 -16.465  18.062  1.00  0.00    -0.006 C 
ATOM     11  C   UNL     1      -1.282 -15.911  15.643  1.00  0.00    -0.027 C 
ATOM     12  C   UNL     1       4.211 -15.236  14.951  1.00  0.00     0.011 C 
ATOM     13  C   UNL     1       2.810 -13.489  13.875  1.00  0.00     0.011 C 
ATOM     14  C   UNL     1      -2.031 -15.526  18.728  1.00  0.00     0.017 C 
ATOM     15  C   UNL     1      -1.521 -17.946  17.665  1.00  0.00    -0.020 C 
ATOM     16  C   UNL     1      -1.496 -17.323  15.197  1.00  0.00     0.032 C 
ATOM     17  C   UNL     1      -0.897 -18.310  16.243  1.00  0.00     0.006 C 
ATOM     18  C   UNL     1      -1.134 -19.106  18.618  1.00  0.00     0.008 C 
ATOM     19  C   UNL     1      -3.102 -17.921  17.647  1.00  0.00     0.012 C 
ATOM     20  C   UNL     1      -0.678 -19.842  15.877  1.00  0.00    -0.025 C 
ATOM     21  C   UNL     1      -1.718 -20.490  18.161  1.00  0.00     0.005 C 
ATOM     22  C   UNL     1      -1.735 -20.734  16.604  1.00  0.00     0.003 C 
ATOM     23  C   UNL     1      -0.845 -20.018  14.337  1.00  0.00     0.010 C 
ATOM     24  C   UNL     1       0.803 -20.241  16.286  1.00  0.00     0.012 C 
ATOM     25  C   UNL     1      -1.782 -22.257  16.129  1.00  0.00    -0.006 C 
ATOM     26  C   UNL     1      -0.744 -21.473  13.875  1.00  0.00     0.033 C 
ATOM     27  C   UNL     1      -1.834 -22.350  14.561  1.00  0.00     0.120 C 
ATOM     28  C   UNL     1      -3.096 -22.904  16.711  1.00  0.00     0.014 C 
ATOM     29  C   UNL     1      -0.601 -23.125  16.634  1.00  0.00     0.014 C 
ENDROOT
BRANCH   1  30
ATOM     30  C   UNL     1       2.592 -16.778  17.667  1.00  0.00     0.048 C 
ATOM     31  O   UNL     1       3.076 -17.277  18.705  1.00  0.00    -0.550 OA
ATOM     32  O   UNL     1       2.467 -17.612  16.561  1.00  0.00    -0.550 OA
ENDBRANCH   1  30
BRANCH  27  33
ATOM     33  O   UNL     1      -3.125 -22.117  14.019  1.00  0.00    -0.393 OA
ATOM     34  H   UNL     1      -3.767 -21.770  14.701  1.00  0.00     0.210 HD
ENDBRANCH  27  33
TORSDOF 2
ENDMDL
