MODEL 1
REMARK VINA RESULT:    -4.369      0.000      0.000
REMARK INTER + INTRA:          -5.173
REMARK INTER:                  -5.136
REMARK INTRA:                  -0.037
REMARK UNBOUND:                -0.037
REMARK SMILES CCCCC(=O)[O-]
REMARK SMILES IDX 4 1 5 2 6 3 7 4 3 5 2 6 1 7
REMARK H PARENT
REMARK Flexibility Score: inf
ROOT
ATOM      1  C   UNL     1      13.627  71.128  72.426  1.00  0.00     0.053 C 
ENDROOT
BRANCH   1   2
ATOM      2  C   UNL     1      12.173  71.014  72.082  1.00  0.00     0.041 C 
ATOM      3  O   UNL     1      11.796  70.226  71.175  1.00  0.00    -0.550 OA
ATOM      4  O   UNL     1      11.232  71.757  72.784  1.00  0.00    -0.550 OA
ENDBRANCH   1   2
BRANCH   1   5
ATOM      5  C   UNL     1      14.096  69.958  73.301  1.00  0.00     0.006 C 
BRANCH   5   6
ATOM      6  C   UNL     1      14.656  70.430  74.651  1.00  0.00    -0.003 C 
ATOM      7  C   UNL     1      13.904  69.790  75.813  1.00  0.00     0.004 C 
ENDBRANCH   5   6
ENDBRANCH   1   5
TORSDOF 3
ENDMDL
MODEL 2
REMARK VINA RESULT:    -4.195      2.265      2.565
REMARK INTER + INTRA:          -4.968
REMARK INTER:                  -4.914
REMARK INTRA:                  -0.055
REMARK UNBOUND:                -0.037
REMARK SMILES CCCCC(=O)[O-]
REMARK SMILES IDX 4 1 5 2 6 3 7 4 3 5 2 6 1 7
REMARK H PARENT
REMARK Flexibility Score: inf
ROOT
ATOM      1  C   UNL     1      14.911  70.556  72.377  1.00  0.00     0.053 C 
ENDROOT
BRANCH   1   2
ATOM      2  C   UNL     1      14.848  72.052  72.341  1.00  0.00     0.041 C 
ATOM      3  O   UNL     1      13.743  72.644  72.461  1.00  0.00    -0.550 OA
ATOM      4  O   UNL     1      16.015  72.795  72.204  1.00  0.00    -0.550 OA
ENDBRANCH   1   2
BRANCH   1   5
ATOM      5  C   UNL     1      14.114  69.983  73.555  1.00  0.00     0.006 C 
BRANCH   5   6
ATOM      6  C   UNL     1      14.689  70.417  74.912  1.00  0.00    -0.003 C 
ATOM      7  C   UNL     1      13.929  69.767  76.065  1.00  0.00     0.004 C 
ENDBRANCH   5   6
ENDBRANCH   1   5
TORSDOF 3
ENDMDL
MODEL 3
REMARK VINA RESULT:    -4.150      3.657      4.081
REMARK INTER + INTRA:          -4.915
REMARK INTER:                  -4.899
REMARK INTRA:                  -0.016
REMARK UNBOUND:                -0.037
REMARK SMILES CCCCC(=O)[O-]
REMARK SMILES IDX 4 1 5 2 6 3 7 4 3 5 2 6 1 7
REMARK H PARENT
REMARK Flexibility Score: inf
ROOT
ATOM      1  C   UNL     1      15.597  71.404  72.425  1.00  0.00     0.053 C 
ENDROOT
BRANCH   1   2
ATOM      2  C   UNL     1      16.883  72.134  72.187  1.00  0.00     0.041 C 
ATOM      3  O   UNL     1      16.978  73.359  72.459  1.00  0.00    -0.550 OA
ATOM      4  O   UNL     1      17.988  71.452  71.691  1.00  0.00    -0.550 OA
ENDBRANCH   1   2
BRANCH   1   5
ATOM      5  C   UNL     1      15.424  71.027  73.902  1.00  0.00     0.006 C 
BRANCH   5   6
ATOM      6  C   UNL     1      14.328  69.971  74.108  1.00  0.00    -0.003 C 
ATOM      7  C   UNL     1      13.939  69.862  75.579  1.00  0.00     0.004 C 
ENDBRANCH   5   6
ENDBRANCH   1   5
TORSDOF 3
ENDMDL
MODEL 4
REMARK VINA RESULT:    -4.139      3.047      3.833
REMARK INTER + INTRA:          -4.902
REMARK INTER:                  -4.871
REMARK INTRA:                  -0.032
REMARK UNBOUND:                -0.037
REMARK SMILES CCCCC(=O)[O-]
REMARK SMILES IDX 4 1 5 2 6 3 7 4 3 5 2 6 1 7
REMARK H PARENT
REMARK Flexibility Score: inf
ROOT
ATOM      1  C   UNL     1      15.436  71.097  73.759  1.00  0.00     0.053 C 
ENDROOT
BRANCH   1   2
ATOM      2  C   UNL     1      14.431  69.986  73.791  1.00  0.00     0.041 C 
ATOM      3  O   UNL     1      13.998  69.491  72.718  1.00  0.00    -0.550 OA
ATOM      4  O   UNL     1      13.995  69.478  75.009  1.00  0.00    -0.550 OA
ENDBRANCH   1   2
BRANCH   1   5
ATOM      5  C   UNL     1      15.679  71.601  72.330  1.00  0.00     0.006 C 
BRANCH   5   6
ATOM      6  C   UNL     1      17.164  71.884  72.059  1.00  0.00    -0.003 C 
ATOM      7  C   UNL     1      17.385  73.343  71.673  1.00  0.00     0.004 C 
ENDBRANCH   5   6
ENDBRANCH   1   5
TORSDOF 3
ENDMDL
MODEL 5
REMARK VINA RESULT:    -4.061      8.824      9.735
REMARK INTER + INTRA:          -4.810
REMARK INTER:                  -4.736
REMARK INTRA:                  -0.075
REMARK UNBOUND:                -0.037
REMARK SMILES CCCCC(=O)[O-]
REMARK SMILES IDX 4 1 5 2 6 3 7 4 3 5 2 6 1 7
REMARK H PARENT
REMARK Flexibility Score: inf
ROOT
ATOM      1  C   UNL     1      13.925  62.565  71.330  1.00  0.00     0.053 C 
ENDROOT
BRANCH   1   2
ATOM      2  C   UNL     1      13.519  61.695  72.480  1.00  0.00     0.041 C 
ATOM      3  O   UNL     1      12.905  62.188  73.463  1.00  0.00    -0.550 OA
ATOM      4  O   UNL     1      13.793  60.333  72.453  1.00  0.00    -0.550 OA
ENDBRANCH   1   2
BRANCH   1   5
ATOM      5  C   UNL     1      14.769  61.794  70.307  1.00  0.00     0.006 C 
BRANCH   5   6
ATOM      6  C   UNL     1      13.983  61.477  69.026  1.00  0.00    -0.003 C 
ATOM      7  C   UNL     1      13.108  62.657  68.612  1.00  0.00     0.004 C 
ENDBRANCH   5   6
ENDBRANCH   1   5
TORSDOF 3
ENDMDL
MODEL 6
REMARK VINA RESULT:    -4.009      8.865      9.602
REMARK INTER + INTRA:          -4.750
REMARK INTER:                  -4.733
REMARK INTRA:                  -0.017
REMARK UNBOUND:                -0.037
REMARK SMILES CCCCC(=O)[O-]
REMARK SMILES IDX 4 1 5 2 6 3 7 4 3 5 2 6 1 7
REMARK H PARENT
REMARK Flexibility Score: inf
ROOT
ATOM      1  C   UNL     1      21.790  70.891  72.218  1.00  0.00     0.053 C 
ENDROOT
BRANCH   1   2
ATOM      2  C   UNL     1      22.670  70.591  73.393  1.00  0.00     0.041 C 
ATOM      3  O   UNL     1      22.264  69.834  74.313  1.00  0.00    -0.550 OA
ATOM      4  O   UNL     1      23.951  71.126  73.457  1.00  0.00    -0.550 OA
ENDBRANCH   1   2
BRANCH   1   5
ATOM      5  C   UNL     1      21.155  69.617  71.646  1.00  0.00     0.006 C 
BRANCH   5   6
ATOM      6  C   UNL     1      20.652  69.814  70.209  1.00  0.00    -0.003 C 
ATOM      7  C   UNL     1      19.961  68.557  69.690  1.00  0.00     0.004 C 
ENDBRANCH   5   6
ENDBRANCH   1   5
TORSDOF 3
ENDMDL
MODEL 7
REMARK VINA RESULT:    -3.971      9.007      9.819
REMARK INTER + INTRA:          -4.704
REMARK INTER:                  -4.687
REMARK INTRA:                  -0.018
REMARK UNBOUND:                -0.037
REMARK SMILES CCCCC(=O)[O-]
REMARK SMILES IDX 4 1 5 2 6 3 7 4 3 5 2 6 1 7
REMARK H PARENT
REMARK Flexibility Score: inf
ROOT
ATOM      1  C   UNL     1      13.196  61.955  73.081  1.00  0.00     0.053 C 
ENDROOT
BRANCH   1   2
ATOM      2  C   UNL     1      13.582  60.972  74.143  1.00  0.00     0.041 C 
ATOM      3  O   UNL     1      13.602  59.739  73.890  1.00  0.00    -0.550 OA
ATOM      4  O   UNL     1      13.947  61.421  75.407  1.00  0.00    -0.550 OA
ENDBRANCH   1   2
BRANCH   1   5
ATOM      5  C   UNL     1      13.853  61.622  71.735  1.00  0.00     0.006 C 
BRANCH   5   6
ATOM      6  C   UNL     1      13.913  62.840  70.801  1.00  0.00    -0.003 C 
ATOM      7  C   UNL     1      13.862  62.414  69.337  1.00  0.00     0.004 C 
ENDBRANCH   5   6
ENDBRANCH   1   5
TORSDOF 3
ENDMDL
MODEL 8
REMARK VINA RESULT:    -3.950      3.036      4.173
REMARK INTER + INTRA:          -4.680
REMARK INTER:                  -4.573
REMARK INTRA:                  -0.108
REMARK UNBOUND:                -0.037
REMARK SMILES CCCCC(=O)[O-]
REMARK SMILES IDX 4 1 5 2 6 3 7 4 3 5 2 6 1 7
REMARK H PARENT
REMARK Flexibility Score: inf
ROOT
ATOM      1  C   UNL     1      14.012  69.951  74.718  1.00  0.00     0.053 C 
ENDROOT
BRANCH   1   2
ATOM      2  C   UNL     1      15.069  70.672  75.498  1.00  0.00     0.041 C 
ATOM      3  O   UNL     1      15.065  70.636  76.756  1.00  0.00    -0.550 OA
ATOM      4  O   UNL     1      16.077  71.359  74.832  1.00  0.00    -0.550 OA
ENDBRANCH   1   2
BRANCH   1   5
ATOM      5  C   UNL     1      14.334  69.922  73.219  1.00  0.00     0.006 C 
BRANCH   5   6
ATOM      6  C   UNL     1      13.324  70.731  72.392  1.00  0.00    -0.003 C 
ATOM      7  C   UNL     1      13.729  72.200  72.314  1.00  0.00     0.004 C 
ENDBRANCH   5   6
ENDBRANCH   1   5
TORSDOF 3
ENDMDL
MODEL 9
REMARK VINA RESULT:    -3.882      7.532      8.220
REMARK INTER + INTRA:          -4.600
REMARK INTER:                  -4.502
REMARK INTRA:                  -0.098
REMARK UNBOUND:                -0.037
REMARK SMILES CCCCC(=O)[O-]
REMARK SMILES IDX 4 1 5 2 6 3 7 4 3 5 2 6 1 7
REMARK H PARENT
REMARK Flexibility Score: inf
ROOT
ATOM      1  C   UNL     1       6.310  74.106  76.922  1.00  0.00     0.053 C 
ENDROOT
BRANCH   1   2
ATOM      2  C   UNL     1       5.211  73.191  76.473  1.00  0.00     0.041 C 
ATOM      3  O   UNL     1       4.356  72.773  77.297  1.00  0.00    -0.550 OA
ATOM      4  O   UNL     1       5.114  72.825  75.136  1.00  0.00    -0.550 OA
ENDBRANCH   1   2
BRANCH   1   5
ATOM      5  C   UNL     1       7.666  73.391  76.949  1.00  0.00     0.006 C 
BRANCH   5   6
ATOM      6  C   UNL     1       7.984  72.801  78.331  1.00  0.00    -0.003 C 
ATOM      7  C   UNL     1       7.913  71.277  78.308  1.00  0.00     0.004 C 
ENDBRANCH   5   6
ENDBRANCH   1   5
TORSDOF 3
ENDMDL
