MODEL 1
REMARK VINA RESULT:    -4.697      0.000      0.000
REMARK INTER + INTRA:          -5.100
REMARK INTER:                  -4.971
REMARK INTRA:                  -0.129
REMARK UNBOUND:                -0.129
REMARK SMILES C=C(C)[C@@H]1CC=C(C)CC1
REMARK SMILES IDX 8 1 7 2 6 3 5 4 4 5 10 6 9 7 2 8 1 9 3 10
REMARK H PARENT
REMARK Flexibility Score: inf
ROOT
ATOM      1  C   UNL     1       0.124   5.679  14.942  1.00  0.00     0.039 C 
ATOM      2  C   UNL     1      -0.236   4.282  14.517  1.00  0.00    -0.077 C 
ATOM      3  C   UNL     1       0.149   3.849  13.297  1.00  0.00    -0.027 C 
ATOM      4  C   UNL     1      -0.118   2.449  12.800  1.00  0.00     0.035 C 
ATOM      5  C   UNL     1      -1.293   1.784  13.537  1.00  0.00     0.018 C 
ATOM      6  C   UNL     1      -1.125   1.960  15.054  1.00  0.00     0.013 C 
ATOM      7  C   UNL     1      -1.131   3.451  15.416  1.00  0.00     0.031 C 
ENDROOT
BRANCH   5   8
ATOM      8  C   UNL     1      -1.426   0.316  13.156  1.00  0.00    -0.077 C 
ATOM      9  C   UNL     1      -1.192  -0.074  11.892  1.00  0.00     0.008 C 
ATOM     10  C   UNL     1      -1.811  -0.730  14.173  1.00  0.00     0.039 C 
ENDBRANCH   5   8
TORSDOF 1
ENDMDL
MODEL 2
REMARK VINA RESULT:    -4.695      1.395      4.236
REMARK INTER + INTRA:          -5.098
REMARK INTER:                  -4.966
REMARK INTRA:                  -0.132
REMARK UNBOUND:                -0.129
REMARK SMILES C=C(C)[C@@H]1CC=C(C)CC1
REMARK SMILES IDX 8 1 7 2 6 3 5 4 4 5 10 6 9 7 2 8 1 9 3 10
REMARK H PARENT
REMARK Flexibility Score: inf
ROOT
ATOM      1  C   UNL     1      -1.734  -1.281  14.093  1.00  0.00     0.039 C 
ATOM      2  C   UNL     1      -1.498   0.093  13.530  1.00  0.00    -0.077 C 
ATOM      3  C   UNL     1      -1.194   0.221  12.221  1.00  0.00    -0.027 C 
ATOM      4  C   UNL     1      -0.991   1.559  11.552  1.00  0.00     0.035 C 
ATOM      5  C   UNL     1      -0.622   2.663  12.558  1.00  0.00     0.018 C 
ATOM      6  C   UNL     1      -1.588   2.626  13.752  1.00  0.00     0.013 C 
ATOM      7  C   UNL     1      -1.479   1.278  14.476  1.00  0.00     0.031 C 
ENDROOT
BRANCH   5   8
ATOM      8  C   UNL     1      -0.605   4.033  11.894  1.00  0.00    -0.077 C 
ATOM      9  C   UNL     1      -1.148   4.198  10.677  1.00  0.00     0.008 C 
ATOM     10  C   UNL     1       0.004   5.233  12.579  1.00  0.00     0.039 C 
ENDBRANCH   5   8
TORSDOF 1
ENDMDL
MODEL 3
REMARK VINA RESULT:    -4.652      0.556      1.674
REMARK INTER + INTRA:          -5.052
REMARK INTER:                  -4.923
REMARK INTRA:                  -0.129
REMARK UNBOUND:                -0.129
REMARK SMILES C=C(C)[C@@H]1CC=C(C)CC1
REMARK SMILES IDX 8 1 7 2 6 3 5 4 4 5 10 6 9 7 2 8 1 9 3 10
REMARK H PARENT
REMARK Flexibility Score: inf
ROOT
ATOM      1  C   UNL     1      -0.597   5.476  15.185  1.00  0.00     0.039 C 
ATOM      2  C   UNL     1      -0.802   4.096  14.624  1.00  0.00    -0.077 C 
ATOM      3  C   UNL     1      -1.599   3.231  15.288  1.00  0.00    -0.027 C 
ATOM      4  C   UNL     1      -1.908   1.844  14.781  1.00  0.00     0.035 C 
ATOM      5  C   UNL     1      -0.845   1.334  13.792  1.00  0.00     0.018 C 
ATOM      6  C   UNL     1      -0.559   2.411  12.734  1.00  0.00     0.013 C 
ATOM      7  C   UNL     1      -0.006   3.675  13.404  1.00  0.00     0.031 C 
ENDROOT
BRANCH   5   8
ATOM      8  C   UNL     1      -1.269   0.020  13.152  1.00  0.00    -0.077 C 
ATOM      9  C   UNL     1      -1.300  -0.099  11.815  1.00  0.00     0.008 C 
ATOM     10  C   UNL     1      -1.654  -1.176  13.989  1.00  0.00     0.039 C 
ENDBRANCH   5   8
TORSDOF 1
ENDMDL
MODEL 4
REMARK VINA RESULT:    -4.572      1.430      4.454
REMARK INTER + INTRA:          -4.968
REMARK INTER:                  -4.843
REMARK INTRA:                  -0.125
REMARK UNBOUND:                -0.129
REMARK SMILES C=C(C)[C@@H]1CC=C(C)CC1
REMARK SMILES IDX 8 1 7 2 6 3 5 4 4 5 10 6 9 7 2 8 1 9 3 10
REMARK H PARENT
REMARK Flexibility Score: inf
ROOT
ATOM      1  C   UNL     1      -1.736  -1.252  14.127  1.00  0.00     0.039 C 
ATOM      2  C   UNL     1      -1.462   0.111  13.553  1.00  0.00    -0.077 C 
ATOM      3  C   UNL     1      -1.517   1.187  14.366  1.00  0.00    -0.027 C 
ATOM      4  C   UNL     1      -1.206   2.588  13.898  1.00  0.00     0.035 C 
ATOM      5  C   UNL     1      -1.369   2.742  12.376  1.00  0.00     0.018 C 
ATOM      6  C   UNL     1      -0.646   1.594  11.655  1.00  0.00     0.013 C 
ATOM      7  C   UNL     1      -1.262   0.248  12.056  1.00  0.00     0.031 C 
ENDROOT
BRANCH   5   8
ATOM      8  C   UNL     1      -0.874   4.101  11.901  1.00  0.00    -0.077 C 
ATOM      9  C   UNL     1      -1.342   4.625  10.757  1.00  0.00     0.008 C 
ATOM     10  C   UNL     1       0.135   4.893  12.696  1.00  0.00     0.039 C 
ENDBRANCH   5   8
TORSDOF 1
ENDMDL
MODEL 5
REMARK VINA RESULT:    -4.496      1.522      4.625
REMARK INTER + INTRA:          -4.888
REMARK INTER:                  -4.759
REMARK INTRA:                  -0.129
REMARK UNBOUND:                -0.129
REMARK SMILES C=C(C)[C@@H]1CC=C(C)CC1
REMARK SMILES IDX 8 1 7 2 6 3 5 4 4 5 10 6 9 7 2 8 1 9 3 10
REMARK H PARENT
REMARK Flexibility Score: inf
ROOT
ATOM      1  C   UNL     1      -1.751  -0.912  14.123  1.00  0.00     0.039 C 
ATOM      2  C   UNL     1      -1.660   0.588  14.064  1.00  0.00    -0.077 C 
ATOM      3  C   UNL     1      -2.491   1.324  14.833  1.00  0.00    -0.027 C 
ATOM      4  C   UNL     1      -2.443   2.832  14.884  1.00  0.00     0.035 C 
ATOM      5  C   UNL     1      -1.787   3.437  13.630  1.00  0.00     0.018 C 
ATOM      6  C   UNL     1      -0.466   2.711  13.331  1.00  0.00     0.013 C 
ATOM      7  C   UNL     1      -0.732   1.227  13.050  1.00  0.00     0.031 C 
ENDROOT
BRANCH   5   8
ATOM      8  C   UNL     1      -1.579   4.937  13.783  1.00  0.00    -0.077 C 
ATOM      9  C   UNL     1      -0.960   5.423  14.871  1.00  0.00     0.008 C 
ATOM     10  C   UNL     1      -2.047   5.908  12.727  1.00  0.00     0.039 C 
ENDBRANCH   5   8
TORSDOF 1
ENDMDL
MODEL 6
REMARK VINA RESULT:    -4.324      9.984     11.263
REMARK INTER + INTRA:          -4.705
REMARK INTER:                  -4.576
REMARK INTRA:                  -0.130
REMARK UNBOUND:                -0.129
REMARK SMILES C=C(C)[C@@H]1CC=C(C)CC1
REMARK SMILES IDX 8 1 7 2 6 3 5 4 4 5 10 6 9 7 2 8 1 9 3 10
REMARK H PARENT
REMARK Flexibility Score: inf
ROOT
ATOM      1  C   UNL     1      -9.578  -1.330   9.834  1.00  0.00     0.039 C 
ATOM      2  C   UNL     1      -9.902   0.133   9.709  1.00  0.00    -0.077 C 
ATOM      3  C   UNL     1      -9.975   0.685   8.479  1.00  0.00    -0.027 C 
ATOM      4  C   UNL     1     -10.344   2.130   8.248  1.00  0.00     0.035 C 
ATOM      5  C   UNL     1     -10.086   3.003   9.489  1.00  0.00     0.018 C 
ATOM      6  C   UNL     1     -10.679   2.328  10.734  1.00  0.00     0.013 C 
ATOM      7  C   UNL     1     -10.005   0.970  10.970  1.00  0.00     0.031 C 
ENDROOT
BRANCH   5   8
ATOM      8  C   UNL     1     -10.635   4.410   9.300  1.00  0.00    -0.077 C 
ATOM      9  C   UNL     1     -10.723   5.245  10.348  1.00  0.00     0.008 C 
ATOM     10  C   UNL     1     -11.082   4.906   7.946  1.00  0.00     0.039 C 
ENDBRANCH   5   8
TORSDOF 1
ENDMDL
MODEL 7
REMARK VINA RESULT:    -4.251      0.893      4.387
REMARK INTER + INTRA:          -4.628
REMARK INTER:                  -4.500
REMARK INTRA:                  -0.128
REMARK UNBOUND:                -0.129
REMARK SMILES C=C(C)[C@@H]1CC=C(C)CC1
REMARK SMILES IDX 8 1 7 2 6 3 5 4 4 5 10 6 9 7 2 8 1 9 3 10
REMARK H PARENT
REMARK Flexibility Score: inf
ROOT
ATOM      1  C   UNL     1      -1.505  -0.488  12.949  1.00  0.00     0.039 C 
ATOM      2  C   UNL     1      -1.149   0.909  13.377  1.00  0.00    -0.077 C 
ATOM      3  C   UNL     1      -0.518   1.721  12.501  1.00  0.00    -0.027 C 
ATOM      4  C   UNL     1      -0.166   3.154  12.818  1.00  0.00     0.035 C 
ATOM      5  C   UNL     1      -0.083   3.413  14.332  1.00  0.00     0.018 C 
ATOM      6  C   UNL     1      -1.324   2.835  15.029  1.00  0.00     0.013 C 
ATOM      7  C   UNL     1      -1.389   1.317  14.817  1.00  0.00     0.031 C 
ENDROOT
BRANCH   5   8
ATOM      8  C   UNL     1       0.088   4.896  14.632  1.00  0.00    -0.077 C 
ATOM      9  C   UNL     1      -0.986   5.656  14.901  1.00  0.00     0.008 C 
ATOM     10  C   UNL     1       1.451   5.545  14.645  1.00  0.00     0.039 C 
ENDBRANCH   5   8
TORSDOF 1
ENDMDL
MODEL 8
REMARK VINA RESULT:    -4.114      2.094      2.937
REMARK INTER + INTRA:          -4.483
REMARK INTER:                  -4.354
REMARK INTRA:                  -0.129
REMARK UNBOUND:                -0.129
REMARK SMILES C=C(C)[C@@H]1CC=C(C)CC1
REMARK SMILES IDX 8 1 7 2 6 3 5 4 4 5 10 6 9 7 2 8 1 9 3 10
REMARK H PARENT
REMARK Flexibility Score: inf
ROOT
ATOM      1  C   UNL     1      -1.547   6.556  11.325  1.00  0.00     0.039 C 
ATOM      2  C   UNL     1      -1.543   5.128  11.797  1.00  0.00    -0.077 C 
ATOM      3  C   UNL     1      -1.967   4.851  13.048  1.00  0.00    -0.027 C 
ATOM      4  C   UNL     1      -2.050   3.447  13.596  1.00  0.00     0.035 C 
ATOM      5  C   UNL     1      -1.125   2.473  12.844  1.00  0.00     0.018 C 
ATOM      6  C   UNL     1      -1.316   2.638  11.329  1.00  0.00     0.013 C 
ATOM      7  C   UNL     1      -0.940   4.062  10.901  1.00  0.00     0.031 C 
ENDROOT
BRANCH   5   8
ATOM      8  C   UNL     1      -1.361   1.035  13.285  1.00  0.00    -0.077 C 
ATOM      9  C   UNL     1      -1.668   0.765  14.563  1.00  0.00     0.008 C 
ATOM     10  C   UNL     1      -1.266  -0.113  12.309  1.00  0.00     0.039 C 
ENDBRANCH   5   8
TORSDOF 1
ENDMDL
MODEL 9
REMARK VINA RESULT:    -4.081     11.875     12.954
REMARK INTER + INTRA:          -4.449
REMARK INTER:                  -4.319
REMARK INTRA:                  -0.129
REMARK UNBOUND:                -0.129
REMARK SMILES C=C(C)[C@@H]1CC=C(C)CC1
REMARK SMILES IDX 8 1 7 2 6 3 5 4 4 5 10 6 9 7 2 8 1 9 3 10
REMARK H PARENT
REMARK Flexibility Score: inf
ROOT
ATOM      1  C   UNL     1       0.234  -9.153  10.364  1.00  0.00     0.039 C 
ATOM      2  C   UNL     1       1.507  -9.201  11.163  1.00  0.00    -0.077 C 
ATOM      3  C   UNL     1       2.543  -8.420  10.791  1.00  0.00    -0.027 C 
ATOM      4  C   UNL     1       3.842  -8.358  11.557  1.00  0.00     0.035 C 
ATOM      5  C   UNL     1       4.071  -9.613  12.418  1.00  0.00     0.018 C 
ATOM      6  C   UNL     1       2.803  -9.928  13.227  1.00  0.00     0.013 C 
ATOM      7  C   UNL     1       1.632 -10.219  12.280  1.00  0.00     0.031 C 
ENDROOT
BRANCH   5   8
ATOM      8  C   UNL     1       5.285  -9.451  13.321  1.00  0.00    -0.077 C 
ATOM      9  C   UNL     1       5.447  -8.325  14.036  1.00  0.00     0.008 C 
ATOM     10  C   UNL     1       6.325 -10.538  13.446  1.00  0.00     0.039 C 
ENDBRANCH   5   8
TORSDOF 1
ENDMDL
