MODEL 1
REMARK VINA RESULT:    -3.742      0.000      0.000
REMARK INTER + INTRA:          -3.852
REMARK INTER:                  -4.617
REMARK INTRA:                   0.765
REMARK UNBOUND:                 0.765
REMARK SMILES CC1=CC=CC(C)(C)CC1=O
REMARK SMILES IDX 1 1 2 2 3 3 10 4 11 5 9 6 4 8 5 9 6 10 7 11 8 12
REMARK H PARENT
REMARK Flexibility Score: 80.00
ROOT
ATOM      1  C   UNL     1      -5.564  14.715   6.297  1.00  0.00     0.048 C 
ATOM      2  C   UNL     1      -4.936  13.503   6.944  1.00  0.00    -0.008 C 
ATOM      3  C   UNL     1      -5.628  12.889   7.928  1.00  0.00     0.007 C 
ENDROOT
BRANCH   2   4
ATOM      4  C   UNL     1      -3.571  13.130   6.498  1.00  0.00     0.159 C 
ATOM      5  O   UNL     1      -2.937  13.925   5.750  1.00  0.00    -0.295 OA
BRANCH   4   6
ATOM      6  C   UNL     1      -2.899  11.846   6.876  1.00  0.00     0.091 CG0
ATOM      7  G   UNL     1      -2.763  11.657   8.403  1.00  0.00     0.000 G0
ENDBRANCH   4   6
ENDBRANCH   2   4
BRANCH   3   8
ATOM      8  C   UNL     1      -5.267  11.714   8.755  1.00  0.00    -0.003 C 
ATOM      9  C   UNL     1      -4.061  11.178   8.979  1.00  0.00    -0.020 C 
BRANCH   9  10
ATOM     10  C   UNL     1      -2.748  11.648   8.397  1.00  0.00    -0.010 CG0
ATOM     11  C   UNL     1      -1.690  10.545   8.633  1.00  0.00     0.016 C 
ATOM     12  C   UNL     1      -2.275  12.927   9.125  1.00  0.00     0.016 C 
ATOM     13  G   UNL     1      -2.897  11.851   6.873  1.00  0.00     0.000 G0
ENDBRANCH   9  10
ENDBRANCH   3   8
TORSDOF 0
ENDMDL
MODEL 2
REMARK VINA RESULT:    -2.848      1.496      3.590
REMARK INTER + INTRA:          -2.749
REMARK INTER:                  -3.488
REMARK INTRA:                   0.739
REMARK UNBOUND:                 0.765
REMARK SMILES CC1=CC=CC(C)(C)CC1=O
REMARK SMILES IDX 1 1 2 2 3 3 10 4 11 5 9 6 4 8 5 9 6 10 7 11 8 12
REMARK H PARENT
REMARK Flexibility Score: 80.00
ROOT
ATOM      1  C   UNL     1      -2.969  10.326   8.723  1.00  0.00     0.048 C 
ATOM      2  C   UNL     1      -3.660  11.605   8.311  1.00  0.00    -0.008 C 
ATOM      3  C   UNL     1      -4.625  12.085   9.125  1.00  0.00     0.007 C 
ENDROOT
BRANCH   2   4
ATOM      4  C   UNL     1      -3.274  12.191   7.004  1.00  0.00     0.159 C 
ATOM      5  O   UNL     1      -2.535  11.520   6.231  1.00  0.00    -0.295 OA
BRANCH   4   6
ATOM      6  C   UNL     1      -3.703  13.552   6.549  1.00  0.00     0.091 CG0
ATOM      7  G   UNL     1      -5.237  13.712   6.472  1.00  0.00     0.000 G0
ENDBRANCH   4   6
ENDBRANCH   2   4
BRANCH   3   8
ATOM      8  C   UNL     1      -5.485  13.282   8.978  1.00  0.00    -0.003 C 
ATOM      9  C   UNL     1      -5.768  13.988   7.876  1.00  0.00    -0.020 C 
BRANCH   9  10
ATOM     10  C   UNL     1      -5.236  13.733   6.485  1.00  0.00    -0.010 CG0
ATOM     11  C   UNL     1      -5.511  14.986   5.622  1.00  0.00     0.016 C 
ATOM     12  C   UNL     1      -5.980  12.540   5.845  1.00  0.00     0.016 C 
ATOM     13  G   UNL     1      -3.707  13.518   6.545  1.00  0.00     0.000 G0
ENDBRANCH   9  10
ENDBRANCH   3   8
TORSDOF 0
ENDMDL
MODEL 3
REMARK VINA RESULT:    -2.446      1.478      2.438
REMARK INTER + INTRA:          -2.253
REMARK INTER:                  -3.308
REMARK INTRA:                   1.055
REMARK UNBOUND:                 0.765
REMARK SMILES CC1=CC=CC(C)(C)CC1=O
REMARK SMILES IDX 1 1 2 2 3 3 10 4 11 5 9 6 4 8 5 9 6 10 7 11 8 12
REMARK H PARENT
REMARK Flexibility Score: 80.00
ROOT
ATOM      1  C   UNL     1      -5.394  15.215   6.149  1.00  0.00     0.048 C 
ATOM      2  C   UNL     1      -4.645  13.969   6.559  1.00  0.00    -0.008 C 
ATOM      3  C   UNL     1      -3.547  13.636   5.847  1.00  0.00     0.007 C 
ENDROOT
BRANCH   2   4
ATOM      4  C   UNL     1      -5.220  13.168   7.669  1.00  0.00     0.159 C 
ATOM      5  O   UNL     1      -6.092  13.698   8.412  1.00  0.00    -0.295 OA
BRANCH   4   6
ATOM      6  C   UNL     1      -4.811  11.759   7.970  1.00  0.00     0.091 CG0
ATOM      7  G   UNL     1      -3.310  11.619   8.306  1.00  0.00     0.000 G0
ENDBRANCH   4   6
ENDBRANCH   2   4
BRANCH   3   8
ATOM      8  C   UNL     1      -2.635  12.477   5.990  1.00  0.00    -0.003 C 
ATOM      9  C   UNL     1      -2.526  11.608   7.003  1.00  0.00    -0.020 C 
BRANCH   9  10
ATOM     10  C   UNL     1      -3.317  11.628   8.290  1.00  0.00    -0.010 CG0
ATOM     11  C   UNL     1      -2.880  12.865   9.109  1.00  0.00     0.016 C 
ATOM     12  C   UNL     1      -2.999  10.367   9.125  1.00  0.00     0.016 C 
ATOM     13  G   UNL     1      -4.822  11.769   7.975  1.00  0.00     0.000 G0
ENDBRANCH   9  10
ENDBRANCH   3   8
TORSDOF 0
ENDMDL
MODEL 4
REMARK VINA RESULT:    -1.763      1.962      3.734
REMARK INTER + INTRA:          -1.410
REMARK INTER:                  -2.406
REMARK INTRA:                   0.996
REMARK UNBOUND:                 0.765
REMARK SMILES CC1=CC=CC(C)(C)CC1=O
REMARK SMILES IDX 1 1 2 2 3 3 10 4 11 5 9 6 4 8 5 9 6 10 7 11 8 12
REMARK H PARENT
REMARK Flexibility Score: 80.00
ROOT
ATOM      1  C   UNL     1      -1.995  10.976   6.670  1.00  0.00     0.048 C 
ATOM      2  C   UNL     1      -3.041  11.995   7.055  1.00  0.00    -0.008 C 
ATOM      3  C   UNL     1      -3.295  12.994   6.182  1.00  0.00     0.007 C 
ENDROOT
BRANCH   2   4
ATOM      4  C   UNL     1      -3.655  11.859   8.399  1.00  0.00     0.159 C 
ATOM      5  O   UNL     1      -3.511  10.773   9.026  1.00  0.00    -0.295 OA
BRANCH   4   6
ATOM      6  C   UNL     1      -4.457  12.940   9.056  1.00  0.00     0.091 CG0
ATOM      7  G   UNL     1      -5.694  13.365   8.235  1.00  0.00     0.000 G0
ENDBRANCH   4   6
ENDBRANCH   2   4
BRANCH   3   8
ATOM      8  C   UNL     1      -4.231  14.137   6.289  1.00  0.00    -0.003 C 
ATOM      9  C   UNL     1      -5.235  14.328   7.153  1.00  0.00    -0.020 C 
BRANCH   9  10
ATOM     10  C   UNL     1      -5.677  13.375   8.239  1.00  0.00    -0.010 CG0
ATOM     11  C   UNL     1      -6.317  12.137   7.567  1.00  0.00     0.016 C 
ATOM     12  C   UNL     1      -6.751  14.045   9.125  1.00  0.00     0.016 C 
ATOM     13  G   UNL     1      -4.450  12.900   9.048  1.00  0.00     0.000 G0
ENDBRANCH   9  10
ENDBRANCH   3   8
TORSDOF 0
ENDMDL
MODEL 5
REMARK VINA RESULT:    -1.204      2.104      4.052
REMARK INTER + INTRA:          -0.720
REMARK INTER:                  -1.495
REMARK INTRA:                   0.775
REMARK UNBOUND:                 0.765
REMARK SMILES CC1=CC=CC(C)(C)CC1=O
REMARK SMILES IDX 1 1 2 2 3 3 10 4 11 5 9 6 4 8 5 9 6 10 7 11 8 12
REMARK H PARENT
REMARK Flexibility Score: 80.00
ROOT
ATOM      1  C   UNL     1      -3.333  10.606   9.125  1.00  0.00     0.048 C 
ATOM      2  C   UNL     1      -3.683  11.611   8.053  1.00  0.00    -0.008 C 
ATOM      3  C   UNL     1      -2.680  12.362   7.548  1.00  0.00     0.007 C 
ENDROOT
BRANCH   2   4
ATOM      4  C   UNL     1      -5.117  11.746   7.694  1.00  0.00     0.159 C 
ATOM      5  O   UNL     1      -5.982  11.195   8.430  1.00  0.00    -0.295 OA
BRANCH   4   6
ATOM      6  C   UNL     1      -5.601  12.494   6.491  1.00  0.00     0.091 CG0
ATOM      7  G   UNL     1      -5.203  13.987   6.501  1.00  0.00     0.000 G0
ENDBRANCH   4   6
ENDBRANCH   2   4
BRANCH   3   8
ATOM      8  C   UNL     1      -2.716  13.431   6.524  1.00  0.00    -0.003 C 
ATOM      9  C   UNL     1      -3.761  14.140   6.078  1.00  0.00    -0.020 C 
BRANCH   9  10
ATOM     10  C   UNL     1      -5.199  13.987   6.514  1.00  0.00    -0.010 CG0
ATOM     11  C   UNL     1      -6.095  14.746   5.507  1.00  0.00     0.016 C 
ATOM     12  C   UNL     1      -5.401  14.625   7.907  1.00  0.00     0.016 C 
ATOM     13  G   UNL     1      -5.598  12.495   6.479  1.00  0.00     0.000 G0
ENDBRANCH   9  10
ENDBRANCH   3   8
TORSDOF 0
ENDMDL
MODEL 6
REMARK VINA RESULT:    -0.767      1.923      3.302
REMARK INTER + INTRA:          -0.181
REMARK INTER:                  -0.941
REMARK INTRA:                   0.759
REMARK UNBOUND:                 0.765
REMARK SMILES CC1=CC=CC(C)(C)CC1=O
REMARK SMILES IDX 1 1 2 2 3 3 10 4 11 5 9 6 4 8 5 9 6 10 7 11 8 12
REMARK H PARENT
REMARK Flexibility Score: 80.00
ROOT
ATOM      1  C   UNL     1      -2.810  14.383   4.688  1.00  0.00     0.048 C 
ATOM      2  C   UNL     1      -3.471  13.962   5.979  1.00  0.00    -0.008 C 
ATOM      3  C   UNL     1      -2.789  13.122   6.788  1.00  0.00     0.007 C 
ENDROOT
BRANCH   2   4
ATOM      4  C   UNL     1      -4.853  14.447   6.221  1.00  0.00     0.159 C 
ATOM      5  O   UNL     1      -5.473  15.011   5.277  1.00  0.00    -0.295 OA
BRANCH   4   6
ATOM      6  C   UNL     1      -5.557  14.317   7.537  1.00  0.00     0.091 CG0
ATOM      7  G   UNL     1      -5.716  12.852   7.999  1.00  0.00     0.000 G0
ENDBRANCH   4   6
ENDBRANCH   2   4
BRANCH   3   8
ATOM      8  C   UNL     1      -3.180  12.523   8.085  1.00  0.00    -0.003 C 
ATOM      9  C   UNL     1      -4.400  12.389   8.620  1.00  0.00    -0.020 C 
BRANCH   9  10
ATOM     10  C   UNL     1      -5.701  12.861   8.014  1.00  0.00    -0.010 CG0
ATOM     11  C   UNL     1      -6.788  12.826   9.113  1.00  0.00     0.016 C 
ATOM     12  C   UNL     1      -6.136  11.902   6.883  1.00  0.00     0.016 C 
ATOM     13  G   UNL     1      -5.553  14.321   7.533  1.00  0.00     0.000 G0
ENDBRANCH   9  10
ENDBRANCH   3   8
TORSDOF 0
ENDMDL
