MODEL 1
REMARK VINA RESULT:    -6.909      0.000      0.000
REMARK INTER + INTRA:          -8.850
REMARK INTER:                  -8.524
REMARK INTRA:                  -0.325
REMARK UNBOUND:                -0.325
REMARK SMILES COc1cc(-c2oc3cc(O)cc(O)c3c(=O)c2O)ccc1O
REMARK SMILES IDX 6 1 18 2 16 3 17 4 15 5 13 6 12 7 10 8 9 9 8 10 7 11 5 12
REMARK SMILES IDX 3 13 22 14 4 15 21 16 20 17 2 18 1 19 23 20 19 22 14 24
REMARK SMILES IDX 11 26
REMARK H PARENT 23 21 19 23 14 25 11 27
REMARK Flexibility Score: inf
ROOT
ATOM      1  C   UNL     1      13.028   9.788  12.980  1.00  0.00     0.180 A 
ATOM      2  C   UNL     1      12.898  10.210  14.314  1.00  0.00     0.208 A 
ATOM      3  C   UNL     1      11.618  10.286  14.884  1.00  0.00     0.238 A 
ATOM      4  O   UNL     1      11.513  10.613  16.095  1.00  0.00    -0.285 OA
ATOM      5  C   UNL     1      10.481   9.955  14.108  1.00  0.00     0.111 A 
ATOM      6  C   UNL     1       9.133  10.033  14.570  1.00  0.00     0.134 A 
ATOM      7  C   UNL     1       8.095   9.556  13.759  1.00  0.00     0.093 A 
ATOM      8  C   UNL     1       8.352   9.063  12.477  1.00  0.00     0.123 A 
ATOM      9  C   UNL     1       9.657   9.037  11.995  1.00  0.00     0.094 A 
ATOM     10  C   UNL     1      10.718   9.473  12.794  1.00  0.00     0.146 A 
ATOM     11  O   UNL     1      11.948   9.421  12.298  1.00  0.00    -0.452 OA
ENDROOT
BRANCH   1  12
ATOM     12  C   UNL     1      14.343   9.706  12.303  1.00  0.00     0.025 A 
ATOM     13  C   UNL     1      16.125   8.337  11.335  1.00  0.00     0.161 A 
ATOM     14  C   UNL     1      16.808   9.509  10.963  1.00  0.00     0.157 A 
ATOM     15  C   UNL     1      14.887   8.447  12.000  1.00  0.00     0.062 A 
ATOM     16  C   UNL     1      16.257  10.761  11.245  1.00  0.00     0.051 A 
ATOM     17  C   UNL     1      15.031  10.863  11.904  1.00  0.00     0.016 A 
BRANCH  13  18
ATOM     18  O   UNL     1      16.698   7.092  11.032  1.00  0.00    -0.493 OA
ATOM     19  C   UNL     1      16.383   5.873  11.697  1.00  0.00     0.278 C 
ENDBRANCH  13  18
BRANCH  14  20
ATOM     20  O   UNL     1      18.037   9.447  10.305  1.00  0.00    -0.504 OA
ATOM     21  H   UNL     1      18.643   8.638  10.366  1.00  0.00     0.293 HD
ENDBRANCH  14  20
ENDBRANCH   1  12
BRANCH   2  22
ATOM     22  O   UNL     1      14.036  10.512  15.068  1.00  0.00    -0.502 OA
ATOM     23  H   UNL     1      14.266  10.022  15.925  1.00  0.00     0.293 HD
ENDBRANCH   2  22
BRANCH   6  24
ATOM     24  O   UNL     1       8.759  10.593  15.796  1.00  0.00    -0.507 OA
ATOM     25  H   UNL     1       7.880  10.423  16.261  1.00  0.00     0.293 HD
ENDBRANCH   6  24
BRANCH   8  26
ATOM     26  O   UNL     1       7.312   8.605  11.672  1.00  0.00    -0.508 OA
ATOM     27  H   UNL     1       6.615   9.237  11.294  1.00  0.00     0.293 HD
ENDBRANCH   8  26
TORSDOF 6
ENDMDL
MODEL 2
REMARK VINA RESULT:    -6.883      0.858      2.016
REMARK INTER + INTRA:          -8.818
REMARK INTER:                  -8.473
REMARK INTRA:                  -0.345
REMARK UNBOUND:                -0.325
REMARK SMILES COc1cc(-c2oc3cc(O)cc(O)c3c(=O)c2O)ccc1O
REMARK SMILES IDX 6 1 18 2 16 3 17 4 15 5 13 6 12 7 10 8 9 9 8 10 7 11 5 12
REMARK SMILES IDX 3 13 22 14 4 15 21 16 20 17 2 18 1 19 23 20 19 22 14 24
REMARK SMILES IDX 11 26
REMARK H PARENT 23 21 19 23 14 25 11 27
REMARK Flexibility Score: inf
ROOT
ATOM      1  C   UNL     1      13.208   9.758  13.016  1.00  0.00     0.180 A 
ATOM      2  C   UNL     1      13.264  10.320  14.303  1.00  0.00     0.208 A 
ATOM      3  C   UNL     1      12.067  10.559  14.995  1.00  0.00     0.238 A 
ATOM      4  O   UNL     1      12.126  11.012  16.168  1.00  0.00    -0.285 OA
ATOM      5  C   UNL     1      10.827  10.247  14.387  1.00  0.00     0.111 A 
ATOM      6  C   UNL     1       9.550  10.482  14.980  1.00  0.00     0.134 A 
ATOM      7  C   UNL     1       8.395  10.014  14.342  1.00  0.00     0.093 A 
ATOM      8  C   UNL     1       8.466   9.376  13.100  1.00  0.00     0.123 A 
ATOM      9  C   UNL     1       9.702   9.194  12.486  1.00  0.00     0.094 A 
ATOM     10  C   UNL     1      10.876   9.618  13.115  1.00  0.00     0.146 A 
ATOM     11  O   UNL     1      12.034   9.416  12.498  1.00  0.00    -0.452 OA
ENDROOT
BRANCH   1  12
ATOM     12  C   UNL     1      14.427   9.501  12.215  1.00  0.00     0.025 A 
ATOM     13  C   UNL     1      16.270  10.365  10.858  1.00  0.00     0.161 A 
ATOM     14  C   UNL     1      16.780   9.061  10.737  1.00  0.00     0.157 A 
ATOM     15  C   UNL     1      15.095  10.576  11.607  1.00  0.00     0.062 A 
ATOM     16  C   UNL     1      16.128   7.993  11.359  1.00  0.00     0.051 A 
ATOM     17  C   UNL     1      14.964   8.209  12.099  1.00  0.00     0.016 A 
BRANCH  13  18
ATOM     18  O   UNL     1      16.950  11.421  10.229  1.00  0.00    -0.493 OA
ATOM     19  C   UNL     1      17.867  12.294  10.879  1.00  0.00     0.278 C 
ENDBRANCH  13  18
BRANCH  14  20
ATOM     20  O   UNL     1      17.939   8.805  10.004  1.00  0.00    -0.504 OA
ATOM     21  H   UNL     1      18.795   9.328  10.146  1.00  0.00     0.293 HD
ENDBRANCH  14  20
ENDBRANCH   1  12
BRANCH   2  22
ATOM     22  O   UNL     1      14.500  10.601  14.893  1.00  0.00    -0.502 OA
ATOM     23  H   UNL     1      15.061   9.889  15.345  1.00  0.00     0.293 HD
ENDBRANCH   2  22
BRANCH   6  24
ATOM     24  O   UNL     1       9.362  11.190  16.171  1.00  0.00    -0.507 OA
ATOM     25  H   UNL     1       9.366  10.777  17.091  1.00  0.00     0.293 HD
ENDBRANCH   6  24
BRANCH   8  26
ATOM     26  O   UNL     1       7.310   8.927  12.465  1.00  0.00    -0.508 OA
ATOM     27  H   UNL     1       6.388   9.187  12.796  1.00  0.00     0.293 HD
ENDBRANCH   8  26
TORSDOF 6
ENDMDL
MODEL 3
REMARK VINA RESULT:    -6.447      1.465      7.037
REMARK INTER + INTRA:          -8.280
REMARK INTER:                  -7.921
REMARK INTRA:                  -0.359
REMARK UNBOUND:                -0.325
REMARK SMILES COc1cc(-c2oc3cc(O)cc(O)c3c(=O)c2O)ccc1O
REMARK SMILES IDX 6 1 18 2 16 3 17 4 15 5 13 6 12 7 10 8 9 9 8 10 7 11 5 12
REMARK SMILES IDX 3 13 22 14 4 15 21 16 20 17 2 18 1 19 23 20 19 22 14 24
REMARK SMILES IDX 11 26
REMARK H PARENT 23 21 19 23 14 25 11 27
REMARK Flexibility Score: inf
ROOT
ATOM      1  C   UNL     1      13.709   9.765  12.757  1.00  0.00     0.180 A 
ATOM      2  C   UNL     1      14.365  10.660  11.894  1.00  0.00     0.208 A 
ATOM      3  C   UNL     1      15.471  10.210  11.158  1.00  0.00     0.238 A 
ATOM      4  O   UNL     1      16.020  11.000  10.346  1.00  0.00    -0.285 OA
ATOM      5  C   UNL     1      15.920   8.874  11.305  1.00  0.00     0.111 A 
ATOM      6  C   UNL     1      17.054   8.322  10.638  1.00  0.00     0.134 A 
ATOM      7  C   UNL     1      17.328   6.954  10.758  1.00  0.00     0.093 A 
ATOM      8  C   UNL     1      16.545   6.132  11.573  1.00  0.00     0.123 A 
ATOM      9  C   UNL     1      15.471   6.673  12.274  1.00  0.00     0.094 A 
ATOM     10  C   UNL     1      15.152   8.028  12.146  1.00  0.00     0.146 A 
ATOM     11  O   UNL     1      14.113   8.501  12.824  1.00  0.00    -0.452 OA
ENDROOT
BRANCH   1  12
ATOM     12  C   UNL     1      12.550  10.173  13.585  1.00  0.00     0.025 A 
ATOM     13  C   UNL     1      10.139  10.119  13.994  1.00  0.00     0.161 A 
ATOM     14  C   UNL     1      10.331  10.876  15.164  1.00  0.00     0.157 A 
ATOM     15  C   UNL     1      11.259   9.766  13.213  1.00  0.00     0.062 A 
ATOM     16  C   UNL     1      11.618  11.263  15.545  1.00  0.00     0.051 A 
ATOM     17  C   UNL     1      12.722  10.910  14.767  1.00  0.00     0.016 A 
BRANCH  13  18
ATOM     18  O   UNL     1       8.835   9.737  13.639  1.00  0.00    -0.493 OA
ATOM     19  C   UNL     1       8.507   8.934  12.511  1.00  0.00     0.278 C 
ENDBRANCH  13  18
BRANCH  14  20
ATOM     20  O   UNL     1       9.251  11.249  15.965  1.00  0.00    -0.504 OA
ATOM     21  H   UNL     1       9.204  11.019  16.950  1.00  0.00     0.293 HD
ENDBRANCH  14  20
ENDBRANCH   1  12
BRANCH   2  22
ATOM     22  O   UNL     1      13.892  11.967  11.749  1.00  0.00    -0.502 OA
ATOM     23  H   UNL     1      13.927  12.644  12.501  1.00  0.00     0.293 HD
ENDBRANCH   2  22
BRANCH   6  24
ATOM     24  O   UNL     1      17.953   9.073   9.875  1.00  0.00    -0.507 OA
ATOM     25  H   UNL     1      17.909   9.177   8.872  1.00  0.00     0.293 HD
ENDBRANCH   6  24
BRANCH   8  26
ATOM     26  O   UNL     1      16.834   4.775  11.699  1.00  0.00    -0.508 OA
ATOM     27  H   UNL     1      17.003   4.191  10.888  1.00  0.00     0.293 HD
ENDBRANCH   8  26
TORSDOF 6
ENDMDL
MODEL 4
REMARK VINA RESULT:    -6.252      1.659      7.026
REMARK INTER + INTRA:          -8.040
REMARK INTER:                  -7.667
REMARK INTRA:                  -0.373
REMARK UNBOUND:                -0.325
REMARK SMILES COc1cc(-c2oc3cc(O)cc(O)c3c(=O)c2O)ccc1O
REMARK SMILES IDX 6 1 18 2 16 3 17 4 15 5 13 6 12 7 10 8 9 9 8 10 7 11 5 12
REMARK SMILES IDX 3 13 22 14 4 15 21 16 20 17 2 18 1 19 23 20 19 22 14 24
REMARK SMILES IDX 11 26
REMARK H PARENT 23 21 19 23 14 25 11 27
REMARK Flexibility Score: inf
ROOT
ATOM      1  C   UNL     1      12.612  10.432  12.451  1.00  0.00     0.180 A 
ATOM      2  C   UNL     1      13.000  11.694  11.968  1.00  0.00     0.208 A 
ATOM      3  C   UNL     1      14.274  11.844  11.399  1.00  0.00     0.238 A 
ATOM      4  O   UNL     1      14.595  12.962  10.920  1.00  0.00    -0.285 OA
ATOM      5  C   UNL     1      15.152  10.734  11.334  1.00  0.00     0.111 A 
ATOM      6  C   UNL     1      16.480  10.781  10.814  1.00  0.00     0.134 A 
ATOM      7  C   UNL     1      17.211   9.593  10.679  1.00  0.00     0.093 A 
ATOM      8  C   UNL     1      16.684   8.371  11.105  1.00  0.00     0.123 A 
ATOM      9  C   UNL     1      15.412   8.325  11.667  1.00  0.00     0.094 A 
ATOM     10  C   UNL     1      14.644   9.487  11.782  1.00  0.00     0.146 A 
ATOM     11  O   UNL     1      13.432   9.396  12.316  1.00  0.00    -0.452 OA
ENDROOT
BRANCH   1  12
ATOM     12  C   UNL     1      11.294  10.202  13.086  1.00  0.00     0.025 A 
ATOM     13  C   UNL     1       9.016   9.323  12.937  1.00  0.00     0.161 A 
ATOM     14  C   UNL     1       8.796   9.692  14.276  1.00  0.00     0.157 A 
ATOM     15  C   UNL     1      10.273   9.577  12.352  1.00  0.00     0.062 A 
ATOM     16  C   UNL     1       9.819  10.295  15.013  1.00  0.00     0.051 A 
ATOM     17  C   UNL     1      11.061  10.544  14.427  1.00  0.00     0.016 A 
BRANCH  13  18
ATOM     18  O   UNL     1       7.973   8.711  12.222  1.00  0.00    -0.493 OA
ATOM     19  C   UNL     1       8.130   8.044  10.975  1.00  0.00     0.278 C 
ENDBRANCH  13  18
BRANCH  14  20
ATOM     20  O   UNL     1       7.567   9.462  14.894  1.00  0.00    -0.504 OA
ATOM     21  H   UNL     1       7.491   9.226  15.876  1.00  0.00     0.293 HD
ENDBRANCH  14  20
ENDBRANCH   1  12
BRANCH   2  22
ATOM     22  O   UNL     1      12.110  12.771  12.024  1.00  0.00    -0.502 OA
ATOM     23  H   UNL     1      12.333  13.680  11.636  1.00  0.00     0.293 HD
ENDBRANCH   2  22
BRANCH   6  24
ATOM     24  O   UNL     1      17.133  11.960  10.446  1.00  0.00    -0.507 OA
ATOM     25  H   UNL     1      17.777  12.468  11.034  1.00  0.00     0.293 HD
ENDBRANCH   6  24
BRANCH   8  26
ATOM     26  O   UNL     1      17.425   7.197  10.981  1.00  0.00    -0.508 OA
ATOM     27  H   UNL     1      18.186   7.118  10.318  1.00  0.00     0.293 HD
ENDBRANCH   8  26
TORSDOF 6
ENDMDL
MODEL 5
REMARK VINA RESULT:    -6.111      1.676      7.144
REMARK INTER + INTRA:          -7.865
REMARK INTER:                  -7.464
REMARK INTRA:                  -0.401
REMARK UNBOUND:                -0.325
REMARK SMILES COc1cc(-c2oc3cc(O)cc(O)c3c(=O)c2O)ccc1O
REMARK SMILES IDX 6 1 18 2 16 3 17 4 15 5 13 6 12 7 10 8 9 9 8 10 7 11 5 12
REMARK SMILES IDX 3 13 22 14 4 15 21 16 20 17 2 18 1 19 23 20 19 22 14 24
REMARK SMILES IDX 11 26
REMARK H PARENT 23 21 19 23 14 25 11 27
REMARK Flexibility Score: inf
ROOT
ATOM      1  C   UNL     1      12.507  10.113  12.210  1.00  0.00     0.180 A 
ATOM      2  C   UNL     1      12.843  11.339  11.610  1.00  0.00     0.208 A 
ATOM      3  C   UNL     1      14.111  11.489  11.028  1.00  0.00     0.238 A 
ATOM      4  O   UNL     1      14.385  12.569  10.445  1.00  0.00    -0.285 OA
ATOM      5  C   UNL     1      15.035  10.416  11.068  1.00  0.00     0.111 A 
ATOM      6  C   UNL     1      16.362  10.470  10.545  1.00  0.00     0.134 A 
ATOM      7  C   UNL     1      17.143   9.308  10.522  1.00  0.00     0.093 A 
ATOM      8  C   UNL     1      16.668   8.110  11.063  1.00  0.00     0.123 A 
ATOM      9  C   UNL     1      15.397   8.063  11.628  1.00  0.00     0.094 A 
ATOM     10  C   UNL     1      14.580   9.197  11.633  1.00  0.00     0.146 A 
ATOM     11  O   UNL     1      13.371   9.105  12.174  1.00  0.00    -0.452 OA
ENDROOT
BRANCH   1  12
ATOM     12  C   UNL     1      11.198   9.888  12.865  1.00  0.00     0.025 A 
ATOM     13  C   UNL     1       9.799  10.031  14.867  1.00  0.00     0.161 A 
ATOM     14  C   UNL     1       8.710   9.535  14.129  1.00  0.00     0.157 A 
ATOM     15  C   UNL     1      11.040  10.211  14.223  1.00  0.00     0.062 A 
ATOM     16  C   UNL     1       8.861   9.233  12.773  1.00  0.00     0.051 A 
ATOM     17  C   UNL     1      10.093   9.413  12.141  1.00  0.00     0.016 A 
BRANCH  13  18
ATOM     18  O   UNL     1       9.617  10.332  16.226  1.00  0.00    -0.493 OA
ATOM     19  C   UNL     1       9.984   9.475  17.302  1.00  0.00     0.278 C 
ENDBRANCH  13  18
BRANCH  14  20
ATOM     20  O   UNL     1       7.465   9.338  14.727  1.00  0.00    -0.504 OA
ATOM     21  H   UNL     1       7.341   8.742  15.537  1.00  0.00     0.293 HD
ENDBRANCH  14  20
ENDBRANCH   1  12
BRANCH   2  22
ATOM     22  O   UNL     1      11.907  12.377  11.564  1.00  0.00    -0.502 OA
ATOM     23  H   UNL     1      11.482  12.763  12.398  1.00  0.00     0.293 HD
ENDBRANCH   2  22
BRANCH   6  24
ATOM     24  O   UNL     1      16.966  11.637  10.066  1.00  0.00    -0.507 OA
ATOM     25  H   UNL     1      17.370  11.738   9.147  1.00  0.00     0.293 HD
ENDBRANCH   6  24
BRANCH   8  26
ATOM     26  O   UNL     1      17.458   6.963  11.050  1.00  0.00    -0.508 OA
ATOM     27  H   UNL     1      18.292   6.899  10.478  1.00  0.00     0.293 HD
ENDBRANCH   8  26
TORSDOF 6
ENDMDL
MODEL 6
REMARK VINA RESULT:    -5.887      2.278      4.489
REMARK INTER + INTRA:          -7.589
REMARK INTER:                  -7.305
REMARK INTRA:                  -0.283
REMARK UNBOUND:                -0.325
REMARK SMILES COc1cc(-c2oc3cc(O)cc(O)c3c(=O)c2O)ccc1O
REMARK SMILES IDX 6 1 18 2 16 3 17 4 15 5 13 6 12 7 10 8 9 9 8 10 7 11 5 12
REMARK SMILES IDX 3 13 22 14 4 15 21 16 20 17 2 18 1 19 23 20 19 22 14 24
REMARK SMILES IDX 11 26
REMARK H PARENT 23 21 19 23 14 25 11 27
REMARK Flexibility Score: inf
ROOT
ATOM      1  C   UNL     1      14.905   8.260  12.664  1.00  0.00     0.180 A 
ATOM      2  C   UNL     1      15.571   9.285  11.970  1.00  0.00     0.208 A 
ATOM      3  C   UNL     1      14.985  10.558  11.906  1.00  0.00     0.238 A 
ATOM      4  O   UNL     1      15.612  11.485  11.330  1.00  0.00    -0.285 OA
ATOM      5  C   UNL     1      13.731  10.789  12.523  1.00  0.00     0.111 A 
ATOM      6  C   UNL     1      13.026  12.029  12.488  1.00  0.00     0.134 A 
ATOM      7  C   UNL     1      11.856  12.180  13.244  1.00  0.00     0.093 A 
ATOM      8  C   UNL     1      11.333  11.114  13.981  1.00  0.00     0.123 A 
ATOM      9  C   UNL     1      11.982   9.883  13.974  1.00  0.00     0.094 A 
ATOM     10  C   UNL     1      13.171   9.712  13.259  1.00  0.00     0.146 A 
ATOM     11  O   UNL     1      13.763   8.524  13.288  1.00  0.00    -0.452 OA
ENDROOT
BRANCH   1  12
ATOM     12  C   UNL     1      15.449   6.886  12.754  1.00  0.00     0.025 A 
ATOM     13  C   UNL     1      16.039   4.784  11.650  1.00  0.00     0.161 A 
ATOM     14  C   UNL     1      16.534   4.293  12.871  1.00  0.00     0.157 A 
ATOM     15  C   UNL     1      15.504   6.087  11.601  1.00  0.00     0.062 A 
ATOM     16  C   UNL     1      16.499   5.095  14.015  1.00  0.00     0.051 A 
ATOM     17  C   UNL     1      15.967   6.384  13.959  1.00  0.00     0.016 A 
BRANCH  13  18
ATOM     18  O   UNL     1      16.094   3.959  10.515  1.00  0.00    -0.493 OA
ATOM     19  C   UNL     1      14.958   3.388   9.875  1.00  0.00     0.278 C 
ENDBRANCH  13  18
BRANCH  14  20
ATOM     20  O   UNL     1      17.070   3.008  12.967  1.00  0.00    -0.504 OA
ATOM     21  H   UNL     1      17.369   2.611  13.849  1.00  0.00     0.293 HD
ENDBRANCH  14  20
ENDBRANCH   1  12
BRANCH   2  22
ATOM     22  O   UNL     1      16.818   9.042  11.386  1.00  0.00    -0.502 OA
ATOM     23  H   UNL     1      17.419   8.283  11.686  1.00  0.00     0.293 HD
ENDBRANCH   2  22
BRANCH   6  24
ATOM     24  O   UNL     1      13.412  13.125  11.712  1.00  0.00    -0.507 OA
ATOM     25  H   UNL     1      13.280  13.198  10.714  1.00  0.00     0.293 HD
ENDBRANCH   6  24
BRANCH   8  26
ATOM     26  O   UNL     1      10.160  11.269  14.717  1.00  0.00    -0.508 OA
ATOM     27  H   UNL     1       9.352  11.745  14.334  1.00  0.00     0.293 HD
ENDBRANCH   8  26
TORSDOF 6
ENDMDL
MODEL 7
REMARK VINA RESULT:    -5.710      3.324      6.139
REMARK INTER + INTRA:          -7.371
REMARK INTER:                  -6.976
REMARK INTRA:                  -0.394
REMARK UNBOUND:                -0.325
REMARK SMILES COc1cc(-c2oc3cc(O)cc(O)c3c(=O)c2O)ccc1O
REMARK SMILES IDX 6 1 18 2 16 3 17 4 15 5 13 6 12 7 10 8 9 9 8 10 7 11 5 12
REMARK SMILES IDX 3 13 22 14 4 15 21 16 20 17 2 18 1 19 23 20 19 22 14 24
REMARK SMILES IDX 11 26
REMARK H PARENT 23 21 19 23 14 25 11 27
REMARK Flexibility Score: inf
ROOT
ATOM      1  C   UNL     1      15.795   6.485  12.322  1.00  0.00     0.180 A 
ATOM      2  C   UNL     1      15.974   7.145  11.094  1.00  0.00     0.208 A 
ATOM      3  C   UNL     1      15.523   8.467  10.959  1.00  0.00     0.238 A 
ATOM      4  O   UNL     1      15.734   9.071   9.875  1.00  0.00    -0.285 OA
ATOM      5  C   UNL     1      14.883   9.108  12.047  1.00  0.00     0.111 A 
ATOM      6  C   UNL     1      14.351  10.432  12.010  1.00  0.00     0.134 A 
ATOM      7  C   UNL     1      13.856  11.011  13.186  1.00  0.00     0.093 A 
ATOM      8  C   UNL     1      13.816  10.290  14.382  1.00  0.00     0.123 A 
ATOM      9  C   UNL     1      14.279   8.977  14.414  1.00  0.00     0.094 A 
ATOM     10  C   UNL     1      14.811   8.385  13.266  1.00  0.00     0.146 A 
ATOM     11  O   UNL     1      15.251   7.134  13.344  1.00  0.00    -0.452 OA
ENDROOT
BRANCH   1  12
ATOM     12  C   UNL     1      16.223   5.082  12.532  1.00  0.00     0.025 A 
ATOM     13  C   UNL     1      17.960   3.495  13.199  1.00  0.00     0.161 A 
ATOM     14  C   UNL     1      17.055   2.436  13.003  1.00  0.00     0.157 A 
ATOM     15  C   UNL     1      17.532   4.817  12.967  1.00  0.00     0.062 A 
ATOM     16  C   UNL     1      15.747   2.702  12.590  1.00  0.00     0.051 A 
ATOM     17  C   UNL     1      15.329   4.014  12.362  1.00  0.00     0.016 A 
BRANCH  13  18
ATOM     18  O   UNL     1      19.267   3.200  13.621  1.00  0.00    -0.493 OA
ATOM     19  C   UNL     1      20.445   3.529  12.894  1.00  0.00     0.278 C 
ENDBRANCH  13  18
BRANCH  14  20
ATOM     20  O   UNL     1      17.437   1.112  13.218  1.00  0.00    -0.504 OA
ATOM     21  H   UNL     1      18.408   0.838  13.314  1.00  0.00     0.293 HD
ENDBRANCH  14  20
ENDBRANCH   1  12
BRANCH   2  22
ATOM     22  O   UNL     1      16.627   6.501  10.039  1.00  0.00    -0.502 OA
ATOM     23  H   UNL     1      16.699   6.909   9.114  1.00  0.00     0.293 HD
ENDBRANCH   2  22
BRANCH   6  24
ATOM     24  O   UNL     1      14.259  11.203  10.848  1.00  0.00    -0.507 OA
ATOM     25  H   UNL     1      13.645  11.004  10.073  1.00  0.00     0.293 HD
ENDBRANCH   6  24
BRANCH   8  26
ATOM     26  O   UNL     1      13.308  10.869  15.543  1.00  0.00    -0.508 OA
ATOM     27  H   UNL     1      13.490  10.472  16.457  1.00  0.00     0.293 HD
ENDBRANCH   8  26
TORSDOF 6
ENDMDL
MODEL 8
REMARK VINA RESULT:    -5.705      1.802      3.339
REMARK INTER + INTRA:          -7.365
REMARK INTER:                  -7.002
REMARK INTRA:                  -0.363
REMARK UNBOUND:                -0.325
REMARK SMILES COc1cc(-c2oc3cc(O)cc(O)c3c(=O)c2O)ccc1O
REMARK SMILES IDX 6 1 18 2 16 3 17 4 15 5 13 6 12 7 10 8 9 9 8 10 7 11 5 12
REMARK SMILES IDX 3 13 22 14 4 15 21 16 20 17 2 18 1 19 23 20 19 22 14 24
REMARK SMILES IDX 11 26
REMARK H PARENT 23 21 19 23 14 25 11 27
REMARK Flexibility Score: inf
ROOT
ATOM      1  C   UNL     1      12.693  10.706  12.260  1.00  0.00     0.180 A 
ATOM      2  C   UNL     1      11.747  10.101  11.416  1.00  0.00     0.208 A 
ATOM      3  C   UNL     1      10.594   9.533  11.979  1.00  0.00     0.238 A 
ATOM      4  O   UNL     1       9.726   9.040  11.213  1.00  0.00    -0.285 OA
ATOM      5  C   UNL     1      10.408   9.562  13.383  1.00  0.00     0.111 A 
ATOM      6  C   UNL     1       9.297   8.983  14.066  1.00  0.00     0.134 A 
ATOM      7  C   UNL     1       9.151   9.187  15.444  1.00  0.00     0.093 A 
ATOM      8  C   UNL     1      10.111   9.894  16.173  1.00  0.00     0.123 A 
ATOM      9  C   UNL     1      11.228  10.412  15.525  1.00  0.00     0.094 A 
ATOM     10  C   UNL     1      11.383  10.257  14.145  1.00  0.00     0.146 A 
ATOM     11  O   UNL     1      12.460  10.776  13.566  1.00  0.00    -0.452 OA
ENDROOT
BRANCH   1  12
ATOM     12  C   UNL     1      13.945  11.305  11.741  1.00  0.00     0.025 A 
ATOM     13  C   UNL     1      16.334  11.090  11.262  1.00  0.00     0.161 A 
ATOM     14  C   UNL     1      16.329  12.383  10.708  1.00  0.00     0.157 A 
ATOM     15  C   UNL     1      15.133  10.557  11.771  1.00  0.00     0.062 A 
ATOM     16  C   UNL     1      15.143  13.119  10.659  1.00  0.00     0.051 A 
ATOM     17  C   UNL     1      13.956  12.585  11.165  1.00  0.00     0.016 A 
BRANCH  13  18
ATOM     18  O   UNL     1      17.539  10.370  11.291  1.00  0.00    -0.493 OA
ATOM     19  C   UNL     1      17.765   9.144  10.603  1.00  0.00     0.278 C 
ENDBRANCH  13  18
BRANCH  14  20
ATOM     20  O   UNL     1      17.495  12.951  10.195  1.00  0.00    -0.504 OA
ATOM     21  H   UNL     1      18.416  12.596  10.424  1.00  0.00     0.293 HD
ENDBRANCH  14  20
ENDBRANCH   1  12
BRANCH   2  22
ATOM     22  O   UNL     1      11.940  10.101  10.031  1.00  0.00    -0.502 OA
ATOM     23  H   UNL     1      11.185   9.934   9.377  1.00  0.00     0.293 HD
ENDBRANCH   2  22
BRANCH   6  24
ATOM     24  O   UNL     1       8.332   8.182  13.448  1.00  0.00    -0.507 OA
ATOM     25  H   UNL     1       7.432   7.958  13.844  1.00  0.00     0.293 HD
ENDBRANCH   6  24
BRANCH   8  26
ATOM     26  O   UNL     1       9.965  10.078  17.547  1.00  0.00    -0.508 OA
ATOM     27  H   UNL     1      10.665  10.564  18.094  1.00  0.00     0.293 HD
ENDBRANCH   8  26
TORSDOF 6
ENDMDL
MODEL 9
REMARK VINA RESULT:    -5.634      2.573      4.483
REMARK INTER + INTRA:          -7.276
REMARK INTER:                  -7.106
REMARK INTRA:                  -0.171
REMARK UNBOUND:                -0.325
REMARK SMILES COc1cc(-c2oc3cc(O)cc(O)c3c(=O)c2O)ccc1O
REMARK SMILES IDX 6 1 18 2 16 3 17 4 15 5 13 6 12 7 10 8 9 9 8 10 7 11 5 12
REMARK SMILES IDX 3 13 22 14 4 15 21 16 20 17 2 18 1 19 23 20 19 22 14 24
REMARK SMILES IDX 11 26
REMARK H PARENT 23 21 19 23 14 25 11 27
REMARK Flexibility Score: inf
ROOT
ATOM      1  C   UNL     1      14.628   8.377  11.935  1.00  0.00     0.180 A 
ATOM      2  C   UNL     1      14.870   9.436  11.043  1.00  0.00     0.208 A 
ATOM      3  C   UNL     1      14.233  10.667  11.259  1.00  0.00     0.238 A 
ATOM      4  O   UNL     1      14.495  11.628  10.489  1.00  0.00    -0.285 OA
ATOM      5  C   UNL     1      13.349  10.821  12.355  1.00  0.00     0.111 A 
ATOM      6  C   UNL     1      12.619  12.013  12.648  1.00  0.00     0.134 A 
ATOM      7  C   UNL     1      11.876  12.094  13.832  1.00  0.00     0.093 A 
ATOM      8  C   UNL     1      11.784  11.004  14.701  1.00  0.00     0.123 A 
ATOM      9  C   UNL     1      12.445   9.818  14.395  1.00  0.00     0.094 A 
ATOM     10  C   UNL     1      13.224   9.718  13.239  1.00  0.00     0.146 A 
ATOM     11  O   UNL     1      13.846   8.571  12.991  1.00  0.00    -0.452 OA
ENDROOT
BRANCH   1  12
ATOM     12  C   UNL     1      15.245   7.041  11.758  1.00  0.00     0.025 A 
ATOM     13  C   UNL     1      16.551   5.192  12.685  1.00  0.00     0.161 A 
ATOM     14  C   UNL     1      16.378   4.481  11.484  1.00  0.00     0.157 A 
ATOM     15  C   UNL     1      15.973   6.471  12.815  1.00  0.00     0.062 A 
ATOM     16  C   UNL     1      15.636   5.039  10.440  1.00  0.00     0.051 A 
ATOM     17  C   UNL     1      15.067   6.307  10.575  1.00  0.00     0.016 A 
BRANCH  13  18
ATOM     18  O   UNL     1      17.295   4.604  13.720  1.00  0.00    -0.493 OA
ATOM     19  C   UNL     1      16.743   3.801  14.757  1.00  0.00     0.278 C 
ENDBRANCH  13  18
BRANCH  14  20
ATOM     20  O   UNL     1      16.934   3.214  11.311  1.00  0.00    -0.504 OA
ATOM     21  H   UNL     1      16.623   2.581  10.583  1.00  0.00     0.293 HD
ENDBRANCH  14  20
ENDBRANCH   1  12
BRANCH   2  22
ATOM     22  O   UNL     1      15.762   9.269   9.980  1.00  0.00    -0.502 OA
ATOM     23  H   UNL     1      16.572   9.864   9.851  1.00  0.00     0.293 HD
ENDBRANCH   2  22
BRANCH   6  24
ATOM     24  O   UNL     1      12.569  13.124  11.801  1.00  0.00    -0.507 OA
ATOM     25  H   UNL     1      12.835  14.060  12.067  1.00  0.00     0.293 HD
ENDBRANCH   6  24
BRANCH   8  26
ATOM     26  O   UNL     1      11.029  11.089  15.869  1.00  0.00    -0.508 OA
ATOM     27  H   UNL     1      11.123  10.407  16.612  1.00  0.00     0.293 HD
ENDBRANCH   8  26
TORSDOF 6
ENDMDL
