MODEL 1
REMARK VINA RESULT:    -7.181      0.000      0.000
REMARK INTER + INTRA:         -13.661
REMARK INTER:                 -12.639
REMARK INTRA:                  -1.022
REMARK UNBOUND:                -1.022
REMARK SMILES CCCCCCCCCCCCCCC(=O)[O-]
REMARK SMILES IDX 9 1 10 2 11 3 12 4 13 5 14 6 15 7 16 8 17 9 8 10 7 11 6 12
REMARK SMILES IDX 5 13 4 14 3 15 2 16 1 17
REMARK H PARENT
REMARK Flexibility Score: inf
ROOT
ATOM      1  C   UNL     1      28.592  -1.055  20.398  1.00  0.00     0.000 C 
ENDROOT
BRANCH   1   2
ATOM      2  C   UNL     1      27.313  -0.370  19.887  1.00  0.00     0.000 C 
BRANCH   2   3
ATOM      3  C   UNL     1      26.202  -1.370  19.532  1.00  0.00     0.000 C 
BRANCH   3   4
ATOM      4  C   UNL     1      24.822  -0.806  19.888  1.00  0.00     0.000 C 
BRANCH   4   5
ATOM      5  C   UNL     1      24.776   0.715  19.674  1.00  0.00     0.006 C 
BRANCH   5   6
ATOM      6  C   UNL     1      23.475   1.166  18.998  1.00  0.00     0.053 C 
BRANCH   6   7
ATOM      7  C   UNL     1      23.731   2.141  17.889  1.00  0.00     0.041 C 
ATOM      8  O   UNL     1      24.425   3.171  18.100  1.00  0.00    -0.550 OA
ATOM      9  O   UNL     1      23.233   1.895  16.617  1.00  0.00    -0.550 OA
ENDBRANCH   6   7
ENDBRANCH   5   6
ENDBRANCH   4   5
ENDBRANCH   3   4
ENDBRANCH   2   3
ENDBRANCH   1   2
BRANCH   1  10
ATOM     10  C   UNL     1      29.245  -2.039  19.406  1.00  0.00     0.000 C 
BRANCH  10  11
ATOM     11  C   UNL     1      29.073  -3.532  19.753  1.00  0.00    -0.000 C 
BRANCH  11  12
ATOM     12  C   UNL     1      28.849  -4.457  18.544  1.00  0.00    -0.000 C 
BRANCH  12  13
ATOM     13  C   UNL     1      27.383  -4.882  18.382  1.00  0.00    -0.000 C 
BRANCH  13  14
ATOM     14  C   UNL     1      26.678  -4.959  19.742  1.00  0.00    -0.000 C 
BRANCH  14  15
ATOM     15  C   UNL     1      25.854  -6.249  19.862  1.00  0.00    -0.000 C 
BRANCH  15  16
ATOM     16  C   UNL     1      26.621  -7.487  19.372  1.00  0.00    -0.003 C 
ATOM     17  C   UNL     1      26.669  -8.604  20.415  1.00  0.00     0.004 C 
ENDBRANCH  15  16
ENDBRANCH  14  15
ENDBRANCH  13  14
ENDBRANCH  12  13
ENDBRANCH  11  12
ENDBRANCH  10  11
ENDBRANCH   1  10
TORSDOF 13
ENDMDL
MODEL 2
REMARK VINA RESULT:    -7.168      4.032      7.072
REMARK INTER + INTRA:         -13.638
REMARK INTER:                 -12.458
REMARK INTRA:                  -1.180
REMARK UNBOUND:                -1.022
REMARK SMILES CCCCCCCCCCCCCCC(=O)[O-]
REMARK SMILES IDX 9 1 10 2 11 3 12 4 13 5 14 6 15 7 16 8 17 9 8 10 7 11 6 12
REMARK SMILES IDX 5 13 4 14 3 15 2 16 1 17
REMARK H PARENT
REMARK Flexibility Score: inf
ROOT
ATOM      1  C   UNL     1      28.980  -4.319  18.624  1.00  0.00     0.000 C 
ENDROOT
BRANCH   1   2
ATOM      2  C   UNL     1      27.568  -4.888  18.399  1.00  0.00     0.000 C 
BRANCH   2   3
ATOM      3  C   UNL     1      26.887  -5.327  19.704  1.00  0.00     0.000 C 
BRANCH   3   4
ATOM      4  C   UNL     1      25.408  -4.926  19.713  1.00  0.00     0.000 C 
BRANCH   4   5
ATOM      5  C   UNL     1      24.507  -6.135  19.420  1.00  0.00     0.006 C 
BRANCH   5   6
ATOM      6  C   UNL     1      24.952  -7.389  20.185  1.00  0.00     0.053 C 
BRANCH   6   7
ATOM      7  C   UNL     1      23.877  -7.896  21.098  1.00  0.00     0.041 C 
ATOM      8  O   UNL     1      24.044  -7.873  22.345  1.00  0.00    -0.550 OA
ATOM      9  O   UNL     1      22.679  -8.361  20.571  1.00  0.00    -0.550 OA
ENDBRANCH   6   7
ENDBRANCH   5   6
ENDBRANCH   4   5
ENDBRANCH   3   4
ENDBRANCH   2   3
ENDBRANCH   1   2
BRANCH   1  10
ATOM     10  C   UNL     1      29.098  -3.310  19.784  1.00  0.00     0.000 C 
BRANCH  10  11
ATOM     11  C   UNL     1      29.317  -1.844  19.361  1.00  0.00    -0.000 C 
BRANCH  11  12
ATOM     12  C   UNL     1      28.213  -0.869  19.808  1.00  0.00    -0.000 C 
BRANCH  12  13
ATOM     13  C   UNL     1      27.037  -1.573  20.499  1.00  0.00    -0.000 C 
BRANCH  13  14
ATOM     14  C   UNL     1      25.717  -1.277  19.776  1.00  0.00    -0.000 C 
BRANCH  14  15
ATOM     15  C   UNL     1      25.449   0.234  19.721  1.00  0.00    -0.000 C 
BRANCH  15  16
ATOM     16  C   UNL     1      24.003   0.562  19.316  1.00  0.00    -0.003 C 
ATOM     17  C   UNL     1      23.899   1.829  18.467  1.00  0.00     0.004 C 
ENDBRANCH  15  16
ENDBRANCH  14  15
ENDBRANCH  13  14
ENDBRANCH  12  13
ENDBRANCH  11  12
ENDBRANCH  10  11
ENDBRANCH   1  10
TORSDOF 13
ENDMDL
MODEL 3
REMARK VINA RESULT:    -7.148      3.779      7.256
REMARK INTER + INTRA:         -13.603
REMARK INTER:                 -12.425
REMARK INTRA:                  -1.178
REMARK UNBOUND:                -1.022
REMARK SMILES CCCCCCCCCCCCCCC(=O)[O-]
REMARK SMILES IDX 9 1 10 2 11 3 12 4 13 5 14 6 15 7 16 8 17 9 8 10 7 11 6 12
REMARK SMILES IDX 5 13 4 14 3 15 2 16 1 17
REMARK H PARENT
REMARK Flexibility Score: inf
ROOT
ATOM      1  C   UNL     1      28.839  -3.169  19.786  1.00  0.00     0.000 C 
ENDROOT
BRANCH   1   2
ATOM      2  C   UNL     1      29.241  -4.085  18.617  1.00  0.00     0.000 C 
BRANCH   2   3
ATOM      3  C   UNL     1      28.175  -5.144  18.295  1.00  0.00     0.000 C 
BRANCH   3   4
ATOM      4  C   UNL     1      26.777  -4.518  18.249  1.00  0.00     0.000 C 
BRANCH   4   5
ATOM      5  C   UNL     1      25.831  -5.210  19.243  1.00  0.00     0.006 C 
BRANCH   5   6
ATOM      6  C   UNL     1      26.534  -6.320  20.036  1.00  0.00     0.053 C 
BRANCH   6   7
ATOM      7  C   UNL     1      25.679  -7.544  20.159  1.00  0.00     0.041 C 
ATOM      8  O   UNL     1      26.208  -8.665  20.383  1.00  0.00    -0.550 OA
ATOM      9  O   UNL     1      24.298  -7.441  20.060  1.00  0.00    -0.550 OA
ENDBRANCH   6   7
ENDBRANCH   5   6
ENDBRANCH   4   5
ENDBRANCH   3   4
ENDBRANCH   2   3
ENDBRANCH   1   2
BRANCH   1  10
ATOM     10  C   UNL     1      28.929  -1.658  19.488  1.00  0.00     0.000 C 
BRANCH  10  11
ATOM     11  C   UNL     1      27.613  -0.875  19.665  1.00  0.00    -0.000 C 
BRANCH  11  12
ATOM     12  C   UNL     1      26.463  -1.674  20.303  1.00  0.00    -0.000 C 
BRANCH  12  13
ATOM     13  C   UNL     1      25.077  -1.163  19.885  1.00  0.00    -0.000 C 
BRANCH  13  14
ATOM     14  C   UNL     1      25.077   0.363  19.732  1.00  0.00    -0.000 C 
BRANCH  14  15
ATOM     15  C   UNL     1      23.804   0.844  19.018  1.00  0.00    -0.000 C 
BRANCH  15  16
ATOM     16  C   UNL     1      23.973   2.233  18.383  1.00  0.00    -0.003 C 
ATOM     17  C   UNL     1      23.494   2.283  16.932  1.00  0.00     0.004 C 
ENDBRANCH  15  16
ENDBRANCH  14  15
ENDBRANCH  13  14
ENDBRANCH  12  13
ENDBRANCH  11  12
ENDBRANCH  10  11
ENDBRANCH   1  10
TORSDOF 13
ENDMDL
MODEL 4
REMARK VINA RESULT:    -7.127      1.165      1.851
REMARK INTER + INTRA:         -13.565
REMARK INTER:                 -12.443
REMARK INTRA:                  -1.122
REMARK UNBOUND:                -1.022
REMARK SMILES CCCCCCCCCCCCCCC(=O)[O-]
REMARK SMILES IDX 9 1 10 2 11 3 12 4 13 5 14 6 15 7 16 8 17 9 8 10 7 11 6 12
REMARK SMILES IDX 5 13 4 14 3 15 2 16 1 17
REMARK H PARENT
REMARK Flexibility Score: inf
ROOT
ATOM      1  C   UNL     1      28.425  -2.600  19.940  1.00  0.00     0.000 C 
ENDROOT
BRANCH   1   2
ATOM      2  C   UNL     1      28.415  -1.151  19.425  1.00  0.00     0.000 C 
BRANCH   2   3
ATOM      3  C   UNL     1      27.145  -0.384  19.823  1.00  0.00     0.000 C 
BRANCH   3   4
ATOM      4  C   UNL     1      25.972  -1.345  20.050  1.00  0.00     0.000 C 
BRANCH   4   5
ATOM      5  C   UNL     1      24.633  -0.665  19.724  1.00  0.00     0.006 C 
BRANCH   5   6
ATOM      6  C   UNL     1      24.805   0.822  19.385  1.00  0.00     0.053 C 
BRANCH   6   7
ATOM      7  C   UNL     1      23.604   1.375  18.681  1.00  0.00     0.041 C 
ATOM      8  O   UNL     1      23.694   1.762  17.486  1.00  0.00    -0.550 OA
ATOM      9  O   UNL     1      22.379   1.431  19.333  1.00  0.00    -0.550 OA
ENDBRANCH   6   7
ENDBRANCH   5   6
ENDBRANCH   4   5
ENDBRANCH   3   4
ENDBRANCH   2   3
ENDBRANCH   1   2
BRANCH   1  10
ATOM     10  C   UNL     1      28.857  -3.657  18.903  1.00  0.00     0.000 C 
BRANCH  10  11
ATOM     11  C   UNL     1      27.819  -4.761  18.619  1.00  0.00    -0.000 C 
BRANCH  11  12
ATOM     12  C   UNL     1      26.887  -5.094  19.798  1.00  0.00    -0.000 C 
BRANCH  12  13
ATOM     13  C   UNL     1      25.402  -5.084  19.407  1.00  0.00    -0.000 C 
BRANCH  13  14
ATOM     14  C   UNL     1      24.866  -6.511  19.247  1.00  0.00    -0.000 C 
BRANCH  14  15
ATOM     15  C   UNL     1      24.396  -7.076  20.596  1.00  0.00    -0.000 C 
BRANCH  15  16
ATOM     16  C   UNL     1      24.971  -8.472  20.883  1.00  0.00    -0.003 C 
ATOM     17  C   UNL     1      26.429  -8.613  20.444  1.00  0.00     0.004 C 
ENDBRANCH  15  16
ENDBRANCH  14  15
ENDBRANCH  13  14
ENDBRANCH  12  13
ENDBRANCH  11  12
ENDBRANCH  10  11
ENDBRANCH   1  10
TORSDOF 13
ENDMDL
MODEL 5
REMARK VINA RESULT:    -6.973      3.447      4.893
REMARK INTER + INTRA:         -13.294
REMARK INTER:                 -12.210
REMARK INTRA:                  -1.085
REMARK UNBOUND:                -1.022
REMARK SMILES CCCCCCCCCCCCCCC(=O)[O-]
REMARK SMILES IDX 9 1 10 2 11 3 12 4 13 5 14 6 15 7 16 8 17 9 8 10 7 11 6 12
REMARK SMILES IDX 5 13 4 14 3 15 2 16 1 17
REMARK H PARENT
REMARK Flexibility Score: inf
ROOT
ATOM      1  C   UNL     1      24.775  -0.959  19.740  1.00  0.00     0.000 C 
ENDROOT
BRANCH   1   2
ATOM      2  C   UNL     1      25.652   0.305  19.710  1.00  0.00     0.000 C 
BRANCH   2   3
ATOM      3  C   UNL     1      26.983   0.126  20.456  1.00  0.00     0.000 C 
BRANCH   3   4
ATOM      4  C   UNL     1      28.151   0.003  19.473  1.00  0.00     0.000 C 
BRANCH   4   5
ATOM      5  C   UNL     1      29.010  -1.231  19.789  1.00  0.00     0.006 C 
BRANCH   5   6
ATOM      6  C   UNL     1      28.829  -2.347  18.751  1.00  0.00     0.053 C 
BRANCH   6   7
ATOM      7  C   UNL     1      29.949  -3.341  18.798  1.00  0.00     0.041 C 
ATOM      8  O   UNL     1      29.770  -4.515  18.381  1.00  0.00    -0.550 OA
ATOM      9  O   UNL     1      31.198  -2.960  19.271  1.00  0.00    -0.550 OA
ENDBRANCH   6   7
ENDBRANCH   5   6
ENDBRANCH   4   5
ENDBRANCH   3   4
ENDBRANCH   2   3
ENDBRANCH   1   2
BRANCH   1  10
ATOM     10  C   UNL     1      25.509  -2.251  20.152  1.00  0.00     0.000 C 
BRANCH  10  11
ATOM     11  C   UNL     1      25.073  -3.524  19.398  1.00  0.00    -0.000 C 
BRANCH  11  12
ATOM     12  C   UNL     1      26.228  -4.375  18.841  1.00  0.00    -0.000 C 
BRANCH  12  13
ATOM     13  C   UNL     1      26.715  -5.442  19.832  1.00  0.00    -0.000 C 
BRANCH  13  14
ATOM     14  C   UNL     1      26.893  -6.797  19.138  1.00  0.00    -0.000 C 
BRANCH  14  15
ATOM     15  C   UNL     1      26.156  -7.908  19.902  1.00  0.00    -0.000 C 
BRANCH  15  16
ATOM     16  C   UNL     1      24.806  -7.439  20.467  1.00  0.00    -0.003 C 
ATOM     17  C   UNL     1      24.077  -8.537  21.243  1.00  0.00     0.004 C 
ENDBRANCH  15  16
ENDBRANCH  14  15
ENDBRANCH  13  14
ENDBRANCH  12  13
ENDBRANCH  11  12
ENDBRANCH  10  11
ENDBRANCH   1  10
TORSDOF 13
ENDMDL
MODEL 6
REMARK VINA RESULT:    -6.969      3.905      7.378
REMARK INTER + INTRA:         -13.287
REMARK INTER:                 -12.175
REMARK INTRA:                  -1.112
REMARK UNBOUND:                -1.022
REMARK SMILES CCCCCCCCCCCCCCC(=O)[O-]
REMARK SMILES IDX 9 1 10 2 11 3 12 4 13 5 14 6 15 7 16 8 17 9 8 10 7 11 6 12
REMARK SMILES IDX 5 13 4 14 3 15 2 16 1 17
REMARK H PARENT
REMARK Flexibility Score: inf
ROOT
ATOM      1  C   UNL     1      27.118  -4.485  18.202  1.00  0.00     0.000 C 
ENDROOT
BRANCH   1   2
ATOM      2  C   UNL     1      26.059  -5.147  19.101  1.00  0.00     0.000 C 
BRANCH   2   3
ATOM      3  C   UNL     1      26.665  -6.134  20.110  1.00  0.00     0.000 C 
BRANCH   3   4
ATOM      4  C   UNL     1      26.648  -7.563  19.557  1.00  0.00     0.000 C 
BRANCH   4   5
ATOM      5  C   UNL     1      26.435  -8.587  20.683  1.00  0.00     0.006 C 
BRANCH   5   6
ATOM      6  C   UNL     1      25.026  -9.194  20.656  1.00  0.00     0.053 C 
BRANCH   6   7
ATOM      7  C   UNL     1      24.009  -8.270  21.254  1.00  0.00     0.041 C 
ATOM      8  O   UNL     1      23.330  -7.511  20.513  1.00  0.00    -0.550 OA
ATOM      9  O   UNL     1      23.787  -8.272  22.625  1.00  0.00    -0.550 OA
ENDBRANCH   6   7
ENDBRANCH   5   6
ENDBRANCH   4   5
ENDBRANCH   3   4
ENDBRANCH   2   3
ENDBRANCH   1   2
BRANCH   1  10
ATOM     10  C   UNL     1      28.546  -4.468  18.784  1.00  0.00     0.000 C 
BRANCH  10  11
ATOM     11  C   UNL     1      29.172  -3.068  18.946  1.00  0.00    -0.000 C 
BRANCH  11  12
ATOM     12  C   UNL     1      28.581  -2.222  20.088  1.00  0.00    -0.000 C 
BRANCH  12  13
ATOM     13  C   UNL     1      28.576  -0.719  19.776  1.00  0.00    -0.000 C 
BRANCH  13  14
ATOM     14  C   UNL     1      27.154  -0.147  19.842  1.00  0.00    -0.000 C 
BRANCH  14  15
ATOM     15  C   UNL     1      26.108  -1.270  19.779  1.00  0.00    -0.000 C 
BRANCH  15  16
ATOM     16  C   UNL     1      24.670  -0.745  19.916  1.00  0.00    -0.003 C 
ATOM     17  C   UNL     1      24.520   0.700  19.437  1.00  0.00     0.004 C 
ENDBRANCH  15  16
ENDBRANCH  14  15
ENDBRANCH  13  14
ENDBRANCH  12  13
ENDBRANCH  11  12
ENDBRANCH  10  11
ENDBRANCH   1  10
TORSDOF 13
ENDMDL
MODEL 7
REMARK VINA RESULT:    -6.741      4.231      7.059
REMARK INTER + INTRA:         -12.886
REMARK INTER:                 -11.902
REMARK INTRA:                  -0.984
REMARK UNBOUND:                -1.022
REMARK SMILES CCCCCCCCCCCCCCC(=O)[O-]
REMARK SMILES IDX 9 1 10 2 11 3 12 4 13 5 14 6 15 7 16 8 17 9 8 10 7 11 6 12
REMARK SMILES IDX 5 13 4 14 3 15 2 16 1 17
REMARK H PARENT
REMARK Flexibility Score: inf
ROOT
ATOM      1  C   UNL     1      28.436  -5.053  18.250  1.00  0.00     0.000 C 
ENDROOT
BRANCH   1   2
ATOM      2  C   UNL     1      27.016  -4.471  18.363  1.00  0.00     0.000 C 
BRANCH   2   3
ATOM      3  C   UNL     1      26.254  -4.990  19.591  1.00  0.00     0.000 C 
BRANCH   3   4
ATOM      4  C   UNL     1      24.744  -5.009  19.333  1.00  0.00     0.000 C 
BRANCH   4   5
ATOM      5  C   UNL     1      24.181  -6.433  19.461  1.00  0.00     0.006 C 
BRANCH   5   6
ATOM      6  C   UNL     1      24.346  -6.997  20.878  1.00  0.00     0.053 C 
BRANCH   6   7
ATOM      7  C   UNL     1      24.819  -8.419  20.861  1.00  0.00     0.041 C 
ATOM      8  O   UNL     1      26.012  -8.685  20.562  1.00  0.00    -0.550 OA
ATOM      9  O   UNL     1      23.950  -9.445  21.209  1.00  0.00    -0.550 OA
ENDBRANCH   6   7
ENDBRANCH   5   6
ENDBRANCH   4   5
ENDBRANCH   3   4
ENDBRANCH   2   3
ENDBRANCH   1   2
BRANCH   1  10
ATOM     10  C   UNL     1      29.570  -4.083  18.640  1.00  0.00     0.000 C 
BRANCH  10  11
ATOM     11  C   UNL     1      29.219  -3.075  19.752  1.00  0.00    -0.000 C 
BRANCH  11  12
ATOM     12  C   UNL     1      28.904  -1.650  19.261  1.00  0.00    -0.000 C 
BRANCH  12  13
ATOM     13  C   UNL     1      28.614  -0.674  20.410  1.00  0.00    -0.000 C 
BRANCH  13  14
ATOM     14  C   UNL     1      27.222  -0.047  20.260  1.00  0.00    -0.000 C 
BRANCH  14  15
ATOM     15  C   UNL     1      26.225  -1.057  19.673  1.00  0.00    -0.000 C 
BRANCH  15  16
ATOM     16  C   UNL     1      24.763  -0.638  19.892  1.00  0.00    -0.003 C 
ATOM     17  C   UNL     1      24.449   0.740  19.310  1.00  0.00     0.004 C 
ENDBRANCH  15  16
ENDBRANCH  14  15
ENDBRANCH  13  14
ENDBRANCH  12  13
ENDBRANCH  11  12
ENDBRANCH  10  11
ENDBRANCH   1  10
TORSDOF 13
ENDMDL
MODEL 8
REMARK VINA RESULT:    -6.736      3.436      4.703
REMARK INTER + INTRA:         -12.877
REMARK INTER:                 -12.004
REMARK INTRA:                  -0.873
REMARK UNBOUND:                -1.022
REMARK SMILES CCCCCCCCCCCCCCC(=O)[O-]
REMARK SMILES IDX 9 1 10 2 11 3 12 4 13 5 14 6 15 7 16 8 17 9 8 10 7 11 6 12
REMARK SMILES IDX 5 13 4 14 3 15 2 16 1 17
REMARK H PARENT
REMARK Flexibility Score: inf
ROOT
ATOM      1  C   UNL     1      24.926  -2.753  19.719  1.00  0.00     0.000 C 
ENDROOT
BRANCH   1   2
ATOM      2  C   UNL     1      26.094  -1.967  20.339  1.00  0.00     0.000 C 
BRANCH   2   3
ATOM      3  C   UNL     1      26.264  -0.568  19.728  1.00  0.00     0.000 C 
BRANCH   3   4
ATOM      4  C   UNL     1      27.465   0.158  20.343  1.00  0.00     0.000 C 
BRANCH   4   5
ATOM      5  C   UNL     1      28.719  -0.729  20.315  1.00  0.00     0.006 C 
BRANCH   5   6
ATOM      6  C   UNL     1      28.877  -1.468  18.979  1.00  0.00     0.053 C 
BRANCH   6   7
ATOM      7  C   UNL     1      29.673  -2.728  19.129  1.00  0.00     0.041 C 
ATOM      8  O   UNL     1      30.388  -3.142  18.179  1.00  0.00    -0.550 OA
ATOM      9  O   UNL     1      29.651  -3.426  20.330  1.00  0.00    -0.550 OA
ENDBRANCH   6   7
ENDBRANCH   5   6
ENDBRANCH   4   5
ENDBRANCH   3   4
ENDBRANCH   2   3
ENDBRANCH   1   2
BRANCH   1  10
ATOM     10  C   UNL     1      25.253  -4.211  19.337  1.00  0.00     0.000 C 
BRANCH  10  11
ATOM     11  C   UNL     1      26.557  -4.403  18.536  1.00  0.00    -0.000 C 
BRANCH  11  12
ATOM     12  C   UNL     1      27.351  -5.674  18.885  1.00  0.00    -0.000 C 
BRANCH  12  13
ATOM     13  C   UNL     1      26.698  -6.498  20.004  1.00  0.00    -0.000 C 
BRANCH  13  14
ATOM     14  C   UNL     1      26.911  -7.999  19.778  1.00  0.00    -0.000 C 
BRANCH  14  15
ATOM     15  C   UNL     1      25.863  -8.824  20.539  1.00  0.00    -0.000 C 
BRANCH  15  16
ATOM     16  C   UNL     1      24.608  -8.008  20.886  1.00  0.00    -0.003 C 
ATOM     17  C   UNL     1      23.705  -8.713  21.898  1.00  0.00     0.004 C 
ENDBRANCH  15  16
ENDBRANCH  14  15
ENDBRANCH  13  14
ENDBRANCH  12  13
ENDBRANCH  11  12
ENDBRANCH  10  11
ENDBRANCH   1  10
TORSDOF 13
ENDMDL
MODEL 9
REMARK VINA RESULT:    -6.581      4.283      7.421
REMARK INTER + INTRA:         -12.604
REMARK INTER:                 -11.334
REMARK INTRA:                  -1.271
REMARK UNBOUND:                -1.022
REMARK SMILES CCCCCCCCCCCCCCC(=O)[O-]
REMARK SMILES IDX 9 1 10 2 11 3 12 4 13 5 14 6 15 7 16 8 17 9 8 10 7 11 6 12
REMARK SMILES IDX 5 13 4 14 3 15 2 16 1 17
REMARK H PARENT
REMARK Flexibility Score: inf
ROOT
ATOM      1  C   UNL     1      26.909  -4.468  18.702  1.00  0.00     0.000 C 
ENDROOT
BRANCH   1   2
ATOM      2  C   UNL     1      27.369  -5.930  18.559  1.00  0.00     0.000 C 
BRANCH   2   3
ATOM      3  C   UNL     1      26.267  -6.940  18.911  1.00  0.00     0.000 C 
BRANCH   3   4
ATOM      4  C   UNL     1      26.850  -8.156  19.639  1.00  0.00     0.000 C 
BRANCH   4   5
ATOM      5  C   UNL     1      25.929  -8.606  20.784  1.00  0.00     0.006 C 
BRANCH   5   6
ATOM      6  C   UNL     1      24.757  -7.638  21.000  1.00  0.00     0.053 C 
BRANCH   6   7
ATOM      7  C   UNL     1      23.485  -8.364  21.315  1.00  0.00     0.041 C 
ATOM      8  O   UNL     1      22.498  -8.276  20.538  1.00  0.00    -0.550 OA
ATOM      9  O   UNL     1      23.402  -9.164  22.447  1.00  0.00    -0.550 OA
ENDBRANCH   6   7
ENDBRANCH   5   6
ENDBRANCH   4   5
ENDBRANCH   3   4
ENDBRANCH   2   3
ENDBRANCH   1   2
BRANCH   1  10
ATOM     10  C   UNL     1      25.543  -4.281  19.393  1.00  0.00     0.000 C 
BRANCH  10  11
ATOM     11  C   UNL     1      25.165  -2.821  19.716  1.00  0.00    -0.000 C 
BRANCH  11  12
ATOM     12  C   UNL     1      26.271  -2.003  20.406  1.00  0.00    -0.000 C 
BRANCH  12  13
ATOM     13  C   UNL     1      26.483  -0.625  19.764  1.00  0.00    -0.000 C 
BRANCH  13  14
ATOM     14  C   UNL     1      27.974  -0.341  19.549  1.00  0.00    -0.000 C 
BRANCH  14  15
ATOM     15  C   UNL     1      28.831  -1.534  20.000  1.00  0.00    -0.000 C 
BRANCH  15  16
ATOM     16  C   UNL     1      29.540  -2.229  18.827  1.00  0.00    -0.003 C 
ATOM     17  C   UNL     1      30.432  -3.386  19.276  1.00  0.00     0.004 C 
ENDBRANCH  15  16
ENDBRANCH  14  15
ENDBRANCH  13  14
ENDBRANCH  12  13
ENDBRANCH  11  12
ENDBRANCH  10  11
ENDBRANCH   1  10
TORSDOF 13
ENDMDL
