MODEL 1
REMARK VINA RESULT:    -4.835      0.000      0.000
REMARK INTER + INTRA:          -5.152
REMARK INTER:                  -5.117
REMARK INTRA:                  -0.035
REMARK UNBOUND:                -0.035
REMARK SMILES COc1ccc2ccc(=O)oc2c1
REMARK SMILES IDX 3 1 13 2 12 3 6 4 5 5 4 6 7 7 8 8 9 9 10 10 11 11 2 12 1 13
REMARK H PARENT
REMARK Flexibility Score: inf
ROOT
ATOM      1  C   UNL     1       9.512  14.939 -19.504  1.00  0.00     0.122 A 
ATOM      2  C   UNL     1       9.822  13.881 -18.625  1.00  0.00     0.094 A 
ATOM      3  C   UNL     1       8.855  13.393 -17.740  1.00  0.00     0.142 A 
ATOM      4  C   UNL     1       7.563  13.962 -17.727  1.00  0.00     0.018 A 
ATOM      5  C   UNL     1       7.255  15.014 -18.600  1.00  0.00     0.016 A 
ATOM      6  C   UNL     1       8.227  15.496 -19.481  1.00  0.00     0.047 A 
ATOM      7  C   UNL     1       6.618  13.454 -16.831  1.00  0.00     0.019 A 
ATOM      8  C   UNL     1       6.975  12.407 -15.982  1.00  0.00     0.094 A 
ATOM      9  C   UNL     1       8.273  11.891 -16.050  1.00  0.00     0.336 A 
ATOM     10  O   UNL     1       8.615  10.946 -15.293  1.00  0.00    -0.246 OA
ATOM     11  O   UNL     1       9.154  12.394 -16.913  1.00  0.00    -0.423 OA
ENDROOT
BRANCH   1  12
ATOM     12  O   UNL     1      10.448  15.462 -20.409  1.00  0.00    -0.497 OA
ATOM     13  C   UNL     1      11.128  14.693 -21.397  1.00  0.00     0.278 C 
ENDBRANCH   1  12
TORSDOF 1
ENDMDL
MODEL 2
REMARK VINA RESULT:    -4.578      1.112      4.645
REMARK INTER + INTRA:          -4.880
REMARK INTER:                  -4.842
REMARK INTRA:                  -0.039
REMARK UNBOUND:                -0.035
REMARK SMILES COc1ccc2ccc(=O)oc2c1
REMARK SMILES IDX 3 1 13 2 12 3 6 4 5 5 4 6 7 7 8 8 9 9 10 10 11 11 2 12 1 13
REMARK H PARENT
REMARK Flexibility Score: inf
ROOT
ATOM      1  C   UNL     1       7.938  12.014 -16.089  1.00  0.00     0.122 A 
ATOM      2  C   UNL     1       9.044  12.584 -16.752  1.00  0.00     0.094 A 
ATOM      3  C   UNL     1       8.852  13.591 -17.704  1.00  0.00     0.142 A 
ATOM      4  C   UNL     1       7.547  14.038 -18.002  1.00  0.00     0.018 A 
ATOM      5  C   UNL     1       6.447  13.471 -17.343  1.00  0.00     0.016 A 
ATOM      6  C   UNL     1       6.647  12.465 -16.393  1.00  0.00     0.047 A 
ATOM      7  C   UNL     1       7.388  15.045 -18.958  1.00  0.00     0.019 A 
ATOM      8  C   UNL     1       8.514  15.576 -19.586  1.00  0.00     0.094 A 
ATOM      9  C   UNL     1       9.777  15.085 -19.241  1.00  0.00     0.336 A 
ATOM     10  O   UNL     1      10.806  15.551 -19.795  1.00  0.00    -0.246 OA
ATOM     11  O   UNL     1       9.901  14.126 -18.326  1.00  0.00    -0.423 OA
ENDROOT
BRANCH   1  12
ATOM     12  O   UNL     1       8.078  11.002 -15.127  1.00  0.00    -0.497 OA
ATOM     13  C   UNL     1       9.261  10.232 -14.937  1.00  0.00     0.278 C 
ENDBRANCH   1  12
TORSDOF 1
ENDMDL
MODEL 3
REMARK VINA RESULT:    -4.070      0.800      0.955
REMARK INTER + INTRA:          -4.343
REMARK INTER:                  -4.311
REMARK INTRA:                  -0.032
REMARK UNBOUND:                -0.035
REMARK SMILES COc1ccc2ccc(=O)oc2c1
REMARK SMILES IDX 3 1 13 2 12 3 6 4 5 5 4 6 7 7 8 8 9 9 10 10 11 11 2 12 1 13
REMARK H PARENT
REMARK Flexibility Score: inf
ROOT
ATOM      1  C   UNL     1      10.267  14.713 -19.940  1.00  0.00     0.122 A 
ATOM      2  C   UNL     1      10.159  13.685 -18.981  1.00  0.00     0.094 A 
ATOM      3  C   UNL     1       9.030  13.604 -18.159  1.00  0.00     0.142 A 
ATOM      4  C   UNL     1       7.994  14.553 -18.292  1.00  0.00     0.018 A 
ATOM      5  C   UNL     1       8.101  15.575 -19.246  1.00  0.00     0.016 A 
ATOM      6  C   UNL     1       9.233  15.650 -20.062  1.00  0.00     0.047 A 
ATOM      7  C   UNL     1       6.878  14.445 -17.457  1.00  0.00     0.019 A 
ATOM      8  C   UNL     1       6.820  13.411 -16.523  1.00  0.00     0.094 A 
ATOM      9  C   UNL     1       7.884  12.506 -16.448  1.00  0.00     0.336 A 
ATOM     10  O   UNL     1       7.850  11.565 -15.613  1.00  0.00    -0.246 OA
ATOM     11  O   UNL     1       8.934  12.631 -17.255  1.00  0.00    -0.423 OA
ENDROOT
BRANCH   1  12
ATOM     12  O   UNL     1      11.380  14.837 -20.787  1.00  0.00    -0.497 OA
ATOM     13  C   UNL     1      11.330  14.705 -22.204  1.00  0.00     0.278 C 
ENDBRANCH   1  12
TORSDOF 1
ENDMDL
MODEL 4
REMARK VINA RESULT:    -3.894      0.935      1.172
REMARK INTER + INTRA:          -4.157
REMARK INTER:                  -4.118
REMARK INTRA:                  -0.038
REMARK UNBOUND:                -0.035
REMARK SMILES COc1ccc2ccc(=O)oc2c1
REMARK SMILES IDX 3 1 13 2 12 3 6 4 5 5 4 6 7 7 8 8 9 9 10 10 11 11 2 12 1 13
REMARK H PARENT
REMARK Flexibility Score: inf
ROOT
ATOM      1  C   UNL     1       8.731  14.839 -18.765  1.00  0.00     0.122 A 
ATOM      2  C   UNL     1       9.449  13.809 -18.125  1.00  0.00     0.094 A 
ATOM      3  C   UNL     1       8.814  12.983 -17.191  1.00  0.00     0.142 A 
ATOM      4  C   UNL     1       7.449  13.181 -16.890  1.00  0.00     0.018 A 
ATOM      5  C   UNL     1       6.736  14.206 -17.527  1.00  0.00     0.016 A 
ATOM      6  C   UNL     1       7.378  15.028 -18.458  1.00  0.00     0.047 A 
ATOM      7  C   UNL     1       6.842  12.340 -15.953  1.00  0.00     0.019 A 
ATOM      8  C   UNL     1       7.596  11.335 -15.347  1.00  0.00     0.094 A 
ATOM      9  C   UNL     1       8.944  11.196 -15.695  1.00  0.00     0.336 A 
ATOM     10  O   UNL     1       9.641  10.296 -15.160  1.00  0.00    -0.246 OA
ATOM     11  O   UNL     1       9.496  12.011 -16.590  1.00  0.00    -0.423 OA
ENDROOT
BRANCH   1  12
ATOM     12  O   UNL     1       9.323  15.694 -19.708  1.00  0.00    -0.497 OA
ATOM     13  C   UNL     1      10.479  15.368 -20.474  1.00  0.00     0.278 C 
ENDBRANCH   1  12
TORSDOF 1
ENDMDL
MODEL 5
REMARK VINA RESULT:    -3.366      2.414      3.225
REMARK INTER + INTRA:          -3.597
REMARK INTER:                  -3.564
REMARK INTRA:                  -0.033
REMARK UNBOUND:                -0.035
REMARK SMILES COc1ccc2ccc(=O)oc2c1
REMARK SMILES IDX 3 1 13 2 12 3 6 4 5 5 4 6 7 7 8 8 9 9 10 10 11 11 2 12 1 13
REMARK H PARENT
REMARK Flexibility Score: inf
ROOT
ATOM      1  C   UNL     1      10.754  14.986 -20.781  1.00  0.00     0.122 A 
ATOM      2  C   UNL     1       9.587  15.678 -20.398  1.00  0.00     0.094 A 
ATOM      3  C   UNL     1       8.801  15.206 -19.341  1.00  0.00     0.142 A 
ATOM      4  C   UNL     1       9.179  14.032 -18.654  1.00  0.00     0.018 A 
ATOM      5  C   UNL     1      10.340  13.344 -19.035  1.00  0.00     0.016 A 
ATOM      6  C   UNL     1      11.119  13.822 -20.092  1.00  0.00     0.047 A 
ATOM      7  C   UNL     1       8.375  13.585 -17.603  1.00  0.00     0.019 A 
ATOM      8  C   UNL     1       7.230  14.305 -17.264  1.00  0.00     0.094 A 
ATOM      9  C   UNL     1       6.917  15.460 -17.988  1.00  0.00     0.336 A 
ATOM     10  O   UNL     1       5.888  16.125 -17.698  1.00  0.00    -0.246 OA
ATOM     11  O   UNL     1       7.701  15.864 -18.985  1.00  0.00    -0.423 OA
ENDROOT
BRANCH   1  12
ATOM     12  O   UNL     1      11.574  15.420 -21.834  1.00  0.00    -0.497 OA
ATOM     13  C   UNL     1      11.889  14.638 -22.981  1.00  0.00     0.278 C 
ENDBRANCH   1  12
TORSDOF 1
ENDMDL
MODEL 6
REMARK VINA RESULT:    -2.031      1.859      2.899
REMARK INTER + INTRA:          -2.184
REMARK INTER:                  -2.146
REMARK INTRA:                  -0.038
REMARK UNBOUND:                -0.035
REMARK SMILES COc1ccc2ccc(=O)oc2c1
REMARK SMILES IDX 3 1 13 2 12 3 6 4 5 5 4 6 7 7 8 8 9 9 10 10 11 11 2 12 1 13
REMARK H PARENT
REMARK Flexibility Score: inf
ROOT
ATOM      1  C   UNL     1       8.098  13.791 -17.816  1.00  0.00     0.122 A 
ATOM      2  C   UNL     1       9.194  13.005 -17.405  1.00  0.00     0.094 A 
ATOM      3  C   UNL     1       9.024  12.009 -16.438  1.00  0.00     0.142 A 
ATOM      4  C   UNL     1       7.749  11.789 -15.872  1.00  0.00     0.018 A 
ATOM      5  C   UNL     1       6.660  12.570 -16.281  1.00  0.00     0.016 A 
ATOM      6  C   UNL     1       6.839  13.564 -17.247  1.00  0.00     0.047 A 
ATOM      7  C   UNL     1       7.611  10.786 -14.909  1.00  0.00     0.019 A 
ATOM      8  C   UNL     1       8.726  10.037 -14.536  1.00  0.00     0.094 A 
ATOM      9  C   UNL     1       9.958  10.310 -15.139  1.00  0.00     0.336 A 
ATOM     10  O   UNL     1      10.977   9.644 -14.817  1.00  0.00    -0.246 OA
ATOM     11  O   UNL     1      10.062  11.270 -16.055  1.00  0.00    -0.423 OA
ENDROOT
BRANCH   1  12
ATOM     12  O   UNL     1       8.219  14.802 -18.782  1.00  0.00    -0.497 OA
ATOM     13  C   UNL     1       7.160  15.232 -19.632  1.00  0.00     0.278 C 
ENDBRANCH   1  12
TORSDOF 1
ENDMDL
MODEL 7
REMARK VINA RESULT:    -1.985      1.924      5.105
REMARK INTER + INTRA:          -2.135
REMARK INTER:                  -2.096
REMARK INTRA:                  -0.040
REMARK UNBOUND:                -0.035
REMARK SMILES COc1ccc2ccc(=O)oc2c1
REMARK SMILES IDX 3 1 13 2 12 3 6 4 5 5 4 6 7 7 8 8 9 9 10 10 11 11 2 12 1 13
REMARK H PARENT
REMARK Flexibility Score: inf
ROOT
ATOM      1  C   UNL     1       8.109  11.544 -15.761  1.00  0.00     0.122 A 
ATOM      2  C   UNL     1       7.183  12.520 -16.180  1.00  0.00     0.094 A 
ATOM      3  C   UNL     1       7.536  13.451 -17.163  1.00  0.00     0.142 A 
ATOM      4  C   UNL     1       8.825  13.413 -17.737  1.00  0.00     0.018 A 
ATOM      5  C   UNL     1       9.746  12.442 -17.320  1.00  0.00     0.016 A 
ATOM      6  C   UNL     1       9.385  11.516 -16.337  1.00  0.00     0.047 A 
ATOM      7  C   UNL     1       9.148  14.356 -18.716  1.00  0.00     0.019 A 
ATOM      8  C   UNL     1       8.196  15.302 -19.096  1.00  0.00     0.094 A 
ATOM      9  C   UNL     1       6.938  15.280 -18.484  1.00  0.00     0.336 A 
ATOM     10  O   UNL     1       6.064  16.124 -18.813  1.00  0.00    -0.246 OA
ATOM     11  O   UNL     1       6.656  14.370 -17.555  1.00  0.00    -0.423 OA
ENDROOT
BRANCH   1  12
ATOM     12  O   UNL     1       7.802  10.589 -14.779  1.00  0.00    -0.497 OA
ATOM     13  C   UNL     1       8.768   9.783 -14.112  1.00  0.00     0.278 C 
ENDBRANCH   1  12
TORSDOF 1
ENDMDL
