MODEL 1
REMARK VINA RESULT:    -5.188      0.000      0.000
REMARK INTER + INTRA:          -9.881
REMARK INTER:                  -7.917
REMARK INTRA:                  -1.964
REMARK UNBOUND:                -1.964
REMARK SMILES CC(=O)CCC=C(C)CCC=C(C)CCC=C(C)C
REMARK SMILES IDX 10 1 11 2 12 3 13 4 14 5 15 6 16 7 18 8 17 9 19 10 9 11 7 12
REMARK SMILES IDX 6 13 8 14 5 15 4 16 2 17 3 18 1 19
REMARK H PARENT
REMARK Flexibility Score: inf
ROOT
ATOM      1  C   UNL     1     -11.836   1.910  32.444  1.00  0.00     0.032 C 
ENDROOT
BRANCH   1   2
ATOM      2  C   UNL     1     -12.414   1.590  31.090  1.00  0.00    -0.028 C 
ATOM      3  C   UNL     1     -13.269   0.570  30.843  1.00  0.00    -0.077 C 
ATOM      4  C   UNL     1     -13.689  -0.402  31.920  1.00  0.00     0.039 C 
BRANCH   3   5
ATOM      5  C   UNL     1     -13.767   0.346  29.430  1.00  0.00     0.034 C 
BRANCH   5   6
ATOM      6  C   UNL     1     -13.901   1.667  28.658  1.00  0.00     0.032 C 
BRANCH   6   7
ATOM      7  C   UNL     1     -15.319   2.184  28.666  1.00  0.00    -0.028 C 
ATOM      8  C   UNL     1     -15.107   3.296  26.431  1.00  0.00     0.039 C 
ATOM      9  C   UNL     1     -15.884   2.890  27.661  1.00  0.00    -0.080 C 
ATOM     10  C   UNL     1     -17.329   3.295  27.794  1.00  0.00     0.039 C 
ENDBRANCH   6   7
ENDBRANCH   5   6
ENDBRANCH   3   5
ENDBRANCH   1   2
BRANCH   1  11
ATOM     11  C   UNL     1     -12.403   3.227  32.986  1.00  0.00     0.034 C 
BRANCH  11  12
ATOM     12  C   UNL     1     -13.794   3.021  33.553  1.00  0.00    -0.077 C 
ATOM     13  C   UNL     1     -14.901   3.540  32.976  1.00  0.00    -0.028 C 
ATOM     14  C   UNL     1     -13.958   2.170  34.786  1.00  0.00     0.039 C 
BRANCH  13  15
ATOM     15  C   UNL     1     -14.872   4.403  31.737  1.00  0.00     0.035 C 
BRANCH  15  16
ATOM     16  C   UNL     1     -16.196   5.148  31.547  1.00  0.00     0.079 C 
BRANCH  16  17
ATOM     17  C   UNL     1     -16.536   5.949  32.777  1.00  0.00     0.130 C 
ATOM     18  O   UNL     1     -17.515   5.645  33.441  1.00  0.00    -0.300 OA
ATOM     19  C   UNL     1     -15.699   7.118  33.204  1.00  0.00     0.087 C 
ENDBRANCH  16  17
ENDBRANCH  15  16
ENDBRANCH  13  15
ENDBRANCH  11  12
ENDBRANCH   1  11
TORSDOF 9
ENDMDL
MODEL 2
REMARK VINA RESULT:    -5.105      4.356      8.367
REMARK INTER + INTRA:          -9.755
REMARK INTER:                  -7.899
REMARK INTRA:                  -1.856
REMARK UNBOUND:                -1.964
REMARK SMILES CC(=O)CCC=C(C)CCC=C(C)CCC=C(C)C
REMARK SMILES IDX 10 1 11 2 12 3 13 4 14 5 15 6 16 7 18 8 17 9 19 10 9 11 7 12
REMARK SMILES IDX 6 13 8 14 5 15 4 16 2 17 3 18 1 19
REMARK H PARENT
REMARK Flexibility Score: inf
ROOT
ATOM      1  C   UNL     1     -14.900  10.023  29.290  1.00  0.00     0.032 C 
ENDROOT
BRANCH   1   2
ATOM      2  C   UNL     1     -13.583  10.342  29.950  1.00  0.00    -0.028 C 
ATOM      3  C   UNL     1     -13.322  11.483  30.629  1.00  0.00    -0.077 C 
ATOM      4  C   UNL     1     -14.335  12.598  30.742  1.00  0.00     0.039 C 
BRANCH   3   5
ATOM      5  C   UNL     1     -11.949  11.687  31.234  1.00  0.00     0.034 C 
BRANCH   5   6
ATOM      6  C   UNL     1     -11.133  10.387  31.247  1.00  0.00     0.032 C 
BRANCH   6   7
ATOM      7  C   UNL     1     -10.537  10.106  32.605  1.00  0.00    -0.028 C 
ATOM      8  C   UNL     1     -11.465   7.782  32.723  1.00  0.00     0.039 C 
ATOM      9  C   UNL     1     -10.652   8.933  33.266  1.00  0.00    -0.080 C 
ATOM     10  C   UNL     1      -9.957   8.789  34.596  1.00  0.00     0.039 C 
ENDBRANCH   6   7
ENDBRANCH   5   6
ENDBRANCH   3   5
ENDBRANCH   1   2
BRANCH   1  11
ATOM     11  C   UNL     1     -15.589   8.842  29.983  1.00  0.00     0.034 C 
BRANCH  11  12
ATOM     12  C   UNL     1     -16.334   9.304  31.219  1.00  0.00    -0.077 C 
ATOM     13  C   UNL     1     -16.099   8.789  32.447  1.00  0.00    -0.028 C 
ATOM     14  C   UNL     1     -17.350  10.409  31.086  1.00  0.00     0.039 C 
BRANCH  13  15
ATOM     15  C   UNL     1     -15.105   7.684  32.714  1.00  0.00     0.035 C 
BRANCH  15  16
ATOM     16  C   UNL     1     -15.692   6.621  33.647  1.00  0.00     0.079 C 
BRANCH  16  17
ATOM     17  C   UNL     1     -16.744   5.812  32.934  1.00  0.00     0.130 C 
ATOM     18  O   UNL     1     -17.839   5.657  33.454  1.00  0.00    -0.300 OA
ATOM     19  C   UNL     1     -16.475   5.185  31.598  1.00  0.00     0.087 C 
ENDBRANCH  16  17
ENDBRANCH  15  16
ENDBRANCH  13  15
ENDBRANCH  11  12
ENDBRANCH   1  11
TORSDOF 9
ENDMDL
MODEL 3
REMARK VINA RESULT:    -5.063      1.864      4.868
REMARK INTER + INTRA:          -9.690
REMARK INTER:                  -7.427
REMARK INTRA:                  -2.264
REMARK UNBOUND:                -1.964
REMARK SMILES CC(=O)CCC=C(C)CCC=C(C)CCC=C(C)C
REMARK SMILES IDX 10 1 11 2 12 3 13 4 14 5 15 6 16 7 18 8 17 9 19 10 9 11 7 12
REMARK SMILES IDX 6 13 8 14 5 15 4 16 2 17 3 18 1 19
REMARK H PARENT
REMARK Flexibility Score: inf
ROOT
ATOM      1  C   UNL     1     -12.997  -0.186  30.736  1.00  0.00     0.032 C 
ENDROOT
BRANCH   1   2
ATOM      2  C   UNL     1     -13.484   0.318  32.071  1.00  0.00    -0.028 C 
ATOM      3  C   UNL     1     -12.761   1.103  32.904  1.00  0.00    -0.077 C 
ATOM      4  C   UNL     1     -11.341   1.510  32.591  1.00  0.00     0.039 C 
BRANCH   3   5
ATOM      5  C   UNL     1     -13.363   1.531  34.226  1.00  0.00     0.034 C 
BRANCH   5   6
ATOM      6  C   UNL     1     -14.521   2.521  34.031  1.00  0.00     0.032 C 
BRANCH   6   7
ATOM      7  C   UNL     1     -14.044   3.847  33.490  1.00  0.00    -0.028 C 
ATOM      8  C   UNL     1     -16.358   4.670  32.993  1.00  0.00     0.039 C 
ATOM      9  C   UNL     1     -14.857   4.833  33.049  1.00  0.00    -0.080 C 
ATOM     10  C   UNL     1     -14.232   6.123  32.584  1.00  0.00     0.039 C 
ENDBRANCH   6   7
ENDBRANCH   5   6
ENDBRANCH   3   5
ENDBRANCH   1   2
BRANCH   1  11
ATOM     11  C   UNL     1     -13.731   0.509  29.585  1.00  0.00     0.034 C 
BRANCH  11  12
ATOM     12  C   UNL     1     -12.934   1.695  29.078  1.00  0.00    -0.077 C 
ATOM     13  C   UNL     1     -13.367   2.970  29.199  1.00  0.00    -0.028 C 
ATOM     14  C   UNL     1     -11.587   1.451  28.449  1.00  0.00     0.039 C 
BRANCH  13  15
ATOM     15  C   UNL     1     -14.694   3.348  29.814  1.00  0.00     0.035 C 
BRANCH  15  16
ATOM     16  C   UNL     1     -15.296   4.577  29.126  1.00  0.00     0.079 C 
BRANCH  16  17
ATOM     17  C   UNL     1     -16.498   4.189  28.304  1.00  0.00     0.130 C 
ATOM     18  O   UNL     1     -17.154   5.058  27.751  1.00  0.00    -0.300 OA
ATOM     19  C   UNL     1     -16.912   2.755  28.155  1.00  0.00     0.087 C 
ENDBRANCH  16  17
ENDBRANCH  15  16
ENDBRANCH  13  15
ENDBRANCH  11  12
ENDBRANCH   1  11
TORSDOF 9
ENDMDL
MODEL 4
REMARK VINA RESULT:    -5.061      1.265      4.859
REMARK INTER + INTRA:          -9.688
REMARK INTER:                  -8.156
REMARK INTRA:                  -1.532
REMARK UNBOUND:                -1.964
REMARK SMILES CC(=O)CCC=C(C)CCC=C(C)CCC=C(C)C
REMARK SMILES IDX 10 1 11 2 12 3 13 4 14 5 15 6 16 7 18 8 17 9 19 10 9 11 7 12
REMARK SMILES IDX 6 13 8 14 5 15 4 16 2 17 3 18 1 19
REMARK H PARENT
REMARK Flexibility Score: inf
ROOT
ATOM      1  C   UNL     1     -14.646   2.243  28.438  1.00  0.00     0.032 C 
ENDROOT
BRANCH   1   2
ATOM      2  C   UNL     1     -14.101   1.493  29.626  1.00  0.00    -0.028 C 
ATOM      3  C   UNL     1     -13.200   0.486  29.550  1.00  0.00    -0.077 C 
ATOM      4  C   UNL     1     -12.685  -0.030  28.227  1.00  0.00     0.039 C 
BRANCH   3   5
ATOM      5  C   UNL     1     -12.742  -0.196  30.822  1.00  0.00     0.034 C 
BRANCH   5   6
ATOM      6  C   UNL     1     -12.143   0.804  31.821  1.00  0.00     0.032 C 
BRANCH   6   7
ATOM      7  C   UNL     1     -12.927   0.854  33.110  1.00  0.00    -0.028 C 
ATOM      8  C   UNL     1     -13.428   3.301  32.911  1.00  0.00     0.039 C 
ATOM      9  C   UNL     1     -13.534   1.959  33.597  1.00  0.00    -0.080 C 
ATOM     10  C   UNL     1     -14.323   1.839  34.875  1.00  0.00     0.039 C 
ENDBRANCH   6   7
ENDBRANCH   5   6
ENDBRANCH   3   5
ENDBRANCH   1   2
BRANCH   1  11
ATOM     11  C   UNL     1     -16.179   2.275  28.464  1.00  0.00     0.034 C 
BRANCH  11  12
ATOM     12  C   UNL     1     -16.703   3.499  27.741  1.00  0.00    -0.077 C 
ATOM     13  C   UNL     1     -17.172   4.587  28.393  1.00  0.00    -0.028 C 
ATOM     14  C   UNL     1     -16.667   3.526  26.234  1.00  0.00     0.039 C 
BRANCH  13  15
ATOM     15  C   UNL     1     -17.256   4.687  29.898  1.00  0.00     0.035 C 
BRANCH  15  16
ATOM     16  C   UNL     1     -15.977   5.288  30.488  1.00  0.00     0.079 C 
BRANCH  16  17
ATOM     17  C   UNL     1     -16.213   5.756  31.900  1.00  0.00     0.130 C 
ATOM     18  O   UNL     1     -15.889   6.890  32.220  1.00  0.00    -0.300 OA
ATOM     19  C   UNL     1     -16.833   4.856  32.927  1.00  0.00     0.087 C 
ENDBRANCH  16  17
ENDBRANCH  15  16
ENDBRANCH  13  15
ENDBRANCH  11  12
ENDBRANCH   1  11
TORSDOF 9
ENDMDL
MODEL 5
REMARK VINA RESULT:    -5.045      1.139      2.223
REMARK INTER + INTRA:          -9.663
REMARK INTER:                  -7.285
REMARK INTRA:                  -2.378
REMARK UNBOUND:                -1.964
REMARK SMILES CC(=O)CCC=C(C)CCC=C(C)CCC=C(C)C
REMARK SMILES IDX 10 1 11 2 12 3 13 4 14 5 15 6 16 7 18 8 17 9 19 10 9 11 7 12
REMARK SMILES IDX 6 13 8 14 5 15 4 16 2 17 3 18 1 19
REMARK H PARENT
REMARK Flexibility Score: inf
ROOT
ATOM      1  C   UNL     1     -13.531   2.378  34.244  1.00  0.00     0.032 C 
ENDROOT
BRANCH   1   2
ATOM      2  C   UNL     1     -13.801   1.281  33.246  1.00  0.00    -0.028 C 
ATOM      3  C   UNL     1     -12.843   0.611  32.565  1.00  0.00    -0.077 C 
ATOM      4  C   UNL     1     -11.377   0.950  32.702  1.00  0.00     0.039 C 
BRANCH   3   5
ATOM      5  C   UNL     1     -13.250  -0.462  31.577  1.00  0.00     0.034 C 
BRANCH   5   6
ATOM      6  C   UNL     1     -12.923  -0.061  30.132  1.00  0.00     0.032 C 
BRANCH   6   7
ATOM      7  C   UNL     1     -14.046   0.721  29.495  1.00  0.00    -0.028 C 
ATOM      8  C   UNL     1     -12.673   2.797  29.213  1.00  0.00     0.039 C 
ATOM      9  C   UNL     1     -13.941   1.993  29.050  1.00  0.00    -0.080 C 
ATOM     10  C   UNL     1     -15.140   2.623  28.390  1.00  0.00     0.039 C 
ENDBRANCH   6   7
ENDBRANCH   5   6
ENDBRANCH   3   5
ENDBRANCH   1   2
BRANCH   1  11
ATOM     11  C   UNL     1     -14.200   3.688  33.815  1.00  0.00     0.034 C 
BRANCH  11  12
ATOM     12  C   UNL     1     -13.348   4.419  32.796  1.00  0.00    -0.077 C 
ATOM     13  C   UNL     1     -13.869   5.002  31.693  1.00  0.00    -0.028 C 
ATOM     14  C   UNL     1     -11.865   4.537  33.039  1.00  0.00     0.039 C 
BRANCH  13  15
ATOM     15  C   UNL     1     -15.336   4.960  31.339  1.00  0.00     0.035 C 
BRANCH  15  16
ATOM     16  C   UNL     1     -16.011   6.309  31.604  1.00  0.00     0.079 C 
BRANCH  16  17
ATOM     17  C   UNL     1     -16.386   6.438  33.058  1.00  0.00     0.130 C 
ATOM     18  O   UNL     1     -17.339   5.810  33.491  1.00  0.00    -0.300 OA
ATOM     19  C   UNL     1     -15.614   7.328  33.986  1.00  0.00     0.087 C 
ENDBRANCH  16  17
ENDBRANCH  15  16
ENDBRANCH  13  15
ENDBRANCH  11  12
ENDBRANCH   1  11
TORSDOF 9
ENDMDL
MODEL 6
REMARK VINA RESULT:    -5.040      5.466      7.456
REMARK INTER + INTRA:          -9.656
REMARK INTER:                  -7.638
REMARK INTRA:                  -2.018
REMARK UNBOUND:                -1.964
REMARK SMILES CC(=O)CCC=C(C)CCC=C(C)CCC=C(C)C
REMARK SMILES IDX 10 1 11 2 12 3 13 4 14 5 15 6 16 7 18 8 17 9 19 10 9 11 7 12
REMARK SMILES IDX 6 13 8 14 5 15 4 16 2 17 3 18 1 19
REMARK H PARENT
REMARK Flexibility Score: inf
ROOT
ATOM      1  C   UNL     1     -10.898   7.647  34.678  1.00  0.00     0.032 C 
ENDROOT
BRANCH   1   2
ATOM      2  C   UNL     1     -12.404   7.688  34.742  1.00  0.00    -0.028 C 
ATOM      3  C   UNL     1     -13.226   7.132  33.821  1.00  0.00    -0.077 C 
ATOM      4  C   UNL     1     -12.696   6.452  32.581  1.00  0.00     0.039 C 
BRANCH   3   5
ATOM      5  C   UNL     1     -14.725   7.257  33.995  1.00  0.00     0.034 C 
BRANCH   5   6
ATOM      6  C   UNL     1     -15.462   7.184  32.651  1.00  0.00     0.032 C 
BRANCH   6   7
ATOM      7  C   UNL     1     -16.126   8.493  32.298  1.00  0.00    -0.028 C 
ATOM      8  C   UNL     1     -14.698   8.870  30.275  1.00  0.00     0.039 C 
ATOM      9  C   UNL     1     -15.815   9.246  31.220  1.00  0.00    -0.080 C 
ATOM     10  C   UNL     1     -16.603  10.507  30.974  1.00  0.00     0.039 C 
ENDBRANCH   6   7
ENDBRANCH   5   6
ENDBRANCH   3   5
ENDBRANCH   1   2
BRANCH   1  11
ATOM     11  C   UNL     1     -10.319   9.051  34.478  1.00  0.00     0.034 C 
BRANCH  11  12
ATOM     12  C   UNL     1      -9.433   9.097  33.249  1.00  0.00    -0.077 C 
ATOM     13  C   UNL     1      -9.900   9.432  32.025  1.00  0.00    -0.028 C 
ATOM     14  C   UNL     1      -7.964   8.797  33.399  1.00  0.00     0.039 C 
BRANCH  13  15
ATOM     15  C   UNL     1     -11.347   9.760  31.743  1.00  0.00     0.035 C 
BRANCH  15  16
ATOM     16  C   UNL     1     -11.594  11.271  31.789  1.00  0.00     0.079 C 
BRANCH  16  17
ATOM     17  C   UNL     1     -12.007  11.782  30.433  1.00  0.00     0.130 C 
ATOM     18  O   UNL     1     -11.195  11.790  29.520  1.00  0.00    -0.300 OA
ATOM     19  C   UNL     1     -13.396  12.288  30.180  1.00  0.00     0.087 C 
ENDBRANCH  16  17
ENDBRANCH  15  16
ENDBRANCH  13  15
ENDBRANCH  11  12
ENDBRANCH   1  11
TORSDOF 9
ENDMDL
MODEL 7
REMARK VINA RESULT:    -5.031      5.148      8.600
REMARK INTER + INTRA:          -9.642
REMARK INTER:                  -7.136
REMARK INTRA:                  -2.506
REMARK UNBOUND:                -1.964
REMARK SMILES CC(=O)CCC=C(C)CCC=C(C)CCC=C(C)C
REMARK SMILES IDX 10 1 11 2 12 3 13 4 14 5 15 6 16 7 18 8 17 9 19 10 9 11 7 12
REMARK SMILES IDX 6 13 8 14 5 15 4 16 2 17 3 18 1 19
REMARK H PARENT
REMARK Flexibility Score: inf
ROOT
ATOM      1  C   UNL     1     -14.657   9.803  29.332  1.00  0.00     0.032 C 
ENDROOT
BRANCH   1   2
ATOM      2  C   UNL     1     -13.409  10.201  30.080  1.00  0.00    -0.028 C 
ATOM      3  C   UNL     1     -13.212  11.411  30.653  1.00  0.00    -0.077 C 
ATOM      4  C   UNL     1     -14.227  12.524  30.545  1.00  0.00     0.039 C 
BRANCH   3   5
ATOM      5  C   UNL     1     -11.904  11.688  31.365  1.00  0.00     0.034 C 
BRANCH   5   6
ATOM      6  C   UNL     1     -10.994  10.452  31.385  1.00  0.00     0.032 C 
BRANCH   6   7
ATOM      7  C   UNL     1     -10.704   9.986  32.792  1.00  0.00    -0.028 C 
ATOM      8  C   UNL     1      -8.846   8.461  32.088  1.00  0.00     0.039 C 
ATOM      9  C   UNL     1      -9.725   9.117  33.126  1.00  0.00    -0.080 C 
ATOM     10  C   UNL     1      -9.527   8.787  34.583  1.00  0.00     0.039 C 
ENDBRANCH   6   7
ENDBRANCH   5   6
ENDBRANCH   3   5
ENDBRANCH   1   2
BRANCH   1  11
ATOM     11  C   UNL     1     -15.303   8.565  29.962  1.00  0.00     0.034 C 
BRANCH  11  12
ATOM     12  C   UNL     1     -16.011   8.925  31.253  1.00  0.00    -0.077 C 
ATOM     13  C   UNL     1     -15.780   8.276  32.417  1.00  0.00    -0.028 C 
ATOM     14  C   UNL     1     -16.981  10.078  31.254  1.00  0.00     0.039 C 
BRANCH  13  15
ATOM     15  C   UNL     1     -14.829   7.111  32.550  1.00  0.00     0.035 C 
BRANCH  15  16
ATOM     16  C   UNL     1     -13.443   7.573  33.011  1.00  0.00     0.079 C 
BRANCH  16  17
ATOM     17  C   UNL     1     -12.366   6.723  32.390  1.00  0.00     0.130 C 
ATOM     18  O   UNL     1     -11.733   5.947  33.090  1.00  0.00    -0.300 OA
ATOM     19  C   UNL     1     -12.048   6.812  30.927  1.00  0.00     0.087 C 
ENDBRANCH  16  17
ENDBRANCH  15  16
ENDBRANCH  13  15
ENDBRANCH  11  12
ENDBRANCH   1  11
TORSDOF 9
ENDMDL
MODEL 8
REMARK VINA RESULT:    -4.955      1.444      4.735
REMARK INTER + INTRA:          -9.526
REMARK INTER:                  -7.559
REMARK INTRA:                  -1.967
REMARK UNBOUND:                -1.964
REMARK SMILES CC(=O)CCC=C(C)CCC=C(C)CCC=C(C)C
REMARK SMILES IDX 10 1 11 2 12 3 13 4 14 5 15 6 16 7 18 8 17 9 19 10 9 11 7 12
REMARK SMILES IDX 6 13 8 14 5 15 4 16 2 17 3 18 1 19
REMARK H PARENT
REMARK Flexibility Score: inf
ROOT
ATOM      1  C   UNL     1     -17.122   3.879  27.760  1.00  0.00     0.032 C 
ENDROOT
BRANCH   1   2
ATOM      2  C   UNL     1     -16.410   2.702  28.377  1.00  0.00    -0.028 C 
ATOM      3  C   UNL     1     -15.096   2.426  28.207  1.00  0.00    -0.077 C 
ATOM      4  C   UNL     1     -14.211   3.262  27.313  1.00  0.00     0.039 C 
BRANCH   3   5
ATOM      5  C   UNL     1     -14.505   1.200  28.872  1.00  0.00     0.034 C 
BRANCH   5   6
ATOM      6  C   UNL     1     -13.144   1.503  29.516  1.00  0.00     0.032 C 
BRANCH   6   7
ATOM      7  C   UNL     1     -13.286   1.964  30.946  1.00  0.00    -0.028 C 
ATOM      8  C   UNL     1     -13.379  -0.364  31.868  1.00  0.00     0.039 C 
ATOM      9  C   UNL     1     -13.362   1.139  32.015  1.00  0.00    -0.080 C 
ATOM     10  C   UNL     1     -13.452   1.752  33.388  1.00  0.00     0.039 C 
ENDBRANCH   6   7
ENDBRANCH   5   6
ENDBRANCH   3   5
ENDBRANCH   1   2
BRANCH   1  11
ATOM     11  C   UNL     1     -17.467   4.929  28.822  1.00  0.00     0.034 C 
BRANCH  11  12
ATOM     12  C   UNL     1     -16.242   5.741  29.192  1.00  0.00    -0.077 C 
ATOM     13  C   UNL     1     -15.635   5.637  30.396  1.00  0.00    -0.028 C 
ATOM     14  C   UNL     1     -15.649   6.673  28.168  1.00  0.00     0.039 C 
BRANCH  13  15
ATOM     15  C   UNL     1     -16.126   4.737  31.505  1.00  0.00     0.035 C 
BRANCH  15  16
ATOM     16  C   UNL     1     -15.316   4.943  32.788  1.00  0.00     0.079 C 
BRANCH  16  17
ATOM     17  C   UNL     1     -15.861   6.103  33.580  1.00  0.00     0.130 C 
ATOM     18  O   UNL     1     -16.955   6.005  34.115  1.00  0.00    -0.300 OA
ATOM     19  C   UNL     1     -15.091   7.382  33.721  1.00  0.00     0.087 C 
ENDBRANCH  16  17
ENDBRANCH  15  16
ENDBRANCH  13  15
ENDBRANCH  11  12
ENDBRANCH   1  11
TORSDOF 9
ENDMDL
MODEL 9
REMARK VINA RESULT:    -4.949      2.285      6.041
REMARK INTER + INTRA:          -9.517
REMARK INTER:                  -7.581
REMARK INTRA:                  -1.936
REMARK UNBOUND:                -1.964
REMARK SMILES CC(=O)CCC=C(C)CCC=C(C)CCC=C(C)C
REMARK SMILES IDX 10 1 11 2 12 3 13 4 14 5 15 6 16 7 18 8 17 9 19 10 9 11 7 12
REMARK SMILES IDX 6 13 8 14 5 15 4 16 2 17 3 18 1 19
REMARK H PARENT
REMARK Flexibility Score: inf
ROOT
ATOM      1  C   UNL     1     -14.081   4.296  29.927  1.00  0.00     0.032 C 
ENDROOT
BRANCH   1   2
ATOM      2  C   UNL     1     -14.259   4.699  31.368  1.00  0.00    -0.028 C 
ATOM      3  C   UNL     1     -15.455   4.939  31.955  1.00  0.00    -0.077 C 
ATOM      4  C   UNL     1     -16.752   4.879  31.185  1.00  0.00     0.039 C 
BRANCH   3   5
ATOM      5  C   UNL     1     -15.494   5.352  33.412  1.00  0.00     0.034 C 
BRANCH   5   6
ATOM      6  C   UNL     1     -14.905   6.754  33.623  1.00  0.00     0.032 C 
BRANCH   6   7
ATOM      7  C   UNL     1     -15.834   7.837  33.133  1.00  0.00    -0.028 C 
ATOM      8  C   UNL     1     -14.362   8.467  31.207  1.00  0.00     0.039 C 
ATOM      9  C   UNL     1     -15.620   8.594  32.034  1.00  0.00    -0.080 C 
ATOM     10  C   UNL     1     -16.667   9.604  31.643  1.00  0.00     0.039 C 
ENDBRANCH   6   7
ENDBRANCH   5   6
ENDBRANCH   3   5
ENDBRANCH   1   2
BRANCH   1  11
ATOM     11  C   UNL     1     -13.321   2.970  29.817  1.00  0.00     0.034 C 
BRANCH  11  12
ATOM     12  C   UNL     1     -14.204   1.891  29.221  1.00  0.00    -0.077 C 
ATOM     13  C   UNL     1     -14.012   0.575  29.464  1.00  0.00    -0.028 C 
ATOM     14  C   UNL     1     -15.368   2.299  28.356  1.00  0.00     0.039 C 
BRANCH  13  15
ATOM     15  C   UNL     1     -12.888   0.037  30.317  1.00  0.00     0.035 C 
BRANCH  15  16
ATOM     16  C   UNL     1     -13.363  -0.254  31.744  1.00  0.00     0.079 C 
BRANCH  16  17
ATOM     17  C   UNL     1     -12.736   0.710  32.718  1.00  0.00     0.130 C 
ATOM     18  O   UNL     1     -11.520   0.748  32.829  1.00  0.00    -0.300 OA
ATOM     19  C   UNL     1     -13.575   1.622  33.562  1.00  0.00     0.087 C 
ENDBRANCH  16  17
ENDBRANCH  15  16
ENDBRANCH  13  15
ENDBRANCH  11  12
ENDBRANCH   1  11
TORSDOF 9
ENDMDL
