MODEL 1
REMARK VINA RESULT:    -3.356      0.000      0.000
REMARK INTER + INTRA:          -4.508
REMARK INTER:                  -4.337
REMARK INTRA:                  -0.171
REMARK UNBOUND:                -0.171
REMARK SMILES CCCCCCC(=O)[O-]
REMARK SMILES IDX 5 1 6 2 7 3 8 4 9 5 4 6 3 7 2 8 1 9
REMARK H PARENT
REMARK Flexibility Score: inf
ROOT
ATOM      1  C   UNL     1      51.301  -6.085 -55.242  1.00  0.00     0.006 C 
ENDROOT
BRANCH   1   2
ATOM      2  C   UNL     1      49.974  -5.833 -54.517  1.00  0.00     0.053 C 
BRANCH   2   3
ATOM      3  C   UNL     1      49.354  -7.129 -54.098  1.00  0.00     0.041 C 
ATOM      4  O   UNL     1      50.008  -8.201 -54.184  1.00  0.00    -0.550 OA
ATOM      5  O   UNL     1      48.071  -7.145 -53.566  1.00  0.00    -0.550 OA
ENDBRANCH   2   3
ENDBRANCH   1   2
BRANCH   1   6
ATOM      6  C   UNL     1      51.388  -5.369 -56.602  1.00  0.00     0.000 C 
BRANCH   6   7
ATOM      7  C   UNL     1      52.542  -5.834 -57.509  1.00  0.00    -0.000 C 
BRANCH   7   8
ATOM      8  C   UNL     1      52.057  -6.593 -58.752  1.00  0.00    -0.003 C 
ATOM      9  C   UNL     1      50.535  -6.697 -58.774  1.00  0.00     0.004 C 
ENDBRANCH   7   8
ENDBRANCH   6   7
ENDBRANCH   1   6
TORSDOF 5
ENDMDL
MODEL 2
REMARK VINA RESULT:    -3.342      3.139      4.636
REMARK INTER + INTRA:          -4.490
REMARK INTER:                  -4.254
REMARK INTRA:                  -0.236
REMARK UNBOUND:                -0.171
REMARK SMILES CCCCCCC(=O)[O-]
REMARK SMILES IDX 5 1 6 2 7 3 8 4 9 5 4 6 3 7 2 8 1 9
REMARK H PARENT
REMARK Flexibility Score: inf
ROOT
ATOM      1  C   UNL     1      51.602  -6.146 -55.637  1.00  0.00     0.006 C 
ENDROOT
BRANCH   1   2
ATOM      2  C   UNL     1      51.208  -6.009 -57.112  1.00  0.00     0.053 C 
BRANCH   2   3
ATOM      3  C   UNL     1      52.423  -5.803 -57.961  1.00  0.00     0.041 C 
ATOM      4  O   UNL     1      53.230  -4.873 -57.696  1.00  0.00    -0.550 OA
ATOM      5  O   UNL     1      52.690  -6.668 -59.014  1.00  0.00    -0.550 OA
ENDBRANCH   2   3
ENDBRANCH   1   2
BRANCH   1   6
ATOM      6  C   UNL     1      50.391  -6.119 -54.687  1.00  0.00     0.000 C 
BRANCH   6   7
ATOM      7  C   UNL     1      49.885  -7.503 -54.240  1.00  0.00    -0.000 C 
BRANCH   7   8
ATOM      8  C   UNL     1      48.398  -7.725 -54.549  1.00  0.00    -0.003 C 
ATOM      9  C   UNL     1      48.202  -8.241 -55.971  1.00  0.00     0.004 C 
ENDBRANCH   7   8
ENDBRANCH   6   7
ENDBRANCH   1   6
TORSDOF 5
ENDMDL
MODEL 3
REMARK VINA RESULT:    -3.323      3.871      5.561
REMARK INTER + INTRA:          -4.465
REMARK INTER:                  -4.348
REMARK INTRA:                  -0.117
REMARK UNBOUND:                -0.171
REMARK SMILES CCCCCCC(=O)[O-]
REMARK SMILES IDX 5 1 6 2 7 3 8 4 9 5 4 6 3 7 2 8 1 9
REMARK H PARENT
REMARK Flexibility Score: inf
ROOT
ATOM      1  C   UNL     1      52.559  -5.970 -57.697  1.00  0.00     0.006 C 
ENDROOT
BRANCH   1   2
ATOM      2  C   UNL     1      52.761  -4.912 -58.789  1.00  0.00     0.053 C 
BRANCH   2   3
ATOM      3  C   UNL     1      53.917  -4.025 -58.448  1.00  0.00     0.041 C 
ATOM      4  O   UNL     1      53.717  -2.898 -57.923  1.00  0.00    -0.550 OA
ATOM      5  O   UNL     1      55.217  -4.463 -58.667  1.00  0.00    -0.550 OA
ENDBRANCH   2   3
ENDBRANCH   1   2
BRANCH   1   6
ATOM      6  C   UNL     1      51.309  -5.712 -56.835  1.00  0.00     0.000 C 
BRANCH   6   7
ATOM      7  C   UNL     1      51.421  -6.181 -55.373  1.00  0.00    -0.000 C 
BRANCH   7   8
ATOM      8  C   UNL     1      50.196  -5.803 -54.528  1.00  0.00    -0.003 C 
ATOM      9  C   UNL     1      50.153  -4.300 -54.264  1.00  0.00     0.004 C 
ENDBRANCH   7   8
ENDBRANCH   6   7
ENDBRANCH   1   6
TORSDOF 5
ENDMDL
MODEL 4
REMARK VINA RESULT:    -3.306      3.244      4.965
REMARK INTER + INTRA:          -4.444
REMARK INTER:                  -4.288
REMARK INTRA:                  -0.156
REMARK UNBOUND:                -0.171
REMARK SMILES CCCCCCC(=O)[O-]
REMARK SMILES IDX 5 1 6 2 7 3 8 4 9 5 4 6 3 7 2 8 1 9
REMARK H PARENT
REMARK Flexibility Score: inf
ROOT
ATOM      1  C   UNL     1      51.231  -5.857 -56.909  1.00  0.00     0.006 C 
ENDROOT
BRANCH   1   2
ATOM      2  C   UNL     1      52.232  -4.867 -57.517  1.00  0.00     0.053 C 
BRANCH   2   3
ATOM      3  C   UNL     1      53.124  -5.562 -58.497  1.00  0.00     0.041 C 
ATOM      4  O   UNL     1      52.764  -6.648 -59.022  1.00  0.00    -0.550 OA
ATOM      5  O   UNL     1      54.333  -4.986 -58.866  1.00  0.00    -0.550 OA
ENDBRANCH   2   3
ENDBRANCH   1   2
BRANCH   1   6
ATOM      6  C   UNL     1      51.519  -6.168 -55.428  1.00  0.00     0.000 C 
BRANCH   6   7
ATOM      7  C   UNL     1      50.272  -6.248 -54.528  1.00  0.00    -0.000 C 
BRANCH   7   8
ATOM      8  C   UNL     1      49.904  -7.687 -54.142  1.00  0.00    -0.003 C 
ATOM      9  C   UNL     1      48.802  -8.234 -55.046  1.00  0.00     0.004 C 
ENDBRANCH   7   8
ENDBRANCH   6   7
ENDBRANCH   1   6
TORSDOF 5
ENDMDL
MODEL 5
REMARK VINA RESULT:    -3.270      8.164      9.070
REMARK INTER + INTRA:          -4.397
REMARK INTER:                  -4.271
REMARK INTRA:                  -0.126
REMARK UNBOUND:                -0.171
REMARK SMILES CCCCCCC(=O)[O-]
REMARK SMILES IDX 5 1 6 2 7 3 8 4 9 5 4 6 3 7 2 8 1 9
REMARK H PARENT
REMARK Flexibility Score: inf
ROOT
ATOM      1  C   UNL     1      47.795 -14.639 -56.014  1.00  0.00     0.006 C 
ENDROOT
BRANCH   1   2
ATOM      2  C   UNL     1      48.326 -16.077 -55.968  1.00  0.00     0.053 C 
BRANCH   2   3
ATOM      3  C   UNL     1      47.419 -16.994 -56.727  1.00  0.00     0.041 C 
ATOM      4  O   UNL     1      46.978 -16.656 -57.857  1.00  0.00    -0.550 OA
ATOM      5  O   UNL     1      47.100 -18.242 -56.207  1.00  0.00    -0.550 OA
ENDBRANCH   2   3
ENDBRANCH   1   2
BRANCH   1   6
ATOM      6  C   UNL     1      48.915 -13.589 -56.131  1.00  0.00     0.000 C 
BRANCH   6   7
ATOM      7  C   UNL     1      48.436 -12.126 -56.125  1.00  0.00    -0.000 C 
BRANCH   7   8
ATOM      8  C   UNL     1      47.441 -11.817 -57.252  1.00  0.00    -0.003 C 
ATOM      9  C   UNL     1      47.002 -10.356 -57.214  1.00  0.00     0.004 C 
ENDBRANCH   7   8
ENDBRANCH   6   7
ENDBRANCH   1   6
TORSDOF 5
ENDMDL
MODEL 6
REMARK VINA RESULT:    -3.269      1.265      2.146
REMARK INTER + INTRA:          -4.396
REMARK INTER:                  -4.230
REMARK INTRA:                  -0.165
REMARK UNBOUND:                -0.171
REMARK SMILES CCCCCCC(=O)[O-]
REMARK SMILES IDX 5 1 6 2 7 3 8 4 9 5 4 6 3 7 2 8 1 9
REMARK H PARENT
REMARK Flexibility Score: inf
ROOT
ATOM      1  C   UNL     1      50.284  -7.372 -54.250  1.00  0.00     0.006 C 
ENDROOT
BRANCH   1   2
ATOM      2  C   UNL     1      48.851  -7.000 -53.848  1.00  0.00     0.053 C 
BRANCH   2   3
ATOM      3  C   UNL     1      47.862  -7.783 -54.652  1.00  0.00     0.041 C 
ATOM      4  O   UNL     1      46.638  -7.495 -54.605  1.00  0.00    -0.550 OA
ATOM      5  O   UNL     1      48.299  -8.801 -55.490  1.00  0.00    -0.550 OA
ENDBRANCH   2   3
ENDBRANCH   1   2
BRANCH   1   6
ATOM      6  C   UNL     1      51.025  -6.226 -54.963  1.00  0.00     0.000 C 
BRANCH   6   7
ATOM      7  C   UNL     1      50.915  -6.238 -56.498  1.00  0.00    -0.000 C 
BRANCH   7   8
ATOM      8  C   UNL     1      52.254  -5.960 -57.195  1.00  0.00    -0.003 C 
ATOM      9  C   UNL     1      52.226  -6.427 -58.648  1.00  0.00     0.004 C 
ENDBRANCH   7   8
ENDBRANCH   6   7
ENDBRANCH   1   6
TORSDOF 5
ENDMDL
MODEL 7
REMARK VINA RESULT:    -3.250      8.054      9.063
REMARK INTER + INTRA:          -4.372
REMARK INTER:                  -4.044
REMARK INTRA:                  -0.327
REMARK UNBOUND:                -0.171
REMARK SMILES CCCCCCC(=O)[O-]
REMARK SMILES IDX 5 1 6 2 7 3 8 4 9 5 4 6 3 7 2 8 1 9
REMARK H PARENT
REMARK Flexibility Score: inf
ROOT
ATOM      1  C   UNL     1      47.736 -14.511 -55.646  1.00  0.00     0.006 C 
ENDROOT
BRANCH   1   2
ATOM      2  C   UNL     1      48.628 -13.337 -56.068  1.00  0.00     0.053 C 
BRANCH   2   3
ATOM      3  C   UNL     1      47.808 -12.261 -56.707  1.00  0.00     0.041 C 
ATOM      4  O   UNL     1      46.858 -12.563 -57.476  1.00  0.00    -0.550 OA
ATOM      5  O   UNL     1      48.063 -10.928 -56.416  1.00  0.00    -0.550 OA
ENDBRANCH   2   3
ENDBRANCH   1   2
BRANCH   1   6
ATOM      6  C   UNL     1      48.299 -15.878 -56.076  1.00  0.00     0.000 C 
BRANCH   6   7
ATOM      7  C   UNL     1      47.382 -16.695 -57.004  1.00  0.00    -0.000 C 
BRANCH   7   8
ATOM      8  C   UNL     1      46.014 -16.035 -57.227  1.00  0.00    -0.003 C 
ATOM      9  C   UNL     1      45.786 -15.727 -58.703  1.00  0.00     0.004 C 
ENDBRANCH   7   8
ENDBRANCH   6   7
ENDBRANCH   1   6
TORSDOF 5
ENDMDL
MODEL 8
REMARK VINA RESULT:    -3.204      3.010      3.894
REMARK INTER + INTRA:          -4.311
REMARK INTER:                  -3.928
REMARK INTRA:                  -0.383
REMARK UNBOUND:                -0.171
REMARK SMILES CCCCCCC(=O)[O-]
REMARK SMILES IDX 5 1 6 2 7 3 8 4 9 5 4 6 3 7 2 8 1 9
REMARK H PARENT
REMARK Flexibility Score: inf
ROOT
ATOM      1  C   UNL     1      50.620  -4.927 -55.396  1.00  0.00     0.006 C 
ENDROOT
BRANCH   1   2
ATOM      2  C   UNL     1      49.835  -4.265 -54.256  1.00  0.00     0.053 C 
BRANCH   2   3
ATOM      3  C   UNL     1      48.476  -3.856 -54.728  1.00  0.00     0.041 C 
ATOM      4  O   UNL     1      47.632  -3.401 -53.911  1.00  0.00    -0.550 OA
ATOM      5  O   UNL     1      48.156  -3.932 -56.077  1.00  0.00    -0.550 OA
ENDBRANCH   2   3
ENDBRANCH   1   2
BRANCH   1   6
ATOM      6  C   UNL     1      51.067  -6.362 -55.062  1.00  0.00     0.000 C 
BRANCH   6   7
ATOM      7  C   UNL     1      50.083  -7.163 -54.190  1.00  0.00    -0.000 C 
BRANCH   7   8
ATOM      8  C   UNL     1      48.986  -7.857 -55.008  1.00  0.00    -0.003 C 
ATOM      9  C   UNL     1      47.598  -7.472 -54.506  1.00  0.00     0.004 C 
ENDBRANCH   7   8
ENDBRANCH   6   7
ENDBRANCH   1   6
TORSDOF 5
ENDMDL
MODEL 9
REMARK VINA RESULT:    -3.191      2.540      4.012
REMARK INTER + INTRA:          -4.294
REMARK INTER:                  -3.901
REMARK INTRA:                  -0.393
REMARK UNBOUND:                -0.171
REMARK SMILES CCCCCCC(=O)[O-]
REMARK SMILES IDX 5 1 6 2 7 3 8 4 9 5 4 6 3 7 2 8 1 9
REMARK H PARENT
REMARK Flexibility Score: inf
ROOT
ATOM      1  C   UNL     1      50.306  -6.286 -54.611  1.00  0.00     0.006 C 
ENDROOT
BRANCH   1   2
ATOM      2  C   UNL     1      51.701  -6.211 -55.243  1.00  0.00     0.053 C 
BRANCH   2   3
ATOM      3  C   UNL     1      51.608  -5.742 -56.661  1.00  0.00     0.041 C 
ATOM      4  O   UNL     1      50.696  -4.946 -57.005  1.00  0.00    -0.550 OA
ATOM      5  O   UNL     1      52.557  -6.147 -57.590  1.00  0.00    -0.550 OA
ENDBRANCH   2   3
ENDBRANCH   1   2
BRANCH   1   6
ATOM      6  C   UNL     1      49.889  -7.722 -54.243  1.00  0.00     0.000 C 
BRANCH   6   7
ATOM      7  C   UNL     1      48.742  -8.302 -55.089  1.00  0.00    -0.000 C 
BRANCH   7   8
ATOM      8  C   UNL     1      48.155  -7.286 -56.078  1.00  0.00    -0.003 C 
ATOM      9  C   UNL     1      48.385  -7.725 -57.521  1.00  0.00     0.004 C 
ENDBRANCH   7   8
ENDBRANCH   6   7
ENDBRANCH   1   6
TORSDOF 5
ENDMDL
