MODEL 1
REMARK VINA RESULT:    -5.651      0.000      0.000
REMARK INTER + INTRA:          -6.262
REMARK INTER:                  -5.981
REMARK INTRA:                  -0.280
REMARK UNBOUND:                -0.280
REMARK SMILES CC1=C[C@@H]2C(=C(C)CC[C@H]2C(C)C)CC1
REMARK SMILES IDX 1 1 2 2 3 3 4 4 10 5 9 6 8 7 6 8 5 9 14 10 15 11 7 12 11 13
REMARK SMILES IDX 12 14 13 15
REMARK H PARENT
REMARK Flexibility Score: inf
ROOT
ATOM      1  C   UNL     1     143.521 137.314 131.394  1.00  0.00     0.039 C 
ATOM      2  C   UNL     1     142.131 137.703 131.822  1.00  0.00    -0.076 C 
ATOM      3  C   UNL     1     141.709 137.378 133.063  1.00  0.00    -0.020 C 
ATOM      4  C   UNL     1     140.308 137.676 133.590  1.00  0.00     0.041 C 
ATOM      5  C   UNL     1     140.343 138.391 134.973  1.00  0.00     0.003 C 
ATOM      6  C   UNL     1     138.887 138.657 135.404  1.00  0.00     0.009 C 
ATOM      7  C   UNL     1     138.204 139.609 134.423  1.00  0.00     0.031 C 
ATOM      8  C   UNL     1     138.436 139.263 132.966  1.00  0.00    -0.073 C 
ATOM      9  C   UNL     1     139.466 138.454 132.576  1.00  0.00    -0.064 C 
ATOM     10  C   UNL     1     139.777 138.182 131.117  1.00  0.00     0.036 C 
ATOM     11  C   UNL     1     141.253 138.481 130.873  1.00  0.00     0.035 C 
ATOM     12  C   UNL     1     137.563 139.981 131.963  1.00  0.00     0.039 C 
ENDROOT
BRANCH   5  13
ATOM     13  C   UNL     1     141.165 137.638 136.076  1.00  0.00    -0.013 C 
ATOM     14  C   UNL     1     140.303 137.058 137.209  1.00  0.00     0.007 C 
ATOM     15  C   UNL     1     142.288 138.510 136.664  1.00  0.00     0.007 C 
ENDBRANCH   5  13
TORSDOF 1
ENDMDL
MODEL 2
REMARK VINA RESULT:    -5.632      3.555      4.897
REMARK INTER + INTRA:          -6.242
REMARK INTER:                  -5.962
REMARK INTRA:                  -0.280
REMARK UNBOUND:                -0.280
REMARK SMILES CC1=C[C@@H]2C(=C(C)CC[C@H]2C(C)C)CC1
REMARK SMILES IDX 1 1 2 2 3 3 4 4 10 5 9 6 8 7 6 8 5 9 14 10 15 11 7 12 11 13
REMARK SMILES IDX 12 14 13 15
REMARK H PARENT
REMARK Flexibility Score: inf
ROOT
ATOM      1  C   UNL     1     144.743 143.615 131.377  1.00  0.00     0.039 C 
ATOM      2  C   UNL     1     144.408 142.211 131.807  1.00  0.00    -0.076 C 
ATOM      3  C   UNL     1     144.753 141.802 133.046  1.00  0.00    -0.020 C 
ATOM      4  C   UNL     1     144.510 140.391 133.575  1.00  0.00     0.041 C 
ATOM      5  C   UNL     1     143.800 140.400 134.961  1.00  0.00     0.003 C 
ATOM      6  C   UNL     1     143.590 138.935 135.393  1.00  0.00     0.009 C 
ATOM      7  C   UNL     1     142.661 138.216 134.416  1.00  0.00     0.031 C 
ATOM      8  C   UNL     1     142.992 138.461 132.957  1.00  0.00    -0.073 C 
ATOM      9  C   UNL     1     143.760 139.520 132.564  1.00  0.00    -0.064 C 
ATOM     10  C   UNL     1     144.014 139.841 131.104  1.00  0.00     0.036 C 
ATOM     11  C   UNL     1     143.660 141.304 130.861  1.00  0.00     0.035 C 
ATOM     12  C   UNL     1     142.303 137.561 131.957  1.00  0.00     0.039 C 
ENDROOT
BRANCH   5  13
ATOM     13  C   UNL     1     144.526 141.250 136.061  1.00  0.00    -0.013 C 
ATOM     14  C   UNL     1     145.139 140.410 137.194  1.00  0.00     0.007 C 
ATOM     15  C   UNL     1     143.616 142.342 136.649  1.00  0.00     0.007 C 
ENDBRANCH   5  13
TORSDOF 1
ENDMDL
MODEL 3
REMARK VINA RESULT:    -5.628      5.497      6.824
REMARK INTER + INTRA:          -6.237
REMARK INTER:                  -5.957
REMARK INTRA:                  -0.280
REMARK UNBOUND:                -0.280
REMARK SMILES CC1=C[C@@H]2C(=C(C)CC[C@H]2C(C)C)CC1
REMARK SMILES IDX 1 1 2 2 3 3 4 4 10 5 9 6 8 7 6 8 5 9 14 10 15 11 7 12 11 13
REMARK SMILES IDX 12 14 13 15
REMARK H PARENT
REMARK Flexibility Score: inf
ROOT
ATOM      1  C   UNL     1     138.751 144.760 131.400  1.00  0.00     0.039 C 
ATOM      2  C   UNL     1     140.133 144.388 131.867  1.00  0.00    -0.076 C 
ATOM      3  C   UNL     1     140.525 144.739 133.110  1.00  0.00    -0.020 C 
ATOM      4  C   UNL     1     141.916 144.461 133.674  1.00  0.00     0.041 C 
ATOM      5  C   UNL     1     141.854 143.773 135.070  1.00  0.00     0.003 C 
ATOM      6  C   UNL     1     143.301 143.525 135.538  1.00  0.00     0.009 C 
ATOM      7  C   UNL     1     144.012 142.560 134.592  1.00  0.00     0.031 C 
ATOM      8  C   UNL     1     143.811 142.875 133.123  1.00  0.00    -0.073 C 
ATOM      9  C   UNL     1     142.785 143.669 132.694  1.00  0.00    -0.064 C 
ATOM     10  C   UNL     1     142.505 143.911 131.224  1.00  0.00     0.036 C 
ATOM     11  C   UNL     1     141.038 143.598 130.953  1.00  0.00     0.035 C 
ATOM     12  C   UNL     1     144.711 142.144 132.154  1.00  0.00     0.039 C 
ENDROOT
BRANCH   5  13
ATOM     13  C   UNL     1     141.002 144.542 136.140  1.00  0.00    -0.013 C 
ATOM     14  C   UNL     1     141.836 145.151 137.279  1.00  0.00     0.007 C 
ATOM     15  C   UNL     1     139.873 143.673 136.720  1.00  0.00     0.007 C 
ENDBRANCH   5  13
TORSDOF 1
ENDMDL
MODEL 4
REMARK VINA RESULT:    -5.612      3.608      4.946
REMARK INTER + INTRA:          -6.221
REMARK INTER:                  -5.940
REMARK INTRA:                  -0.281
REMARK UNBOUND:                -0.280
REMARK SMILES CC1=C[C@@H]2C(=C(C)CC[C@H]2C(C)C)CC1
REMARK SMILES IDX 1 1 2 2 3 3 4 4 10 5 9 6 8 7 6 8 5 9 14 10 15 11 7 12 11 13
REMARK SMILES IDX 12 14 13 15
REMARK H PARENT
REMARK Flexibility Score: inf
ROOT
ATOM      1  C   UNL     1     137.254 138.966 131.431  1.00  0.00     0.039 C 
ATOM      2  C   UNL     1     137.708 140.306 131.943  1.00  0.00    -0.076 C 
ATOM      3  C   UNL     1     137.386 140.674 133.202  1.00  0.00    -0.020 C 
ATOM      4  C   UNL     1     137.748 142.025 133.813  1.00  0.00     0.041 C 
ATOM      5  C   UNL     1     138.438 141.873 135.200  1.00  0.00     0.003 C 
ATOM      6  C   UNL     1     138.772 143.286 135.718  1.00  0.00     0.009 C 
ATOM      7  C   UNL     1     139.773 143.973 134.790  1.00  0.00     0.031 C 
ATOM      8  C   UNL     1     139.439 143.843 133.318  1.00  0.00    -0.073 C 
ATOM      9  C   UNL     1     138.584 142.881 132.859  1.00  0.00    -0.064 C 
ATOM     10  C   UNL     1     138.320 142.668 131.381  1.00  0.00     0.036 C 
ATOM     11  C   UNL     1     138.545 141.195 131.056  1.00  0.00     0.035 C 
ATOM     12  C   UNL     1     140.217 144.733 132.376  1.00  0.00     0.039 C 
ENDROOT
BRANCH   5  13
ATOM     13  C   UNL     1     137.626 141.031 136.245  1.00  0.00    -0.013 C 
ATOM     14  C   UNL     1     136.953 141.876 137.339  1.00  0.00     0.007 C 
ATOM     15  C   UNL     1     138.476 139.921 136.886  1.00  0.00     0.007 C 
ENDBRANCH   5  13
TORSDOF 1
ENDMDL
MODEL 5
REMARK VINA RESULT:    -5.457      2.540      4.523
REMARK INTER + INTRA:          -6.056
REMARK INTER:                  -5.782
REMARK INTRA:                  -0.274
REMARK UNBOUND:                -0.280
REMARK SMILES CC1=C[C@@H]2C(=C(C)CC[C@H]2C(C)C)CC1
REMARK SMILES IDX 1 1 2 2 3 3 4 4 10 5 9 6 8 7 6 8 5 9 14 10 15 11 7 12 11 13
REMARK SMILES IDX 12 14 13 15
REMARK H PARENT
REMARK Flexibility Score: inf
ROOT
ATOM      1  C   UNL     1     143.501 142.868 135.861  1.00  0.00     0.039 C 
ATOM      2  C   UNL     1     143.516 141.630 135.005  1.00  0.00    -0.076 C 
ATOM      3  C   UNL     1     142.824 140.543 135.406  1.00  0.00    -0.020 C 
ATOM      4  C   UNL     1     142.805 139.218 134.648  1.00  0.00     0.041 C 
ATOM      5  C   UNL     1     141.355 138.702 134.409  1.00  0.00     0.003 C 
ATOM      6  C   UNL     1     141.449 137.377 133.628  1.00  0.00     0.009 C 
ATOM      7  C   UNL     1     142.076 137.608 132.254  1.00  0.00     0.031 C 
ATOM      8  C   UNL     1     143.317 138.478 132.281  1.00  0.00    -0.073 C 
ATOM      9  C   UNL     1     143.598 139.294 133.341  1.00  0.00    -0.064 C 
ATOM     10  C   UNL     1     144.776 140.248 133.341  1.00  0.00     0.036 C 
ATOM     11  C   UNL     1     144.271 141.642 133.697  1.00  0.00     0.035 C 
ATOM     12  C   UNL     1     144.139 138.506 131.014  1.00  0.00     0.039 C 
ENDROOT
BRANCH   5  13
ATOM     13  C   UNL     1     140.487 138.570 135.709  1.00  0.00    -0.013 C 
ATOM     14  C   UNL     1     140.685 137.242 136.459  1.00  0.00     0.007 C 
ATOM     15  C   UNL     1     138.991 138.803 135.437  1.00  0.00     0.007 C 
ENDBRANCH   5  13
TORSDOF 1
ENDMDL
MODEL 6
REMARK VINA RESULT:    -5.440      1.777      3.596
REMARK INTER + INTRA:          -6.039
REMARK INTER:                  -5.764
REMARK INTRA:                  -0.275
REMARK UNBOUND:                -0.280
REMARK SMILES CC1=C[C@@H]2C(=C(C)CC[C@H]2C(C)C)CC1
REMARK SMILES IDX 1 1 2 2 3 3 4 4 10 5 9 6 8 7 6 8 5 9 14 10 15 11 7 12 11 13
REMARK SMILES IDX 12 14 13 15
REMARK H PARENT
REMARK Flexibility Score: inf
ROOT
ATOM      1  C   UNL     1     142.811 138.728 136.197  1.00  0.00     0.039 C 
ATOM      2  C   UNL     1     141.596 138.744 135.309  1.00  0.00    -0.076 C 
ATOM      3  C   UNL     1     140.503 139.434 135.701  1.00  0.00    -0.020 C 
ATOM      4  C   UNL     1     139.199 139.482 134.909  1.00  0.00     0.041 C 
ATOM      5  C   UNL     1     138.699 140.942 134.694  1.00  0.00     0.003 C 
ATOM      6  C   UNL     1     137.394 140.877 133.878  1.00  0.00     0.009 C 
ATOM      7  C   UNL     1     137.656 140.284 132.495  1.00  0.00     0.031 C 
ATOM      8  C   UNL     1     138.516 139.036 132.512  1.00  0.00    -0.073 C 
ATOM      9  C   UNL     1     139.302 138.722 133.585  1.00  0.00    -0.064 C 
ATOM     10  C   UNL     1     140.248 137.537 133.579  1.00  0.00     0.036 C 
ATOM     11  C   UNL     1     141.636 138.023 133.984  1.00  0.00     0.035 C 
ATOM     12  C   UNL     1     138.571 138.246 131.225  1.00  0.00     0.039 C 
ENDROOT
BRANCH   5  13
ATOM     13  C   UNL     1     138.540 141.777 136.012  1.00  0.00    -0.013 C 
ATOM     14  C   UNL     1     137.194 141.566 136.726  1.00  0.00     0.007 C 
ATOM     15  C   UNL     1     138.784 143.279 135.783  1.00  0.00     0.007 C 
ENDBRANCH   5  13
TORSDOF 1
ENDMDL
MODEL 7
REMARK VINA RESULT:    -5.436      4.775      6.301
REMARK INTER + INTRA:          -6.034
REMARK INTER:                  -5.760
REMARK INTRA:                  -0.274
REMARK UNBOUND:                -0.280
REMARK SMILES CC1=C[C@@H]2C(=C(C)CC[C@H]2C(C)C)CC1
REMARK SMILES IDX 1 1 2 2 3 3 4 4 10 5 9 6 8 7 6 8 5 9 14 10 15 11 7 12 11 13
REMARK SMILES IDX 12 14 13 15
REMARK H PARENT
REMARK Flexibility Score: inf
ROOT
ATOM      1  C   UNL     1     139.346 143.619 135.791  1.00  0.00     0.039 C 
ATOM      2  C   UNL     1     140.590 143.587 134.944  1.00  0.00    -0.076 C 
ATOM      3  C   UNL     1     141.660 142.883 135.370  1.00  0.00    -0.020 C 
ATOM      4  C   UNL     1     142.988 142.817 134.622  1.00  0.00     0.041 C 
ATOM      5  C   UNL     1     143.476 141.351 134.423  1.00  0.00     0.003 C 
ATOM      6  C   UNL     1     144.808 141.398 133.650  1.00  0.00     0.009 C 
ATOM      7  C   UNL     1     144.600 141.995 132.260  1.00  0.00     0.031 C 
ATOM      8  C   UNL     1     143.756 143.254 132.249  1.00  0.00    -0.073 C 
ATOM      9  C   UNL     1     142.939 143.578 133.295  1.00  0.00    -0.064 C 
ATOM     10  C   UNL     1     142.010 144.776 133.259  1.00  0.00     0.036 C 
ATOM     11  C   UNL     1     140.603 144.309 133.618  1.00  0.00     0.035 C 
ATOM     12  C   UNL     1     143.754 144.045 130.961  1.00  0.00     0.039 C 
ENDROOT
BRANCH   5  13
ATOM     13  C   UNL     1     143.581 140.513 135.745  1.00  0.00    -0.013 C 
ATOM     14  C   UNL     1     144.910 140.697 136.496  1.00  0.00     0.007 C 
ATOM     15  C   UNL     1     143.312 139.017 135.510  1.00  0.00     0.007 C 
ENDBRANCH   5  13
TORSDOF 1
ENDMDL
MODEL 8
REMARK VINA RESULT:    -5.429      3.983      5.486
REMARK INTER + INTRA:          -6.026
REMARK INTER:                  -5.751
REMARK INTRA:                  -0.275
REMARK UNBOUND:                -0.280
REMARK SMILES CC1=C[C@@H]2C(=C(C)CC[C@H]2C(C)C)CC1
REMARK SMILES IDX 1 1 2 2 3 3 4 4 10 5 9 6 8 7 6 8 5 9 14 10 15 11 7 12 11 13
REMARK SMILES IDX 12 14 13 15
REMARK H PARENT
REMARK Flexibility Score: inf
ROOT
ATOM      1  C   UNL     1     138.744 139.127 135.710  1.00  0.00     0.039 C 
ATOM      2  C   UNL     1     138.697 140.393 134.896  1.00  0.00    -0.076 C 
ATOM      3  C   UNL     1     139.373 141.479 135.326  1.00  0.00    -0.020 C 
ATOM      4  C   UNL     1     139.359 142.828 134.613  1.00  0.00     0.041 C 
ATOM      5  C   UNL     1     140.796 143.379 134.377  1.00  0.00     0.003 C 
ATOM      6  C   UNL     1     140.669 144.728 133.642  1.00  0.00     0.009 C 
ATOM      7  C   UNL     1     140.032 144.531 132.267  1.00  0.00     0.031 C 
ATOM      8  C   UNL     1     138.808 143.638 132.278  1.00  0.00    -0.073 C 
ATOM      9  C   UNL     1     138.554 142.782 133.312  1.00  0.00    -0.064 C 
ATOM     10  C   UNL     1     137.393 141.806 133.292  1.00  0.00     0.036 C 
ATOM     11  C   UNL     1     137.928 140.411 133.597  1.00  0.00     0.035 C 
ATOM     12  C   UNL     1     137.972 143.636 131.019  1.00  0.00     0.039 C 
ENDROOT
BRANCH   5  13
ATOM     13  C   UNL     1     141.676 143.485 135.671  1.00  0.00    -0.013 C 
ATOM     14  C   UNL     1     141.410 144.749 136.505  1.00  0.00     0.007 C 
ATOM     15  C   UNL     1     143.179 143.362 135.366  1.00  0.00     0.007 C 
ENDBRANCH   5  13
TORSDOF 1
ENDMDL
MODEL 9
REMARK VINA RESULT:    -5.212      5.174      6.727
REMARK INTER + INTRA:          -5.797
REMARK INTER:                  -5.550
REMARK INTRA:                  -0.247
REMARK UNBOUND:                -0.280
REMARK SMILES CC1=C[C@@H]2C(=C(C)CC[C@H]2C(C)C)CC1
REMARK SMILES IDX 1 1 2 2 3 3 4 4 10 5 9 6 8 7 6 8 5 9 14 10 15 11 7 12 11 13
REMARK SMILES IDX 12 14 13 15
REMARK H PARENT
REMARK Flexibility Score: inf
ROOT
ATOM      1  C   UNL     1     144.900 142.944 131.748  1.00  0.00     0.039 C 
ATOM      2  C   UNL     1     143.824 143.193 132.771  1.00  0.00    -0.076 C 
ATOM      3  C   UNL     1     142.692 143.826 132.396  1.00  0.00    -0.020 C 
ATOM      4  C   UNL     1     141.555 144.175 133.352  1.00  0.00     0.041 C 
ATOM      5  C   UNL     1     140.172 143.703 132.815  1.00  0.00     0.003 C 
ATOM      6  C   UNL     1     139.104 144.090 133.857  1.00  0.00     0.009 C 
ATOM      7  C   UNL     1     139.349 143.355 135.173  1.00  0.00     0.031 C 
ATOM      8  C   UNL     1     140.794 143.376 135.631  1.00  0.00    -0.073 C 
ATOM      9  C   UNL     1     141.816 143.655 134.768  1.00  0.00    -0.064 C 
ATOM     10  C   UNL     1     143.272 143.578 135.182  1.00  0.00     0.036 C 
ATOM     11  C   UNL     1     144.014 142.696 134.183  1.00  0.00     0.035 C 
ATOM     12  C   UNL     1     141.051 142.924 137.050  1.00  0.00     0.039 C 
ENDROOT
BRANCH   5  13
ATOM     13  C   UNL     1     139.819 144.220 131.377  1.00  0.00    -0.013 C 
ATOM     14  C   UNL     1     138.503 145.013 131.304  1.00  0.00     0.007 C 
ATOM     15  C   UNL     1     139.809 143.088 130.336  1.00  0.00     0.007 C 
ENDBRANCH   5  13
TORSDOF 1
ENDMDL
