MODEL 1
REMARK VINA RESULT:    -2.853      0.000      0.000
REMARK INTER + INTRA:          -8.592
REMARK INTER:                  -6.521
REMARK INTRA:                  -2.070
REMARK UNBOUND:                -2.070
REMARK SMILES CCCCCCCCCCCCCCCCCCCCCCCC(=O)[O-]
REMARK SMILES IDX 13 1 14 2 15 3 16 4 17 5 18 6 19 7 20 8 21 9 22 10 23 11
REMARK SMILES IDX 24 12 25 13 26 14 12 15 11 16 10 17 9 18 8 19 7 20 6 21 5 22
REMARK SMILES IDX 4 23 3 24 2 25 1 26
REMARK H PARENT
REMARK Flexibility Score: inf
ROOT
ATOM      1  C   UNL     1      12.041  -6.152   4.841  1.00  0.00     0.000 C 
ENDROOT
BRANCH   1   2
ATOM      2  C   UNL     1      12.860  -5.995   3.542  1.00  0.00     0.000 C 
BRANCH   2   3
ATOM      3  C   UNL     1      13.291  -7.314   2.876  1.00  0.00     0.000 C 
BRANCH   3   4
ATOM      4  C   UNL     1      13.118  -8.533   3.798  1.00  0.00     0.000 C 
BRANCH   4   5
ATOM      5  C   UNL     1      13.747  -9.813   3.221  1.00  0.00     0.000 C 
BRANCH   5   6
ATOM      6  C   UNL     1      15.246  -9.703   2.880  1.00  0.00     0.000 C 
BRANCH   6   7
ATOM      7  C   UNL     1      16.214 -10.013   4.038  1.00  0.00     0.000 C 
BRANCH   7   8
ATOM      8  C   UNL     1      17.467  -9.121   4.085  1.00  0.00     0.000 C 
BRANCH   8   9
ATOM      9  C   UNL     1      17.497  -8.081   2.951  1.00  0.00     0.000 C 
BRANCH   9  10
ATOM     10  C   UNL     1      17.458  -6.635   3.471  1.00  0.00     0.006 C 
BRANCH  10  11
ATOM     11  C   UNL     1      16.315  -6.397   4.468  1.00  0.00     0.053 C 
BRANCH  11  12
ATOM     12  C   UNL     1      16.862  -6.092   5.828  1.00  0.00     0.041 C 
ATOM     13  O   UNL     1      16.991  -4.898   6.207  1.00  0.00    -0.550 OA
ATOM     14  O   UNL     1      17.250  -7.129   6.671  1.00  0.00    -0.550 OA
ENDBRANCH  11  12
ENDBRANCH  10  11
ENDBRANCH   9  10
ENDBRANCH   8   9
ENDBRANCH   7   8
ENDBRANCH   6   7
ENDBRANCH   5   6
ENDBRANCH   4   5
ENDBRANCH   3   4
ENDBRANCH   2   3
ENDBRANCH   1   2
BRANCH   1  15
ATOM     15  C   UNL     1      10.527  -5.934   4.688  1.00  0.00     0.000 C 
BRANCH  15  16
ATOM     16  C   UNL     1      10.063  -5.944   3.221  1.00  0.00     0.000 C 
BRANCH  16  17
ATOM     17  C   UNL     1       8.547  -6.180   3.078  1.00  0.00     0.000 C 
BRANCH  17  18
ATOM     18  C   UNL     1       7.846  -6.607   4.382  1.00  0.00    -0.000 C 
BRANCH  18  19
ATOM     19  C   UNL     1       6.572  -7.428   4.131  1.00  0.00    -0.000 C 
BRANCH  19  20
ATOM     20  C   UNL     1       5.878  -7.779   5.454  1.00  0.00    -0.000 C 
BRANCH  20  21
ATOM     21  C   UNL     1       4.363  -8.009   5.298  1.00  0.00    -0.000 C 
BRANCH  21  22
ATOM     22  C   UNL     1       3.796  -7.712   3.897  1.00  0.00    -0.000 C 
BRANCH  22  23
ATOM     23  C   UNL     1       2.331  -7.250   3.927  1.00  0.00    -0.000 C 
BRANCH  23  24
ATOM     24  C   UNL     1       2.230  -5.725   3.766  1.00  0.00    -0.000 C 
BRANCH  24  25
ATOM     25  C   UNL     1       3.606  -5.045   3.682  1.00  0.00    -0.003 C 
ATOM     26  C   UNL     1       3.902  -4.152   4.885  1.00  0.00     0.004 C 
ENDBRANCH  24  25
ENDBRANCH  23  24
ENDBRANCH  22  23
ENDBRANCH  21  22
ENDBRANCH  20  21
ENDBRANCH  19  20
ENDBRANCH  18  19
ENDBRANCH  17  18
ENDBRANCH  16  17
ENDBRANCH  15  16
ENDBRANCH   1  15
TORSDOF 22
ENDMDL
MODEL 2
REMARK VINA RESULT:    -2.682      3.677     10.974
REMARK INTER + INTRA:          -8.202
REMARK INTER:                  -6.189
REMARK INTRA:                  -2.012
REMARK UNBOUND:                -2.070
REMARK SMILES CCCCCCCCCCCCCCCCCCCCCCCC(=O)[O-]
REMARK SMILES IDX 13 1 14 2 15 3 16 4 17 5 18 6 19 7 20 8 21 9 22 10 23 11
REMARK SMILES IDX 24 12 25 13 26 14 12 15 11 16 10 17 9 18 8 19 7 20 6 21 5 22
REMARK SMILES IDX 4 23 3 24 2 25 1 26
REMARK H PARENT
REMARK Flexibility Score: inf
ROOT
ATOM      1  C   UNL     1       6.570  -5.783   4.724  1.00  0.00     0.000 C 
ENDROOT
BRANCH   1   2
ATOM      2  C   UNL     1       5.212  -5.052   4.685  1.00  0.00     0.000 C 
BRANCH   2   3
ATOM      3  C   UNL     1       4.882  -4.351   3.354  1.00  0.00     0.000 C 
BRANCH   3   4
ATOM      4  C   UNL     1       3.396  -4.462   2.973  1.00  0.00     0.000 C 
BRANCH   4   5
ATOM      5  C   UNL     1       2.575  -5.265   3.996  1.00  0.00     0.000 C 
BRANCH   5   6
ATOM      6  C   UNL     1       1.965  -6.573   3.456  1.00  0.00     0.000 C 
BRANCH   6   7
ATOM      7  C   UNL     1       2.976  -7.597   2.904  1.00  0.00     0.000 C 
BRANCH   7   8
ATOM      8  C   UNL     1       2.470  -9.050   2.875  1.00  0.00     0.000 C 
BRANCH   8   9
ATOM      9  C   UNL     1       3.195  -9.951   3.889  1.00  0.00     0.000 C 
BRANCH   9  10
ATOM     10  C   UNL     1       3.357  -9.285   5.265  1.00  0.00     0.006 C 
BRANCH  10  11
ATOM     11  C   UNL     1       4.809  -8.887   5.561  1.00  0.00     0.053 C 
BRANCH  11  12
ATOM     12  C   UNL     1       4.957  -8.469   6.991  1.00  0.00     0.041 C 
ATOM     13  O   UNL     1       5.520  -7.381   7.279  1.00  0.00    -0.550 OA
ATOM     14  O   UNL     1       4.490  -9.295   8.009  1.00  0.00    -0.550 OA
ENDBRANCH  11  12
ENDBRANCH  10  11
ENDBRANCH   9  10
ENDBRANCH   8   9
ENDBRANCH   7   8
ENDBRANCH   6   7
ENDBRANCH   5   6
ENDBRANCH   4   5
ENDBRANCH   3   4
ENDBRANCH   2   3
ENDBRANCH   1   2
BRANCH   1  15
ATOM     15  C   UNL     1       6.858  -6.689   3.515  1.00  0.00     0.000 C 
BRANCH  15  16
ATOM     16  C   UNL     1       8.274  -6.498   2.944  1.00  0.00     0.000 C 
BRANCH  16  17
ATOM     17  C   UNL     1       9.126  -5.527   3.784  1.00  0.00     0.000 C 
BRANCH  17  18
ATOM     18  C   UNL     1      10.586  -5.392   3.310  1.00  0.00    -0.000 C 
BRANCH  18  19
ATOM     19  C   UNL     1      11.234  -6.746   2.986  1.00  0.00    -0.000 C 
BRANCH  19  20
ATOM     20  C   UNL     1      12.765  -6.649   3.048  1.00  0.00    -0.000 C 
BRANCH  20  21
ATOM     21  C   UNL     1      13.266  -5.731   4.179  1.00  0.00    -0.000 C 
BRANCH  21  22
ATOM     22  C   UNL     1      14.572  -4.973   3.877  1.00  0.00    -0.000 C 
BRANCH  22  23
ATOM     23  C   UNL     1      15.583  -5.812   3.081  1.00  0.00    -0.000 C 
BRANCH  23  24
ATOM     24  C   UNL     1      16.982  -5.736   3.713  1.00  0.00    -0.000 C 
BRANCH  24  25
ATOM     25  C   UNL     1      17.207  -6.810   4.789  1.00  0.00    -0.003 C 
ATOM     26  C   UNL     1      17.053  -8.232   4.251  1.00  0.00     0.004 C 
ENDBRANCH  24  25
ENDBRANCH  23  24
ENDBRANCH  22  23
ENDBRANCH  21  22
ENDBRANCH  20  21
ENDBRANCH  19  20
ENDBRANCH  18  19
ENDBRANCH  17  18
ENDBRANCH  16  17
ENDBRANCH  15  16
ENDBRANCH   1  15
TORSDOF 22
ENDMDL
MODEL 3
REMARK VINA RESULT:    -1.911      4.299     10.378
REMARK INTER + INTRA:          -6.438
REMARK INTER:                  -4.666
REMARK INTRA:                  -1.773
REMARK UNBOUND:                -2.070
REMARK SMILES CCCCCCCCCCCCCCCCCCCCCCCC(=O)[O-]
REMARK SMILES IDX 13 1 14 2 15 3 16 4 17 5 18 6 19 7 20 8 21 9 22 10 23 11
REMARK SMILES IDX 24 12 25 13 26 14 12 15 11 16 10 17 9 18 8 19 7 20 6 21 5 22
REMARK SMILES IDX 4 23 3 24 2 25 1 26
REMARK H PARENT
REMARK Flexibility Score: inf
ROOT
ATOM      1  C   UNL     1      14.203  -4.786   4.520  1.00  0.00     0.000 C 
ENDROOT
BRANCH   1   2
ATOM      2  C   UNL     1      13.101  -4.498   3.479  1.00  0.00     0.000 C 
BRANCH   2   3
ATOM      3  C   UNL     1      12.182  -5.690   3.151  1.00  0.00     0.000 C 
BRANCH   3   4
ATOM      4  C   UNL     1      10.716  -5.274   2.942  1.00  0.00     0.000 C 
BRANCH   4   5
ATOM      5  C   UNL     1       9.757  -6.475   2.876  1.00  0.00     0.000 C 
BRANCH   5   6
ATOM      6  C   UNL     1       8.630  -6.466   3.926  1.00  0.00     0.000 C 
BRANCH   6   7
ATOM      7  C   UNL     1       7.197  -6.433   3.360  1.00  0.00     0.000 C 
BRANCH   7   8
ATOM      8  C   UNL     1       6.112  -6.938   4.326  1.00  0.00     0.000 C 
BRANCH   8   9
ATOM      9  C   UNL     1       6.532  -6.823   5.802  1.00  0.00     0.000 C 
BRANCH   9  10
ATOM     10  C   UNL     1       5.371  -7.093   6.772  1.00  0.00     0.006 C 
BRANCH  10  11
ATOM     11  C   UNL     1       5.099  -8.591   6.964  1.00  0.00     0.053 C 
BRANCH  11  12
ATOM     12  C   UNL     1       3.802  -8.976   6.322  1.00  0.00     0.041 C 
ATOM     13  O   UNL     1       3.046  -9.818   6.874  1.00  0.00    -0.550 OA
ATOM     14  O   UNL     1       3.438  -8.419   5.100  1.00  0.00    -0.550 OA
ENDBRANCH  11  12
ENDBRANCH  10  11
ENDBRANCH   9  10
ENDBRANCH   8   9
ENDBRANCH   7   8
ENDBRANCH   6   7
ENDBRANCH   5   6
ENDBRANCH   4   5
ENDBRANCH   3   4
ENDBRANCH   2   3
ENDBRANCH   1   2
BRANCH   1  15
ATOM     15  C   UNL     1      15.341  -5.696   4.031  1.00  0.00     0.000 C 
BRANCH  15  16
ATOM     16  C   UNL     1      16.507  -5.790   5.030  1.00  0.00     0.000 C 
BRANCH  16  17
ATOM     17  C   UNL     1      16.497  -7.103   5.835  1.00  0.00     0.000 C 
BRANCH  17  18
ATOM     18  C   UNL     1      17.894  -7.697   6.099  1.00  0.00    -0.000 C 
BRANCH  18  19
ATOM     19  C   UNL     1      17.840  -9.161   6.564  1.00  0.00    -0.000 C 
BRANCH  19  20
ATOM     20  C   UNL     1      17.275 -10.065   5.460  1.00  0.00    -0.000 C 
BRANCH  20  21
ATOM     21  C   UNL     1      17.890  -9.783   4.076  1.00  0.00    -0.000 C 
BRANCH  21  22
ATOM     22  C   UNL     1      16.954 -10.038   2.879  1.00  0.00    -0.000 C 
BRANCH  22  23
ATOM     23  C   UNL     1      15.690  -9.166   2.909  1.00  0.00    -0.000 C 
BRANCH  23  24
ATOM     24  C   UNL     1      14.451 -10.001   3.270  1.00  0.00    -0.000 C 
BRANCH  24  25
ATOM     25  C   UNL     1      13.234  -9.133   3.628  1.00  0.00    -0.003 C 
ATOM     26  C   UNL     1      11.939  -9.630   2.989  1.00  0.00     0.004 C 
ENDBRANCH  24  25
ENDBRANCH  23  24
ENDBRANCH  22  23
ENDBRANCH  21  22
ENDBRANCH  20  21
ENDBRANCH  19  20
ENDBRANCH  18  19
ENDBRANCH  17  18
ENDBRANCH  16  17
ENDBRANCH  15  16
ENDBRANCH   1  15
TORSDOF 22
ENDMDL
MODEL 4
REMARK VINA RESULT:    -1.725      3.960     10.704
REMARK INTER + INTRA:          -6.014
REMARK INTER:                  -4.338
REMARK INTRA:                  -1.676
REMARK UNBOUND:                -2.070
REMARK SMILES CCCCCCCCCCCCCCCCCCCCCCCC(=O)[O-]
REMARK SMILES IDX 13 1 14 2 15 3 16 4 17 5 18 6 19 7 20 8 21 9 22 10 23 11
REMARK SMILES IDX 24 12 25 13 26 14 12 15 11 16 10 17 9 18 8 19 7 20 6 21 5 22
REMARK SMILES IDX 4 23 3 24 2 25 1 26
REMARK H PARENT
REMARK Flexibility Score: inf
ROOT
ATOM      1  C   UNL     1      14.369  -6.442   3.549  1.00  0.00     0.000 C 
ENDROOT
BRANCH   1   2
ATOM      2  C   UNL     1      13.132  -7.363   3.604  1.00  0.00     0.000 C 
BRANCH   2   3
ATOM      3  C   UNL     1      11.909  -6.775   4.331  1.00  0.00     0.000 C 
BRANCH   3   4
ATOM      4  C   UNL     1      11.475  -5.413   3.763  1.00  0.00     0.000 C 
BRANCH   4   5
ATOM      5  C   UNL     1      10.219  -5.506   2.880  1.00  0.00     0.000 C 
BRANCH   5   6
ATOM      6  C   UNL     1       8.980  -4.776   3.432  1.00  0.00     0.000 C 
BRANCH   6   7
ATOM      7  C   UNL     1       7.653  -5.555   3.339  1.00  0.00     0.000 C 
BRANCH   7   8
ATOM      8  C   UNL     1       7.808  -7.085   3.304  1.00  0.00     0.000 C 
BRANCH   8   9
ATOM      9  C   UNL     1       6.847  -7.801   4.270  1.00  0.00     0.000 C 
BRANCH   9  10
ATOM     10  C   UNL     1       5.857  -6.837   4.941  1.00  0.00     0.006 C 
BRANCH  10  11
ATOM     11  C   UNL     1       5.693  -7.109   6.443  1.00  0.00     0.053 C 
BRANCH  11  12
ATOM     12  C   UNL     1       4.820  -8.305   6.667  1.00  0.00     0.041 C 
ATOM     13  O   UNL     1       4.977  -9.022   7.690  1.00  0.00    -0.550 OA
ATOM     14  O   UNL     1       3.846  -8.640   5.732  1.00  0.00    -0.550 OA
ENDBRANCH  11  12
ENDBRANCH  10  11
ENDBRANCH   9  10
ENDBRANCH   8   9
ENDBRANCH   7   8
ENDBRANCH   6   7
ENDBRANCH   5   6
ENDBRANCH   4   5
ENDBRANCH   3   4
ENDBRANCH   2   3
ENDBRANCH   1   2
BRANCH   1  15
ATOM     15  C   UNL     1      14.468  -5.414   4.688  1.00  0.00     0.000 C 
BRANCH  15  16
ATOM     16  C   UNL     1      15.322  -5.906   5.869  1.00  0.00     0.000 C 
BRANCH  16  17
ATOM     17  C   UNL     1      16.641  -5.123   6.016  1.00  0.00     0.000 C 
BRANCH  17  18
ATOM     18  C   UNL     1      17.043  -4.316   4.766  1.00  0.00    -0.000 C 
BRANCH  18  19
ATOM     19  C   UNL     1      18.166  -4.987   3.961  1.00  0.00    -0.000 C 
BRANCH  19  20
ATOM     20  C   UNL     1      17.593  -5.997   2.958  1.00  0.00    -0.000 C 
BRANCH  20  21
ATOM     21  C   UNL     1      18.414  -7.298   2.876  1.00  0.00    -0.000 C 
BRANCH  21  22
ATOM     22  C   UNL     1      18.265  -8.244   4.082  1.00  0.00    -0.000 C 
BRANCH  22  23
ATOM     23  C   UNL     1      17.236  -9.360   3.846  1.00  0.00    -0.000 C 
BRANCH  23  24
ATOM     24  C   UNL     1      16.483  -9.700   5.142  1.00  0.00    -0.000 C 
BRANCH  24  25
ATOM     25  C   UNL     1      17.428  -9.953   6.328  1.00  0.00    -0.003 C 
ATOM     26  C   UNL     1      17.627  -8.718   7.204  1.00  0.00     0.004 C 
ENDBRANCH  24  25
ENDBRANCH  23  24
ENDBRANCH  22  23
ENDBRANCH  21  22
ENDBRANCH  20  21
ENDBRANCH  19  20
ENDBRANCH  18  19
ENDBRANCH  17  18
ENDBRANCH  16  17
ENDBRANCH  15  16
ENDBRANCH   1  15
TORSDOF 22
ENDMDL
MODEL 5
REMARK VINA RESULT:    -1.523      1.196      2.202
REMARK INTER + INTRA:          -5.552
REMARK INTER:                  -4.580
REMARK INTRA:                  -0.972
REMARK UNBOUND:                -2.070
REMARK SMILES CCCCCCCCCCCCCCCCCCCCCCCC(=O)[O-]
REMARK SMILES IDX 13 1 14 2 15 3 16 4 17 5 18 6 19 7 20 8 21 9 22 10 23 11
REMARK SMILES IDX 24 12 25 13 26 14 12 15 11 16 10 17 9 18 8 19 7 20 6 21 5 22
REMARK SMILES IDX 4 23 3 24 2 25 1 26
REMARK H PARENT
REMARK Flexibility Score: inf
ROOT
ATOM      1  C   UNL     1      12.092  -6.287   5.556  1.00  0.00     0.000 C 
ENDROOT
BRANCH   1   2
ATOM      2  C   UNL     1      13.221  -6.059   4.529  1.00  0.00     0.000 C 
BRANCH   2   3
ATOM      3  C   UNL     1      13.379  -7.169   3.473  1.00  0.00     0.000 C 
BRANCH   3   4
ATOM      4  C   UNL     1      13.010  -8.562   4.011  1.00  0.00     0.000 C 
BRANCH   4   5
ATOM      5  C   UNL     1      13.796  -9.694   3.327  1.00  0.00     0.000 C 
BRANCH   5   6
ATOM      6  C   UNL     1      15.220  -9.316   2.875  1.00  0.00     0.000 C 
BRANCH   6   7
ATOM      7  C   UNL     1      16.359  -9.829   3.777  1.00  0.00     0.000 C 
BRANCH   7   8
ATOM      8  C   UNL     1      16.791  -8.853   4.885  1.00  0.00     0.000 C 
BRANCH   8   9
ATOM      9  C   UNL     1      17.685  -7.717   4.359  1.00  0.00     0.000 C 
BRANCH   9  10
ATOM     10  C   UNL     1      16.921  -6.396   4.181  1.00  0.00     0.006 C 
BRANCH  10  11
ATOM     11  C   UNL     1      16.548  -5.744   5.520  1.00  0.00     0.053 C 
BRANCH  11  12
ATOM     12  C   UNL     1      17.397  -4.536   5.768  1.00  0.00     0.041 C 
ATOM     13  O   UNL     1      17.601  -4.135   6.945  1.00  0.00    -0.550 OA
ATOM     14  O   UNL     1      17.945  -3.838   4.697  1.00  0.00    -0.550 OA
ENDBRANCH  11  12
ENDBRANCH  10  11
ENDBRANCH   9  10
ENDBRANCH   8   9
ENDBRANCH   7   8
ENDBRANCH   6   7
ENDBRANCH   5   6
ENDBRANCH   4   5
ENDBRANCH   3   4
ENDBRANCH   2   3
ENDBRANCH   1   2
BRANCH   1  15
ATOM     15  C   UNL     1      10.735  -5.669   5.181  1.00  0.00     0.000 C 
BRANCH  15  16
ATOM     16  C   UNL     1      10.210  -6.156   3.819  1.00  0.00     0.000 C 
BRANCH  16  17
ATOM     17  C   UNL     1       8.808  -5.607   3.492  1.00  0.00     0.000 C 
BRANCH  17  18
ATOM     18  C   UNL     1       7.659  -6.596   3.766  1.00  0.00    -0.000 C 
BRANCH  18  19
ATOM     19  C   UNL     1       6.427  -6.335   2.887  1.00  0.00    -0.000 C 
BRANCH  19  20
ATOM     20  C   UNL     1       5.965  -4.877   3.011  1.00  0.00    -0.000 C 
BRANCH  20  21
ATOM     21  C   UNL     1       4.823  -4.690   4.027  1.00  0.00    -0.000 C 
BRANCH  21  22
ATOM     22  C   UNL     1       4.511  -5.922   4.896  1.00  0.00    -0.000 C 
BRANCH  22  23
ATOM     23  C   UNL     1       4.104  -7.152   4.069  1.00  0.00    -0.000 C 
BRANCH  23  24
ATOM     24  C   UNL     1       3.864  -8.371   4.974  1.00  0.00    -0.000 C 
BRANCH  24  25
ATOM     25  C   UNL     1       5.121  -8.785   5.757  1.00  0.00    -0.003 C 
ATOM     26  C   UNL     1       4.946  -8.666   7.269  1.00  0.00     0.004 C 
ENDBRANCH  24  25
ENDBRANCH  23  24
ENDBRANCH  22  23
ENDBRANCH  21  22
ENDBRANCH  20  21
ENDBRANCH  19  20
ENDBRANCH  18  19
ENDBRANCH  17  18
ENDBRANCH  16  17
ENDBRANCH  15  16
ENDBRANCH   1  15
TORSDOF 22
ENDMDL
MODEL 6
REMARK VINA RESULT:    -1.446      2.010      3.354
REMARK INTER + INTRA:          -5.375
REMARK INTER:                  -3.272
REMARK INTRA:                  -2.104
REMARK UNBOUND:                -2.070
REMARK SMILES CCCCCCCCCCCCCCCCCCCCCCCC(=O)[O-]
REMARK SMILES IDX 13 1 14 2 15 3 16 4 17 5 18 6 19 7 20 8 21 9 22 10 23 11
REMARK SMILES IDX 24 12 25 13 26 14 12 15 11 16 10 17 9 18 8 19 7 20 6 21 5 22
REMARK SMILES IDX 4 23 3 24 2 25 1 26
REMARK H PARENT
REMARK Flexibility Score: inf
ROOT
ATOM      1  C   UNL     1      11.559  -5.960   5.262  1.00  0.00     0.000 C 
ENDROOT
BRANCH   1   2
ATOM      2  C   UNL     1      13.083  -6.093   5.052  1.00  0.00     0.000 C 
BRANCH   2   3
ATOM      3  C   UNL     1      13.510  -7.113   3.981  1.00  0.00     0.000 C 
BRANCH   3   4
ATOM      4  C   UNL     1      14.379  -6.489   2.875  1.00  0.00     0.000 C 
BRANCH   4   5
ATOM      5  C   UNL     1      15.027  -5.161   3.303  1.00  0.00     0.000 C 
BRANCH   5   6
ATOM      6  C   UNL     1      16.498  -4.989   2.875  1.00  0.00     0.000 C 
BRANCH   6   7
ATOM      7  C   UNL     1      17.545  -5.538   3.864  1.00  0.00     0.000 C 
BRANCH   7   8
ATOM      8  C   UNL     1      17.011  -5.804   5.282  1.00  0.00     0.000 C 
BRANCH   8   9
ATOM      9  C   UNL     1      17.420  -7.187   5.819  1.00  0.00     0.000 C 
BRANCH   9  10
ATOM     10  C   UNL     1      16.489  -8.310   5.335  1.00  0.00     0.006 C 
BRANCH  10  11
ATOM     11  C   UNL     1      17.239  -9.617   5.047  1.00  0.00     0.053 C 
BRANCH  11  12
ATOM     12  C   UNL     1      17.170  -9.950   3.589  1.00  0.00     0.041 C 
ATOM     13  O   UNL     1      18.228 -10.080   2.918  1.00  0.00    -0.550 OA
ATOM     14  O   UNL     1      15.935 -10.097   2.966  1.00  0.00    -0.550 OA
ENDBRANCH  11  12
ENDBRANCH  10  11
ENDBRANCH   9  10
ENDBRANCH   8   9
ENDBRANCH   7   8
ENDBRANCH   6   7
ENDBRANCH   5   6
ENDBRANCH   4   5
ENDBRANCH   3   4
ENDBRANCH   2   3
ENDBRANCH   1   2
BRANCH   1  15
ATOM     15  C   UNL     1      10.791  -5.333   4.086  1.00  0.00     0.000 C 
BRANCH  15  16
ATOM     16  C   UNL     1       9.878  -6.338   3.362  1.00  0.00     0.000 C 
BRANCH  16  17
ATOM     17  C   UNL     1       8.551  -5.707   2.898  1.00  0.00     0.000 C 
BRANCH  17  18
ATOM     18  C   UNL     1       7.356  -5.986   3.828  1.00  0.00    -0.000 C 
BRANCH  18  19
ATOM     19  C   UNL     1       6.054  -5.336   3.336  1.00  0.00    -0.000 C 
BRANCH  19  20
ATOM     20  C   UNL     1       5.218  -4.823   4.517  1.00  0.00    -0.000 C 
BRANCH  20  21
ATOM     21  C   UNL     1       4.032  -5.744   4.861  1.00  0.00    -0.000 C 
BRANCH  21  22
ATOM     22  C   UNL     1       3.424  -6.502   3.667  1.00  0.00    -0.000 C 
BRANCH  22  23
ATOM     23  C   UNL     1       3.748  -8.004   3.682  1.00  0.00    -0.000 C 
BRANCH  23  24
ATOM     24  C   UNL     1       3.640  -8.578   5.104  1.00  0.00    -0.000 C 
BRANCH  24  25
ATOM     25  C   UNL     1       4.895  -9.361   5.524  1.00  0.00    -0.003 C 
ATOM     26  C   UNL     1       6.188  -8.727   5.016  1.00  0.00     0.004 C 
ENDBRANCH  24  25
ENDBRANCH  23  24
ENDBRANCH  22  23
ENDBRANCH  21  22
ENDBRANCH  20  21
ENDBRANCH  19  20
ENDBRANCH  18  19
ENDBRANCH  17  18
ENDBRANCH  16  17
ENDBRANCH  15  16
ENDBRANCH   1  15
TORSDOF 22
ENDMDL
MODEL 7
REMARK VINA RESULT:    -1.338      1.620      2.787
REMARK INTER + INTRA:          -5.129
REMARK INTER:                  -4.654
REMARK INTRA:                  -0.474
REMARK UNBOUND:                -2.070
REMARK SMILES CCCCCCCCCCCCCCCCCCCCCCCC(=O)[O-]
REMARK SMILES IDX 13 1 14 2 15 3 16 4 17 5 18 6 19 7 20 8 21 9 22 10 23 11
REMARK SMILES IDX 24 12 25 13 26 14 12 15 11 16 10 17 9 18 8 19 7 20 6 21 5 22
REMARK SMILES IDX 4 23 3 24 2 25 1 26
REMARK H PARENT
REMARK Flexibility Score: inf
ROOT
ATOM      1  C   UNL     1      11.456  -6.245   5.459  1.00  0.00     0.000 C 
ENDROOT
BRANCH   1   2
ATOM      2  C   UNL     1      12.809  -6.300   4.719  1.00  0.00     0.000 C 
BRANCH   2   3
ATOM      3  C   UNL     1      12.870  -5.496   3.407  1.00  0.00     0.000 C 
BRANCH   3   4
ATOM      4  C   UNL     1      14.308  -5.285   2.902  1.00  0.00     0.000 C 
BRANCH   4   5
ATOM      5  C   UNL     1      15.140  -6.579   2.907  1.00  0.00     0.000 C 
BRANCH   5   6
ATOM      6  C   UNL     1      14.315  -7.881   2.915  1.00  0.00     0.000 C 
BRANCH   6   7
ATOM      7  C   UNL     1      15.133  -9.183   3.017  1.00  0.00     0.000 C 
BRANCH   7   8
ATOM      8  C   UNL     1      16.657  -8.993   2.933  1.00  0.00     0.000 C 
BRANCH   8   9
ATOM      9  C   UNL     1      17.421  -9.883   3.929  1.00  0.00     0.000 C 
BRANCH   9  10
ATOM     10  C   UNL     1      16.929  -9.712   5.375  1.00  0.00     0.006 C 
BRANCH  10  11
ATOM     11  C   UNL     1      17.697  -8.622   6.136  1.00  0.00     0.053 C 
BRANCH  11  12
ATOM     12  C   UNL     1      17.464  -7.283   5.509  1.00  0.00     0.041 C 
ATOM     13  O   UNL     1      18.264  -6.839   4.644  1.00  0.00    -0.550 OA
ATOM     14  O   UNL     1      16.372  -6.513   5.898  1.00  0.00    -0.550 OA
ENDBRANCH  11  12
ENDBRANCH  10  11
ENDBRANCH   9  10
ENDBRANCH   8   9
ENDBRANCH   7   8
ENDBRANCH   6   7
ENDBRANCH   5   6
ENDBRANCH   4   5
ENDBRANCH   3   4
ENDBRANCH   2   3
ENDBRANCH   1   2
BRANCH   1  15
ATOM     15  C   UNL     1      10.219  -6.482   4.577  1.00  0.00     0.000 C 
BRANCH  15  16
ATOM     16  C   UNL     1       9.224  -5.308   4.611  1.00  0.00     0.000 C 
BRANCH  16  17
ATOM     17  C   UNL     1       8.614  -5.006   3.229  1.00  0.00     0.000 C 
BRANCH  17  18
ATOM     18  C   UNL     1       7.374  -5.852   2.884  1.00  0.00    -0.000 C 
BRANCH  18  19
ATOM     19  C   UNL     1       6.064  -5.215   3.372  1.00  0.00    -0.000 C 
BRANCH  19  20
ATOM     20  C   UNL     1       5.403  -6.082   4.452  1.00  0.00    -0.000 C 
BRANCH  20  21
ATOM     21  C   UNL     1       6.406  -6.975   5.207  1.00  0.00    -0.000 C 
BRANCH  21  22
ATOM     22  C   UNL     1       5.910  -8.399   5.518  1.00  0.00    -0.000 C 
BRANCH  22  23
ATOM     23  C   UNL     1       4.742  -8.424   6.516  1.00  0.00    -0.000 C 
BRANCH  23  24
ATOM     24  C   UNL     1       3.700  -9.482   6.120  1.00  0.00    -0.000 C 
BRANCH  24  25
ATOM     25  C   UNL     1       3.606  -9.681   4.599  1.00  0.00    -0.003 C 
ATOM     26  C   UNL     1       2.166  -9.689   4.088  1.00  0.00     0.004 C 
ENDBRANCH  24  25
ENDBRANCH  23  24
ENDBRANCH  22  23
ENDBRANCH  21  22
ENDBRANCH  20  21
ENDBRANCH  19  20
ENDBRANCH  18  19
ENDBRANCH  17  18
ENDBRANCH  16  17
ENDBRANCH  15  16
ENDBRANCH   1  15
TORSDOF 22
ENDMDL
MODEL 8
REMARK VINA RESULT:    -1.085      4.076     10.569
REMARK INTER + INTRA:          -4.551
REMARK INTER:                  -2.956
REMARK INTRA:                  -1.595
REMARK UNBOUND:                -2.070
REMARK SMILES CCCCCCCCCCCCCCCCCCCCCCCC(=O)[O-]
REMARK SMILES IDX 13 1 14 2 15 3 16 4 17 5 18 6 19 7 20 8 21 9 22 10 23 11
REMARK SMILES IDX 24 12 25 13 26 14 12 15 11 16 10 17 9 18 8 19 7 20 6 21 5 22
REMARK SMILES IDX 4 23 3 24 2 25 1 26
REMARK H PARENT
REMARK Flexibility Score: inf
ROOT
ATOM      1  C   UNL     1      14.212  -4.683   4.701  1.00  0.00     0.000 C 
ENDROOT
BRANCH   1   2
ATOM      2  C   UNL     1      13.144  -4.420   3.618  1.00  0.00     0.000 C 
BRANCH   2   3
ATOM      3  C   UNL     1      12.167  -5.582   3.365  1.00  0.00     0.000 C 
BRANCH   3   4
ATOM      4  C   UNL     1      10.724  -5.107   3.120  1.00  0.00     0.000 C 
BRANCH   4   5
ATOM      5  C   UNL     1       9.686  -6.227   3.306  1.00  0.00     0.000 C 
BRANCH   5   6
ATOM      6  C   UNL     1       9.087  -6.328   4.722  1.00  0.00     0.000 C 
BRANCH   6   7
ATOM      7  C   UNL     1       7.658  -5.770   4.879  1.00  0.00     0.000 C 
BRANCH   7   8
ATOM      8  C   UNL     1       6.553  -6.838   4.934  1.00  0.00     0.000 C 
BRANCH   8   9
ATOM      9  C   UNL     1       5.662  -6.836   3.679  1.00  0.00     0.000 C 
BRANCH   9  10
ATOM     10  C   UNL     1       4.232  -6.354   3.970  1.00  0.00     0.006 C 
BRANCH  10  11
ATOM     11  C   UNL     1       3.839  -5.132   3.130  1.00  0.00     0.053 C 
BRANCH  11  12
ATOM     12  C   UNL     1       3.404  -4.006   4.015  1.00  0.00     0.041 C 
ATOM     13  O   UNL     1       2.605  -3.133   3.585  1.00  0.00    -0.550 OA
ATOM     14  O   UNL     1       3.900  -3.908   5.311  1.00  0.00    -0.550 OA
ENDBRANCH  11  12
ENDBRANCH  10  11
ENDBRANCH   9  10
ENDBRANCH   8   9
ENDBRANCH   7   8
ENDBRANCH   6   7
ENDBRANCH   5   6
ENDBRANCH   4   5
ENDBRANCH   3   4
ENDBRANCH   2   3
ENDBRANCH   1   2
BRANCH   1  15
ATOM     15  C   UNL     1      15.289  -5.712   4.319  1.00  0.00     0.000 C 
BRANCH  15  16
ATOM     16  C   UNL     1      16.405  -5.831   5.371  1.00  0.00     0.000 C 
BRANCH  16  17
ATOM     17  C   UNL     1      16.342  -7.155   6.157  1.00  0.00     0.000 C 
BRANCH  17  18
ATOM     18  C   UNL     1      17.713  -7.816   6.398  1.00  0.00    -0.000 C 
BRANCH  18  19
ATOM     19  C   UNL     1      17.603  -9.314   6.717  1.00  0.00    -0.000 C 
BRANCH  19  20
ATOM     20  C   UNL     1      17.097 -10.099   5.498  1.00  0.00    -0.000 C 
BRANCH  20  21
ATOM     21  C   UNL     1      18.099 -10.108   4.329  1.00  0.00    -0.000 C 
BRANCH  21  22
ATOM     22  C   UNL     1      17.468 -10.056   2.925  1.00  0.00    -0.000 C 
BRANCH  22  23
ATOM     23  C   UNL     1      16.170  -9.233   2.880  1.00  0.00    -0.000 C 
BRANCH  23  24
ATOM     24  C   UNL     1      14.943 -10.123   3.133  1.00  0.00    -0.000 C 
BRANCH  24  25
ATOM     25  C   UNL     1      13.979  -9.523   4.170  1.00  0.00    -0.003 C 
ATOM     26  C   UNL     1      12.851  -8.713   3.533  1.00  0.00     0.004 C 
ENDBRANCH  24  25
ENDBRANCH  23  24
ENDBRANCH  22  23
ENDBRANCH  21  22
ENDBRANCH  20  21
ENDBRANCH  19  20
ENDBRANCH  18  19
ENDBRANCH  17  18
ENDBRANCH  16  17
ENDBRANCH  15  16
ENDBRANCH   1  15
TORSDOF 22
ENDMDL
