MODEL 1
REMARK VINA RESULT:    -2.649      0.000      0.000
REMARK INTER + INTRA:          -4.304
REMARK INTER:                  -4.042
REMARK INTRA:                  -0.262
REMARK UNBOUND:                -0.262
REMARK SMILES CC1=CCC[C@@H](C)C(=O)C[C@H](C(C)C)C(=O)C1
REMARK SMILES IDX 8 1 9 2 6 3 7 4 5 5 4 6 3 7 2 8 1 9 10 11 11 12 15 13 16 14
REMARK SMILES IDX 17 15 12 17 13 18 14 19
REMARK H PARENT
REMARK Flexibility Score: 70.00
ROOT
ATOM      1  C   UNL     1     199.363 150.225 164.637  1.00  0.00     0.136 C 
ATOM      2  O   UNL     1     198.324 149.806 165.128  1.00  0.00    -0.299 OA
ENDROOT
BRANCH   1   3
ATOM      3  C   UNL     1     200.316 151.066 165.469  1.00  0.00     0.053 C 
ATOM      4  C   UNL     1     200.885 150.288 166.667  1.00  0.00     0.016 C 
BRANCH   3   5
ATOM      5  C   UNL     1     199.662 152.392 165.909  1.00  0.00     0.015 C 
BRANCH   5   6
ATOM      6  C   UNL     1     199.981 153.586 164.985  1.00  0.00     0.028 C 
BRANCH   6   7
ATOM      7  C   UNL     1     201.412 153.541 164.512  1.00  0.00    -0.028 C 
ATOM      8  C   UNL     1     201.796 153.338 163.230  1.00  0.00    -0.070 CG0
ATOM      9  C   UNL     1     203.272 153.280 162.932  1.00  0.00     0.039 C 
ATOM     10  G   UNL     1     200.810 153.176 162.082  1.00  0.00     0.000 G0
ENDBRANCH   6   7
ENDBRANCH   5   6
ENDBRANCH   3   5
ENDBRANCH   1   3
BRANCH   1  11
ATOM     11  C   UNL     1     199.678 149.891 163.198  1.00  0.00     0.087 C 
BRANCH  11  12
ATOM     12  C   UNL     1     199.292 151.043 162.235  1.00  0.00     0.066 C 
BRANCH  12  13
ATOM     13  C   UNL     1     200.552 151.735 161.739  1.00  0.00     0.140 C 
ATOM     14  O   UNL     1     201.306 151.141 160.980  1.00  0.00    -0.299 OA
BRANCH  13  15
ATOM     15  C   UNL     1     200.824 153.178 162.086  1.00  0.00     0.106 CG0
ATOM     16  G   UNL     1     201.799 153.326 163.245  1.00  0.00     0.000 G0
ENDBRANCH  13  15
ENDBRANCH  12  13
BRANCH  12  17
ATOM     17  C   UNL     1     198.425 150.555 161.028  1.00  0.00    -0.006 C 
ATOM     18  C   UNL     1     197.792 151.745 160.280  1.00  0.00     0.008 C 
ATOM     19  C   UNL     1     197.303 149.593 161.463  1.00  0.00     0.008 C 
ENDBRANCH  12  17
ENDBRANCH  11  12
ENDBRANCH   1  11
TORSDOF 1
ENDMDL
MODEL 2
REMARK VINA RESULT:    -2.496     13.380     15.457
REMARK INTER + INTRA:          -4.071
REMARK INTER:                  -3.752
REMARK INTRA:                  -0.319
REMARK UNBOUND:                -0.262
REMARK SMILES CC1=CCC[C@@H](C)C(=O)C[C@H](C(C)C)C(=O)C1
REMARK SMILES IDX 8 1 9 2 6 3 7 4 5 5 4 6 3 7 2 8 1 9 10 11 11 12 15 13 16 14
REMARK SMILES IDX 17 15 12 17 13 18 14 19
REMARK H PARENT
REMARK Flexibility Score: 70.00
ROOT
ATOM      1  C   UNL     1     212.663 153.741 171.607  1.00  0.00     0.136 C 
ATOM      2  O   UNL     1     211.981 154.753 171.695  1.00  0.00    -0.299 OA
ENDROOT
BRANCH   1   3
ATOM      3  C   UNL     1     214.103 153.747 172.092  1.00  0.00     0.053 C 
ATOM      4  C   UNL     1     215.088 154.158 170.986  1.00  0.00     0.016 C 
BRANCH   3   5
ATOM      5  C   UNL     1     214.491 152.396 172.729  1.00  0.00     0.015 C 
BRANCH   5   6
ATOM      6  C   UNL     1     215.474 151.563 171.881  1.00  0.00     0.028 C 
BRANCH   6   7
ATOM      7  C   UNL     1     215.099 150.103 171.889  1.00  0.00    -0.028 C 
ATOM      8  C   UNL     1     214.517 149.449 170.856  1.00  0.00    -0.070 CG0
ATOM      9  C   UNL     1     214.168 147.995 171.044  1.00  0.00     0.039 C 
ATOM     10  G   UNL     1     214.210 150.110 169.520  1.00  0.00     0.000 G0
ENDBRANCH   6   7
ENDBRANCH   5   6
ENDBRANCH   3   5
ENDBRANCH   1   3
BRANCH   1  11
ATOM     11  C   UNL     1     212.051 152.495 171.013  1.00  0.00     0.087 C 
BRANCH  11  12
ATOM     12  C   UNL     1     212.615 152.183 169.603  1.00  0.00     0.066 C 
BRANCH  12  13
ATOM     13  C   UNL     1     212.818 150.684 169.457  1.00  0.00     0.140 C 
ATOM     14  O   UNL     1     211.855 149.966 169.218  1.00  0.00    -0.299 OA
BRANCH  13  15
ATOM     15  C   UNL     1     214.203 150.087 169.497  1.00  0.00     0.106 CG0
ATOM     16  G   UNL     1     214.524 149.444 170.839  1.00  0.00     0.000 G0
ENDBRANCH  13  15
ENDBRANCH  12  13
BRANCH  12  17
ATOM     17  C   UNL     1     211.702 152.727 168.455  1.00  0.00    -0.006 C 
ATOM     18  C   UNL     1     212.280 154.021 167.849  1.00  0.00     0.008 C 
ATOM     19  C   UNL     1     210.264 153.004 168.930  1.00  0.00     0.008 C 
ENDBRANCH  12  17
ENDBRANCH  11  12
ENDBRANCH   1  11
TORSDOF 1
ENDMDL
MODEL 3
REMARK VINA RESULT:    -2.478      2.564      3.754
REMARK INTER + INTRA:          -4.044
REMARK INTER:                  -4.118
REMARK INTRA:                   0.074
REMARK UNBOUND:                -0.262
REMARK SMILES CC1=CCC[C@@H](C)C(=O)C[C@H](C(C)C)C(=O)C1
REMARK SMILES IDX 8 1 9 2 6 3 7 4 5 5 4 6 3 7 2 8 1 9 10 11 11 12 15 13 16 14
REMARK SMILES IDX 17 15 12 17 13 18 14 19
REMARK H PARENT
REMARK Flexibility Score: 70.00
ROOT
ATOM      1  C   UNL     1     199.601 151.520 163.831  1.00  0.00     0.136 C 
ATOM      2  O   UNL     1     200.011 152.139 162.858  1.00  0.00    -0.299 OA
ENDROOT
BRANCH   1   3
ATOM      3  C   UNL     1     199.770 152.093 165.227  1.00  0.00     0.053 C 
ATOM      4  C   UNL     1     200.647 153.354 165.237  1.00  0.00     0.016 C 
BRANCH   3   5
ATOM      5  C   UNL     1     200.289 151.028 166.216  1.00  0.00     0.015 C 
BRANCH   5   6
ATOM      6  C   UNL     1     201.630 150.388 165.801  1.00  0.00     0.028 C 
BRANCH   6   7
ATOM      7  C   UNL     1     201.557 148.884 165.856  1.00  0.00    -0.028 C 
ATOM      8  C   UNL     1     201.514 148.072 164.773  1.00  0.00    -0.070 CG0
ATOM      9  C   UNL     1     201.399 146.588 165.004  1.00  0.00     0.039 C 
ATOM     10  G   UNL     1     201.585 148.589 163.343  1.00  0.00     0.000 G0
ENDBRANCH   6   7
ENDBRANCH   5   6
ENDBRANCH   3   5
ENDBRANCH   1   3
BRANCH   1  11
ATOM     11  C   UNL     1     198.929 150.184 163.616  1.00  0.00     0.087 C 
BRANCH  11  12
ATOM     12  C   UNL     1     199.362 149.521 162.283  1.00  0.00     0.066 C 
BRANCH  12  13
ATOM     13  C   UNL     1     200.290 148.353 162.575  1.00  0.00     0.140 C 
ATOM     14  O   UNL     1     200.030 147.248 162.118  1.00  0.00    -0.299 OA
BRANCH  13  15
ATOM     15  C   UNL     1     201.580 148.565 163.329  1.00  0.00     0.106 CG0
ATOM     16  G   UNL     1     201.500 148.083 164.771  1.00  0.00     0.000 G0
ENDBRANCH  13  15
ENDBRANCH  12  13
BRANCH  12  17
ATOM     17  C   UNL     1     198.145 149.051 161.420  1.00  0.00    -0.006 C 
ATOM     18  C   UNL     1     197.689 150.159 160.451  1.00  0.00     0.008 C 
ATOM     19  C   UNL     1     196.943 148.625 162.284  1.00  0.00     0.008 C 
ENDBRANCH  12  17
ENDBRANCH  11  12
ENDBRANCH   1  11
TORSDOF 1
ENDMDL
MODEL 4
REMARK VINA RESULT:    -2.465      6.671      9.058
REMARK INTER + INTRA:          -4.023
REMARK INTER:                  -3.793
REMARK INTRA:                  -0.231
REMARK UNBOUND:                -0.262
REMARK SMILES CC1=CCC[C@@H](C)C(=O)C[C@H](C(C)C)C(=O)C1
REMARK SMILES IDX 8 1 9 2 6 3 7 4 5 5 4 6 3 7 2 8 1 9 10 11 11 12 15 13 16 14
REMARK SMILES IDX 17 15 12 17 13 18 14 19
REMARK H PARENT
REMARK Flexibility Score: 70.00
ROOT
ATOM      1  C   UNL     1     201.958 147.031 169.242  1.00  0.00     0.136 C 
ATOM      2  O   UNL     1     200.753 146.881 169.396  1.00  0.00    -0.299 OA
ENDROOT
BRANCH   1   3
ATOM      3  C   UNL     1     202.495 148.308 168.620  1.00  0.00     0.053 C 
ATOM      4  C   UNL     1     201.966 149.567 169.326  1.00  0.00     0.016 C 
BRANCH   3   5
ATOM      5  C   UNL     1     202.230 148.352 167.101  1.00  0.00     0.015 C 
BRANCH   5   6
ATOM      6  C   UNL     1     203.368 147.752 166.249  1.00  0.00     0.028 C 
BRANCH   6   7
ATOM      7  C   UNL     1     202.941 146.459 165.601  1.00  0.00    -0.028 C 
ATOM      8  C   UNL     1     203.394 145.233 165.953  1.00  0.00    -0.070 CG0
ATOM      9  C   UNL     1     202.896 144.043 165.174  1.00  0.00     0.039 C 
ATOM     10  G   UNL     1     204.371 145.003 167.098  1.00  0.00     0.000 G0
ENDBRANCH   6   7
ENDBRANCH   5   6
ENDBRANCH   3   5
ENDBRANCH   1   3
BRANCH   1  11
ATOM     11  C   UNL     1     202.893 145.929 169.680  1.00  0.00     0.087 C 
BRANCH  11  12
ATOM     12  C   UNL     1     202.565 144.578 168.992  1.00  0.00     0.066 C 
BRANCH  12  13
ATOM     13  C   UNL     1     203.769 144.111 168.190  1.00  0.00     0.140 C 
ATOM     14  O   UNL     1     204.211 142.984 168.369  1.00  0.00    -0.299 OA
BRANCH  13  15
ATOM     15  C   UNL     1     204.356 144.981 167.106  1.00  0.00     0.106 CG0
ATOM     16  G   UNL     1     203.385 145.217 165.957  1.00  0.00     0.000 G0
ENDBRANCH  13  15
ENDBRANCH  12  13
BRANCH  12  17
ATOM     17  C   UNL     1     202.122 143.475 170.008  1.00  0.00    -0.006 C 
ATOM     18  C   UNL     1     200.675 143.017 169.738  1.00  0.00     0.008 C 
ATOM     19  C   UNL     1     202.224 143.949 171.470  1.00  0.00     0.008 C 
ENDBRANCH  12  17
ENDBRANCH  11  12
ENDBRANCH   1  11
TORSDOF 1
ENDMDL
MODEL 5
REMARK VINA RESULT:    -2.464     11.543     13.510
REMARK INTER + INTRA:          -4.022
REMARK INTER:                  -3.840
REMARK INTRA:                  -0.181
REMARK UNBOUND:                -0.262
REMARK SMILES CC1=CCC[C@@H](C)C(=O)C[C@H](C(C)C)C(=O)C1
REMARK SMILES IDX 8 1 9 2 6 3 7 4 5 5 4 6 3 7 2 8 1 9 10 11 11 12 15 13 16 14
REMARK SMILES IDX 17 15 12 17 13 18 14 19
REMARK H PARENT
REMARK Flexibility Score: 70.00
ROOT
ATOM      1  C   UNL     1     213.445 151.587 170.476  1.00  0.00     0.136 C 
ATOM      2  O   UNL     1     213.723 150.943 171.479  1.00  0.00    -0.299 OA
ENDROOT
BRANCH   1   3
ATOM      3  C   UNL     1     213.518 153.104 170.498  1.00  0.00     0.053 C 
ATOM      4  C   UNL     1     214.914 153.614 170.889  1.00  0.00     0.016 C 
BRANCH   3   5
ATOM      5  C   UNL     1     212.417 153.709 171.394  1.00  0.00     0.015 C 
BRANCH   5   6
ATOM      6  C   UNL     1     211.200 154.248 170.613  1.00  0.00     0.028 C 
BRANCH   6   7
ATOM      7  C   UNL     1     211.546 154.497 169.167  1.00  0.00    -0.028 C 
ATOM      8  C   UNL     1     211.105 153.749 168.128  1.00  0.00    -0.070 CG0
ATOM      9  C   UNL     1     211.581 154.109 166.744  1.00  0.00     0.039 C 
ATOM     10  G   UNL     1     210.151 152.575 168.293  1.00  0.00     0.000 G0
ENDBRANCH   6   7
ENDBRANCH   5   6
ENDBRANCH   3   5
ENDBRANCH   1   3
BRANCH   1  11
ATOM     11  C   UNL     1     213.033 150.848 169.225  1.00  0.00     0.087 C 
BRANCH  11  12
ATOM     12  C   UNL     1     211.520 150.507 169.221  1.00  0.00     0.066 C 
BRANCH  12  13
ATOM     13  C   UNL     1     210.841 151.224 168.066  1.00  0.00     0.140 C 
ATOM     14  O   UNL     1     210.773 150.676 166.973  1.00  0.00    -0.299 OA
BRANCH  13  15
ATOM     15  C   UNL     1     210.157 152.552 168.279  1.00  0.00     0.106 CG0
ATOM     16  G   UNL     1     211.110 153.730 168.135  1.00  0.00     0.000 G0
ENDBRANCH  13  15
ENDBRANCH  12  13
BRANCH  12  17
ATOM     17  C   UNL     1     211.249 148.968 169.147  1.00  0.00    -0.006 C 
ATOM     18  C   UNL     1     211.065 148.366 170.554  1.00  0.00     0.008 C 
ATOM     19  C   UNL     1     212.380 148.207 168.429  1.00  0.00     0.008 C 
ENDBRANCH  12  17
ENDBRANCH  11  12
ENDBRANCH   1  11
TORSDOF 1
ENDMDL
MODEL 6
REMARK VINA RESULT:    -2.437     12.103     14.087
REMARK INTER + INTRA:          -3.980
REMARK INTER:                  -3.690
REMARK INTRA:                  -0.291
REMARK UNBOUND:                -0.262
REMARK SMILES CC1=CCC[C@@H](C)C(=O)C[C@H](C(C)C)C(=O)C1
REMARK SMILES IDX 8 1 9 2 6 3 7 4 5 5 4 6 3 7 2 8 1 9 10 11 11 12 15 13 16 14
REMARK SMILES IDX 17 15 12 17 13 18 14 19
REMARK H PARENT
REMARK Flexibility Score: 70.00
ROOT
ATOM      1  C   UNL     1     214.259 153.762 168.058  1.00  0.00     0.136 C 
ATOM      2  O   UNL     1     215.088 153.329 168.847  1.00  0.00    -0.299 OA
ENDROOT
BRANCH   1   3
ATOM      3  C   UNL     1     214.666 154.776 167.002  1.00  0.00     0.053 C 
ATOM      4  C   UNL     1     215.837 154.279 166.139  1.00  0.00     0.016 C 
BRANCH   3   5
ATOM      5  C   UNL     1     214.962 156.154 167.628  1.00  0.00     0.015 C 
BRANCH   5   6
ATOM      6  C   UNL     1     213.817 157.175 167.467  1.00  0.00     0.028 C 
BRANCH   6   7
ATOM      7  C   UNL     1     213.064 156.952 166.180  1.00  0.00    -0.028 C 
ATOM      8  C   UNL     1     211.778 156.535 166.100  1.00  0.00    -0.070 CG0
ATOM      9  C   UNL     1     211.187 156.320 164.730  1.00  0.00     0.039 C 
ATOM     10  G   UNL     1     210.907 156.284 167.322  1.00  0.00     0.000 G0
ENDBRANCH   6   7
ENDBRANCH   5   6
ENDBRANCH   3   5
ENDBRANCH   1   3
BRANCH   1  11
ATOM     11  C   UNL     1     212.834 153.272 168.153  1.00  0.00     0.087 C 
BRANCH  11  12
ATOM     12  C   UNL     1     211.895 154.329 168.790  1.00  0.00     0.066 C 
BRANCH  12  13
ATOM     13  C   UNL     1     210.901 154.818 167.749  1.00  0.00     0.140 C 
ATOM     14  O   UNL     1     210.051 154.049 167.320  1.00  0.00    -0.299 OA
BRANCH  13  15
ATOM     15  C   UNL     1     210.884 156.265 167.321  1.00  0.00     0.106 CG0
ATOM     16  G   UNL     1     211.782 156.531 166.121  1.00  0.00     0.000 G0
ENDBRANCH  13  15
ENDBRANCH  12  13
BRANCH  12  17
ATOM     17  C   UNL     1     211.145 153.789 170.052  1.00  0.00    -0.006 C 
ATOM     18  C   UNL     1     211.627 154.497 171.332  1.00  0.00     0.008 C 
ATOM     19  C   UNL     1     211.321 152.269 170.233  1.00  0.00     0.008 C 
ENDBRANCH  12  17
ENDBRANCH  11  12
ENDBRANCH   1  11
TORSDOF 1
ENDMDL
MODEL 7
REMARK VINA RESULT:    -2.411     10.030     12.334
REMARK INTER + INTRA:          -3.941
REMARK INTER:                  -3.654
REMARK INTRA:                  -0.287
REMARK UNBOUND:                -0.262
REMARK SMILES CC1=CCC[C@@H](C)C(=O)C[C@H](C(C)C)C(=O)C1
REMARK SMILES IDX 8 1 9 2 6 3 7 4 5 5 4 6 3 7 2 8 1 9 10 11 11 12 15 13 16 14
REMARK SMILES IDX 17 15 12 17 13 18 14 19
REMARK H PARENT
REMARK Flexibility Score: 70.00
ROOT
ATOM      1  C   UNL     1     209.713 153.063 167.360  1.00  0.00     0.136 C 
ATOM      2  O   UNL     1     208.603 152.578 167.539  1.00  0.00    -0.299 OA
ENDROOT
BRANCH   1   3
ATOM      3  C   UNL     1     210.870 152.674 168.264  1.00  0.00     0.053 C 
ATOM      4  C   UNL     1     211.066 151.151 168.336  1.00  0.00     0.016 C 
BRANCH   3   5
ATOM      5  C   UNL     1     210.725 153.298 169.667  1.00  0.00     0.015 C 
BRANCH   5   6
ATOM      6  C   UNL     1     211.585 154.560 169.884  1.00  0.00     0.028 C 
BRANCH   6   7
ATOM      7  C   UNL     1     212.899 154.457 169.153  1.00  0.00    -0.028 C 
ATOM      8  C   UNL     1     213.273 155.248 168.119  1.00  0.00    -0.070 CG0
ATOM      9  C   UNL     1     214.607 154.983 167.471  1.00  0.00     0.039 C 
ATOM     10  G   UNL     1     212.414 156.389 167.593  1.00  0.00     0.000 G0
ENDBRANCH   6   7
ENDBRANCH   5   6
ENDBRANCH   3   5
ENDBRANCH   1   3
BRANCH   1  11
ATOM     11  C   UNL     1     209.907 154.047 166.231  1.00  0.00     0.087 C 
BRANCH  11  12
ATOM     12  C   UNL     1     210.086 155.498 166.748  1.00  0.00     0.066 C 
BRANCH  12  13
ATOM     13  C   UNL     1     211.502 155.969 166.459  1.00  0.00     0.140 C 
ATOM     14  O   UNL     1     211.876 156.077 165.298  1.00  0.00    -0.299 OA
BRANCH  13  15
ATOM     15  C   UNL     1     212.413 156.405 167.580  1.00  0.00     0.106 CG0
ATOM     16  G   UNL     1     213.274 155.267 168.110  1.00  0.00     0.000 G0
ENDBRANCH  13  15
ENDBRANCH  12  13
BRANCH  12  17
ATOM     17  C   UNL     1     209.044 156.490 166.135  1.00  0.00    -0.006 C 
ATOM     18  C   UNL     1     208.900 157.755 167.004  1.00  0.00     0.008 C 
ATOM     19  C   UNL     1     207.653 155.848 165.965  1.00  0.00     0.008 C 
ENDBRANCH  12  17
ENDBRANCH  11  12
ENDBRANCH   1  11
TORSDOF 1
ENDMDL
MODEL 8
REMARK VINA RESULT:    -2.391      2.446      4.553
REMARK INTER + INTRA:          -3.910
REMARK INTER:                  -3.890
REMARK INTRA:                  -0.021
REMARK UNBOUND:                -0.262
REMARK SMILES CC1=CCC[C@@H](C)C(=O)C[C@H](C(C)C)C(=O)C1
REMARK SMILES IDX 8 1 9 2 6 3 7 4 5 5 4 6 3 7 2 8 1 9 10 11 11 12 15 13 16 14
REMARK SMILES IDX 17 15 12 17 13 18 14 19
REMARK H PARENT
REMARK Flexibility Score: 70.00
ROOT
ATOM      1  C   UNL     1     200.096 149.850 165.166  1.00  0.00     0.136 C 
ATOM      2  O   UNL     1     200.026 148.686 164.797  1.00  0.00    -0.299 OA
ENDROOT
BRANCH   1   3
ATOM      3  C   UNL     1     199.255 150.918 164.488  1.00  0.00     0.053 C 
ATOM      4  C   UNL     1     199.238 150.762 162.959  1.00  0.00     0.016 C 
BRANCH   3   5
ATOM      5  C   UNL     1     199.693 152.336 164.912  1.00  0.00     0.015 C 
BRANCH   5   6
ATOM      6  C   UNL     1     200.559 153.064 163.863  1.00  0.00     0.028 C 
BRANCH   6   7
ATOM      7  C   UNL     1     201.647 153.874 164.521  1.00  0.00    -0.028 C 
ATOM      8  C   UNL     1     202.853 153.387 164.895  1.00  0.00    -0.070 CG0
ATOM      9  C   UNL     1     203.814 154.324 165.580  1.00  0.00     0.039 C 
ATOM     10  G   UNL     1     203.283 151.948 164.647  1.00  0.00     0.000 G0
ENDBRANCH   6   7
ENDBRANCH   5   6
ENDBRANCH   3   5
ENDBRANCH   1   3
BRANCH   1  11
ATOM     11  C   UNL     1     201.028 150.202 166.301  1.00  0.00     0.087 C 
BRANCH  11  12
ATOM     12  C   UNL     1     202.499 149.825 165.986  1.00  0.00     0.066 C 
BRANCH  12  13
ATOM     13  C   UNL     1     203.335 151.089 165.876  1.00  0.00     0.140 C 
ATOM     14  O   UNL     1     204.114 151.377 166.776  1.00  0.00    -0.299 OA
BRANCH  13  15
ATOM     15  C   UNL     1     203.294 151.933 164.626  1.00  0.00     0.106 CG0
ATOM     16  G   UNL     1     202.867 153.367 164.902  1.00  0.00     0.000 G0
ENDBRANCH  13  15
ENDBRANCH  12  13
BRANCH  12  17
ATOM     17  C   UNL     1     203.113 148.853 167.047  1.00  0.00    -0.006 C 
ATOM     18  C   UNL     1     204.070 147.841 166.387  1.00  0.00     0.008 C 
ATOM     19  C   UNL     1     202.034 148.076 167.825  1.00  0.00     0.008 C 
ENDBRANCH  12  17
ENDBRANCH  11  12
ENDBRANCH   1  11
TORSDOF 1
ENDMDL
MODEL 9
REMARK VINA RESULT:    -2.338      2.046      3.759
REMARK INTER + INTRA:          -3.830
REMARK INTER:                  -3.581
REMARK INTRA:                  -0.249
REMARK UNBOUND:                -0.262
REMARK SMILES CC1=CCC[C@@H](C)C(=O)C[C@H](C(C)C)C(=O)C1
REMARK SMILES IDX 8 1 9 2 6 3 7 4 5 5 4 6 3 7 2 8 1 9 10 11 11 12 15 13 16 14
REMARK SMILES IDX 17 15 12 17 13 18 14 19
REMARK H PARENT
REMARK Flexibility Score: 70.00
ROOT
ATOM      1  C   UNL     1     199.254 151.550 161.706  1.00  0.00     0.136 C 
ATOM      2  O   UNL     1     198.495 151.528 160.746  1.00  0.00    -0.299 OA
ENDROOT
BRANCH   1   3
ATOM      3  C   UNL     1     200.381 152.567 161.765  1.00  0.00     0.053 C 
ATOM      4  C   UNL     1     201.667 152.049 161.102  1.00  0.00     0.016 C 
BRANCH   3   5
ATOM      5  C   UNL     1     200.635 153.045 163.210  1.00  0.00     0.015 C 
BRANCH   5   6
ATOM      6  C   UNL     1     201.864 152.394 163.879  1.00  0.00     0.028 C 
BRANCH   6   7
ATOM      7  C   UNL     1     201.502 151.788 165.211  1.00  0.00    -0.028 C 
ATOM      8  C   UNL     1     201.402 150.460 165.454  1.00  0.00    -0.070 CG0
ATOM      9  C   UNL     1     200.988 150.021 166.834  1.00  0.00     0.039 C 
ATOM     10  G   UNL     1     201.697 149.398 164.404  1.00  0.00     0.000 G0
ENDBRANCH   6   7
ENDBRANCH   5   6
ENDBRANCH   3   5
ENDBRANCH   1   3
BRANCH   1  11
ATOM     11  C   UNL     1     199.048 150.555 162.824  1.00  0.00     0.087 C 
BRANCH  11  12
ATOM     12  C   UNL     1     199.809 149.228 162.569  1.00  0.00     0.066 C 
BRANCH  12  13
ATOM     13  C   UNL     1     200.430 148.741 163.869  1.00  0.00     0.140 C 
ATOM     14  O   UNL     1     199.957 147.763 164.433  1.00  0.00    -0.299 OA
BRANCH  13  15
ATOM     15  C   UNL     1     201.683 149.383 164.410  1.00  0.00     0.106 CG0
ATOM     16  G   UNL     1     201.390 150.442 165.464  1.00  0.00     0.000 G0
ENDBRANCH  13  15
ENDBRANCH  12  13
BRANCH  12  17
ATOM     17  C   UNL     1     198.896 148.119 161.950  1.00  0.00    -0.006 C 
ATOM     18  C   UNL     1     199.087 148.028 160.423  1.00  0.00     0.008 C 
ATOM     19  C   UNL     1     197.403 148.354 162.246  1.00  0.00     0.008 C 
ENDBRANCH  12  17
ENDBRANCH  11  12
ENDBRANCH   1  11
TORSDOF 1
ENDMDL
