MODEL 1
REMARK VINA RESULT:    -4.115      0.000      0.000
REMARK INTER + INTRA:          -8.916
REMARK INTER:                  -7.483
REMARK INTRA:                  -1.433
REMARK UNBOUND:                -1.433
REMARK SMILES CCCCCCCCCCCCCC[C@H](C)C(=O)[O-]
REMARK SMILES IDX 9 1 10 2 11 3 12 4 13 5 14 6 15 7 16 8 17 9 18 10 19 11 8 12
REMARK SMILES IDX 7 13 6 14 5 15 4 16 3 17 2 18 1 19
REMARK H PARENT
REMARK Flexibility Score: inf
ROOT
ATOM      1  C   UNL     1      -8.919  -7.013  -8.829  1.00  0.00     0.000 C 
ENDROOT
BRANCH   1   2
ATOM      2  C   UNL     1     -10.435  -6.782  -8.734  1.00  0.00     0.000 C 
BRANCH   2   3
ATOM      3  C   UNL     1     -11.001  -7.131  -7.346  1.00  0.00     0.000 C 
BRANCH   3   4
ATOM      4  C   UNL     1     -10.958  -5.927  -6.380  1.00  0.00     0.000 C 
BRANCH   4   5
ATOM      5  C   UNL     1     -10.423  -6.279  -4.982  1.00  0.00     0.001 C 
BRANCH   5   6
ATOM      6  C   UNL     1      -9.472  -5.206  -4.419  1.00  0.00     0.009 C 
BRANCH   6   7
ATOM      7  C   UNL     1     -10.092  -4.326  -3.312  1.00  0.00     0.032 C 
ATOM      8  C   UNL     1     -10.839  -3.106  -3.874  1.00  0.00     0.014 C 
BRANCH   7   9
ATOM      9  C   UNL     1      -9.073  -3.935  -2.273  1.00  0.00     0.044 C 
ATOM     10  O   UNL     1      -8.665  -4.769  -1.420  1.00  0.00    -0.550 OA
ATOM     11  O   UNL     1      -8.613  -2.626  -2.220  1.00  0.00    -0.550 OA
ENDBRANCH   7   9
ENDBRANCH   6   7
ENDBRANCH   5   6
ENDBRANCH   4   5
ENDBRANCH   3   4
ENDBRANCH   2   3
ENDBRANCH   1   2
BRANCH   1  12
ATOM     12  C   UNL     1      -8.131  -5.702  -8.996  1.00  0.00     0.000 C 
BRANCH  12  13
ATOM     13  C   UNL     1      -6.994  -5.562  -7.972  1.00  0.00    -0.000 C 
BRANCH  13  14
ATOM     14  C   UNL     1      -7.256  -6.362  -6.687  1.00  0.00    -0.000 C 
BRANCH  14  15
ATOM     15  C   UNL     1      -6.097  -6.203  -5.695  1.00  0.00    -0.000 C 
BRANCH  15  16
ATOM     16  C   UNL     1      -5.028  -5.248  -6.244  1.00  0.00    -0.000 C 
BRANCH  16  17
ATOM     17  C   UNL     1      -3.618  -5.575  -5.728  1.00  0.00    -0.000 C 
BRANCH  17  18
ATOM     18  C   UNL     1      -2.765  -4.317  -5.505  1.00  0.00    -0.003 C 
ATOM     19  C   UNL     1      -3.634  -3.062  -5.482  1.00  0.00     0.004 C 
ENDBRANCH  17  18
ENDBRANCH  16  17
ENDBRANCH  15  16
ENDBRANCH  14  15
ENDBRANCH  13  14
ENDBRANCH  12  13
ENDBRANCH   1  12
TORSDOF 14
ENDMDL
MODEL 2
REMARK VINA RESULT:    -3.815      1.235      2.042
REMARK INTER + INTRA:          -8.370
REMARK INTER:                  -7.222
REMARK INTRA:                  -1.148
REMARK UNBOUND:                -1.433
REMARK SMILES CCCCCCCCCCCCCC[C@H](C)C(=O)[O-]
REMARK SMILES IDX 9 1 10 2 11 3 12 4 13 5 14 6 15 7 16 8 17 9 18 10 19 11 8 12
REMARK SMILES IDX 7 13 6 14 5 15 4 16 3 17 2 18 1 19
REMARK H PARENT
REMARK Flexibility Score: inf
ROOT
ATOM      1  C   UNL     1      -8.906  -6.991  -5.294  1.00  0.00     0.000 C 
ENDROOT
BRANCH   1   2
ATOM      2  C   UNL     1      -9.927  -6.743  -6.416  1.00  0.00     0.000 C 
BRANCH   2   3
ATOM      3  C   UNL     1     -11.124  -5.895  -5.950  1.00  0.00     0.000 C 
BRANCH   3   4
ATOM      4  C   UNL     1     -10.941  -5.371  -4.510  1.00  0.00     0.000 C 
BRANCH   4   5
ATOM      5  C   UNL     1     -10.567  -3.880  -4.442  1.00  0.00     0.001 C 
BRANCH   5   6
ATOM      6  C   UNL     1     -10.937  -3.234  -3.094  1.00  0.00     0.009 C 
BRANCH   6   7
ATOM      7  C   UNL     1     -10.383  -3.979  -1.860  1.00  0.00     0.032 C 
ATOM      8  C   UNL     1     -11.046  -3.529  -0.549  1.00  0.00     0.014 C 
BRANCH   7   9
ATOM      9  C   UNL     1      -8.879  -3.900  -1.789  1.00  0.00     0.044 C 
ATOM     10  O   UNL     1      -8.185  -4.930  -1.575  1.00  0.00    -0.550 OA
ATOM     11  O   UNL     1      -8.250  -2.667  -1.910  1.00  0.00    -0.550 OA
ENDBRANCH   7   9
ENDBRANCH   6   7
ENDBRANCH   5   6
ENDBRANCH   4   5
ENDBRANCH   3   4
ENDBRANCH   2   3
ENDBRANCH   1   2
BRANCH   1  12
ATOM     12  C   UNL     1      -7.455  -6.990  -5.805  1.00  0.00     0.000 C 
BRANCH  12  13
ATOM     13  C   UNL     1      -7.280  -6.156  -7.085  1.00  0.00    -0.000 C 
BRANCH  13  14
ATOM     14  C   UNL     1      -5.952  -5.384  -7.109  1.00  0.00    -0.000 C 
BRANCH  14  15
ATOM     15  C   UNL     1      -5.310  -5.351  -5.716  1.00  0.00    -0.000 C 
BRANCH  15  16
ATOM     16  C   UNL     1      -3.814  -5.689  -5.792  1.00  0.00    -0.000 C 
BRANCH  16  17
ATOM     17  C   UNL     1      -2.918  -4.447  -5.657  1.00  0.00    -0.000 C 
BRANCH  17  18
ATOM     18  C   UNL     1      -3.725  -3.159  -5.437  1.00  0.00    -0.003 C 
ATOM     19  C   UNL     1      -2.853  -1.924  -5.646  1.00  0.00     0.004 C 
ENDBRANCH  17  18
ENDBRANCH  16  17
ENDBRANCH  15  16
ENDBRANCH  14  15
ENDBRANCH  13  14
ENDBRANCH  12  13
ENDBRANCH   1  12
TORSDOF 14
ENDMDL
MODEL 3
REMARK VINA RESULT:    -3.779      1.988      5.211
REMARK INTER + INTRA:          -8.304
REMARK INTER:                  -6.705
REMARK INTRA:                  -1.599
REMARK UNBOUND:                -1.433
REMARK SMILES CCCCCCCCCCCCCC[C@H](C)C(=O)[O-]
REMARK SMILES IDX 9 1 10 2 11 3 12 4 13 5 14 6 15 7 16 8 17 9 18 10 19 11 8 12
REMARK SMILES IDX 7 13 6 14 5 15 4 16 3 17 2 18 1 19
REMARK H PARENT
REMARK Flexibility Score: inf
ROOT
ATOM      1  C   UNL     1     -10.742  -7.614  -8.898  1.00  0.00     0.000 C 
ENDROOT
BRANCH   1   2
ATOM      2  C   UNL     1      -9.471  -7.290  -9.699  1.00  0.00     0.000 C 
BRANCH   2   3
ATOM      3  C   UNL     1      -9.085  -5.802  -9.619  1.00  0.00     0.000 C 
BRANCH   3   4
ATOM      4  C   UNL     1      -7.575  -5.580  -9.850  1.00  0.00     0.000 C 
BRANCH   4   5
ATOM      5  C   UNL     1      -6.776  -5.389  -8.549  1.00  0.00     0.001 C 
BRANCH   5   6
ATOM      6  C   UNL     1      -7.591  -5.742  -7.291  1.00  0.00     0.009 C 
BRANCH   6   7
ATOM      7  C   UNL     1      -6.758  -5.806  -5.992  1.00  0.00     0.032 C 
ATOM      8  C   UNL     1      -5.258  -5.587  -6.239  1.00  0.00     0.014 C 
BRANCH   7   9
ATOM      9  C   UNL     1      -7.025  -7.073  -5.220  1.00  0.00     0.044 C 
ATOM     10  O   UNL     1      -6.866  -7.117  -3.970  1.00  0.00    -0.550 OA
ATOM     11  O   UNL     1      -7.403  -8.224  -5.900  1.00  0.00    -0.550 OA
ENDBRANCH   7   9
ENDBRANCH   6   7
ENDBRANCH   5   6
ENDBRANCH   4   5
ENDBRANCH   3   4
ENDBRANCH   2   3
ENDBRANCH   1   2
BRANCH   1  12
ATOM     12  C   UNL     1     -11.039  -6.567  -7.810  1.00  0.00     0.000 C 
BRANCH  12  13
ATOM     13  C   UNL     1     -11.122  -7.183  -6.405  1.00  0.00    -0.000 C 
BRANCH  13  14
ATOM     14  C   UNL     1     -10.648  -6.218  -5.308  1.00  0.00    -0.000 C 
BRANCH  14  15
ATOM     15  C   UNL     1     -10.837  -4.759  -5.742  1.00  0.00    -0.000 C 
BRANCH  15  16
ATOM     16  C   UNL     1     -10.745  -3.810  -4.537  1.00  0.00    -0.000 C 
BRANCH  16  17
ATOM     17  C   UNL     1     -10.897  -4.540  -3.194  1.00  0.00    -0.000 C 
BRANCH  17  18
ATOM     18  C   UNL     1     -10.690  -3.610  -1.990  1.00  0.00    -0.003 C 
ATOM     19  C   UNL     1      -9.208  -3.313  -1.776  1.00  0.00     0.004 C 
ENDBRANCH  17  18
ENDBRANCH  16  17
ENDBRANCH  15  16
ENDBRANCH  14  15
ENDBRANCH  13  14
ENDBRANCH  12  13
ENDBRANCH   1  12
TORSDOF 14
ENDMDL
MODEL 4
REMARK VINA RESULT:    -3.476      3.282      6.327
REMARK INTER + INTRA:          -7.754
REMARK INTER:                  -5.992
REMARK INTRA:                  -1.762
REMARK UNBOUND:                -1.433
REMARK SMILES CCCCCCCCCCCCCC[C@H](C)C(=O)[O-]
REMARK SMILES IDX 9 1 10 2 11 3 12 4 13 5 14 6 15 7 16 8 17 9 18 10 19 11 8 12
REMARK SMILES IDX 7 13 6 14 5 15 4 16 3 17 2 18 1 19
REMARK H PARENT
REMARK Flexibility Score: inf
ROOT
ATOM      1  C   UNL     1      -7.852  -6.409  -5.017  1.00  0.00     0.000 C 
ENDROOT
BRANCH   1   2
ATOM      2  C   UNL     1      -6.542  -6.452  -5.820  1.00  0.00     0.000 C 
BRANCH   2   3
ATOM      3  C   UNL     1      -6.398  -5.259  -6.782  1.00  0.00     0.000 C 
BRANCH   3   4
ATOM      4  C   UNL     1      -6.772  -5.633  -8.233  1.00  0.00     0.000 C 
BRANCH   4   5
ATOM      5  C   UNL     1      -8.086  -4.992  -8.713  1.00  0.00     0.001 C 
BRANCH   5   6
ATOM      6  C   UNL     1      -8.562  -5.550 -10.067  1.00  0.00     0.009 C 
BRANCH   6   7
ATOM      7  C   UNL     1      -9.973  -6.178 -10.034  1.00  0.00     0.032 C 
ATOM      8  C   UNL     1     -11.006  -5.275  -9.344  1.00  0.00     0.014 C 
BRANCH   7   9
ATOM      9  C   UNL     1      -9.952  -7.566  -9.448  1.00  0.00     0.044 C 
ATOM     10  O   UNL     1      -8.946  -8.313  -9.585  1.00  0.00    -0.550 OA
ATOM     11  O   UNL     1     -11.076  -8.050  -8.791  1.00  0.00    -0.550 OA
ENDBRANCH   7   9
ENDBRANCH   6   7
ENDBRANCH   5   6
ENDBRANCH   4   5
ENDBRANCH   3   4
ENDBRANCH   2   3
ENDBRANCH   1   2
BRANCH   1  12
ATOM     12  C   UNL     1      -9.015  -7.105  -5.745  1.00  0.00     0.000 C 
BRANCH  12  13
ATOM     13  C   UNL     1     -10.235  -6.187  -5.921  1.00  0.00    -0.000 C 
BRANCH  13  14
ATOM     14  C   UNL     1     -10.738  -5.614  -4.587  1.00  0.00    -0.000 C 
BRANCH  14  15
ATOM     15  C   UNL     1     -10.856  -4.086  -4.656  1.00  0.00    -0.000 C 
BRANCH  15  16
ATOM     16  C   UNL     1     -10.770  -3.464  -3.254  1.00  0.00    -0.000 C 
BRANCH  16  17
ATOM     17  C   UNL     1      -9.471  -3.832  -2.520  1.00  0.00    -0.000 C 
BRANCH  17  18
ATOM     18  C   UNL     1      -9.613  -3.750  -0.993  1.00  0.00    -0.003 C 
ATOM     19  C   UNL     1     -11.079  -3.825  -0.574  1.00  0.00     0.004 C 
ENDBRANCH  17  18
ENDBRANCH  16  17
ENDBRANCH  15  16
ENDBRANCH  14  15
ENDBRANCH  13  14
ENDBRANCH  12  13
ENDBRANCH   1  12
TORSDOF 14
ENDMDL
MODEL 5
REMARK VINA RESULT:    -3.475      1.354      2.954
REMARK INTER + INTRA:          -7.752
REMARK INTER:                  -6.710
REMARK INTRA:                  -1.042
REMARK UNBOUND:                -1.433
REMARK SMILES CCCCCCCCCCCCCC[C@H](C)C(=O)[O-]
REMARK SMILES IDX 9 1 10 2 11 3 12 4 13 5 14 6 15 7 16 8 17 9 18 10 19 11 8 12
REMARK SMILES IDX 7 13 6 14 5 15 4 16 3 17 2 18 1 19
REMARK H PARENT
REMARK Flexibility Score: inf
ROOT
ATOM      1  C   UNL     1     -10.355  -4.141  -7.918  1.00  0.00     0.000 C 
ENDROOT
BRANCH   1   2
ATOM      2  C   UNL     1     -11.112  -4.004  -6.588  1.00  0.00     0.000 C 
BRANCH   2   3
ATOM      3  C   UNL     1     -10.856  -5.186  -5.636  1.00  0.00     0.000 C 
BRANCH   3   4
ATOM      4  C   UNL     1     -10.998  -4.782  -4.154  1.00  0.00     0.000 C 
BRANCH   4   5
ATOM      5  C   UNL     1     -11.008  -3.260  -3.930  1.00  0.00     0.001 C 
BRANCH   5   6
ATOM      6  C   UNL     1     -11.125  -2.876  -2.443  1.00  0.00     0.009 C 
BRANCH   6   7
ATOM      7  C   UNL     1     -10.428  -3.860  -1.477  1.00  0.00     0.032 C 
ATOM      8  C   UNL     1     -10.953  -3.748  -0.038  1.00  0.00     0.014 C 
BRANCH   7   9
ATOM      9  C   UNL     1      -8.928  -3.738  -1.543  1.00  0.00     0.044 C 
ATOM     10  O   UNL     1      -8.376  -2.619  -1.727  1.00  0.00    -0.550 OA
ATOM     11  O   UNL     1      -8.141  -4.879  -1.451  1.00  0.00    -0.550 OA
ENDBRANCH   7   9
ENDBRANCH   6   7
ENDBRANCH   5   6
ENDBRANCH   4   5
ENDBRANCH   3   4
ENDBRANCH   2   3
ENDBRANCH   1   2
BRANCH   1  12
ATOM     12  C   UNL     1     -10.673  -5.459  -8.646  1.00  0.00     0.000 C 
BRANCH  12  13
ATOM     13  C   UNL     1      -9.588  -5.849  -9.662  1.00  0.00    -0.000 C 
BRANCH  13  14
ATOM     14  C   UNL     1      -8.525  -6.781  -9.062  1.00  0.00    -0.000 C 
BRANCH  14  15
ATOM     15  C   UNL     1      -7.783  -6.098  -7.907  1.00  0.00    -0.000 C 
BRANCH  15  16
ATOM     16  C   UNL     1      -7.967  -6.876  -6.596  1.00  0.00    -0.000 C 
BRANCH  16  17
ATOM     17  C   UNL     1      -7.212  -6.240  -5.418  1.00  0.00    -0.000 C 
BRANCH  17  18
ATOM     18  C   UNL     1      -5.693  -6.447  -5.511  1.00  0.00    -0.003 C 
ATOM     19  C   UNL     1      -4.998  -5.182  -6.007  1.00  0.00     0.004 C 
ENDBRANCH  17  18
ENDBRANCH  16  17
ENDBRANCH  15  16
ENDBRANCH  14  15
ENDBRANCH  13  14
ENDBRANCH  12  13
ENDBRANCH   1  12
TORSDOF 14
ENDMDL
MODEL 6
REMARK VINA RESULT:    -3.261      1.559      3.297
REMARK INTER + INTRA:          -7.362
REMARK INTER:                  -6.718
REMARK INTRA:                  -0.644
REMARK UNBOUND:                -1.433
REMARK SMILES CCCCCCCCCCCCCC[C@H](C)C(=O)[O-]
REMARK SMILES IDX 9 1 10 2 11 3 12 4 13 5 14 6 15 7 16 8 17 9 18 10 19 11 8 12
REMARK SMILES IDX 7 13 6 14 5 15 4 16 3 17 2 18 1 19
REMARK H PARENT
REMARK Flexibility Score: inf
ROOT
ATOM      1  C   UNL     1     -10.165  -6.941  -6.701  1.00  0.00     0.000 C 
ENDROOT
BRANCH   1   2
ATOM      2  C   UNL     1     -10.818  -7.188  -5.332  1.00  0.00     0.000 C 
BRANCH   2   3
ATOM      3  C   UNL     1     -11.109  -5.883  -4.570  1.00  0.00     0.000 C 
BRANCH   3   4
ATOM      4  C   UNL     1     -10.507  -4.650  -5.277  1.00  0.00     0.000 C 
BRANCH   4   5
ATOM      5  C   UNL     1     -10.104  -3.523  -4.310  1.00  0.00     0.001 C 
BRANCH   5   6
ATOM      6  C   UNL     1     -11.013  -3.450  -3.068  1.00  0.00     0.009 C 
BRANCH   6   7
ATOM      7  C   UNL     1     -10.398  -4.070  -1.794  1.00  0.00     0.032 C 
ATOM      8  C   UNL     1     -11.108  -3.612  -0.511  1.00  0.00     0.014 C 
BRANCH   7   9
ATOM      9  C   UNL     1      -8.909  -3.846  -1.727  1.00  0.00     0.044 C 
ATOM     10  O   UNL     1      -8.417  -2.700  -1.910  1.00  0.00    -0.550 OA
ATOM     11  O   UNL     1      -8.062  -4.925  -1.512  1.00  0.00    -0.550 OA
ENDBRANCH   7   9
ENDBRANCH   6   7
ENDBRANCH   5   6
ENDBRANCH   4   5
ENDBRANCH   3   4
ENDBRANCH   2   3
ENDBRANCH   1   2
BRANCH   1  12
ATOM     12  C   UNL     1     -11.057  -7.392  -7.871  1.00  0.00     0.000 C 
BRANCH  12  13
ATOM     13  C   UNL     1     -10.724  -6.664  -9.183  1.00  0.00    -0.000 C 
BRANCH  13  14
ATOM     14  C   UNL     1      -9.250  -6.822  -9.586  1.00  0.00    -0.000 C 
BRANCH  14  15
ATOM     15  C   UNL     1      -8.673  -5.493 -10.091  1.00  0.00    -0.000 C 
BRANCH  15  16
ATOM     16  C   UNL     1      -8.074  -4.678  -8.936  1.00  0.00    -0.000 C 
BRANCH  16  17
ATOM     17  C   UNL     1      -7.692  -5.550  -7.730  1.00  0.00    -0.000 C 
BRANCH  17  18
ATOM     18  C   UNL     1      -6.205  -5.433  -7.364  1.00  0.00    -0.003 C 
ATOM     19  C   UNL     1      -5.962  -5.854  -5.918  1.00  0.00     0.004 C 
ENDBRANCH  17  18
ENDBRANCH  16  17
ENDBRANCH  15  16
ENDBRANCH  14  15
ENDBRANCH  13  14
ENDBRANCH  12  13
ENDBRANCH   1  12
TORSDOF 14
ENDMDL
MODEL 7
REMARK VINA RESULT:    -3.030      2.581      5.375
REMARK INTER + INTRA:          -6.942
REMARK INTER:                  -5.470
REMARK INTRA:                  -1.472
REMARK UNBOUND:                -1.433
REMARK SMILES CCCCCCCCCCCCCC[C@H](C)C(=O)[O-]
REMARK SMILES IDX 9 1 10 2 11 3 12 4 13 5 14 6 15 7 16 8 17 9 18 10 19 11 8 12
REMARK SMILES IDX 7 13 6 14 5 15 4 16 3 17 2 18 1 19
REMARK H PARENT
REMARK Flexibility Score: inf
ROOT
ATOM      1  C   UNL     1     -11.088  -3.398  -8.909  1.00  0.00     0.000 C 
ENDROOT
BRANCH   1   2
ATOM      2  C   UNL     1     -10.006  -4.353  -9.438  1.00  0.00     0.000 C 
BRANCH   2   3
ATOM      3  C   UNL     1     -10.598  -5.598 -10.123  1.00  0.00     0.000 C 
BRANCH   3   4
ATOM      4  C   UNL     1     -10.481  -6.859  -9.242  1.00  0.00     0.000 C 
BRANCH   4   5
ATOM      5  C   UNL     1      -9.029  -7.304  -8.996  1.00  0.00     0.001 C 
BRANCH   5   6
ATOM      6  C   UNL     1      -8.632  -7.249  -7.509  1.00  0.00     0.009 C 
BRANCH   6   7
ATOM      7  C   UNL     1      -7.768  -6.027  -7.128  1.00  0.00     0.032 C 
ATOM      8  C   UNL     1      -6.941  -5.496  -8.309  1.00  0.00     0.014 C 
BRANCH   7   9
ATOM      9  C   UNL     1      -6.912  -6.304  -5.918  1.00  0.00     0.044 C 
ATOM     10  O   UNL     1      -5.771  -5.782  -5.798  1.00  0.00    -0.550 OA
ATOM     11  O   UNL     1      -7.365  -7.185  -4.945  1.00  0.00    -0.550 OA
ENDBRANCH   7   9
ENDBRANCH   6   7
ENDBRANCH   5   6
ENDBRANCH   4   5
ENDBRANCH   3   4
ENDBRANCH   2   3
ENDBRANCH   1   2
BRANCH   1  12
ATOM     12  C   UNL     1     -10.965  -3.146  -7.396  1.00  0.00     0.000 C 
BRANCH  12  13
ATOM     13  C   UNL     1     -10.783  -4.445  -6.595  1.00  0.00    -0.000 C 
BRANCH  13  14
ATOM     14  C   UNL     1     -10.946  -4.231  -5.082  1.00  0.00    -0.000 C 
BRANCH  14  15
ATOM     15  C   UNL     1      -9.719  -4.746  -4.319  1.00  0.00    -0.000 C 
BRANCH  15  16
ATOM     16  C   UNL     1      -9.281  -3.745  -3.240  1.00  0.00    -0.000 C 
BRANCH  16  17
ATOM     17  C   UNL     1      -9.623  -4.218  -1.819  1.00  0.00    -0.000 C 
BRANCH  17  18
ATOM     18  C   UNL     1     -10.970  -3.671  -1.323  1.00  0.00    -0.003 C 
ATOM     19  C   UNL     1     -10.956  -3.468   0.190  1.00  0.00     0.004 C 
ENDBRANCH  17  18
ENDBRANCH  16  17
ENDBRANCH  15  16
ENDBRANCH  14  15
ENDBRANCH  13  14
ENDBRANCH  12  13
ENDBRANCH   1  12
TORSDOF 14
ENDMDL
MODEL 8
REMARK VINA RESULT:    -2.679      2.928      4.482
REMARK INTER + INTRA:          -6.304
REMARK INTER:                  -4.993
REMARK INTRA:                  -1.311
REMARK UNBOUND:                -1.433
REMARK SMILES CCCCCCCCCCCCCC[C@H](C)C(=O)[O-]
REMARK SMILES IDX 9 1 10 2 11 3 12 4 13 5 14 6 15 7 16 8 17 9 18 10 19 11 8 12
REMARK SMILES IDX 7 13 6 14 5 15 4 16 3 17 2 18 1 19
REMARK H PARENT
REMARK Flexibility Score: inf
ROOT
ATOM      1  C   UNL     1      -9.766  -7.097  -6.185  1.00  0.00     0.000 C 
ENDROOT
BRANCH   1   2
ATOM      2  C   UNL     1     -11.125  -6.380  -6.183  1.00  0.00     0.000 C 
BRANCH   2   3
ATOM      3  C   UNL     1     -11.006  -4.886  -5.831  1.00  0.00     0.000 C 
BRANCH   3   4
ATOM      4  C   UNL     1     -10.525  -4.042  -7.031  1.00  0.00     0.000 C 
BRANCH   4   5
ATOM      5  C   UNL     1     -11.073  -4.529  -8.384  1.00  0.00     0.001 C 
BRANCH   5   6
ATOM      6  C   UNL     1     -10.083  -4.307  -9.542  1.00  0.00     0.009 C 
BRANCH   6   7
ATOM      7  C   UNL     1      -9.446  -5.603 -10.090  1.00  0.00     0.032 C 
ATOM      8  C   UNL     1     -10.284  -6.852  -9.778  1.00  0.00     0.014 C 
BRANCH   7   9
ATOM      9  C   UNL     1      -8.015  -5.755  -9.640  1.00  0.00     0.044 C 
ATOM     10  O   UNL     1      -7.433  -6.872  -9.696  1.00  0.00    -0.550 OA
ATOM     11  O   UNL     1      -7.343  -4.662  -9.109  1.00  0.00    -0.550 OA
ENDBRANCH   7   9
ENDBRANCH   6   7
ENDBRANCH   5   6
ENDBRANCH   4   5
ENDBRANCH   3   4
ENDBRANCH   2   3
ENDBRANCH   1   2
BRANCH   1  12
ATOM     12  C   UNL     1      -8.731  -6.405  -5.281  1.00  0.00     0.000 C 
BRANCH  12  13
ATOM     13  C   UNL     1      -7.320  -6.993  -5.440  1.00  0.00    -0.000 C 
BRANCH  13  14
ATOM     14  C   UNL     1      -6.354  -6.026  -6.141  1.00  0.00    -0.000 C 
BRANCH  14  15
ATOM     15  C   UNL     1      -4.980  -6.033  -5.460  1.00  0.00    -0.000 C 
BRANCH  15  16
ATOM     16  C   UNL     1      -3.956  -5.233  -6.278  1.00  0.00    -0.000 C 
BRANCH  16  17
ATOM     17  C   UNL     1      -2.619  -5.052  -5.542  1.00  0.00    -0.000 C 
BRANCH  17  18
ATOM     18  C   UNL     1      -2.483  -3.663  -4.899  1.00  0.00    -0.003 C 
ATOM     19  C   UNL     1      -3.439  -2.664  -5.547  1.00  0.00     0.004 C 
ENDBRANCH  17  18
ENDBRANCH  16  17
ENDBRANCH  15  16
ENDBRANCH  14  15
ENDBRANCH  13  14
ENDBRANCH  12  13
ENDBRANCH   1  12
TORSDOF 14
ENDMDL
