MODEL 1
REMARK VINA RESULT:    -3.562      0.000      0.000
REMARK INTER + INTRA:          -7.577
REMARK INTER:                  -6.061
REMARK INTRA:                  -1.517
REMARK UNBOUND:                -1.517
REMARK SMILES CCCCCCCCCCCCCC(=O)[O-]
REMARK SMILES IDX 8 1 9 2 10 3 11 4 12 5 13 6 14 7 15 8 16 9 7 10 6 11 5 12
REMARK SMILES IDX 4 13 3 14 2 15 1 16
REMARK H PARENT
REMARK Flexibility Score: inf
ROOT
ATOM      1  C   UNL     1     163.551 153.602 163.354  1.00  0.00     0.000 C 
ENDROOT
BRANCH   1   2
ATOM      2  C   UNL     1     162.107 153.139 163.622  1.00  0.00     0.000 C 
BRANCH   2   3
ATOM      3  C   UNL     1     161.099 154.301 163.643  1.00  0.00     0.000 C 
BRANCH   3   4
ATOM      4  C   UNL     1     161.325 155.240 164.846  1.00  0.00     0.000 C 
BRANCH   4   5
ATOM      5  C   UNL     1     161.090 156.728 164.529  1.00  0.00     0.006 C 
BRANCH   5   6
ATOM      6  C   UNL     1     162.367 157.589 164.555  1.00  0.00     0.053 C 
BRANCH   6   7
ATOM      7  C   UNL     1     162.557 158.317 165.854  1.00  0.00     0.041 C 
ATOM      8  O   UNL     1     162.569 159.576 165.884  1.00  0.00    -0.550 OA
ATOM      9  O   UNL     1     162.795 157.603 167.022  1.00  0.00    -0.550 OA
ENDBRANCH   6   7
ENDBRANCH   5   6
ENDBRANCH   4   5
ENDBRANCH   3   4
ENDBRANCH   2   3
ENDBRANCH   1   2
BRANCH   1  10
ATOM     10  C   UNL     1     164.637 152.813 164.107  1.00  0.00     0.000 C 
BRANCH  10  11
ATOM     11  C   UNL     1     165.549 153.713 164.958  1.00  0.00    -0.000 C 
BRANCH  11  12
ATOM     12  C   UNL     1     164.969 155.123 165.151  1.00  0.00    -0.000 C 
BRANCH  12  13
ATOM     13  C   UNL     1     165.835 156.217 164.502  1.00  0.00    -0.000 C 
BRANCH  13  14
ATOM     14  C   UNL     1     167.307 155.801 164.365  1.00  0.00    -0.000 C 
BRANCH  14  15
ATOM     15  C   UNL     1     167.844 155.997 162.940  1.00  0.00    -0.003 C 
ATOM     16  C   UNL     1     166.893 155.398 161.907  1.00  0.00     0.004 C 
ENDBRANCH  14  15
ENDBRANCH  13  14
ENDBRANCH  12  13
ENDBRANCH  11  12
ENDBRANCH  10  11
ENDBRANCH   1  10
TORSDOF 12
ENDMDL
MODEL 2
REMARK VINA RESULT:    -3.462      1.152      2.029
REMARK INTER + INTRA:          -7.407
REMARK INTER:                  -5.732
REMARK INTRA:                  -1.675
REMARK UNBOUND:                -1.517
REMARK SMILES CCCCCCCCCCCCCC(=O)[O-]
REMARK SMILES IDX 8 1 9 2 10 3 11 4 12 5 13 6 14 7 15 8 16 9 7 10 6 11 5 12
REMARK SMILES IDX 4 13 3 14 2 15 1 16
REMARK H PARENT
REMARK Flexibility Score: inf
ROOT
ATOM      1  C   UNL     1     161.702 151.674 163.456  1.00  0.00     0.000 C 
ENDROOT
BRANCH   1   2
ATOM      2  C   UNL     1     161.056 152.995 163.000  1.00  0.00     0.000 C 
BRANCH   2   3
ATOM      3  C   UNL     1     161.398 154.179 163.919  1.00  0.00     0.000 C 
BRANCH   3   4
ATOM      4  C   UNL     1     161.902 155.402 163.125  1.00  0.00     0.000 C 
BRANCH   4   5
ATOM      5  C   UNL     1     161.806 156.730 163.896  1.00  0.00     0.006 C 
BRANCH   5   6
ATOM      6  C   UNL     1     161.600 156.565 165.414  1.00  0.00     0.053 C 
BRANCH   6   7
ATOM      7  C   UNL     1     162.537 157.408 166.229  1.00  0.00     0.041 C 
ATOM      8  O   UNL     1     162.981 158.494 165.770  1.00  0.00    -0.550 OA
ATOM      9  O   UNL     1     162.977 156.958 167.467  1.00  0.00    -0.550 OA
ENDBRANCH   6   7
ENDBRANCH   5   6
ENDBRANCH   4   5
ENDBRANCH   3   4
ENDBRANCH   2   3
ENDBRANCH   1   2
BRANCH   1  10
ATOM     10  C   UNL     1     163.108 151.816 164.068  1.00  0.00     0.000 C 
BRANCH  10  11
ATOM     11  C   UNL     1     164.217 151.901 163.004  1.00  0.00    -0.000 C 
BRANCH  11  12
ATOM     12  C   UNL     1     164.895 153.280 162.970  1.00  0.00    -0.000 C 
BRANCH  12  13
ATOM     13  C   UNL     1     165.624 153.617 164.282  1.00  0.00    -0.000 C 
BRANCH  13  14
ATOM     14  C   UNL     1     164.988 154.802 165.025  1.00  0.00    -0.000 C 
BRANCH  14  15
ATOM     15  C   UNL     1     165.595 156.151 164.613  1.00  0.00    -0.003 C 
ATOM     16  C   UNL     1     167.051 155.990 164.184  1.00  0.00     0.004 C 
ENDBRANCH  14  15
ENDBRANCH  13  14
ENDBRANCH  12  13
ENDBRANCH  11  12
ENDBRANCH  10  11
ENDBRANCH   1  10
TORSDOF 12
ENDMDL
MODEL 3
REMARK VINA RESULT:    -3.461      1.585      3.804
REMARK INTER + INTRA:          -7.405
REMARK INTER:                  -5.677
REMARK INTRA:                  -1.728
REMARK UNBOUND:                -1.517
REMARK SMILES CCCCCCCCCCCCCC(=O)[O-]
REMARK SMILES IDX 8 1 9 2 10 3 11 4 12 5 13 6 14 7 15 8 16 9 7 10 6 11 5 12
REMARK SMILES IDX 4 13 3 14 2 15 1 16
REMARK H PARENT
REMARK Flexibility Score: inf
ROOT
ATOM      1  C   UNL     1     166.228 155.169 163.736  1.00  0.00     0.000 C 
ENDROOT
BRANCH   1   2
ATOM      2  C   UNL     1     165.599 155.597 165.075  1.00  0.00     0.000 C 
BRANCH   2   3
ATOM      3  C   UNL     1     164.272 156.354 164.899  1.00  0.00     0.000 C 
BRANCH   3   4
ATOM      4  C   UNL     1     163.294 156.084 166.062  1.00  0.00     0.000 C 
BRANCH   4   5
ATOM      5  C   UNL     1     162.782 157.360 166.755  1.00  0.00     0.006 C 
BRANCH   5   6
ATOM      6  C   UNL     1     162.785 158.611 165.858  1.00  0.00     0.053 C 
BRANCH   6   7
ATOM      7  C   UNL     1     161.437 158.918 165.273  1.00  0.00     0.041 C 
ATOM      8  O   UNL     1     160.904 160.045 165.456  1.00  0.00    -0.550 OA
ATOM      9  O   UNL     1     160.737 157.934 164.587  1.00  0.00    -0.550 OA
ENDBRANCH   6   7
ENDBRANCH   5   6
ENDBRANCH   4   5
ENDBRANCH   3   4
ENDBRANCH   2   3
ENDBRANCH   1   2
BRANCH   1  10
ATOM     10  C   UNL     1     166.447 153.653 163.576  1.00  0.00     0.000 C 
BRANCH  10  11
ATOM     11  C   UNL     1     165.260 152.946 162.901  1.00  0.00    -0.000 C 
BRANCH  11  12
ATOM     12  C   UNL     1     164.291 152.322 163.919  1.00  0.00    -0.000 C 
BRANCH  12  13
ATOM     13  C   UNL     1     162.846 152.823 163.750  1.00  0.00    -0.000 C 
BRANCH  13  14
ATOM     14  C   UNL     1     162.718 153.899 162.662  1.00  0.00    -0.000 C 
BRANCH  14  15
ATOM     15  C   UNL     1     161.533 154.844 162.904  1.00  0.00    -0.003 C 
ATOM     16  C   UNL     1     160.705 154.392 164.104  1.00  0.00     0.004 C 
ENDBRANCH  14  15
ENDBRANCH  13  14
ENDBRANCH  12  13
ENDBRANCH  11  12
ENDBRANCH  10  11
ENDBRANCH   1  10
TORSDOF 12
ENDMDL
MODEL 4
REMARK VINA RESULT:    -3.431      2.200      3.657
REMARK INTER + INTRA:          -7.355
REMARK INTER:                  -5.697
REMARK INTRA:                  -1.658
REMARK UNBOUND:                -1.517
REMARK SMILES CCCCCCCCCCCCCC(=O)[O-]
REMARK SMILES IDX 8 1 9 2 10 3 11 4 12 5 13 6 14 7 15 8 16 9 7 10 6 11 5 12
REMARK SMILES IDX 4 13 3 14 2 15 1 16
REMARK H PARENT
REMARK Flexibility Score: inf
ROOT
ATOM      1  C   UNL     1     161.592 155.072 164.512  1.00  0.00     0.000 C 
ENDROOT
BRANCH   1   2
ATOM      2  C   UNL     1     162.449 155.886 165.498  1.00  0.00     0.000 C 
BRANCH   2   3
ATOM      3  C   UNL     1     163.629 156.601 164.819  1.00  0.00     0.000 C 
BRANCH   3   4
ATOM      4  C   UNL     1     163.519 158.136 164.931  1.00  0.00     0.000 C 
BRANCH   4   5
ATOM      5  C   UNL     1     162.437 158.613 165.917  1.00  0.00     0.006 C 
BRANCH   5   6
ATOM      6  C   UNL     1     161.562 159.763 165.386  1.00  0.00     0.053 C 
BRANCH   6   7
ATOM      7  C   UNL     1     160.151 159.341 165.095  1.00  0.00     0.041 C 
ATOM      8  O   UNL     1     159.188 159.855 165.722  1.00  0.00    -0.550 OA
ATOM      9  O   UNL     1     159.905 158.325 164.179  1.00  0.00    -0.550 OA
ENDBRANCH   6   7
ENDBRANCH   5   6
ENDBRANCH   4   5
ENDBRANCH   3   4
ENDBRANCH   2   3
ENDBRANCH   1   2
BRANCH   1  10
ATOM     10  C   UNL     1     161.723 155.492 163.037  1.00  0.00     0.000 C 
BRANCH  10  11
ATOM     11  C   UNL     1     161.930 154.297 162.091  1.00  0.00    -0.000 C 
BRANCH  11  12
ATOM     12  C   UNL     1     162.943 154.597 160.975  1.00  0.00    -0.000 C 
BRANCH  12  13
ATOM     13  C   UNL     1     164.402 154.414 161.431  1.00  0.00    -0.000 C 
BRANCH  13  14
ATOM     14  C   UNL     1     164.552 153.327 162.505  1.00  0.00    -0.000 C 
BRANCH  14  15
ATOM     15  C   UNL     1     165.611 153.683 163.559  1.00  0.00    -0.003 C 
ATOM     16  C   UNL     1     165.223 153.143 164.933  1.00  0.00     0.004 C 
ENDBRANCH  14  15
ENDBRANCH  13  14
ENDBRANCH  12  13
ENDBRANCH  11  12
ENDBRANCH  10  11
ENDBRANCH   1  10
TORSDOF 12
ENDMDL
MODEL 5
REMARK VINA RESULT:    -3.383      1.716      3.980
REMARK INTER + INTRA:          -7.272
REMARK INTER:                  -5.786
REMARK INTRA:                  -1.486
REMARK UNBOUND:                -1.517
REMARK SMILES CCCCCCCCCCCCCC(=O)[O-]
REMARK SMILES IDX 8 1 9 2 10 3 11 4 12 5 13 6 14 7 15 8 16 9 7 10 6 11 5 12
REMARK SMILES IDX 4 13 3 14 2 15 1 16
REMARK H PARENT
REMARK Flexibility Score: inf
ROOT
ATOM      1  C   UNL     1     165.166 154.907 165.278  1.00  0.00     0.000 C 
ENDROOT
BRANCH   1   2
ATOM      2  C   UNL     1     164.245 155.917 164.568  1.00  0.00     0.000 C 
BRANCH   2   3
ATOM      3  C   UNL     1     162.752 155.585 164.731  1.00  0.00     0.000 C 
BRANCH   3   4
ATOM      4  C   UNL     1     161.856 156.524 163.897  1.00  0.00     0.000 C 
BRANCH   4   5
ATOM      5  C   UNL     1     160.863 157.347 164.738  1.00  0.00     0.006 C 
BRANCH   5   6
ATOM      6  C   UNL     1     161.213 158.843 164.843  1.00  0.00     0.053 C 
BRANCH   6   7
ATOM      7  C   UNL     1     162.559 159.089 165.460  1.00  0.00     0.041 C 
ATOM      8  O   UNL     1     162.806 158.694 166.630  1.00  0.00    -0.550 OA
ATOM      9  O   UNL     1     163.517 159.820 164.768  1.00  0.00    -0.550 OA
ENDBRANCH   6   7
ENDBRANCH   5   6
ENDBRANCH   4   5
ENDBRANCH   3   4
ENDBRANCH   2   3
ENDBRANCH   1   2
BRANCH   1  10
ATOM     10  C   UNL     1     165.045 153.456 164.778  1.00  0.00     0.000 C 
BRANCH  10  11
ATOM     11  C   UNL     1     165.034 153.351 163.244  1.00  0.00    -0.000 C 
BRANCH  11  12
ATOM     12  C   UNL     1     163.841 152.537 162.718  1.00  0.00    -0.000 C 
BRANCH  12  13
ATOM     13  C   UNL     1     163.293 151.544 163.758  1.00  0.00    -0.000 C 
BRANCH  13  14
ATOM     14  C   UNL     1     161.758 151.527 163.807  1.00  0.00    -0.000 C 
BRANCH  14  15
ATOM     15  C   UNL     1     161.128 152.589 162.895  1.00  0.00    -0.003 C 
ATOM     16  C   UNL     1     160.006 153.335 163.612  1.00  0.00     0.004 C 
ENDBRANCH  14  15
ENDBRANCH  13  14
ENDBRANCH  12  13
ENDBRANCH  11  12
ENDBRANCH  10  11
ENDBRANCH   1  10
TORSDOF 12
ENDMDL
MODEL 6
REMARK VINA RESULT:    -3.368      3.171      4.836
REMARK INTER + INTRA:          -7.248
REMARK INTER:                  -5.560
REMARK INTRA:                  -1.688
REMARK UNBOUND:                -1.517
REMARK SMILES CCCCCCCCCCCCCC(=O)[O-]
REMARK SMILES IDX 8 1 9 2 10 3 11 4 12 5 13 6 14 7 15 8 16 9 7 10 6 11 5 12
REMARK SMILES IDX 4 13 3 14 2 15 1 16
REMARK H PARENT
REMARK Flexibility Score: inf
ROOT
ATOM      1  C   UNL     1     160.726 157.353 164.191  1.00  0.00     0.000 C 
ENDROOT
BRANCH   1   2
ATOM      2  C   UNL     1     161.483 156.082 163.766  1.00  0.00     0.000 C 
BRANCH   2   3
ATOM      3  C   UNL     1     160.951 154.811 164.447  1.00  0.00     0.000 C 
BRANCH   3   4
ATOM      4  C   UNL     1     161.320 153.535 163.660  1.00  0.00     0.000 C 
BRANCH   4   5
ATOM      5  C   UNL     1     160.662 153.448 162.270  1.00  0.00     0.006 C 
BRANCH   5   6
ATOM      6  C   UNL     1     161.635 153.079 161.134  1.00  0.00     0.053 C 
BRANCH   6   7
ATOM      7  C   UNL     1     161.963 154.240 160.241  1.00  0.00     0.041 C 
ATOM      8  O   UNL     1     162.622 155.218 160.682  1.00  0.00    -0.550 OA
ATOM      9  O   UNL     1     161.476 154.274 158.940  1.00  0.00    -0.550 OA
ENDBRANCH   6   7
ENDBRANCH   5   6
ENDBRANCH   4   5
ENDBRANCH   3   4
ENDBRANCH   2   3
ENDBRANCH   1   2
BRANCH   1  10
ATOM     10  C   UNL     1     161.508 158.294 165.127  1.00  0.00     0.000 C 
BRANCH  10  11
ATOM     11  C   UNL     1     162.905 157.757 165.483  1.00  0.00    -0.000 C 
BRANCH  11  12
ATOM     12  C   UNL     1     162.916 156.978 166.808  1.00  0.00    -0.000 C 
BRANCH  12  13
ATOM     13  C   UNL     1     163.795 155.717 166.750  1.00  0.00    -0.000 C 
BRANCH  13  14
ATOM     14  C   UNL     1     164.694 155.681 165.505  1.00  0.00    -0.000 C 
BRANCH  14  15
ATOM     15  C   UNL     1     164.726 154.297 164.841  1.00  0.00    -0.003 C 
ATOM     16  C   UNL     1     164.856 154.417 163.325  1.00  0.00     0.004 C 
ENDBRANCH  14  15
ENDBRANCH  13  14
ENDBRANCH  12  13
ENDBRANCH  11  12
ENDBRANCH  10  11
ENDBRANCH   1  10
TORSDOF 12
ENDMDL
MODEL 7
REMARK VINA RESULT:    -3.344      6.225      9.939
REMARK INTER + INTRA:          -7.207
REMARK INTER:                  -6.208
REMARK INTRA:                  -0.999
REMARK UNBOUND:                -1.517
REMARK SMILES CCCCCCCCCCCCCC(=O)[O-]
REMARK SMILES IDX 8 1 9 2 10 3 11 4 12 5 13 6 14 7 15 8 16 9 7 10 6 11 5 12
REMARK SMILES IDX 4 13 3 14 2 15 1 16
REMARK H PARENT
REMARK Flexibility Score: inf
ROOT
ATOM      1  C   UNL     1     154.999 159.703 163.513  1.00  0.00     0.000 C 
ENDROOT
BRANCH   1   2
ATOM      2  C   UNL     1     156.316 160.124 164.191  1.00  0.00     0.000 C 
BRANCH   2   3
ATOM      3  C   UNL     1     157.391 159.026 164.147  1.00  0.00     0.000 C 
BRANCH   3   4
ATOM      4  C   UNL     1     158.611 159.374 165.026  1.00  0.00     0.000 C 
BRANCH   4   5
ATOM      5  C   UNL     1     159.966 159.074 164.359  1.00  0.00     0.006 C 
BRANCH   5   6
ATOM      6  C   UNL     1     161.171 159.153 165.316  1.00  0.00     0.053 C 
BRANCH   6   7
ATOM      7  C   UNL     1     161.951 157.873 165.385  1.00  0.00     0.041 C 
ATOM      8  O   UNL     1     163.194 157.893 165.583  1.00  0.00    -0.550 OA
ATOM      9  O   UNL     1     161.314 156.659 165.158  1.00  0.00    -0.550 OA
ENDBRANCH   6   7
ENDBRANCH   5   6
ENDBRANCH   4   5
ENDBRANCH   3   4
ENDBRANCH   2   3
ENDBRANCH   1   2
BRANCH   1  10
ATOM     10  C   UNL     1     153.720 160.123 164.261  1.00  0.00     0.000 C 
BRANCH  10  11
ATOM     11  C   UNL     1     152.960 158.929 164.863  1.00  0.00    -0.000 C 
BRANCH  11  12
ATOM     12  C   UNL     1     151.651 158.628 164.116  1.00  0.00    -0.000 C 
BRANCH  12  13
ATOM     13  C   UNL     1     151.853 157.689 162.914  1.00  0.00    -0.000 C 
BRANCH  13  14
ATOM     14  C   UNL     1     152.583 156.392 163.295  1.00  0.00    -0.000 C 
BRANCH  14  15
ATOM     15  C   UNL     1     153.884 156.194 162.504  1.00  0.00    -0.003 C 
ATOM     16  C   UNL     1     155.083 156.069 163.441  1.00  0.00     0.004 C 
ENDBRANCH  14  15
ENDBRANCH  13  14
ENDBRANCH  12  13
ENDBRANCH  11  12
ENDBRANCH  10  11
ENDBRANCH   1  10
TORSDOF 12
ENDMDL
MODEL 8
REMARK VINA RESULT:    -3.295      1.851      3.997
REMARK INTER + INTRA:          -7.123
REMARK INTER:                  -5.217
REMARK INTRA:                  -1.906
REMARK UNBOUND:                -1.517
REMARK SMILES CCCCCCCCCCCCCC(=O)[O-]
REMARK SMILES IDX 8 1 9 2 10 3 11 4 12 5 13 6 14 7 15 8 16 9 7 10 6 11 5 12
REMARK SMILES IDX 4 13 3 14 2 15 1 16
REMARK H PARENT
REMARK Flexibility Score: inf
ROOT
ATOM      1  C   UNL     1     163.968 151.500 164.187  1.00  0.00     0.000 C 
ENDROOT
BRANCH   1   2
ATOM      2  C   UNL     1     165.213 152.357 163.898  1.00  0.00     0.000 C 
BRANCH   2   3
ATOM      3  C   UNL     1     165.415 153.487 164.922  1.00  0.00     0.000 C 
BRANCH   3   4
ATOM      4  C   UNL     1     165.611 154.857 164.240  1.00  0.00     0.000 C 
BRANCH   4   5
ATOM      5  C   UNL     1     164.841 156.006 164.915  1.00  0.00     0.006 C 
BRANCH   5   6
ATOM      6  C   UNL     1     164.054 155.586 166.171  1.00  0.00     0.053 C 
BRANCH   6   7
ATOM      7  C   UNL     1     162.864 156.461 166.438  1.00  0.00     0.041 C 
ATOM      8  O   UNL     1     162.198 156.942 165.483  1.00  0.00    -0.550 OA
ATOM      9  O   UNL     1     162.535 156.805 167.743  1.00  0.00    -0.550 OA
ENDBRANCH   6   7
ENDBRANCH   5   6
ENDBRANCH   4   5
ENDBRANCH   3   4
ENDBRANCH   2   3
ENDBRANCH   1   2
BRANCH   1  10
ATOM     10  C   UNL     1     162.829 151.641 163.159  1.00  0.00     0.000 C 
BRANCH  10  11
ATOM     11  C   UNL     1     161.533 152.196 163.776  1.00  0.00    -0.000 C 
BRANCH  11  12
ATOM     12  C   UNL     1     161.628 153.697 164.091  1.00  0.00    -0.000 C 
BRANCH  12  13
ATOM     13  C   UNL     1     161.235 154.583 162.895  1.00  0.00    -0.000 C 
BRANCH  13  14
ATOM     14  C   UNL     1     162.454 155.188 162.183  1.00  0.00    -0.000 C 
BRANCH  14  15
ATOM     15  C   UNL     1     162.666 154.604 160.778  1.00  0.00    -0.003 C 
ATOM     16  C   UNL     1     161.335 154.229 160.132  1.00  0.00     0.004 C 
ENDBRANCH  14  15
ENDBRANCH  13  14
ENDBRANCH  12  13
ENDBRANCH  11  12
ENDBRANCH  10  11
ENDBRANCH   1  10
TORSDOF 12
ENDMDL
