MODEL 1
REMARK VINA RESULT:    -4.616      0.000      0.000
REMARK INTER + INTRA:          -7.598
REMARK INTER:                  -6.774
REMARK INTRA:                  -0.823
REMARK UNBOUND:                -0.823
REMARK SMILES O=C([O-])CCCCCCCC(=O)[O-]
REMARK SMILES IDX 7 1 6 2 5 3 4 4 2 5 1 6 3 7 8 8 9 9 10 10 11 11 12 12 13 13
REMARK H PARENT
REMARK Flexibility Score: inf
ROOT
ATOM      1  C   UNL     1      18.324  22.321   6.495  1.00  0.00     0.000 C 
ENDROOT
BRANCH   1   2
ATOM      2  C   UNL     1      17.496  23.612   6.428  1.00  0.00     0.000 C 
BRANCH   2   3
ATOM      3  C   UNL     1      17.004  24.074   7.809  1.00  0.00     0.006 C 
BRANCH   3   4
ATOM      4  C   UNL     1      17.626  25.408   8.241  1.00  0.00     0.053 C 
BRANCH   4   5
ATOM      5  C   UNL     1      18.007  25.362   9.687  1.00  0.00     0.041 C 
ATOM      6  O   UNL     1      17.322  24.688  10.502  1.00  0.00    -0.550 OA
ATOM      7  O   UNL     1      19.089  26.103  10.146  1.00  0.00    -0.550 OA
ENDBRANCH   4   5
ENDBRANCH   3   4
ENDBRANCH   2   3
ENDBRANCH   1   2
BRANCH   1   8
ATOM      8  C   UNL     1      19.738  22.546   5.944  1.00  0.00     0.000 C 
BRANCH   8   9
ATOM      9  C   UNL     1      20.799  22.272   7.020  1.00  0.00     0.006 C 
BRANCH   9  10
ATOM     10  C   UNL     1      20.830  23.363   8.098  1.00  0.00     0.053 C 
BRANCH  10  11
ATOM     11  C   UNL     1      20.547  22.807   9.460  1.00  0.00     0.041 C 
ATOM     12  O   UNL     1      19.806  21.797   9.591  1.00  0.00    -0.550 OA
ATOM     13  O   UNL     1      21.076  23.423  10.587  1.00  0.00    -0.550 OA
ENDBRANCH  10  11
ENDBRANCH   9  10
ENDBRANCH   8   9
ENDBRANCH   1   8
TORSDOF 8
ENDMDL
MODEL 2
REMARK VINA RESULT:    -4.611      0.436      3.474
REMARK INTER + INTRA:          -7.592
REMARK INTER:                  -6.738
REMARK INTRA:                  -0.853
REMARK UNBOUND:                -0.823
REMARK SMILES O=C([O-])CCCCCCCC(=O)[O-]
REMARK SMILES IDX 7 1 6 2 5 3 4 4 2 5 1 6 3 7 8 8 9 9 10 10 11 11 12 12 13 13
REMARK H PARENT
REMARK Flexibility Score: inf
ROOT
ATOM      1  C   UNL     1      17.919  22.342   6.305  1.00  0.00     0.000 C 
ENDROOT
BRANCH   1   2
ATOM      2  C   UNL     1      19.303  22.509   5.660  1.00  0.00     0.000 C 
BRANCH   2   3
ATOM      3  C   UNL     1      20.448  22.083   6.593  1.00  0.00     0.006 C 
BRANCH   3   4
ATOM      4  C   UNL     1      20.740  23.125   7.681  1.00  0.00     0.053 C 
BRANCH   4   5
ATOM      5  C   UNL     1      20.569  22.522   9.040  1.00  0.00     0.041 C 
ATOM      6  O   UNL     1      19.845  21.504   9.195  1.00  0.00    -0.550 OA
ATOM      7  O   UNL     1      21.170  23.114  10.144  1.00  0.00    -0.550 OA
ENDBRANCH   4   5
ENDBRANCH   3   4
ENDBRANCH   2   3
ENDBRANCH   1   2
BRANCH   1   8
ATOM      8  C   UNL     1      17.186  23.687   6.388  1.00  0.00     0.000 C 
BRANCH   8   9
ATOM      9  C   UNL     1      16.926  24.084   7.848  1.00  0.00     0.006 C 
BRANCH   9  10
ATOM     10  C   UNL     1      17.785  25.276   8.288  1.00  0.00     0.053 C 
BRANCH  10  11
ATOM     11  C   UNL     1      18.227  25.148   9.714  1.00  0.00     0.041 C 
ATOM     12  O   UNL     1      17.722  24.264  10.456  1.00  0.00    -0.550 OA
ATOM     13  O   UNL     1      19.172  26.024  10.233  1.00  0.00    -0.550 OA
ENDBRANCH  10  11
ENDBRANCH   9  10
ENDBRANCH   8   9
ENDBRANCH   1   8
TORSDOF 8
ENDMDL
MODEL 3
REMARK VINA RESULT:    -4.580      1.267      1.647
REMARK INTER + INTRA:          -7.545
REMARK INTER:                  -6.862
REMARK INTRA:                  -0.683
REMARK UNBOUND:                -0.823
REMARK SMILES O=C([O-])CCCCCCCC(=O)[O-]
REMARK SMILES IDX 7 1 6 2 5 3 4 4 2 5 1 6 3 7 8 8 9 9 10 10 11 11 12 12 13 13
REMARK H PARENT
REMARK Flexibility Score: inf
ROOT
ATOM      1  C   UNL     1      17.951  22.563   6.812  1.00  0.00     0.000 C 
ENDROOT
BRANCH   1   2
ATOM      2  C   UNL     1      17.193  23.898   6.820  1.00  0.00     0.000 C 
BRANCH   2   3
ATOM      3  C   UNL     1      17.227  24.591   8.192  1.00  0.00     0.006 C 
BRANCH   3   4
ATOM      4  C   UNL     1      18.512  25.400   8.412  1.00  0.00     0.053 C 
BRANCH   4   5
ATOM      5  C   UNL     1      18.189  26.755   8.959  1.00  0.00     0.041 C 
ATOM      6  O   UNL     1      19.109  27.584   9.184  1.00  0.00    -0.550 OA
ATOM      7  O   UNL     1      16.875  27.084   9.267  1.00  0.00    -0.550 OA
ENDBRANCH   4   5
ENDBRANCH   3   4
ENDBRANCH   2   3
ENDBRANCH   1   2
BRANCH   1   8
ATOM      8  C   UNL     1      19.274  22.687   6.046  1.00  0.00     0.000 C 
BRANCH   8   9
ATOM      9  C   UNL     1      20.474  22.481   6.981  1.00  0.00     0.006 C 
BRANCH   9  10
ATOM     10  C   UNL     1      20.079  21.780   8.288  1.00  0.00     0.053 C 
BRANCH  10  11
ATOM     11  C   UNL     1      20.614  22.499   9.489  1.00  0.00     0.041 C 
ATOM     12  O   UNL     1      21.817  22.869   9.521  1.00  0.00    -0.550 OA
ATOM     13  O   UNL     1      19.792  22.732  10.584  1.00  0.00    -0.550 OA
ENDBRANCH  10  11
ENDBRANCH   9  10
ENDBRANCH   8   9
ENDBRANCH   1   8
TORSDOF 8
ENDMDL
MODEL 4
REMARK VINA RESULT:    -4.561      1.112      3.982
REMARK INTER + INTRA:          -7.517
REMARK INTER:                  -6.956
REMARK INTRA:                  -0.561
REMARK UNBOUND:                -0.823
REMARK SMILES O=C([O-])CCCCCCCC(=O)[O-]
REMARK SMILES IDX 7 1 6 2 5 3 4 4 2 5 1 6 3 7 8 8 9 9 10 10 11 11 12 12 13 13
REMARK H PARENT
REMARK Flexibility Score: inf
ROOT
ATOM      1  C   UNL     1      17.977  22.796   7.221  1.00  0.00     0.000 C 
ENDROOT
BRANCH   1   2
ATOM      2  C   UNL     1      19.121  22.812   6.196  1.00  0.00     0.000 C 
BRANCH   2   3
ATOM      3  C   UNL     1      20.503  22.637   6.847  1.00  0.00     0.006 C 
BRANCH   3   4
ATOM      4  C   UNL     1      20.714  23.575   8.042  1.00  0.00     0.053 C 
BRANCH   4   5
ATOM      5  C   UNL     1      21.236  22.811   9.218  1.00  0.00     0.041 C 
ATOM      6  O   UNL     1      22.264  22.093   9.102  1.00  0.00    -0.550 OA
ATOM      7  O   UNL     1      20.559  22.853  10.431  1.00  0.00    -0.550 OA
ENDBRANCH   4   5
ENDBRANCH   3   4
ENDBRANCH   2   3
ENDBRANCH   1   2
BRANCH   1   8
ATOM      8  C   UNL     1      17.217  24.129   7.215  1.00  0.00     0.000 C 
BRANCH   8   9
ATOM      9  C   UNL     1      17.052  24.675   8.640  1.00  0.00     0.006 C 
BRANCH   9  10
ATOM     10  C   UNL     1      17.314  26.185   8.718  1.00  0.00     0.053 C 
BRANCH  10  11
ATOM     11  C   UNL     1      18.617  26.489   9.392  1.00  0.00     0.041 C 
ATOM     12  O   UNL     1      19.033  25.756  10.328  1.00  0.00    -0.550 OA
ATOM     13  O   UNL     1      19.357  27.601   9.009  1.00  0.00    -0.550 OA
ENDBRANCH  10  11
ENDBRANCH   9  10
ENDBRANCH   8   9
ENDBRANCH   1   8
TORSDOF 8
ENDMDL
MODEL 5
REMARK VINA RESULT:    -4.523      2.287      5.125
REMARK INTER + INTRA:          -7.461
REMARK INTER:                  -6.868
REMARK INTRA:                  -0.594
REMARK UNBOUND:                -0.823
REMARK SMILES O=C([O-])CCCCCCCC(=O)[O-]
REMARK SMILES IDX 7 1 6 2 5 3 4 4 2 5 1 6 3 7 8 8 9 9 10 10 11 11 12 12 13 13
REMARK H PARENT
REMARK Flexibility Score: inf
ROOT
ATOM      1  C   UNL     1      19.483  22.457  10.439  1.00  0.00     0.000 C 
ENDROOT
BRANCH   1   2
ATOM      2  C   UNL     1      20.797  23.248  10.361  1.00  0.00     0.000 C 
BRANCH   2   3
ATOM      3  C   UNL     1      21.720  22.756   9.235  1.00  0.00     0.006 C 
BRANCH   3   4
ATOM      4  C   UNL     1      21.282  23.257   7.852  1.00  0.00     0.053 C 
BRANCH   4   5
ATOM      5  C   UNL     1      20.968  22.102   6.954  1.00  0.00     0.041 C 
ATOM      6  O   UNL     1      20.417  22.297   5.839  1.00  0.00    -0.550 OA
ATOM      7  O   UNL     1      21.239  20.804   7.370  1.00  0.00    -0.550 OA
ENDBRANCH   4   5
ENDBRANCH   3   4
ENDBRANCH   2   3
ENDBRANCH   1   2
BRANCH   1   8
ATOM      8  C   UNL     1      18.279  23.360  10.145  1.00  0.00     0.000 C 
BRANCH   8   9
ATOM      9  C   UNL     1      18.696  24.838  10.104  1.00  0.00     0.006 C 
BRANCH   9  10
ATOM     10  C   UNL     1      18.150  25.562   8.867  1.00  0.00     0.053 C 
BRANCH  10  11
ATOM     11  C   UNL     1      18.202  27.051   9.025  1.00  0.00     0.041 C 
ATOM     12  O   UNL     1      19.310  27.635   9.156  1.00  0.00    -0.550 OA
ATOM     13  O   UNL     1      17.027  27.790   9.059  1.00  0.00    -0.550 OA
ENDBRANCH  10  11
ENDBRANCH   9  10
ENDBRANCH   8   9
ENDBRANCH   1   8
TORSDOF 8
ENDMDL
MODEL 6
REMARK VINA RESULT:    -4.449      1.490      4.359
REMARK INTER + INTRA:          -7.353
REMARK INTER:                  -6.966
REMARK INTRA:                  -0.387
REMARK UNBOUND:                -0.823
REMARK SMILES O=C([O-])CCCCCCCC(=O)[O-]
REMARK SMILES IDX 7 1 6 2 5 3 4 4 2 5 1 6 3 7 8 8 9 9 10 10 11 11 12 12 13 13
REMARK H PARENT
REMARK Flexibility Score: inf
ROOT
ATOM      1  C   UNL     1      18.417  22.956   6.152  1.00  0.00     0.000 C 
ENDROOT
BRANCH   1   2
ATOM      2  C   UNL     1      19.686  23.224   6.975  1.00  0.00     0.000 C 
BRANCH   2   3
ATOM      3  C   UNL     1      20.823  22.242   6.648  1.00  0.00     0.006 C 
BRANCH   3   4
ATOM      4  C   UNL     1      21.066  21.226   7.771  1.00  0.00     0.053 C 
BRANCH   4   5
ATOM      5  C   UNL     1      22.169  21.694   8.668  1.00  0.00     0.041 C 
ATOM      6  O   UNL     1      23.261  21.069   8.708  1.00  0.00    -0.550 OA
ATOM      7  O   UNL     1      21.974  22.792   9.496  1.00  0.00    -0.550 OA
ENDBRANCH   4   5
ENDBRANCH   3   4
ENDBRANCH   2   3
ENDBRANCH   1   2
BRANCH   1   8
ATOM      8  C   UNL     1      17.270  23.873   6.598  1.00  0.00     0.000 C 
BRANCH   8   9
ATOM      9  C   UNL     1      17.389  24.219   8.089  1.00  0.00     0.006 C 
BRANCH   9  10
ATOM     10  C   UNL     1      17.492  25.731   8.328  1.00  0.00     0.053 C 
BRANCH  10  11
ATOM     11  C   UNL     1      18.630  26.074   9.241  1.00  0.00     0.041 C 
ATOM     12  O   UNL     1      19.194  25.173   9.915  1.00  0.00    -0.550 OA
ATOM     13  O   UNL     1      19.046  27.393   9.370  1.00  0.00    -0.550 OA
ENDBRANCH  10  11
ENDBRANCH   9  10
ENDBRANCH   8   9
ENDBRANCH   1   8
TORSDOF 8
ENDMDL
MODEL 7
REMARK VINA RESULT:    -4.292      2.000      3.003
REMARK INTER + INTRA:          -7.122
REMARK INTER:                  -6.396
REMARK INTRA:                  -0.727
REMARK UNBOUND:                -0.823
REMARK SMILES O=C([O-])CCCCCCCC(=O)[O-]
REMARK SMILES IDX 7 1 6 2 5 3 4 4 2 5 1 6 3 7 8 8 9 9 10 10 11 11 12 12 13 13
REMARK H PARENT
REMARK Flexibility Score: inf
ROOT
ATOM      1  C   UNL     1      18.627  22.356  10.998  1.00  0.00     0.000 C 
ENDROOT
BRANCH   1   2
ATOM      2  C   UNL     1      17.198  22.820  10.679  1.00  0.00     0.000 C 
BRANCH   2   3
ATOM      3  C   UNL     1      17.049  24.350  10.715  1.00  0.00     0.006 C 
BRANCH   3   4
ATOM      4  C   UNL     1      17.246  24.994   9.337  1.00  0.00     0.053 C 
BRANCH   4   5
ATOM      5  C   UNL     1      18.333  26.020   9.391  1.00  0.00     0.041 C 
ATOM      6  O   UNL     1      19.198  25.980  10.305  1.00  0.00    -0.550 OA
ATOM      7  O   UNL     1      18.363  27.052   8.461  1.00  0.00    -0.550 OA
ENDBRANCH   4   5
ENDBRANCH   3   4
ENDBRANCH   2   3
ENDBRANCH   1   2
BRANCH   1   8
ATOM      8  C   UNL     1      19.413  22.075   9.711  1.00  0.00     0.000 C 
BRANCH   8   9
ATOM      9  C   UNL     1      20.759  22.815   9.714  1.00  0.00     0.006 C 
BRANCH   9  10
ATOM     10  C   UNL     1      21.014  23.562   8.400  1.00  0.00     0.053 C 
BRANCH  10  11
ATOM     11  C   UNL     1      20.883  22.660   7.211  1.00  0.00     0.041 C 
ATOM     12  O   UNL     1      21.713  21.730   7.027  1.00  0.00    -0.550 OA
ATOM     13  O   UNL     1      19.864  22.865   6.290  1.00  0.00    -0.550 OA
ENDBRANCH  10  11
ENDBRANCH   9  10
ENDBRANCH   8   9
ENDBRANCH   1   8
TORSDOF 8
ENDMDL
MODEL 8
REMARK VINA RESULT:    -4.288      2.250      3.326
REMARK INTER + INTRA:          -7.117
REMARK INTER:                  -6.488
REMARK INTRA:                  -0.629
REMARK UNBOUND:                -0.823
REMARK SMILES O=C([O-])CCCCCCCC(=O)[O-]
REMARK SMILES IDX 7 1 6 2 5 3 4 4 2 5 1 6 3 7 8 8 9 9 10 10 11 11 12 12 13 13
REMARK H PARENT
REMARK Flexibility Score: inf
ROOT
ATOM      1  C   UNL     1      20.868  23.268  10.306  1.00  0.00     0.000 C 
ENDROOT
BRANCH   1   2
ATOM      2  C   UNL     1      19.413  22.812  10.126  1.00  0.00     0.000 C 
BRANCH   2   3
ATOM      3  C   UNL     1      18.451  23.985   9.874  1.00  0.00     0.006 C 
BRANCH   3   4
ATOM      4  C   UNL     1      19.105  25.349  10.132  1.00  0.00     0.053 C 
BRANCH   4   5
ATOM      5  C   UNL     1      18.635  26.351   9.125  1.00  0.00     0.041 C 
ATOM      6  O   UNL     1      17.728  26.049   8.305  1.00  0.00    -0.550 OA
ATOM      7  O   UNL     1      19.233  27.603   9.058  1.00  0.00    -0.550 OA
ENDBRANCH   4   5
ENDBRANCH   3   4
ENDBRANCH   2   3
ENDBRANCH   1   2
BRANCH   1   8
ATOM      8  C   UNL     1      21.759  22.712   9.188  1.00  0.00     0.000 C 
BRANCH   8   9
ATOM      9  C   UNL     1      20.946  21.850   8.212  1.00  0.00     0.006 C 
BRANCH   9  10
ATOM     10  C   UNL     1      21.067  22.340   6.764  1.00  0.00     0.053 C 
BRANCH  10  11
ATOM     11  C   UNL     1      19.724  22.542   6.130  1.00  0.00     0.041 C 
ATOM     12  O   UNL     1      18.944  23.426   6.570  1.00  0.00    -0.550 OA
ATOM     13  O   UNL     1      19.323  21.732   5.075  1.00  0.00    -0.550 OA
ENDBRANCH  10  11
ENDBRANCH   9  10
ENDBRANCH   8   9
ENDBRANCH   1   8
TORSDOF 8
ENDMDL
MODEL 9
REMARK VINA RESULT:    -4.217      1.469      3.864
REMARK INTER + INTRA:          -7.012
REMARK INTER:                  -6.177
REMARK INTRA:                  -0.835
REMARK UNBOUND:                -0.823
REMARK SMILES O=C([O-])CCCCCCCC(=O)[O-]
REMARK SMILES IDX 7 1 6 2 5 3 4 4 2 5 1 6 3 7 8 8 9 9 10 10 11 11 12 12 13 13
REMARK H PARENT
REMARK Flexibility Score: inf
ROOT
ATOM      1  C   UNL     1      17.475  23.801   6.502  1.00  0.00     0.000 C 
ENDROOT
BRANCH   1   2
ATOM      2  C   UNL     1      18.087  22.394   6.555  1.00  0.00     0.000 C 
BRANCH   2   3
ATOM      3  C   UNL     1      19.444  22.310   5.835  1.00  0.00     0.006 C 
BRANCH   3   4
ATOM      4  C   UNL     1      20.624  22.618   6.766  1.00  0.00     0.053 C 
BRANCH   4   5
ATOM      5  C   UNL     1      21.276  21.348   7.218  1.00  0.00     0.041 C 
ATOM      6  O   UNL     1      20.964  20.251   6.685  1.00  0.00    -0.550 OA
ATOM      7  O   UNL     1      22.190  21.370   8.263  1.00  0.00    -0.550 OA
ENDBRANCH   4   5
ENDBRANCH   3   4
ENDBRANCH   2   3
ENDBRANCH   1   2
BRANCH   1   8
ATOM      8  C   UNL     1      17.141  24.308   7.910  1.00  0.00     0.000 C 
BRANCH   8   9
ATOM      9  C   UNL     1      18.391  24.865   8.606  1.00  0.00     0.006 C 
BRANCH   9  10
ATOM     10  C   UNL     1      18.521  24.371  10.052  1.00  0.00     0.053 C 
BRANCH  10  11
ATOM     11  C   UNL     1      19.521  23.262  10.174  1.00  0.00     0.041 C 
ATOM     12  O   UNL     1      19.158  22.064  10.033  1.00  0.00    -0.550 OA
ATOM     13  O   UNL     1      20.846  23.548  10.476  1.00  0.00    -0.550 OA
ENDBRANCH  10  11
ENDBRANCH   9  10
ENDBRANCH   8   9
ENDBRANCH   1   8
TORSDOF 8
ENDMDL
