MODEL 1
REMARK VINA RESULT:    -7.581      0.000      0.000
REMARK INTER + INTRA:          -7.581
REMARK INTER:                  -7.581
REMARK INTRA:                   0.000
REMARK UNBOUND:                 0.000
REMARK SMILES Cc1cc2cc3c(C)cc(=O)oc3c(C)c2o1
REMARK SMILES IDX 8 1 7 2 9 3 10 4 11 5 12 6 13 7 6 8 5 9 4 10 3 11 2 12 17 13
REMARK SMILES IDX 16 14 14 15 15 16 1 17
REMARK H PARENT
REMARK Flexibility Score: inf
ROOT
ATOM      1  C   UNL     1     263.339 -25.922  53.249  1.00  0.00     0.045 C 
ATOM      2  C   UNL     1     262.166 -26.820  52.953  1.00  0.00    -0.033 A 
ATOM      3  C   UNL     1     261.916 -27.207  51.630  1.00  0.00     0.098 A 
ATOM      4  C   UNL     1     260.832 -28.037  51.346  1.00  0.00     0.336 A 
ATOM      5  O   UNL     1     260.603 -28.386  50.158  1.00  0.00    -0.246 OA
ATOM      6  O   UNL     1     260.036 -28.465  52.318  1.00  0.00    -0.422 OA
ATOM      7  C   UNL     1     260.215 -28.139  53.596  1.00  0.00     0.145 A 
ATOM      8  C   UNL     1     261.303 -27.287  53.970  1.00  0.00     0.022 A 
ATOM      9  C   UNL     1     261.480 -26.937  55.331  1.00  0.00     0.024 A 
ATOM     10  C   UNL     1     260.575 -27.438  56.260  1.00  0.00     0.022 A 
ATOM     11  C   UNL     1     260.499 -27.255  57.621  1.00  0.00     0.054 A 
ATOM     12  C   UNL     1     259.385 -27.995  58.002  1.00  0.00     0.102 A 
ATOM     13  O   UNL     1     258.828 -28.576  56.957  1.00  0.00    -0.461 OA
ATOM     14  C   UNL     1     259.535 -28.252  55.901  1.00  0.00     0.140 A 
ATOM     15  C   UNL     1     259.323 -28.638  54.575  1.00  0.00     0.036 A 
ATOM     16  C   UNL     1     258.158 -29.509  54.196  1.00  0.00     0.052 C 
ATOM     17  C   UNL     1     258.863 -28.108  59.394  1.00  0.00     0.087 C 
ENDROOT
TORSDOF 0
ENDMDL
MODEL 2
REMARK VINA RESULT:    -7.554      0.970      5.140
REMARK INTER + INTRA:          -7.554
REMARK INTER:                  -7.554
REMARK INTRA:                   0.000
REMARK UNBOUND:                 0.000
REMARK SMILES Cc1cc2cc3c(C)cc(=O)oc3c(C)c2o1
REMARK SMILES IDX 8 1 7 2 9 3 10 4 11 5 12 6 13 7 6 8 5 9 4 10 3 11 2 12 17 13
REMARK SMILES IDX 16 14 14 15 15 16 1 17
REMARK H PARENT
REMARK Flexibility Score: inf
ROOT
ATOM      1  C   UNL     1     262.584 -26.024  57.039  1.00  0.00     0.045 C 
ATOM      2  C   UNL     1     261.368 -26.886  56.822  1.00  0.00    -0.033 A 
ATOM      3  C   UNL     1     260.601 -27.280  57.926  1.00  0.00     0.098 A 
ATOM      4  C   UNL     1     259.474 -28.079  57.734  1.00  0.00     0.336 A 
ATOM      5  O   UNL     1     258.783 -28.436  58.724  1.00  0.00    -0.246 OA
ATOM      6  O   UNL     1     259.121 -28.468  56.515  1.00  0.00    -0.422 OA
ATOM      7  C   UNL     1     259.801 -28.130  55.423  1.00  0.00     0.145 A 
ATOM      8  C   UNL     1     260.973 -27.315  55.534  1.00  0.00     0.022 A 
ATOM      9  C   UNL     1     261.696 -26.968  54.366  1.00  0.00     0.024 A 
ATOM     10  C   UNL     1     261.236 -27.444  53.145  1.00  0.00     0.022 A 
ATOM     11  C   UNL     1     261.738 -27.279  51.875  1.00  0.00     0.054 A 
ATOM     12  C   UNL     1     260.860 -27.990  51.065  1.00  0.00     0.102 A 
ATOM     13  O   UNL     1     259.903 -28.546  51.786  1.00  0.00    -0.461 OA
ATOM     14  C   UNL     1     260.115 -28.223  53.039  1.00  0.00     0.140 A 
ATOM     15  C   UNL     1     259.358 -28.584  54.157  1.00  0.00     0.036 A 
ATOM     16  C   UNL     1     258.148 -29.465  54.025  1.00  0.00     0.052 C 
ATOM     17  C   UNL     1     260.978 -28.135  49.586  1.00  0.00     0.087 C 
ENDROOT
TORSDOF 0
ENDMDL
MODEL 3
REMARK VINA RESULT:    -7.103      1.595      3.235
REMARK INTER + INTRA:          -7.103
REMARK INTER:                  -7.103
REMARK INTRA:                   0.000
REMARK UNBOUND:                 0.000
REMARK SMILES Cc1cc2cc3c(C)cc(=O)oc3c(C)c2o1
REMARK SMILES IDX 8 1 7 2 9 3 10 4 11 5 12 6 13 7 6 8 5 9 4 10 3 11 2 12 17 13
REMARK SMILES IDX 16 14 14 15 15 16 1 17
REMARK H PARENT
REMARK Flexibility Score: inf
ROOT
ATOM      1  C   UNL     1     258.058 -29.449  53.867  1.00  0.00     0.045 C 
ATOM      2  C   UNL     1     259.302 -28.607  53.981  1.00  0.00    -0.033 A 
ATOM      3  C   UNL     1     259.970 -28.210  52.815  1.00  0.00     0.098 A 
ATOM      4  C   UNL     1     261.123 -27.432  52.911  1.00  0.00     0.336 A 
ATOM      5  O   UNL     1     261.727 -27.074  51.866  1.00  0.00    -0.246 OA
ATOM      6  O   UNL     1     261.593 -27.064  54.097  1.00  0.00    -0.422 OA
ATOM      7  C   UNL     1     261.010 -27.404  55.243  1.00  0.00     0.145 A 
ATOM      8  C   UNL     1     259.823 -28.205  55.232  1.00  0.00     0.022 A 
ATOM      9  C   UNL     1     259.215 -28.569  56.458  1.00  0.00     0.024 A 
ATOM     10  C   UNL     1     259.805 -28.133  57.638  1.00  0.00     0.022 A 
ATOM     11  C   UNL     1     259.444 -28.345  58.948  1.00  0.00     0.054 A 
ATOM     12  C   UNL     1     260.414 -27.671  59.681  1.00  0.00     0.102 A 
ATOM     13  O   UNL     1     261.295 -27.100  58.881  1.00  0.00    -0.461 OA
ATOM     14  C   UNL     1     260.939 -27.367  57.648  1.00  0.00     0.140 A 
ATOM     15  C   UNL     1     261.572 -26.969  56.467  1.00  0.00     0.036 A 
ATOM     16  C   UNL     1     262.833 -26.153  56.499  1.00  0.00     0.052 C 
ATOM     17  C   UNL     1     260.479 -27.610  61.170  1.00  0.00     0.087 C 
ENDROOT
TORSDOF 0
ENDMDL
MODEL 4
REMARK VINA RESULT:    -6.799      1.491      5.160
REMARK INTER + INTRA:          -6.799
REMARK INTER:                  -6.799
REMARK INTRA:                   0.000
REMARK UNBOUND:                 0.000
REMARK SMILES Cc1cc2cc3c(C)cc(=O)oc3c(C)c2o1
REMARK SMILES IDX 8 1 7 2 9 3 10 4 11 5 12 6 13 7 6 8 5 9 4 10 3 11 2 12 17 13
REMARK SMILES IDX 16 14 14 15 15 16 1 17
REMARK H PARENT
REMARK Flexibility Score: inf
ROOT
ATOM      1  C   UNL     1     263.792 -25.203  56.621  1.00  0.00     0.045 C 
ATOM      2  C   UNL     1     262.591 -26.102  56.765  1.00  0.00    -0.033 A 
ATOM      3  C   UNL     1     262.089 -26.374  58.043  1.00  0.00     0.098 A 
ATOM      4  C   UNL     1     260.978 -27.206  58.186  1.00  0.00     0.336 A 
ATOM      5  O   UNL     1     260.524 -27.454  59.333  1.00  0.00    -0.246 OA
ATOM      6  O   UNL     1     260.393 -27.740  57.121  1.00  0.00    -0.422 OA
ATOM      7  C   UNL     1     260.816 -27.523  55.879  1.00  0.00     0.145 A 
ATOM      8  C   UNL     1     261.953 -26.684  55.646  1.00  0.00     0.022 A 
ATOM      9  C   UNL     1     262.401 -26.466  54.321  1.00  0.00     0.024 A 
ATOM     10  C   UNL     1     261.714 -27.089  53.286  1.00  0.00     0.022 A 
ATOM     11  C   UNL     1     261.932 -27.067  51.928  1.00  0.00     0.054 A 
ATOM     12  C   UNL     1     260.932 -27.880  51.408  1.00  0.00     0.102 A 
ATOM     13  O   UNL     1     260.170 -28.361  52.373  1.00  0.00    -0.461 OA
ATOM     14  C   UNL     1     260.627 -27.891  53.508  1.00  0.00     0.140 A 
ATOM     15  C   UNL     1     260.136 -28.129  54.795  1.00  0.00     0.036 A 
ATOM     16  C   UNL     1     258.960 -29.036  55.022  1.00  0.00     0.052 C 
ATOM     17  C   UNL     1     260.744 -28.197  49.963  1.00  0.00     0.087 C 
ENDROOT
TORSDOF 0
ENDMDL
MODEL 5
REMARK VINA RESULT:    -6.716      2.098      6.289
REMARK INTER + INTRA:          -6.716
REMARK INTER:                  -6.716
REMARK INTRA:                   0.000
REMARK UNBOUND:                 0.000
REMARK SMILES Cc1cc2cc3c(C)cc(=O)oc3c(C)c2o1
REMARK SMILES IDX 8 1 7 2 9 3 10 4 11 5 12 6 13 7 6 8 5 9 4 10 3 11 2 12 17 13
REMARK SMILES IDX 16 14 14 15 15 16 1 17
REMARK H PARENT
REMARK Flexibility Score: inf
ROOT
ATOM      1  C   UNL     1     258.133 -28.814  59.551  1.00  0.00     0.045 C 
ATOM      2  C   UNL     1     259.355 -27.973  59.291  1.00  0.00    -0.033 A 
ATOM      3  C   UNL     1     259.999 -27.348  60.367  1.00  0.00     0.098 A 
ATOM      4  C   UNL     1     261.130 -26.566  60.135  1.00  0.00     0.336 A 
ATOM      5  O   UNL     1     261.711 -26.001  61.098  1.00  0.00    -0.246 OA
ATOM      6  O   UNL     1     261.602 -26.409  58.904  1.00  0.00    -0.422 OA
ATOM      7  C   UNL     1     261.043 -26.974  57.837  1.00  0.00     0.145 A 
ATOM      8  C   UNL     1     259.875 -27.789  57.989  1.00  0.00     0.022 A 
ATOM      9  C   UNL     1     259.281 -28.379  56.847  1.00  0.00     0.024 A 
ATOM     10  C   UNL     1     259.859 -28.134  55.607  1.00  0.00     0.022 A 
ATOM     11  C   UNL     1     259.493 -28.558  54.352  1.00  0.00     0.054 A 
ATOM     12  C   UNL     1     260.442 -27.990  53.509  1.00  0.00     0.102 A 
ATOM     13  O   UNL     1     261.312 -27.275  54.197  1.00  0.00    -0.461 OA
ATOM     14  C   UNL     1     260.975 -27.355  55.462  1.00  0.00     0.140 A 
ATOM     15  C   UNL     1     261.608 -26.760  56.557  1.00  0.00     0.036 A 
ATOM     16  C   UNL     1     262.815 -25.884  56.375  1.00  0.00     0.052 C 
ATOM     17  C   UNL     1     260.475 -28.138  52.025  1.00  0.00     0.087 C 
ENDROOT
TORSDOF 0
ENDMDL
MODEL 6
REMARK VINA RESULT:    -6.576      2.148      3.436
REMARK INTER + INTRA:          -6.576
REMARK INTER:                  -6.576
REMARK INTRA:                   0.000
REMARK UNBOUND:                 0.000
REMARK SMILES Cc1cc2cc3c(C)cc(=O)oc3c(C)c2o1
REMARK SMILES IDX 8 1 7 2 9 3 10 4 11 5 12 6 13 7 6 8 5 9 4 10 3 11 2 12 17 13
REMARK SMILES IDX 16 14 14 15 15 16 1 17
REMARK H PARENT
REMARK Flexibility Score: inf
ROOT
ATOM      1  C   UNL     1     261.478 -27.320  51.852  1.00  0.00     0.045 C 
ATOM      2  C   UNL     1     260.708 -27.771  53.066  1.00  0.00    -0.033 A 
ATOM      3  C   UNL     1     259.588 -28.595  52.900  1.00  0.00     0.098 A 
ATOM      4  C   UNL     1     258.868 -29.017  54.018  1.00  0.00     0.336 A 
ATOM      5  O   UNL     1     257.860 -29.756  53.873  1.00  0.00    -0.246 OA
ATOM      6  O   UNL     1     259.236 -28.645  55.238  1.00  0.00    -0.422 OA
ATOM      7  C   UNL     1     260.289 -27.865  55.469  1.00  0.00     0.145 A 
ATOM      8  C   UNL     1     261.079 -27.386  54.375  1.00  0.00     0.022 A 
ATOM      9  C   UNL     1     262.193 -26.550  54.630  1.00  0.00     0.024 A 
ATOM     10  C   UNL     1     262.474 -26.218  55.950  1.00  0.00     0.022 A 
ATOM     11  C   UNL     1     263.467 -25.428  56.480  1.00  0.00     0.054 A 
ATOM     12  C   UNL     1     263.237 -25.464  57.851  1.00  0.00     0.102 A 
ATOM     13  O   UNL     1     262.186 -26.213  58.130  1.00  0.00    -0.461 OA
ATOM     14  C   UNL     1     261.719 -26.676  56.996  1.00  0.00     0.140 A 
ATOM     15  C   UNL     1     260.618 -27.515  56.801  1.00  0.00     0.036 A 
ATOM     16  C   UNL     1     259.783 -27.983  57.959  1.00  0.00     0.052 C 
ATOM     17  C   UNL     1     264.042 -24.743  58.878  1.00  0.00     0.087 C 
ENDROOT
TORSDOF 0
ENDMDL
MODEL 7
REMARK VINA RESULT:    -6.538      2.304      3.410
REMARK INTER + INTRA:          -6.538
REMARK INTER:                  -6.538
REMARK INTRA:                   0.000
REMARK UNBOUND:                 0.000
REMARK SMILES Cc1cc2cc3c(C)cc(=O)oc3c(C)c2o1
REMARK SMILES IDX 8 1 7 2 9 3 10 4 11 5 12 6 13 7 6 8 5 9 4 10 3 11 2 12 17 13
REMARK SMILES IDX 16 14 14 15 15 16 1 17
REMARK H PARENT
REMARK Flexibility Score: inf
ROOT
ATOM      1  C   UNL     1     260.753 -27.880  52.375  1.00  0.00     0.045 C 
ATOM      2  C   UNL     1     261.633 -27.166  53.368  1.00  0.00    -0.033 A 
ATOM      3  C   UNL     1     262.766 -26.482  52.911  1.00  0.00     0.098 A 
ATOM      4  C   UNL     1     263.588 -25.819  53.824  1.00  0.00     0.336 A 
ATOM      5  O   UNL     1     264.608 -25.204  53.418  1.00  0.00    -0.246 OA
ATOM      6  O   UNL     1     263.304 -25.831  55.120  1.00  0.00    -0.422 OA
ATOM      7  C   UNL     1     262.244 -26.459  55.623  1.00  0.00     0.145 A 
ATOM      8  C   UNL     1     261.353 -27.166  54.754  1.00  0.00     0.022 A 
ATOM      9  C   UNL     1     260.233 -27.840  55.299  1.00  0.00     0.024 A 
ATOM     10  C   UNL     1     260.045 -27.791  56.675  1.00  0.00     0.022 A 
ATOM     11  C   UNL     1     259.069 -28.354  57.464  1.00  0.00     0.054 A 
ATOM     12  C   UNL     1     259.408 -27.967  58.755  1.00  0.00     0.102 A 
ATOM     13  O   UNL     1     260.504 -27.231  58.752  1.00  0.00    -0.461 OA
ATOM     14  C   UNL     1     260.897 -27.115  57.506  1.00  0.00     0.140 A 
ATOM     15  C   UNL     1     262.009 -26.423  57.019  1.00  0.00     0.036 A 
ATOM     16  C   UNL     1     262.950 -25.711  57.949  1.00  0.00     0.052 C 
ATOM     17  C   UNL     1     258.660 -28.341  59.991  1.00  0.00     0.087 C 
ENDROOT
TORSDOF 0
ENDMDL
MODEL 8
REMARK VINA RESULT:    -6.494      8.594     10.678
REMARK INTER + INTRA:          -6.494
REMARK INTER:                  -6.494
REMARK INTRA:                   0.000
REMARK UNBOUND:                 0.000
REMARK SMILES Cc1cc2cc3c(C)cc(=O)oc3c(C)c2o1
REMARK SMILES IDX 8 1 7 2 9 3 10 4 11 5 12 6 13 7 6 8 5 9 4 10 3 11 2 12 17 13
REMARK SMILES IDX 16 14 14 15 15 16 1 17
REMARK H PARENT
REMARK Flexibility Score: inf
ROOT
ATOM      1  C   UNL     1     253.444 -28.003  50.877  1.00  0.00     0.045 C 
ATOM      2  C   UNL     1     253.583 -26.587  51.373  1.00  0.00    -0.033 A 
ATOM      3  C   UNL     1     253.982 -26.362  52.697  1.00  0.00     0.098 A 
ATOM      4  C   UNL     1     254.113 -25.054  53.165  1.00  0.00     0.336 A 
ATOM      5  O   UNL     1     254.469 -24.846  54.354  1.00  0.00    -0.246 OA
ATOM      6  O   UNL     1     253.864 -24.023  52.367  1.00  0.00    -0.422 OA
ATOM      7  C   UNL     1     253.483 -24.164  51.100  1.00  0.00     0.145 A 
ATOM      8  C   UNL     1     253.322 -25.473  50.543  1.00  0.00     0.022 A 
ATOM      9  C   UNL     1     252.908 -25.614  49.196  1.00  0.00     0.024 A 
ATOM     10  C   UNL     1     252.666 -24.459  48.461  1.00  0.00     0.022 A 
ATOM     11  C   UNL     1     252.249 -24.300  47.161  1.00  0.00     0.054 A 
ATOM     12  C   UNL     1     252.179 -22.922  46.991  1.00  0.00     0.102 A 
ATOM     13  O   UNL     1     252.522 -22.295  48.101  1.00  0.00    -0.461 OA
ATOM     14  C   UNL     1     252.821 -23.208  48.994  1.00  0.00     0.140 A 
ATOM     15  C   UNL     1     253.239 -23.013  50.313  1.00  0.00     0.036 A 
ATOM     16  C   UNL     1     253.375 -21.632  50.889  1.00  0.00     0.052 C 
ATOM     17  C   UNL     1     251.753 -22.228  45.741  1.00  0.00     0.087 C 
ENDROOT
TORSDOF 0
ENDMDL
MODEL 9
REMARK VINA RESULT:    -6.491      3.846      4.887
REMARK INTER + INTRA:          -6.491
REMARK INTER:                  -6.491
REMARK INTRA:                   0.000
REMARK UNBOUND:                 0.000
REMARK SMILES Cc1cc2cc3c(C)cc(=O)oc3c(C)c2o1
REMARK SMILES IDX 8 1 7 2 9 3 10 4 11 5 12 6 13 7 6 8 5 9 4 10 3 11 2 12 17 13
REMARK SMILES IDX 16 14 14 15 15 16 1 17
REMARK H PARENT
REMARK Flexibility Score: inf
ROOT
ATOM      1  C   UNL     1     266.200 -26.779  59.128  1.00  0.00     0.045 C 
ATOM      2  C   UNL     1     265.205 -27.446  58.214  1.00  0.00    -0.033 A 
ATOM      3  C   UNL     1     265.638 -27.951  56.982  1.00  0.00     0.098 A 
ATOM      4  C   UNL     1     264.723 -28.569  56.129  1.00  0.00     0.336 A 
ATOM      5  O   UNL     1     265.108 -29.023  55.020  1.00  0.00    -0.246 OA
ATOM      6  O   UNL     1     263.447 -28.683  56.476  1.00  0.00    -0.422 OA
ATOM      7  C   UNL     1     262.967 -28.227  57.630  1.00  0.00     0.145 A 
ATOM      8  C   UNL     1     263.840 -27.577  58.560  1.00  0.00     0.022 A 
ATOM      9  C   UNL     1     263.319 -27.087  59.783  1.00  0.00     0.024 A 
ATOM     10  C   UNL     1     261.962 -27.255  60.030  1.00  0.00     0.022 A 
ATOM     11  C   UNL     1     261.197 -26.874  61.108  1.00  0.00     0.054 A 
ATOM     12  C   UNL     1     259.916 -27.306  60.786  1.00  0.00     0.102 A 
ATOM     13  O   UNL     1     259.902 -27.897  59.607  1.00  0.00    -0.461 OA
ATOM     14  C   UNL     1     261.128 -27.877  59.141  1.00  0.00     0.140 A 
ATOM     15  C   UNL     1     261.593 -28.390  57.927  1.00  0.00     0.036 A 
ATOM     16  C   UNL     1     260.657 -29.043  56.950  1.00  0.00     0.052 C 
ATOM     17  C   UNL     1     258.704 -27.114  61.635  1.00  0.00     0.087 C 
ENDROOT
TORSDOF 0
ENDMDL
