MODEL 1
REMARK VINA RESULT:    -5.375      0.000      0.000
REMARK INTER + INTRA:         -12.345
REMARK INTER:                 -10.088
REMARK INTRA:                  -2.256
REMARK UNBOUND:                -2.256
REMARK SMILES O=C([O-])CCCCCCCCCCCCCCC(=O)[O-]
REMARK SMILES IDX 10 1 9 2 8 3 7 4 6 5 5 6 4 7 2 8 1 9 3 10 11 11 12 12 13 13
REMARK SMILES IDX 14 14 15 15 16 16 17 17 18 18 19 19 20 20
REMARK H PARENT
REMARK Flexibility Score: inf
ROOT
ATOM      1  C   UNL     1     102.416  24.331 196.985  1.00  0.00     0.000 C 
ENDROOT
BRANCH   1   2
ATOM      2  C   UNL     1     103.396  25.512 197.127  1.00  0.00     0.000 C 
BRANCH   2   3
ATOM      3  C   UNL     1     104.766  25.313 196.448  1.00  0.00     0.000 C 
BRANCH   3   4
ATOM      4  C   UNL     1     104.717  24.607 195.081  1.00  0.00     0.000 C 
BRANCH   4   5
ATOM      5  C   UNL     1     105.430  23.246 195.087  1.00  0.00     0.000 C 
BRANCH   5   6
ATOM      6  C   UNL     1     104.455  22.115 194.730  1.00  0.00     0.006 C 
BRANCH   6   7
ATOM      7  C   UNL     1     103.432  22.543 193.669  1.00  0.00     0.053 C 
BRANCH   7   8
ATOM      8  C   UNL     1     102.035  22.185 194.070  1.00  0.00     0.041 C 
ATOM      9  O   UNL     1     101.054  22.640 193.424  1.00  0.00    -0.550 OA
ATOM     10  O   UNL     1     101.814  21.375 195.176  1.00  0.00    -0.550 OA
ENDBRANCH   7   8
ENDBRANCH   6   7
ENDBRANCH   5   6
ENDBRANCH   4   5
ENDBRANCH   3   4
ENDBRANCH   2   3
ENDBRANCH   1   2
BRANCH   1  11
ATOM     11  C   UNL     1     102.035  23.637 198.305  1.00  0.00     0.000 C 
BRANCH  11  12
ATOM     12  C   UNL     1     103.136  22.696 198.823  1.00  0.00     0.000 C 
BRANCH  12  13
ATOM     13  C   UNL     1     103.856  23.255 200.062  1.00  0.00     0.000 C 
BRANCH  13  14
ATOM     14  C   UNL     1     105.380  23.058 199.998  1.00  0.00     0.000 C 
BRANCH  14  15
ATOM     15  C   UNL     1     105.854  22.556 198.624  1.00  0.00     0.000 C 
BRANCH  15  16
ATOM     16  C   UNL     1     107.134  21.706 198.713  1.00  0.00     0.006 C 
BRANCH  16  17
ATOM     17  C   UNL     1     107.922  21.708 197.397  1.00  0.00     0.053 C 
BRANCH  17  18
ATOM     18  C   UNL     1     107.660  20.473 196.590  1.00  0.00     0.041 C 
ATOM     19  O   UNL     1     108.166  20.342 195.445  1.00  0.00    -0.550 OA
ATOM     20  O   UNL     1     106.831  19.477 197.093  1.00  0.00    -0.550 OA
ENDBRANCH  17  18
ENDBRANCH  16  17
ENDBRANCH  15  16
ENDBRANCH  14  15
ENDBRANCH  13  14
ENDBRANCH  12  13
ENDBRANCH  11  12
ENDBRANCH   1  11
TORSDOF 15
ENDMDL
MODEL 2
REMARK VINA RESULT:    -5.247      1.185      5.651
REMARK INTER + INTRA:         -12.104
REMARK INTER:                  -9.655
REMARK INTRA:                  -2.449
REMARK UNBOUND:                -2.256
REMARK SMILES O=C([O-])CCCCCCCCCCCCCCC(=O)[O-]
REMARK SMILES IDX 10 1 9 2 8 3 7 4 6 5 5 6 4 7 2 8 1 9 3 10 11 11 12 12 13 13
REMARK SMILES IDX 14 14 15 15 16 16 17 17 18 18 19 19 20 20
REMARK H PARENT
REMARK Flexibility Score: inf
ROOT
ATOM      1  C   UNL     1     103.122  25.113 196.920  1.00  0.00     0.000 C 
ENDROOT
BRANCH   1   2
ATOM      2  C   UNL     1     102.770  24.377 198.229  1.00  0.00     0.000 C 
BRANCH   2   3
ATOM      3  C   UNL     1     103.635  23.137 198.536  1.00  0.00     0.000 C 
BRANCH   3   4
ATOM      4  C   UNL     1     104.523  23.258 199.788  1.00  0.00     0.000 C 
BRANCH   4   5
ATOM      5  C   UNL     1     105.946  22.725 199.563  1.00  0.00     0.000 C 
BRANCH   5   6
ATOM      6  C   UNL     1     106.017  21.871 198.290  1.00  0.00     0.006 C 
BRANCH   6   7
ATOM      7  C   UNL     1     107.416  21.887 197.657  1.00  0.00     0.053 C 
BRANCH   7   8
ATOM      8  C   UNL     1     107.634  20.704 196.766  1.00  0.00     0.041 C 
ATOM      9  O   UNL     1     106.653  20.117 196.239  1.00  0.00    -0.550 OA
ATOM     10  O   UNL     1     108.920  20.230 196.543  1.00  0.00    -0.550 OA
ENDBRANCH   7   8
ENDBRANCH   6   7
ENDBRANCH   5   6
ENDBRANCH   4   5
ENDBRANCH   3   4
ENDBRANCH   2   3
ENDBRANCH   1   2
BRANCH   1  11
ATOM     11  C   UNL     1     104.619  25.127 196.562  1.00  0.00     0.000 C 
BRANCH  11  12
ATOM     12  C   UNL     1     104.882  24.779 195.087  1.00  0.00     0.000 C 
BRANCH  12  13
ATOM     13  C   UNL     1     105.432  23.354 194.906  1.00  0.00     0.000 C 
BRANCH  13  14
ATOM     14  C   UNL     1     104.316  22.302 194.782  1.00  0.00     0.000 C 
BRANCH  14  15
ATOM     15  C   UNL     1     103.436  22.517 193.540  1.00  0.00     0.000 C 
BRANCH  15  16
ATOM     16  C   UNL     1     101.932  22.448 193.860  1.00  0.00     0.006 C 
BRANCH  16  17
ATOM     17  C   UNL     1     101.651  21.670 195.151  1.00  0.00     0.053 C 
BRANCH  17  18
ATOM     18  C   UNL     1     100.691  22.398 196.042  1.00  0.00     0.041 C 
ATOM     19  O   UNL     1     100.184  23.490 195.672  1.00  0.00    -0.550 OA
ATOM     20  O   UNL     1     100.380  21.886 197.296  1.00  0.00    -0.550 OA
ENDBRANCH  17  18
ENDBRANCH  16  17
ENDBRANCH  15  16
ENDBRANCH  14  15
ENDBRANCH  13  14
ENDBRANCH  12  13
ENDBRANCH  11  12
ENDBRANCH   1  11
TORSDOF 15
ENDMDL
MODEL 3
REMARK VINA RESULT:    -5.244      2.217      5.194
REMARK INTER + INTRA:         -12.099
REMARK INTER:                  -9.714
REMARK INTRA:                  -2.385
REMARK UNBOUND:                -2.256
REMARK SMILES O=C([O-])CCCCCCCCCCCCCCC(=O)[O-]
REMARK SMILES IDX 10 1 9 2 8 3 7 4 6 5 5 6 4 7 2 8 1 9 3 10 11 11 12 12 13 13
REMARK SMILES IDX 14 14 15 15 16 16 17 17 18 18 19 19 20 20
REMARK H PARENT
REMARK Flexibility Score: inf
ROOT
ATOM      1  C   UNL     1     104.958  23.038 194.833  1.00  0.00     0.000 C 
ENDROOT
BRANCH   1   2
ATOM      2  C   UNL     1     104.680  24.554 194.798  1.00  0.00     0.000 C 
BRANCH   2   3
ATOM      3  C   UNL     1     104.743  25.264 196.166  1.00  0.00     0.000 C 
BRANCH   3   4
ATOM      4  C   UNL     1     103.497  25.081 197.051  1.00  0.00     0.000 C 
BRANCH   4   5
ATOM      5  C   UNL     1     103.695  24.023 198.147  1.00  0.00     0.000 C 
BRANCH   5   6
ATOM      6  C   UNL     1     105.072  24.169 198.809  1.00  0.00     0.006 C 
BRANCH   6   7
ATOM      7  C   UNL     1     105.407  22.981 199.721  1.00  0.00     0.053 C 
BRANCH   7   8
ATOM      8  C   UNL     1     106.512  22.143 199.156  1.00  0.00     0.041 C 
ATOM      9  O   UNL     1     106.466  21.757 197.958  1.00  0.00    -0.550 OA
ATOM     10  O   UNL     1     107.576  21.760 199.962  1.00  0.00    -0.550 OA
ENDBRANCH   7   8
ENDBRANCH   6   7
ENDBRANCH   5   6
ENDBRANCH   4   5
ENDBRANCH   3   4
ENDBRANCH   2   3
ENDBRANCH   1   2
BRANCH   1  11
ATOM     11  C   UNL     1     104.207  22.213 193.772  1.00  0.00     0.000 C 
BRANCH  11  12
ATOM     12  C   UNL     1     102.868  22.850 193.360  1.00  0.00     0.000 C 
BRANCH  12  13
ATOM     13  C   UNL     1     101.658  22.135 193.984  1.00  0.00     0.000 C 
BRANCH  13  14
ATOM     14  C   UNL     1     101.098  22.882 195.207  1.00  0.00     0.000 C 
BRANCH  14  15
ATOM     15  C   UNL     1     101.012  21.989 196.457  1.00  0.00     0.000 C 
BRANCH  15  16
ATOM     16  C   UNL     1     101.759  20.655 196.285  1.00  0.00     0.006 C 
BRANCH  16  17
ATOM     17  C   UNL     1     103.044  20.600 197.120  1.00  0.00     0.053 C 
BRANCH  17  18
ATOM     18  C   UNL     1     103.727  19.271 197.004  1.00  0.00     0.041 C 
ATOM     19  O   UNL     1     103.157  18.225 197.412  1.00  0.00    -0.550 OA
ATOM     20  O   UNL     1     105.008  19.192 196.470  1.00  0.00    -0.550 OA
ENDBRANCH  17  18
ENDBRANCH  16  17
ENDBRANCH  15  16
ENDBRANCH  14  15
ENDBRANCH  13  14
ENDBRANCH  12  13
ENDBRANCH  11  12
ENDBRANCH   1  11
TORSDOF 15
ENDMDL
MODEL 4
REMARK VINA RESULT:    -5.191      1.380      2.275
REMARK INTER + INTRA:         -11.998
REMARK INTER:                  -9.997
REMARK INTRA:                  -2.001
REMARK UNBOUND:                -2.256
REMARK SMILES O=C([O-])CCCCCCCCCCCCCCC(=O)[O-]
REMARK SMILES IDX 10 1 9 2 8 3 7 4 6 5 5 6 4 7 2 8 1 9 3 10 11 11 12 12 13 13
REMARK SMILES IDX 14 14 15 15 16 16 17 17 18 18 19 19 20 20
REMARK H PARENT
REMARK Flexibility Score: inf
ROOT
ATOM      1  C   UNL     1     104.366  25.354 196.829  1.00  0.00     0.000 C 
ENDROOT
BRANCH   1   2
ATOM      2  C   UNL     1     105.004  24.930 195.491  1.00  0.00     0.000 C 
BRANCH   2   3
ATOM      3  C   UNL     1     104.976  23.415 195.202  1.00  0.00     0.000 C 
BRANCH   3   4
ATOM      4  C   UNL     1     104.524  23.032 193.781  1.00  0.00     0.000 C 
BRANCH   4   5
ATOM      5  C   UNL     1     103.078  22.515 193.735  1.00  0.00     0.000 C 
BRANCH   5   6
ATOM      6  C   UNL     1     102.650  21.960 195.100  1.00  0.00     0.006 C 
BRANCH   6   7
ATOM      7  C   UNL     1     101.241  21.353 195.065  1.00  0.00     0.053 C 
BRANCH   7   8
ATOM      8  C   UNL     1     100.829  20.827 196.405  1.00  0.00     0.041 C 
ATOM      9  O   UNL     1     100.352  21.605 197.272  1.00  0.00    -0.550 OA
ATOM     10  O   UNL     1     101.004  19.483 196.708  1.00  0.00    -0.550 OA
ENDBRANCH   7   8
ENDBRANCH   6   7
ENDBRANCH   5   6
ENDBRANCH   4   5
ENDBRANCH   3   4
ENDBRANCH   2   3
ENDBRANCH   1   2
BRANCH   1  11
ATOM     11  C   UNL     1     102.860  25.065 196.954  1.00  0.00     0.000 C 
BRANCH  11  12
ATOM     12  C   UNL     1     102.507  24.279 198.229  1.00  0.00     0.000 C 
BRANCH  12  13
ATOM     13  C   UNL     1     103.488  23.127 198.502  1.00  0.00     0.000 C 
BRANCH  13  14
ATOM     14  C   UNL     1     104.159  23.238 199.882  1.00  0.00     0.000 C 
BRANCH  14  15
ATOM     15  C   UNL     1     105.680  23.446 199.786  1.00  0.00     0.000 C 
BRANCH  15  16
ATOM     16  C   UNL     1     106.445  22.130 199.559  1.00  0.00     0.006 C 
BRANCH  16  17
ATOM     17  C   UNL     1     106.882  21.960 198.099  1.00  0.00     0.053 C 
BRANCH  17  18
ATOM     18  C   UNL     1     106.876  20.522 197.681  1.00  0.00     0.041 C 
ATOM     19  O   UNL     1     106.611  19.618 198.516  1.00  0.00    -0.550 OA
ATOM     20  O   UNL     1     107.193  20.177 196.372  1.00  0.00    -0.550 OA
ENDBRANCH  17  18
ENDBRANCH  16  17
ENDBRANCH  15  16
ENDBRANCH  14  15
ENDBRANCH  13  14
ENDBRANCH  12  13
ENDBRANCH  11  12
ENDBRANCH   1  11
TORSDOF 15
ENDMDL
MODEL 5
REMARK VINA RESULT:    -5.170      2.439      5.459
REMARK INTER + INTRA:         -11.959
REMARK INTER:                  -9.803
REMARK INTRA:                  -2.156
REMARK UNBOUND:                -2.256
REMARK SMILES O=C([O-])CCCCCCCCCCCCCCC(=O)[O-]
REMARK SMILES IDX 10 1 9 2 8 3 7 4 6 5 5 6 4 7 2 8 1 9 3 10 11 11 12 12 13 13
REMARK SMILES IDX 14 14 15 15 16 16 17 17 18 18 19 19 20 20
REMARK H PARENT
REMARK Flexibility Score: inf
ROOT
ATOM      1  C   UNL     1     104.140  22.566 193.504  1.00  0.00     0.000 C 
ENDROOT
BRANCH   1   2
ATOM      2  C   UNL     1     102.608  22.471 193.659  1.00  0.00     0.000 C 
BRANCH   2   3
ATOM      3  C   UNL     1     102.113  22.139 195.081  1.00  0.00     0.000 C 
BRANCH   3   4
ATOM      4  C   UNL     1     101.202  20.902 195.180  1.00  0.00     0.000 C 
BRANCH   4   5
ATOM      5  C   UNL     1     101.291  20.203 196.545  1.00  0.00     0.000 C 
BRANCH   5   6
ATOM      6  C   UNL     1     102.740  20.170 197.050  1.00  0.00     0.006 C 
BRANCH   6   7
ATOM      7  C   UNL     1     103.294  18.741 197.134  1.00  0.00     0.053 C 
BRANCH   7   8
ATOM      8  C   UNL     1     104.765  18.731 197.412  1.00  0.00     0.041 C 
ATOM      9  O   UNL     1     105.395  17.642 197.453  1.00  0.00    -0.550 OA
ATOM     10  O   UNL     1     105.434  19.923 197.659  1.00  0.00    -0.550 OA
ENDBRANCH   7   8
ENDBRANCH   6   7
ENDBRANCH   5   6
ENDBRANCH   4   5
ENDBRANCH   3   4
ENDBRANCH   2   3
ENDBRANCH   1   2
BRANCH   1  11
ATOM     11  C   UNL     1     104.949  22.089 194.724  1.00  0.00     0.000 C 
BRANCH  11  12
ATOM     12  C   UNL     1     105.635  23.245 195.473  1.00  0.00     0.000 C 
BRANCH  12  13
ATOM     13  C   UNL     1     104.899  24.584 195.292  1.00  0.00     0.000 C 
BRANCH  13  14
ATOM     14  C   UNL     1     104.205  25.054 196.582  1.00  0.00     0.000 C 
BRANCH  14  15
ATOM     15  C   UNL     1     104.767  24.370 197.839  1.00  0.00     0.000 C 
BRANCH  15  16
ATOM     16  C   UNL     1     103.702  23.560 198.599  1.00  0.00     0.006 C 
BRANCH  16  17
ATOM     17  C   UNL     1     102.277  23.932 198.171  1.00  0.00     0.053 C 
BRANCH  17  18
ATOM     18  C   UNL     1     101.248  23.318 199.070  1.00  0.00     0.041 C 
ATOM     19  O   UNL     1     100.131  22.965 198.609  1.00  0.00    -0.550 OA
ATOM     20  O   UNL     1     101.512  23.162 200.425  1.00  0.00    -0.550 OA
ENDBRANCH  17  18
ENDBRANCH  16  17
ENDBRANCH  15  16
ENDBRANCH  14  15
ENDBRANCH  13  14
ENDBRANCH  12  13
ENDBRANCH  11  12
ENDBRANCH   1  11
TORSDOF 15
ENDMDL
MODEL 6
REMARK VINA RESULT:    -5.166      1.752      2.776
REMARK INTER + INTRA:         -11.952
REMARK INTER:                 -10.050
REMARK INTRA:                  -1.902
REMARK UNBOUND:                -2.256
REMARK SMILES O=C([O-])CCCCCCCCCCCCCCC(=O)[O-]
REMARK SMILES IDX 10 1 9 2 8 3 7 4 6 5 5 6 4 7 2 8 1 9 3 10 11 11 12 12 13 13
REMARK SMILES IDX 14 14 15 15 16 16 17 17 18 18 19 19 20 20
REMARK H PARENT
REMARK Flexibility Score: inf
ROOT
ATOM      1  C   UNL     1     101.226  23.998 199.283  1.00  0.00     0.000 C 
ENDROOT
BRANCH   1   2
ATOM      2  C   UNL     1     100.190  23.089 198.592  1.00  0.00     0.000 C 
BRANCH   2   3
ATOM      3  C   UNL     1     100.620  22.529 197.221  1.00  0.00     0.000 C 
BRANCH   3   4
ATOM      4  C   UNL     1     101.576  21.325 197.281  1.00  0.00     0.000 C 
BRANCH   4   5
ATOM      5  C   UNL     1     102.759  21.453 196.309  1.00  0.00     0.000 C 
BRANCH   5   6
ATOM      6  C   UNL     1     103.034  22.924 195.970  1.00  0.00     0.006 C 
BRANCH   6   7
ATOM      7  C   UNL     1     104.423  23.127 195.350  1.00  0.00     0.053 C 
BRANCH   7   8
ATOM      8  C   UNL     1     104.521  22.504 193.993  1.00  0.00     0.041 C 
ATOM      9  O   UNL     1     105.503  21.771 193.702  1.00  0.00    -0.550 OA
ATOM     10  O   UNL     1     103.546  22.760 193.038  1.00  0.00    -0.550 OA
ENDBRANCH   7   8
ENDBRANCH   6   7
ENDBRANCH   5   6
ENDBRANCH   4   5
ENDBRANCH   3   4
ENDBRANCH   2   3
ENDBRANCH   1   2
BRANCH   1  11
ATOM     11  C   UNL     1     101.568  23.612 200.733  1.00  0.00     0.000 C 
BRANCH  11  12
ATOM     12  C   UNL     1     103.033  23.176 200.905  1.00  0.00     0.000 C 
BRANCH  12  13
ATOM     13  C   UNL     1     103.819  23.217 199.583  1.00  0.00     0.000 C 
BRANCH  13  14
ATOM     14  C   UNL     1     105.341  23.242 199.803  1.00  0.00     0.000 C 
BRANCH  14  15
ATOM     15  C   UNL     1     106.106  22.429 198.745  1.00  0.00     0.000 C 
BRANCH  15  16
ATOM     16  C   UNL     1     107.005  21.346 199.366  1.00  0.00     0.006 C 
BRANCH  16  17
ATOM     17  C   UNL     1     106.862  19.996 198.652  1.00  0.00     0.053 C 
BRANCH  17  18
ATOM     18  C   UNL     1     106.904  20.147 197.162  1.00  0.00     0.041 C 
ATOM     19  O   UNL     1     107.935  20.597 196.598  1.00  0.00    -0.550 OA
ATOM     20  O   UNL     1     105.790  19.818 196.398  1.00  0.00    -0.550 OA
ENDBRANCH  17  18
ENDBRANCH  16  17
ENDBRANCH  15  16
ENDBRANCH  14  15
ENDBRANCH  13  14
ENDBRANCH  12  13
ENDBRANCH  11  12
ENDBRANCH   1  11
TORSDOF 15
ENDMDL
MODEL 7
REMARK VINA RESULT:    -5.165      2.475      4.574
REMARK INTER + INTRA:         -11.950
REMARK INTER:                  -9.797
REMARK INTRA:                  -2.153
REMARK UNBOUND:                -2.256
REMARK SMILES O=C([O-])CCCCCCCCCCCCCCC(=O)[O-]
REMARK SMILES IDX 10 1 9 2 8 3 7 4 6 5 5 6 4 7 2 8 1 9 3 10 11 11 12 12 13 13
REMARK SMILES IDX 14 14 15 15 16 16 17 17 18 18 19 19 20 20
REMARK H PARENT
REMARK Flexibility Score: inf
ROOT
ATOM      1  C   UNL     1     104.918  25.569 195.701  1.00  0.00     0.000 C 
ENDROOT
BRANCH   1   2
ATOM      2  C   UNL     1     104.817  25.507 197.239  1.00  0.00     0.000 C 
BRANCH   2   3
ATOM      3  C   UNL     1     105.535  24.310 197.895  1.00  0.00     0.000 C 
BRANCH   3   4
ATOM      4  C   UNL     1     104.622  23.360 198.691  1.00  0.00     0.000 C 
BRANCH   4   5
ATOM      5  C   UNL     1     103.596  22.637 197.806  1.00  0.00     0.000 C 
BRANCH   5   6
ATOM      6  C   UNL     1     102.230  22.558 198.501  1.00  0.00     0.006 C 
BRANCH   6   7
ATOM      7  C   UNL     1     101.608  23.944 198.719  1.00  0.00     0.053 C 
BRANCH   7   8
ATOM      8  C   UNL     1     100.924  24.043 200.047  1.00  0.00     0.041 C 
ATOM      9  O   UNL     1     101.598  24.023 201.110  1.00  0.00    -0.550 OA
ATOM     10  O   UNL     1      99.539  24.123 200.111  1.00  0.00    -0.550 OA
ENDBRANCH   7   8
ENDBRANCH   6   7
ENDBRANCH   5   6
ENDBRANCH   4   5
ENDBRANCH   3   4
ENDBRANCH   2   3
ENDBRANCH   1   2
BRANCH   1  11
ATOM     11  C   UNL     1     105.348  24.256 195.022  1.00  0.00     0.000 C 
BRANCH  11  12
ATOM     12  C   UNL     1     104.245  23.657 194.133  1.00  0.00     0.000 C 
BRANCH  12  13
ATOM     13  C   UNL     1     104.306  22.121 194.072  1.00  0.00     0.000 C 
BRANCH  13  14
ATOM     14  C   UNL     1     105.549  21.609 193.325  1.00  0.00     0.000 C 
BRANCH  14  15
ATOM     15  C   UNL     1     106.571  20.944 194.262  1.00  0.00     0.000 C 
BRANCH  15  16
ATOM     16  C   UNL     1     105.983  20.620 195.646  1.00  0.00     0.006 C 
BRANCH  16  17
ATOM     17  C   UNL     1     106.929  21.022 196.785  1.00  0.00     0.053 C 
BRANCH  17  18
ATOM     18  C   UNL     1     106.626  20.277 198.049  1.00  0.00     0.041 C 
ATOM     19  O   UNL     1     106.027  19.172 198.007  1.00  0.00    -0.550 OA
ATOM     20  O   UNL     1     106.981  20.821 199.278  1.00  0.00    -0.550 OA
ENDBRANCH  17  18
ENDBRANCH  16  17
ENDBRANCH  15  16
ENDBRANCH  14  15
ENDBRANCH  13  14
ENDBRANCH  12  13
ENDBRANCH  11  12
ENDBRANCH   1  11
TORSDOF 15
ENDMDL
MODEL 8
REMARK VINA RESULT:    -5.151      1.377      4.501
REMARK INTER + INTRA:         -11.925
REMARK INTER:                  -9.594
REMARK INTRA:                  -2.331
REMARK UNBOUND:                -2.256
REMARK SMILES O=C([O-])CCCCCCCCCCCCCCC(=O)[O-]
REMARK SMILES IDX 10 1 9 2 8 3 7 4 6 5 5 6 4 7 2 8 1 9 3 10 11 11 12 12 13 13
REMARK SMILES IDX 14 14 15 15 16 16 17 17 18 18 19 19 20 20
REMARK H PARENT
REMARK Flexibility Score: inf
ROOT
ATOM      1  C   UNL     1     105.448  23.764 198.138  1.00  0.00     0.000 C 
ENDROOT
BRANCH   1   2
ATOM      2  C   UNL     1     104.967  25.196 197.825  1.00  0.00     0.000 C 
BRANCH   2   3
ATOM      3  C   UNL     1     104.143  25.342 196.530  1.00  0.00     0.000 C 
BRANCH   3   4
ATOM      4  C   UNL     1     104.916  25.053 195.231  1.00  0.00     0.000 C 
BRANCH   4   5
ATOM      5  C   UNL     1     104.455  23.762 194.537  1.00  0.00     0.000 C 
BRANCH   5   6
ATOM      6  C   UNL     1     105.556  22.694 194.577  1.00  0.00     0.006 C 
BRANCH   6   7
ATOM      7  C   UNL     1     105.100  21.415 195.292  1.00  0.00     0.053 C 
BRANCH   7   8
ATOM      8  C   UNL     1     106.251  20.683 195.908  1.00  0.00     0.041 C 
ATOM      9  O   UNL     1     107.305  20.486 195.247  1.00  0.00    -0.550 OA
ATOM     10  O   UNL     1     106.148  20.188 197.202  1.00  0.00    -0.550 OA
ENDBRANCH   7   8
ENDBRANCH   6   7
ENDBRANCH   5   6
ENDBRANCH   4   5
ENDBRANCH   3   4
ENDBRANCH   2   3
ENDBRANCH   1   2
BRANCH   1  11
ATOM     11  C   UNL     1     104.376  22.832 198.732  1.00  0.00     0.000 C 
BRANCH  11  12
ATOM     12  C   UNL     1     103.976  23.221 200.165  1.00  0.00     0.000 C 
BRANCH  12  13
ATOM     13  C   UNL     1     102.451  23.236 200.368  1.00  0.00     0.000 C 
BRANCH  13  14
ATOM     14  C   UNL     1     101.709  23.924 199.210  1.00  0.00     0.000 C 
BRANCH  14  15
ATOM     15  C   UNL     1     100.492  23.117 198.725  1.00  0.00     0.000 C 
BRANCH  15  16
ATOM     16  C   UNL     1     100.858  22.086 197.643  1.00  0.00     0.006 C 
BRANCH  16  17
ATOM     17  C   UNL     1     101.453  22.746 196.393  1.00  0.00     0.053 C 
BRANCH  17  18
ATOM     18  C   UNL     1     101.233  21.914 195.166  1.00  0.00     0.041 C 
ATOM     19  O   UNL     1     101.119  20.664 195.258  1.00  0.00    -0.550 OA
ATOM     20  O   UNL     1     101.183  22.519 193.916  1.00  0.00    -0.550 OA
ENDBRANCH  17  18
ENDBRANCH  16  17
ENDBRANCH  15  16
ENDBRANCH  14  15
ENDBRANCH  13  14
ENDBRANCH  12  13
ENDBRANCH  11  12
ENDBRANCH   1  11
TORSDOF 15
ENDMDL
MODEL 9
REMARK VINA RESULT:    -5.093      2.198      3.932
REMARK INTER + INTRA:         -11.814
REMARK INTER:                  -9.378
REMARK INTRA:                  -2.437
REMARK UNBOUND:                -2.256
REMARK SMILES O=C([O-])CCCCCCCCCCCCCCC(=O)[O-]
REMARK SMILES IDX 10 1 9 2 8 3 7 4 6 5 5 6 4 7 2 8 1 9 3 10 11 11 12 12 13 13
REMARK SMILES IDX 14 14 15 15 16 16 17 17 18 18 19 19 20 20
REMARK H PARENT
REMARK Flexibility Score: inf
ROOT
ATOM      1  C   UNL     1     104.963  23.015 194.483  1.00  0.00     0.000 C 
ENDROOT
BRANCH   1   2
ATOM      2  C   UNL     1     103.664  22.609 193.757  1.00  0.00     0.000 C 
BRANCH   2   3
ATOM      3  C   UNL     1     102.441  22.396 194.672  1.00  0.00     0.000 C 
BRANCH   3   4
ATOM      4  C   UNL     1     102.629  21.337 195.773  1.00  0.00     0.000 C 
BRANCH   4   5
ATOM      5  C   UNL     1     102.380  21.892 197.183  1.00  0.00     0.000 C 
BRANCH   5   6
ATOM      6  C   UNL     1     101.983  23.374 197.127  1.00  0.00     0.006 C 
BRANCH   6   7
ATOM      7  C   UNL     1     102.109  24.061 198.493  1.00  0.00     0.053 C 
BRANCH   7   8
ATOM      8  C   UNL     1     101.001  23.663 199.418  1.00  0.00     0.041 C 
ATOM      9  O   UNL     1     101.188  23.649 200.664  1.00  0.00    -0.550 OA
ATOM     10  O   UNL     1      99.771  23.274 198.904  1.00  0.00    -0.550 OA
ENDBRANCH   7   8
ENDBRANCH   6   7
ENDBRANCH   5   6
ENDBRANCH   4   5
ENDBRANCH   3   4
ENDBRANCH   2   3
ENDBRANCH   1   2
BRANCH   1  11
ATOM     11  C   UNL     1     104.973  24.448 195.045  1.00  0.00     0.000 C 
BRANCH  11  12
ATOM     12  C   UNL     1     105.502  24.517 196.489  1.00  0.00     0.000 C 
BRANCH  12  13
ATOM     13  C   UNL     1     105.925  23.141 197.029  1.00  0.00     0.000 C 
BRANCH  13  14
ATOM     14  C   UNL     1     105.631  22.980 198.530  1.00  0.00     0.000 C 
BRANCH  14  15
ATOM     15  C   UNL     1     106.524  21.921 199.198  1.00  0.00     0.000 C 
BRANCH  15  16
ATOM     16  C   UNL     1     107.134  20.936 198.185  1.00  0.00     0.006 C 
BRANCH  16  17
ATOM     17  C   UNL     1     106.483  19.549 198.264  1.00  0.00     0.053 C 
BRANCH  17  18
ATOM     18  C   UNL     1     105.532  19.315 197.131  1.00  0.00     0.041 C 
ATOM     19  O   UNL     1     105.735  19.852 196.010  1.00  0.00    -0.550 OA
ATOM     20  O   UNL     1     104.403  18.528 197.322  1.00  0.00    -0.550 OA
ENDBRANCH  17  18
ENDBRANCH  16  17
ENDBRANCH  15  16
ENDBRANCH  14  15
ENDBRANCH  13  14
ENDBRANCH  12  13
ENDBRANCH  11  12
ENDBRANCH   1  11
TORSDOF 15
ENDMDL
