MODEL 1
REMARK VINA RESULT:     0.311      0.000      0.000
REMARK INTER + INTRA:           0.332
REMARK INTER:                   0.348
REMARK INTRA:                  -0.015
REMARK UNBOUND:                -0.015
REMARK SMILES CCCC(=O)[O-]
REMARK SMILES IDX 3 1 4 2 5 3 6 4 2 5 1 6
REMARK H PARENT
REMARK Flexibility Score: inf
ROOT
ATOM      1  C   UNL     1       7.959  12.964  15.997  1.00  0.00     0.052 C 
ENDROOT
BRANCH   1   2
ATOM      2  C   UNL     1       8.962  12.017  15.418  1.00  0.00     0.041 C 
ATOM      3  O   UNL     1       9.746  11.385  16.173  1.00  0.00    -0.550 OA
ATOM      4  O   UNL     1       8.999  11.796  14.047  1.00  0.00    -0.550 OA
ENDBRANCH   1   2
BRANCH   1   5
ATOM      5  C   UNL     1       8.257  13.221  17.476  1.00  0.00     0.003 C 
ATOM      6  C   UNL     1       7.875  14.643  17.877  1.00  0.00     0.004 C 
ENDBRANCH   1   5
TORSDOF 2
ENDMDL
MODEL 2
REMARK VINA RESULT:     1.237      1.989      3.319
REMARK INTER + INTRA:           1.366
REMARK INTER:                   1.375
REMARK INTRA:                  -0.009
REMARK UNBOUND:                -0.015
REMARK SMILES CCCC(=O)[O-]
REMARK SMILES IDX 3 1 4 2 5 3 6 4 2 5 1 6
REMARK H PARENT
REMARK Flexibility Score: inf
ROOT
ATOM      1  C   UNL     1       8.031  12.794  15.756  1.00  0.00     0.052 C 
ENDROOT
BRANCH   1   2
ATOM      2  C   UNL     1       8.335  13.305  17.128  1.00  0.00     0.041 C 
ATOM      3  O   UNL     1       9.046  12.626  17.914  1.00  0.00    -0.550 OA
ATOM      4  O   UNL     1       7.875  14.556  17.522  1.00  0.00    -0.550 OA
ENDBRANCH   1   2
BRANCH   1   5
ATOM      5  C   UNL     1       9.219  12.003  15.204  1.00  0.00     0.003 C 
ATOM      6  C   UNL     1       9.000  11.629  13.741  1.00  0.00     0.004 C 
ENDBRANCH   1   5
TORSDOF 2
ENDMDL
MODEL 3
REMARK VINA RESULT:     1.568      5.494      5.803
REMARK INTER + INTRA:           1.736
REMARK INTER:                   1.742
REMARK INTRA:                  -0.007
REMARK UNBOUND:                -0.015
REMARK SMILES CCCC(=O)[O-]
REMARK SMILES IDX 3 1 4 2 5 3 6 4 2 5 1 6
REMARK H PARENT
REMARK Flexibility Score: inf
ROOT
ATOM      1  C   UNL     1      13.771  14.070  16.703  1.00  0.00     0.052 C 
ENDROOT
BRANCH   1   2
ATOM      2  C   UNL     1      13.633  12.645  17.137  1.00  0.00     0.041 C 
ATOM      3  O   UNL     1      12.664  12.294  17.861  1.00  0.00    -0.550 OA
ATOM      4  O   UNL     1      14.547  11.694  16.703  1.00  0.00    -0.550 OA
ENDBRANCH   1   2
BRANCH   1   5
ATOM      5  C   UNL     1      14.787  14.802  17.584  1.00  0.00     0.003 C 
ATOM      6  C   UNL     1      14.466  16.291  17.674  1.00  0.00     0.004 C 
ENDBRANCH   1   5
TORSDOF 2
ENDMDL
MODEL 4
REMARK VINA RESULT:     1.866      2.282      3.065
REMARK INTER + INTRA:           2.069
REMARK INTER:                   2.074
REMARK INTRA:                  -0.005
REMARK UNBOUND:                -0.015
REMARK SMILES CCCC(=O)[O-]
REMARK SMILES IDX 3 1 4 2 5 3 6 4 2 5 1 6
REMARK H PARENT
REMARK Flexibility Score: inf
ROOT
ATOM      1  C   UNL     1      10.170  11.769  16.370  1.00  0.00     0.052 C 
ENDROOT
BRANCH   1   2
ATOM      2  C   UNL     1       8.987  12.303  15.626  1.00  0.00     0.041 C 
ATOM      3  O   UNL     1       8.848  12.059  14.399  1.00  0.00    -0.550 OA
ATOM      4  O   UNL     1       8.013  13.030  16.298  1.00  0.00    -0.550 OA
ENDBRANCH   1   2
BRANCH   1   5
ATOM      5  C   UNL     1      11.287  12.814  16.421  1.00  0.00     0.003 C 
ATOM      6  C   UNL     1      12.496  12.291  17.190  1.00  0.00     0.004 C 
ENDBRANCH   1   5
TORSDOF 2
ENDMDL
MODEL 5
REMARK VINA RESULT:     1.984      6.038      6.616
REMARK INTER + INTRA:           2.201
REMARK INTER:                   2.211
REMARK INTRA:                  -0.010
REMARK UNBOUND:                -0.015
REMARK SMILES CCCC(=O)[O-]
REMARK SMILES IDX 3 1 4 2 5 3 6 4 2 5 1 6
REMARK H PARENT
REMARK Flexibility Score: inf
ROOT
ATOM      1  C   UNL     1      14.592  14.188  17.216  1.00  0.00     0.052 C 
ENDROOT
BRANCH   1   2
ATOM      2  C   UNL     1      14.205  15.633  17.210  1.00  0.00     0.041 C 
ATOM      3  O   UNL     1      13.375  16.063  16.366  1.00  0.00    -0.550 OA
ATOM      4  O   UNL     1      14.723  16.496  18.167  1.00  0.00    -0.550 OA
ENDBRANCH   1   2
BRANCH   1   5
ATOM      5  C   UNL     1      13.401  13.313  16.817  1.00  0.00     0.003 C 
ATOM      6  C   UNL     1      13.429  11.976  17.552  1.00  0.00     0.004 C 
ENDBRANCH   1   5
TORSDOF 2
ENDMDL
MODEL 6
REMARK VINA RESULT:     1.992      1.815      2.802
REMARK INTER + INTRA:           2.209
REMARK INTER:                   1.977
REMARK INTRA:                   0.232
REMARK UNBOUND:                -0.015
REMARK SMILES CCCC(=O)[O-]
REMARK SMILES IDX 3 1 4 2 5 3 6 4 2 5 1 6
REMARK H PARENT
REMARK Flexibility Score: inf
ROOT
ATOM      1  C   UNL     1       8.470  12.794  16.038  1.00  0.00     0.052 C 
ENDROOT
BRANCH   1   2
ATOM      2  C   UNL     1       9.673  11.980  16.394  1.00  0.00     0.041 C 
ATOM      3  O   UNL     1       9.556  10.752  16.644  1.00  0.00    -0.550 OA
ATOM      4  O   UNL     1      10.932  12.567  16.404  1.00  0.00    -0.550 OA
ENDBRANCH   1   2
BRANCH   1   5
ATOM      5  C   UNL     1       7.901  12.346  14.689  1.00  0.00     0.003 C 
ATOM      6  C   UNL     1       8.998  11.787  13.787  1.00  0.00     0.004 C 
ENDBRANCH   1   5
TORSDOF 2
ENDMDL
MODEL 7
REMARK VINA RESULT:     2.691      3.882      4.589
REMARK INTER + INTRA:           2.991
REMARK INTER:                   2.996
REMARK INTRA:                  -0.006
REMARK UNBOUND:                -0.015
REMARK SMILES CCCC(=O)[O-]
REMARK SMILES IDX 3 1 4 2 5 3 6 4 2 5 1 6
REMARK H PARENT
REMARK Flexibility Score: inf
ROOT
ATOM      1  C   UNL     1      12.089  12.270  17.388  1.00  0.00     0.052 C 
ENDROOT
BRANCH   1   2
ATOM      2  C   UNL     1      13.487  12.648  17.013  1.00  0.00     0.041 C 
ATOM      3  O   UNL     1      13.827  13.860  16.974  1.00  0.00    -0.550 OA
ATOM      4  O   UNL     1      14.429  11.661  16.755  1.00  0.00    -0.550 OA
ENDBRANCH   1   2
BRANCH   1   5
ATOM      5  C   UNL     1      11.105  12.717  16.304  1.00  0.00     0.003 C 
ATOM      6  C   UNL     1       9.810  11.913  16.371  1.00  0.00     0.004 C 
ENDBRANCH   1   5
TORSDOF 2
ENDMDL
MODEL 8
REMARK VINA RESULT:     2.969      5.728      6.383
REMARK INTER + INTRA:           3.301
REMARK INTER:                   3.120
REMARK INTRA:                   0.181
REMARK UNBOUND:                -0.015
REMARK SMILES CCCC(=O)[O-]
REMARK SMILES IDX 3 1 4 2 5 3 6 4 2 5 1 6
REMARK H PARENT
REMARK Flexibility Score: inf
ROOT
ATOM      1  C   UNL     1      13.258  13.085  16.988  1.00  0.00     0.052 C 
ENDROOT
BRANCH   1   2
ATOM      2  C   UNL     1      14.015  14.375  17.020  1.00  0.00     0.041 C 
ATOM      3  O   UNL     1      15.181  14.414  17.491  1.00  0.00    -0.550 OA
ATOM      4  O   UNL     1      13.449  15.525  16.485  1.00  0.00    -0.550 OA
ENDBRANCH   1   2
BRANCH   1   5
ATOM      5  C   UNL     1      14.182  11.914  17.333  1.00  0.00     0.003 C 
ATOM      6  C   UNL     1      15.127  11.598  16.177  1.00  0.00     0.004 C 
ENDBRANCH   1   5
TORSDOF 2
ENDMDL
MODEL 9
REMARK VINA RESULT:     3.266     19.752     20.281
REMARK INTER + INTRA:           3.632
REMARK INTER:                   3.658
REMARK INTRA:                  -0.026
REMARK UNBOUND:                -0.015
REMARK SMILES CCCC(=O)[O-]
REMARK SMILES IDX 3 1 4 2 5 3 6 4 2 5 1 6
REMARK H PARENT
REMARK Flexibility Score: inf
ROOT
ATOM      1  C   UNL     1      25.262  19.860  24.006  1.00  0.00     0.052 C 
ENDROOT
BRANCH   1   2
ATOM      2  C   UNL     1      25.876  19.443  22.708  1.00  0.00     0.041 C 
ATOM      3  O   UNL     1      26.794  20.132  22.191  1.00  0.00    -0.550 OA
ATOM      4  O   UNL     1      25.469  18.266  22.093  1.00  0.00    -0.550 OA
ENDBRANCH   1   2
BRANCH   1   5
ATOM      5  C   UNL     1      26.272  20.642  24.850  1.00  0.00     0.003 C 
ATOM      6  C   UNL     1      26.630  19.883  26.124  1.00  0.00     0.004 C 
ENDBRANCH   1   5
TORSDOF 2
ENDMDL
