MODEL 1
REMARK VINA RESULT:    -5.404      0.000      0.000
REMARK INTER + INTRA:          -8.698
REMARK INTER:                  -7.932
REMARK INTRA:                  -0.767
REMARK UNBOUND:                -0.767
REMARK SMILES O=C([O-])CCCCCCCC(=O)[O-]
REMARK SMILES IDX 7 1 6 2 5 3 4 4 2 5 1 6 3 7 8 8 9 9 10 10 11 11 12 12 13 13
REMARK H PARENT
REMARK Flexibility Score: inf
ROOT
ATOM      1  C   UNL     1     -23.515  37.304   8.207  1.00  0.00     0.000 C 
ENDROOT
BRANCH   1   2
ATOM      2  C   UNL     1     -22.393  37.257   9.255  1.00  0.00     0.000 C 
BRANCH   2   3
ATOM      3  C   UNL     1     -21.588  35.954   9.138  1.00  0.00     0.006 C 
BRANCH   3   4
ATOM      4  C   UNL     1     -20.100  36.211   8.867  1.00  0.00     0.053 C 
BRANCH   4   5
ATOM      5  C   UNL     1     -19.787  36.173   7.402  1.00  0.00     0.041 C 
ATOM      6  O   UNL     1     -18.780  36.783   6.954  1.00  0.00    -0.550 OA
ATOM      7  O   UNL     1     -20.625  35.494   6.528  1.00  0.00    -0.550 OA
ENDBRANCH   4   5
ENDBRANCH   3   4
ENDBRANCH   2   3
ENDBRANCH   1   2
BRANCH   1   8
ATOM      8  C   UNL     1     -23.069  37.967   6.894  1.00  0.00     0.000 C 
BRANCH   8   9
ATOM      9  C   UNL     1     -22.195  39.211   7.125  1.00  0.00     0.006 C 
BRANCH   9  10
ATOM     10  C   UNL     1     -21.096  39.353   6.063  1.00  0.00     0.053 C 
BRANCH  10  11
ATOM     11  C   UNL     1     -21.411  40.439   5.080  1.00  0.00     0.041 C 
ATOM     12  O   UNL     1     -22.594  40.609   4.684  1.00  0.00    -0.550 OA
ATOM     13  O   UNL     1     -20.405  41.283   4.628  1.00  0.00    -0.550 OA
ENDBRANCH  10  11
ENDBRANCH   9  10
ENDBRANCH   8   9
ENDBRANCH   1   8
TORSDOF 8
ENDMDL
MODEL 2
REMARK VINA RESULT:    -5.338      0.792      4.772
REMARK INTER + INTRA:          -8.601
REMARK INTER:                  -7.900
REMARK INTRA:                  -0.701
REMARK UNBOUND:                -0.767
REMARK SMILES O=C([O-])CCCCCCCC(=O)[O-]
REMARK SMILES IDX 7 1 6 2 5 3 4 4 2 5 1 6 3 7 8 8 9 9 10 10 11 11 12 12 13 13
REMARK H PARENT
REMARK Flexibility Score: inf
ROOT
ATOM      1  C   UNL     1     -23.151  37.692   7.431  1.00  0.00     0.000 C 
ENDROOT
BRANCH   1   2
ATOM      2  C   UNL     1     -22.689  38.330   6.113  1.00  0.00     0.000 C 
BRANCH   2   3
ATOM      3  C   UNL     1     -21.723  39.495   6.375  1.00  0.00     0.006 C 
BRANCH   3   4
ATOM      4  C   UNL     1     -20.564  39.527   5.371  1.00  0.00     0.053 C 
BRANCH   4   5
ATOM      5  C   UNL     1     -20.596  40.763   4.523  1.00  0.00     0.041 C 
ATOM      6  O   UNL     1     -21.495  40.909   3.652  1.00  0.00    -0.550 OA
ATOM      7  O   UNL     1     -19.616  41.735   4.671  1.00  0.00    -0.550 OA
ENDBRANCH   4   5
ENDBRANCH   3   4
ENDBRANCH   2   3
ENDBRANCH   1   2
BRANCH   1   8
ATOM      8  C   UNL     1     -22.090  37.793   8.540  1.00  0.00     0.000 C 
BRANCH   8   9
ATOM      9  C   UNL     1     -21.661  36.415   9.074  1.00  0.00     0.006 C 
BRANCH   9  10
ATOM     10  C   UNL     1     -20.184  36.115   8.779  1.00  0.00     0.053 C 
BRANCH  10  11
ATOM     11  C   UNL     1     -19.903  36.108   7.308  1.00  0.00     0.041 C 
ATOM     12  O   UNL     1     -18.950  36.788   6.843  1.00  0.00    -0.550 OA
ATOM     13  O   UNL     1     -20.671  35.325   6.455  1.00  0.00    -0.550 OA
ENDBRANCH  10  11
ENDBRANCH   9  10
ENDBRANCH   8   9
ENDBRANCH   1   8
TORSDOF 8
ENDMDL
MODEL 3
REMARK VINA RESULT:    -5.290      1.030      4.839
REMARK INTER + INTRA:          -8.531
REMARK INTER:                  -7.814
REMARK INTRA:                  -0.717
REMARK UNBOUND:                -0.767
REMARK SMILES O=C([O-])CCCCCCCC(=O)[O-]
REMARK SMILES IDX 7 1 6 2 5 3 4 4 2 5 1 6 3 7 8 8 9 9 10 10 11 11 12 12 13 13
REMARK H PARENT
REMARK Flexibility Score: inf
ROOT
ATOM      1  C   UNL     1     -22.318  38.967   7.098  1.00  0.00     0.000 C 
ENDROOT
BRANCH   1   2
ATOM      2  C   UNL     1     -22.565  38.441   5.677  1.00  0.00     0.000 C 
BRANCH   2   3
ATOM      3  C   UNL     1     -21.313  38.612   4.803  1.00  0.00     0.006 C 
BRANCH   3   4
ATOM      4  C   UNL     1     -20.399  39.736   5.310  1.00  0.00     0.053 C 
BRANCH   4   5
ATOM      5  C   UNL     1     -20.490  40.958   4.447  1.00  0.00     0.041 C 
ATOM      6  O   UNL     1     -21.423  41.073   3.609  1.00  0.00    -0.550 OA
ATOM      7  O   UNL     1     -19.527  41.953   4.546  1.00  0.00    -0.550 OA
ENDBRANCH   4   5
ENDBRANCH   3   4
ENDBRANCH   2   3
ENDBRANCH   1   2
BRANCH   1   8
ATOM      8  C   UNL     1     -22.784  37.982   8.182  1.00  0.00     0.000 C 
BRANCH   8   9
ATOM      9  C   UNL     1     -21.609  37.331   8.933  1.00  0.00     0.006 C 
BRANCH   9  10
ATOM     10  C   UNL     1     -21.354  35.889   8.471  1.00  0.00     0.053 C 
BRANCH  10  11
ATOM     11  C   UNL     1     -20.507  35.845   7.236  1.00  0.00     0.041 C 
ATOM     12  O   UNL     1     -20.916  35.239   6.210  1.00  0.00    -0.550 OA
ATOM     13  O   UNL     1     -19.283  36.500   7.206  1.00  0.00    -0.550 OA
ENDBRANCH  10  11
ENDBRANCH   9  10
ENDBRANCH   8   9
ENDBRANCH   1   8
TORSDOF 8
ENDMDL
MODEL 4
REMARK VINA RESULT:    -5.271      1.300      1.943
REMARK INTER + INTRA:          -8.503
REMARK INTER:                  -7.832
REMARK INTRA:                  -0.670
REMARK UNBOUND:                -0.767
REMARK SMILES O=C([O-])CCCCCCCC(=O)[O-]
REMARK SMILES IDX 7 1 6 2 5 3 4 4 2 5 1 6 3 7 8 8 9 9 10 10 11 11 12 12 13 13
REMARK H PARENT
REMARK Flexibility Score: inf
ROOT
ATOM      1  C   UNL     1     -22.274  39.105   6.971  1.00  0.00     0.000 C 
ENDROOT
BRANCH   1   2
ATOM      2  C   UNL     1     -22.806  38.142   8.042  1.00  0.00     0.000 C 
BRANCH   2   3
ATOM      3  C   UNL     1     -23.060  36.748   7.450  1.00  0.00     0.006 C 
BRANCH   3   4
ATOM      4  C   UNL     1     -22.064  35.704   7.972  1.00  0.00     0.053 C 
BRANCH   4   5
ATOM      5  C   UNL     1     -20.750  35.781   7.255  1.00  0.00     0.041 C 
ATOM      6  O   UNL     1     -20.681  35.506   6.028  1.00  0.00    -0.550 OA
ATOM      7  O   UNL     1     -19.597  36.124   7.949  1.00  0.00    -0.550 OA
ENDBRANCH   4   5
ENDBRANCH   3   4
ENDBRANCH   2   3
ENDBRANCH   1   2
BRANCH   1   8
ATOM      8  C   UNL     1     -22.467  38.567   5.544  1.00  0.00     0.000 C 
BRANCH   8   9
ATOM      9  C   UNL     1     -21.227  38.779   4.659  1.00  0.00     0.006 C 
BRANCH   9  10
ATOM     10  C   UNL     1     -20.300  39.871   5.212  1.00  0.00     0.053 C 
BRANCH  10  11
ATOM     11  C   UNL     1     -20.298  41.090   4.340  1.00  0.00     0.041 C 
ATOM     12  O   UNL     1     -21.240  41.288   3.528  1.00  0.00    -0.550 OA
ATOM     13  O   UNL     1     -19.275  42.023   4.449  1.00  0.00    -0.550 OA
ENDBRANCH  10  11
ENDBRANCH   9  10
ENDBRANCH   8   9
ENDBRANCH   1   8
TORSDOF 8
ENDMDL
MODEL 5
REMARK VINA RESULT:    -5.252      1.964      2.772
REMARK INTER + INTRA:          -8.475
REMARK INTER:                  -7.729
REMARK INTRA:                  -0.746
REMARK UNBOUND:                -0.767
REMARK SMILES O=C([O-])CCCCCCCC(=O)[O-]
REMARK SMILES IDX 7 1 6 2 5 3 4 4 2 5 1 6 3 7 8 8 9 9 10 10 11 11 12 12 13 13
REMARK H PARENT
REMARK Flexibility Score: inf
ROOT
ATOM      1  C   UNL     1     -19.503  36.528   7.123  1.00  0.00     0.000 C 
ENDROOT
BRANCH   1   2
ATOM      2  C   UNL     1     -19.753  36.183   8.599  1.00  0.00     0.000 C 
BRANCH   2   3
ATOM      3  C   UNL     1     -21.206  35.737   8.819  1.00  0.00     0.006 C 
BRANCH   3   4
ATOM      4  C   UNL     1     -22.001  36.743   9.662  1.00  0.00     0.053 C 
BRANCH   4   5
ATOM      5  C   UNL     1     -22.713  37.746   8.806  1.00  0.00     0.041 C 
ATOM      6  O   UNL     1     -22.168  38.849   8.536  1.00  0.00    -0.550 OA
ATOM      7  O   UNL     1     -23.992  37.477   8.334  1.00  0.00    -0.550 OA
ENDBRANCH   4   5
ENDBRANCH   3   4
ENDBRANCH   2   3
ENDBRANCH   1   2
BRANCH   1   8
ATOM      8  C   UNL     1     -20.711  36.207   6.228  1.00  0.00     0.000 C 
BRANCH   8   9
ATOM      9  C   UNL     1     -21.253  37.448   5.498  1.00  0.00     0.006 C 
BRANCH   9  10
ATOM     10  C   UNL     1     -20.276  38.631   5.564  1.00  0.00     0.053 C 
BRANCH  10  11
ATOM     11  C   UNL     1     -20.960  39.931   5.271  1.00  0.00     0.041 C 
ATOM     12  O   UNL     1     -22.205  40.042   5.430  1.00  0.00    -0.550 OA
ATOM     13  O   UNL     1     -20.219  41.030   4.855  1.00  0.00    -0.550 OA
ENDBRANCH  10  11
ENDBRANCH   9  10
ENDBRANCH   8   9
ENDBRANCH   1   8
TORSDOF 8
ENDMDL
MODEL 6
REMARK VINA RESULT:    -5.222      1.959      4.634
REMARK INTER + INTRA:          -8.430
REMARK INTER:                  -7.753
REMARK INTRA:                  -0.677
REMARK UNBOUND:                -0.767
REMARK SMILES O=C([O-])CCCCCCCC(=O)[O-]
REMARK SMILES IDX 7 1 6 2 5 3 4 4 2 5 1 6 3 7 8 8 9 9 10 10 11 11 12 12 13 13
REMARK H PARENT
REMARK Flexibility Score: inf
ROOT
ATOM      1  C   UNL     1     -19.654  36.626   6.663  1.00  0.00     0.000 C 
ENDROOT
BRANCH   1   2
ATOM      2  C   UNL     1     -21.013  36.534   5.953  1.00  0.00     0.000 C 
BRANCH   2   3
ATOM      3  C   UNL     1     -21.322  37.830   5.190  1.00  0.00     0.006 C 
BRANCH   3   4
ATOM      4  C   UNL     1     -20.269  38.918   5.440  1.00  0.00     0.053 C 
BRANCH   4   5
ATOM      5  C   UNL     1     -20.807  40.289   5.161  1.00  0.00     0.041 C 
ATOM      6  O   UNL     1     -22.036  40.526   5.299  1.00  0.00    -0.550 OA
ATOM      7  O   UNL     1     -19.958  41.294   4.718  1.00  0.00    -0.550 OA
ENDBRANCH   4   5
ENDBRANCH   3   4
ENDBRANCH   2   3
ENDBRANCH   1   2
BRANCH   1   8
ATOM      8  C   UNL     1     -19.733  36.228   8.146  1.00  0.00     0.000 C 
BRANCH   8   9
ATOM      9  C   UNL     1     -21.167  35.896   8.593  1.00  0.00     0.006 C 
BRANCH   9  10
ATOM     10  C   UNL     1     -21.769  37.000   9.474  1.00  0.00     0.053 C 
BRANCH  10  11
ATOM     11  C   UNL     1     -22.575  37.974   8.670  1.00  0.00     0.041 C 
ATOM     12  O   UNL     1     -22.090  39.095   8.363  1.00  0.00    -0.550 OA
ATOM     13  O   UNL     1     -23.847  37.631   8.232  1.00  0.00    -0.550 OA
ENDBRANCH  10  11
ENDBRANCH   9  10
ENDBRANCH   8   9
ENDBRANCH   1   8
TORSDOF 8
ENDMDL
MODEL 7
REMARK VINA RESULT:    -5.211      1.853      5.106
REMARK INTER + INTRA:          -8.414
REMARK INTER:                  -7.709
REMARK INTRA:                  -0.705
REMARK UNBOUND:                -0.767
REMARK SMILES O=C([O-])CCCCCCCC(=O)[O-]
REMARK SMILES IDX 7 1 6 2 5 3 4 4 2 5 1 6 3 7 8 8 9 9 10 10 11 11 12 12 13 13
REMARK H PARENT
REMARK Flexibility Score: inf
ROOT
ATOM      1  C   UNL     1     -21.984  37.400   5.241  1.00  0.00     0.000 C 
ENDROOT
BRANCH   1   2
ATOM      2  C   UNL     1     -22.608  38.687   5.801  1.00  0.00     0.000 C 
BRANCH   2   3
ATOM      3  C   UNL     1     -21.521  39.663   6.275  1.00  0.00     0.006 C 
BRANCH   3   4
ATOM      4  C   UNL     1     -20.357  39.763   5.281  1.00  0.00     0.053 C 
BRANCH   4   5
ATOM      5  C   UNL     1     -20.475  40.974   4.405  1.00  0.00     0.041 C 
ATOM      6  O   UNL     1     -21.422  41.069   3.580  1.00  0.00    -0.550 OA
ATOM      7  O   UNL     1     -19.523  41.982   4.478  1.00  0.00    -0.550 OA
ENDBRANCH   4   5
ENDBRANCH   3   4
ENDBRANCH   2   3
ENDBRANCH   1   2
BRANCH   1   8
ATOM      8  C   UNL     1     -22.139  36.204   6.194  1.00  0.00     0.000 C 
BRANCH   8   9
ATOM      9  C   UNL     1     -20.788  35.583   6.588  1.00  0.00     0.006 C 
BRANCH   9  10
ATOM     10  C   UNL     1     -20.160  36.284   7.801  1.00  0.00     0.053 C 
BRANCH  10  11
ATOM     11  C   UNL     1     -21.156  36.484   8.902  1.00  0.00     0.041 C 
ATOM     12  O   UNL     1     -21.536  35.506   9.598  1.00  0.00    -0.550 OA
ATOM     13  O   UNL     1     -21.639  37.756   9.182  1.00  0.00    -0.550 OA
ENDBRANCH  10  11
ENDBRANCH   9  10
ENDBRANCH   8   9
ENDBRANCH   1   8
TORSDOF 8
ENDMDL
MODEL 8
REMARK VINA RESULT:    -5.001      2.575      6.140
REMARK INTER + INTRA:          -8.107
REMARK INTER:                  -7.834
REMARK INTRA:                  -0.273
REMARK UNBOUND:                -0.767
REMARK SMILES O=C([O-])CCCCCCCC(=O)[O-]
REMARK SMILES IDX 7 1 6 2 5 3 4 4 2 5 1 6 3 7 8 8 9 9 10 10 11 11 12 12 13 13
REMARK H PARENT
REMARK Flexibility Score: inf
ROOT
ATOM      1  C   UNL     1     -21.630  39.495   5.630  1.00  0.00     0.000 C 
ENDROOT
BRANCH   1   2
ATOM      2  C   UNL     1     -20.247  39.945   5.136  1.00  0.00     0.000 C 
BRANCH   2   3
ATOM      3  C   UNL     1     -20.324  41.330   4.478  1.00  0.00     0.006 C 
BRANCH   3   4
ATOM      4  C   UNL     1     -18.939  41.967   4.301  1.00  0.00     0.053 C 
BRANCH   4   5
ATOM      5  C   UNL     1     -19.029  43.452   4.116  1.00  0.00     0.041 C 
ATOM      6  O   UNL     1     -19.404  43.931   3.013  1.00  0.00    -0.550 OA
ATOM      7  O   UNL     1     -18.667  44.306   5.149  1.00  0.00    -0.550 OA
ENDBRANCH   4   5
ENDBRANCH   3   4
ENDBRANCH   2   3
ENDBRANCH   1   2
BRANCH   1   8
ATOM      8  C   UNL     1     -21.976  38.062   5.194  1.00  0.00     0.000 C 
BRANCH   8   9
ATOM      9  C   UNL     1     -21.214  36.997   6.001  1.00  0.00     0.006 C 
BRANCH   9  10
ATOM     10  C   UNL     1     -22.110  36.306   7.038  1.00  0.00     0.053 C 
BRANCH  10  11
ATOM     11  C   UNL     1     -21.748  36.702   8.437  1.00  0.00     0.041 C 
ATOM     12  O   UNL     1     -21.211  35.868   9.212  1.00  0.00    -0.550 OA
ATOM     13  O   UNL     1     -21.971  38.002   8.873  1.00  0.00    -0.550 OA
ENDBRANCH  10  11
ENDBRANCH   9  10
ENDBRANCH   8   9
ENDBRANCH   1   8
TORSDOF 8
ENDMDL
MODEL 9
REMARK VINA RESULT:    -4.900      2.439      3.924
REMARK INTER + INTRA:          -7.958
REMARK INTER:                  -7.663
REMARK INTRA:                  -0.295
REMARK UNBOUND:                -0.767
REMARK SMILES O=C([O-])CCCCCCCC(=O)[O-]
REMARK SMILES IDX 7 1 6 2 5 3 4 4 2 5 1 6 3 7 8 8 9 9 10 10 11 11 12 12 13 13
REMARK H PARENT
REMARK Flexibility Score: inf
ROOT
ATOM      1  C   UNL     1     -20.944  39.021   4.377  1.00  0.00     0.000 C 
ENDROOT
BRANCH   1   2
ATOM      2  C   UNL     1     -21.038  38.216   5.682  1.00  0.00     0.000 C 
BRANCH   2   3
ATOM      3  C   UNL     1     -22.371  37.457   5.763  1.00  0.00     0.006 C 
BRANCH   3   4
ATOM      4  C   UNL     1     -23.125  37.745   7.068  1.00  0.00     0.053 C 
BRANCH   4   5
ATOM      5  C   UNL     1     -22.609  36.915   8.204  1.00  0.00     0.041 C 
ATOM      6  O   UNL     1     -22.707  37.332   9.389  1.00  0.00    -0.550 OA
ATOM      7  O   UNL     1     -21.990  35.698   7.953  1.00  0.00    -0.550 OA
ENDBRANCH   4   5
ENDBRANCH   3   4
ENDBRANCH   2   3
ENDBRANCH   1   2
BRANCH   1   8
ATOM      8  C   UNL     1     -21.628  40.393   4.478  1.00  0.00     0.000 C 
BRANCH   8   9
ATOM      9  C   UNL     1     -20.881  41.486   3.693  1.00  0.00     0.006 C 
BRANCH   9  10
ATOM     10  C   UNL     1     -19.568  41.895   4.375  1.00  0.00     0.053 C 
BRANCH  10  11
ATOM     11  C   UNL     1     -19.180  43.301   4.033  1.00  0.00     0.041 C 
ATOM     12  O   UNL     1     -18.648  44.039   4.903  1.00  0.00    -0.550 OA
ATOM     13  O   UNL     1     -19.375  43.784   2.745  1.00  0.00    -0.550 OA
ENDBRANCH  10  11
ENDBRANCH   9  10
ENDBRANCH   8   9
ENDBRANCH   1   8
TORSDOF 8
ENDMDL
