MODEL 1
REMARK VINA RESULT:    -4.017      0.000      0.000
REMARK INTER + INTRA:          -6.289
REMARK INTER:                  -6.130
REMARK INTRA:                  -0.158
REMARK UNBOUND:                -0.158
REMARK SMILES CC1=CCC[C@H](C)C(=O)C[C@H](C(C)C)C(=O)C1
REMARK SMILES IDX 8 1 9 2 6 3 7 4 5 5 4 6 3 7 2 8 1 9 10 11 11 12 15 13 16 14
REMARK SMILES IDX 17 15 12 17 13 18 14 19
REMARK H PARENT
REMARK Flexibility Score: 70.00
ROOT
ATOM      1  C   UNL     1     -14.741  14.534 -30.604  1.00  0.00     0.136 C 
ATOM      2  O   UNL     1     -14.059  15.438 -30.143  1.00  0.00    -0.299 OA
ENDROOT
BRANCH   1   3
ATOM      3  C   UNL     1     -16.249  14.592 -30.494  1.00  0.00     0.053 C 
ATOM      4  C   UNL     1     -16.870  13.728 -31.597  1.00  0.00     0.016 C 
BRANCH   3   5
ATOM      5  C   UNL     1     -16.763  14.140 -29.108  1.00  0.00     0.015 C 
BRANCH   5   6
ATOM      6  C   UNL     1     -16.828  12.610 -28.940  1.00  0.00     0.028 C 
BRANCH   6   7
ATOM      7  C   UNL     1     -15.818  12.117 -27.927  1.00  0.00    -0.028 C 
ATOM      8  C   UNL     1     -14.689  11.417 -28.192  1.00  0.00    -0.070 CG0
ATOM      9  C   UNL     1     -13.800  11.050 -27.031  1.00  0.00     0.039 C 
ATOM     10  G   UNL     1     -14.307  10.925 -29.572  1.00  0.00     0.000 G0
ENDBRANCH   6   7
ENDBRANCH   5   6
ENDBRANCH   3   5
ENDBRANCH   1   3
BRANCH   1  11
ATOM     11  C   UNL     1     -14.063  13.351 -31.252  1.00  0.00     0.087 C 
BRANCH  11  12
ATOM     12  C   UNL     1     -12.795  12.914 -30.481  1.00  0.00     0.066 C 
BRANCH  12  13
ATOM     13  C   UNL     1     -12.949  11.498 -29.958  1.00  0.00     0.140 C 
ATOM     14  O   UNL     1     -11.968  10.776 -29.853  1.00  0.00    -0.299 OA
BRANCH  13  15
ATOM     15  C   UNL     1     -14.300  10.944 -29.594  1.00  0.00     0.106 CG0
ATOM     16  G   UNL     1     -14.688  11.394 -28.200  1.00  0.00     0.000 G0
ENDBRANCH  13  15
ENDBRANCH  12  13
BRANCH  12  17
ATOM     17  C   UNL     1     -11.475  13.069 -31.301  1.00  0.00    -0.006 C 
ATOM     18  C   UNL     1     -11.622  13.922 -32.575  1.00  0.00     0.008 C 
ATOM     19  C   UNL     1     -10.332  13.622 -30.434  1.00  0.00     0.008 C 
ENDBRANCH  12  17
ENDBRANCH  11  12
ENDBRANCH   1  11
TORSDOF 1
ENDMDL
MODEL 2
REMARK VINA RESULT:    -3.947      1.539      2.043
REMARK INTER + INTRA:          -6.182
REMARK INTER:                  -5.802
REMARK INTRA:                  -0.380
REMARK UNBOUND:                -0.158
REMARK SMILES CC1=CCC[C@H](C)C(=O)C[C@H](C(C)C)C(=O)C1
REMARK SMILES IDX 8 1 9 2 6 3 7 4 5 5 4 6 3 7 2 8 1 9 10 11 11 12 15 13 16 14
REMARK SMILES IDX 17 15 12 17 13 18 14 19
REMARK H PARENT
REMARK Flexibility Score: 70.00
ROOT
ATOM      1  C   UNL     1     -14.109  14.142 -30.388  1.00  0.00     0.136 C 
ATOM      2  O   UNL     1     -13.728  15.095 -29.724  1.00  0.00    -0.299 OA
ENDROOT
BRANCH   1   3
ATOM      3  C   UNL     1     -15.315  14.283 -31.292  1.00  0.00     0.053 C 
ATOM      4  C   UNL     1     -15.303  13.156 -32.330  1.00  0.00     0.016 C 
BRANCH   3   5
ATOM      5  C   UNL     1     -16.649  14.275 -30.511  1.00  0.00     0.015 C 
BRANCH   5   6
ATOM      6  C   UNL     1     -17.297  12.881 -30.403  1.00  0.00     0.028 C 
BRANCH   6   7
ATOM      7  C   UNL     1     -17.290  12.371 -28.979  1.00  0.00    -0.028 C 
ATOM      8  C   UNL     1     -16.420  11.481 -28.447  1.00  0.00    -0.070 CG0
ATOM      9  C   UNL     1     -16.574  11.131 -26.988  1.00  0.00     0.039 C 
ATOM     10  G   UNL     1     -15.350  10.767 -29.246  1.00  0.00     0.000 G0
ENDBRANCH   6   7
ENDBRANCH   5   6
ENDBRANCH   3   5
ENDBRANCH   1   3
BRANCH   1  11
ATOM     11  C   UNL     1     -13.386  12.822 -30.273  1.00  0.00     0.087 C 
BRANCH  11  12
ATOM     12  C   UNL     1     -13.289  12.339 -28.806  1.00  0.00     0.066 C 
BRANCH  12  13
ATOM     13  C   UNL     1     -13.986  11.002 -28.637  1.00  0.00     0.140 C 
ATOM     14  O   UNL     1     -13.432  10.098 -28.028  1.00  0.00    -0.299 OA
BRANCH  13  15
ATOM     15  C   UNL     1     -15.342  10.748 -29.237  1.00  0.00     0.106 CG0
ATOM     16  G   UNL     1     -16.405  11.486 -28.450  1.00  0.00     0.000 G0
ENDBRANCH  13  15
ENDBRANCH  12  13
BRANCH  12  17
ATOM     17  C   UNL     1     -11.828  12.286 -28.256  1.00  0.00    -0.006 C 
ATOM     18  C   UNL     1     -10.748  12.192 -29.349  1.00  0.00     0.008 C 
ATOM     19  C   UNL     1     -11.529  13.475 -27.329  1.00  0.00     0.008 C 
ENDBRANCH  12  17
ENDBRANCH  11  12
ENDBRANCH   1  11
TORSDOF 1
ENDMDL
MODEL 3
REMARK VINA RESULT:    -3.923      2.195      5.205
REMARK INTER + INTRA:          -6.145
REMARK INTER:                  -5.887
REMARK INTRA:                  -0.258
REMARK UNBOUND:                -0.158
REMARK SMILES CC1=CCC[C@H](C)C(=O)C[C@H](C(C)C)C(=O)C1
REMARK SMILES IDX 8 1 9 2 6 3 7 4 5 5 4 6 3 7 2 8 1 9 10 11 11 12 15 13 16 14
REMARK SMILES IDX 17 15 12 17 13 18 14 19
REMARK H PARENT
REMARK Flexibility Score: 70.00
ROOT
ATOM      1  C   UNL     1     -13.611  11.524 -29.885  1.00  0.00     0.136 C 
ATOM      2  O   UNL     1     -13.937  10.404 -29.518  1.00  0.00    -0.299 OA
ENDROOT
BRANCH   1   3
ATOM      3  C   UNL     1     -12.513  12.270 -29.158  1.00  0.00     0.053 C 
ATOM      4  C   UNL     1     -12.822  12.289 -27.657  1.00  0.00     0.016 C 
BRANCH   3   5
ATOM      5  C   UNL     1     -11.114  11.663 -29.408  1.00  0.00     0.015 C 
BRANCH   5   6
ATOM      6  C   UNL     1     -10.816  11.384 -30.894  1.00  0.00     0.028 C 
BRANCH   6   7
ATOM      7  C   UNL     1     -10.256  12.606 -31.589  1.00  0.00    -0.028 C 
ATOM      8  C   UNL     1     -10.936  13.452 -32.400  1.00  0.00    -0.070 CG0
ATOM      9  C   UNL     1     -10.190  14.634 -32.968  1.00  0.00     0.039 C 
ATOM     10  G   UNL     1     -12.375  13.242 -32.821  1.00  0.00     0.000 G0
ENDBRANCH   6   7
ENDBRANCH   5   6
ENDBRANCH   3   5
ENDBRANCH   1   3
BRANCH   1  11
ATOM     11  C   UNL     1     -14.337  12.165 -31.043  1.00  0.00     0.087 C 
BRANCH  11  12
ATOM     12  C   UNL     1     -14.232  13.708 -31.013  1.00  0.00     0.066 C 
BRANCH  12  13
ATOM     13  C   UNL     1     -13.302  14.201 -32.106  1.00  0.00     0.140 C 
ATOM     14  O   UNL     1     -13.305  15.381 -32.423  1.00  0.00    -0.299 OA
BRANCH  13  15
ATOM     15  C   UNL     1     -12.391  13.255 -32.840  1.00  0.00     0.106 CG0
ATOM     16  G   UNL     1     -10.960  13.453 -32.385  1.00  0.00     0.000 G0
ENDBRANCH  13  15
ENDBRANCH  12  13
BRANCH  12  17
ATOM     17  C   UNL     1     -15.613  14.434 -31.080  1.00  0.00    -0.006 C 
ATOM     18  C   UNL     1     -16.615  13.791 -32.056  1.00  0.00     0.008 C 
ATOM     19  C   UNL     1     -16.252  14.564 -29.688  1.00  0.00     0.008 C 
ENDBRANCH  12  17
ENDBRANCH  11  12
ENDBRANCH   1  11
TORSDOF 1
ENDMDL
MODEL 4
REMARK VINA RESULT:    -3.762      1.953      4.078
REMARK INTER + INTRA:          -5.899
REMARK INTER:                  -5.741
REMARK INTRA:                  -0.157
REMARK UNBOUND:                -0.158
REMARK SMILES CC1=CCC[C@H](C)C(=O)C[C@H](C(C)C)C(=O)C1
REMARK SMILES IDX 8 1 9 2 6 3 7 4 5 5 4 6 3 7 2 8 1 9 10 11 11 12 15 13 16 14
REMARK SMILES IDX 17 15 12 17 13 18 14 19
REMARK H PARENT
REMARK Flexibility Score: 70.00
ROOT
ATOM      1  C   UNL     1     -15.867  13.707 -29.505  1.00  0.00     0.136 C 
ATOM      2  O   UNL     1     -16.216  14.872 -29.375  1.00  0.00    -0.299 OA
ENDROOT
BRANCH   1   3
ATOM      3  C   UNL     1     -15.414  13.198 -30.856  1.00  0.00     0.053 C 
ATOM      4  C   UNL     1     -16.570  13.317 -31.855  1.00  0.00     0.016 C 
BRANCH   3   5
ATOM      5  C   UNL     1     -14.170  13.945 -31.388  1.00  0.00     0.015 C 
BRANCH   5   6
ATOM      6  C   UNL     1     -12.838  13.240 -31.064  1.00  0.00     0.028 C 
BRANCH   6   7
ATOM      7  C   UNL     1     -12.319  13.630 -29.697  1.00  0.00    -0.028 C 
ATOM      8  C   UNL     1     -12.187  12.815 -28.624  1.00  0.00    -0.070 CG0
ATOM      9  C   UNL     1     -11.616  13.404 -27.358  1.00  0.00     0.039 C 
ATOM     10  G   UNL     1     -12.642  11.370 -28.601  1.00  0.00     0.000 G0
ENDBRANCH   6   7
ENDBRANCH   5   6
ENDBRANCH   3   5
ENDBRANCH   1   3
BRANCH   1  11
ATOM     11  C   UNL     1     -15.926  12.779 -28.315  1.00  0.00     0.087 C 
BRANCH  11  12
ATOM     12  C   UNL     1     -15.280  11.406 -28.618  1.00  0.00     0.066 C 
BRANCH  12  13
ATOM     13  C   UNL     1     -13.964  11.260 -27.876  1.00  0.00     0.140 C 
ATOM     14  O   UNL     1     -13.962  11.083 -26.667  1.00  0.00    -0.299 OA
BRANCH  13  15
ATOM     15  C   UNL     1     -12.647  11.362 -28.597  1.00  0.00     0.106 CG0
ATOM     16  G   UNL     1     -12.181  12.803 -28.624  1.00  0.00     0.000 G0
ENDBRANCH  13  15
ENDBRANCH  12  13
BRANCH  12  17
ATOM     17  C   UNL     1     -16.222  10.192 -28.336  1.00  0.00    -0.006 C 
ATOM     18  C   UNL     1     -16.927  10.247 -26.969  1.00  0.00     0.008 C 
ATOM     19  C   UNL     1     -17.263  10.014 -29.453  1.00  0.00     0.008 C 
ENDBRANCH  12  17
ENDBRANCH  11  12
ENDBRANCH   1  11
TORSDOF 1
ENDMDL
MODEL 5
REMARK VINA RESULT:    -3.737      1.709      2.334
REMARK INTER + INTRA:          -5.861
REMARK INTER:                  -5.690
REMARK INTRA:                  -0.172
REMARK UNBOUND:                -0.158
REMARK SMILES CC1=CCC[C@H](C)C(=O)C[C@H](C(C)C)C(=O)C1
REMARK SMILES IDX 8 1 9 2 6 3 7 4 5 5 4 6 3 7 2 8 1 9 10 11 11 12 15 13 16 14
REMARK SMILES IDX 17 15 12 17 13 18 14 19
REMARK H PARENT
REMARK Flexibility Score: 70.00
ROOT
ATOM      1  C   UNL     1     -16.708  12.837 -30.867  1.00  0.00     0.136 C 
ATOM      2  O   UNL     1     -17.430  13.345 -31.712  1.00  0.00    -0.299 OA
ENDROOT
BRANCH   1   3
ATOM      3  C   UNL     1     -17.275  12.451 -29.518  1.00  0.00     0.053 C 
ATOM      4  C   UNL     1     -18.349  13.467 -29.111  1.00  0.00     0.016 C 
BRANCH   3   5
ATOM      5  C   UNL     1     -17.860  11.021 -29.504  1.00  0.00     0.015 C 
BRANCH   5   6
ATOM      6  C   UNL     1     -16.794   9.917 -29.361  1.00  0.00     0.028 C 
BRANCH   6   7
ATOM      7  C   UNL     1     -15.936  10.126 -28.132  1.00  0.00    -0.028 C 
ATOM      8  C   UNL     1     -14.662  10.585 -28.109  1.00  0.00    -0.070 CG0
ATOM      9  C   UNL     1     -13.997  10.749 -26.765  1.00  0.00     0.039 C 
ATOM     10  G   UNL     1     -13.848  10.875 -29.353  1.00  0.00     0.000 G0
ENDBRANCH   6   7
ENDBRANCH   5   6
ENDBRANCH   3   5
ENDBRANCH   1   3
BRANCH   1  11
ATOM     11  C   UNL     1     -15.243  12.632 -31.170  1.00  0.00     0.087 C 
BRANCH  11  12
ATOM     12  C   UNL     1     -14.331  13.346 -30.145  1.00  0.00     0.066 C 
BRANCH  12  13
ATOM     13  C   UNL     1     -13.465  12.340 -29.410  1.00  0.00     0.140 C 
ATOM     14  O   UNL     1     -12.431  12.706 -28.869  1.00  0.00    -0.299 OA
BRANCH  13  15
ATOM     15  C   UNL     1     -13.834  10.883 -29.359  1.00  0.00     0.106 CG0
ATOM     16  G   UNL     1     -14.650  10.596 -28.116  1.00  0.00     0.000 G0
ENDBRANCH  13  15
ENDBRANCH  12  13
BRANCH  12  17
ATOM     17  C   UNL     1     -13.465  14.489 -30.763  1.00  0.00    -0.006 C 
ATOM     18  C   UNL     1     -13.159  14.308 -32.261  1.00  0.00     0.008 C 
ATOM     19  C   UNL     1     -14.097  15.870 -30.524  1.00  0.00     0.008 C 
ENDBRANCH  12  17
ENDBRANCH  11  12
ENDBRANCH   1  11
TORSDOF 1
ENDMDL
MODEL 6
REMARK VINA RESULT:    -3.722      1.500      3.955
REMARK INTER + INTRA:          -5.839
REMARK INTER:                  -6.248
REMARK INTRA:                   0.410
REMARK UNBOUND:                -0.158
REMARK SMILES CC1=CCC[C@H](C)C(=O)C[C@H](C(C)C)C(=O)C1
REMARK SMILES IDX 8 1 9 2 6 3 7 4 5 5 4 6 3 7 2 8 1 9 10 11 11 12 15 13 16 14
REMARK SMILES IDX 17 15 12 17 13 18 14 19
REMARK H PARENT
REMARK Flexibility Score: 70.00
ROOT
ATOM      1  C   UNL     1     -13.106  14.328 -31.375  1.00  0.00     0.136 C 
ATOM      2  O   UNL     1     -13.232  15.257 -32.160  1.00  0.00    -0.299 OA
ENDROOT
BRANCH   1   3
ATOM      3  C   UNL     1     -11.963  13.350 -31.536  1.00  0.00     0.053 C 
ATOM      4  C   UNL     1     -11.367  13.495 -32.941  1.00  0.00     0.016 C 
BRANCH   3   5
ATOM      5  C   UNL     1     -10.863  13.536 -30.467  1.00  0.00     0.015 C 
BRANCH   5   6
ATOM      6  C   UNL     1     -11.412  13.724 -29.039  1.00  0.00     0.028 C 
BRANCH   6   7
ATOM      7  C   UNL     1     -11.461  12.413 -28.285  1.00  0.00    -0.028 C 
ATOM      8  C   UNL     1     -12.576  11.759 -27.881  1.00  0.00    -0.070 CG0
ATOM      9  C   UNL     1     -12.400  10.443 -27.166  1.00  0.00     0.039 C 
ATOM     10  G   UNL     1     -13.980  12.304 -28.045  1.00  0.00     0.000 G0
ENDBRANCH   6   7
ENDBRANCH   5   6
ENDBRANCH   3   5
ENDBRANCH   1   3
BRANCH   1  11
ATOM     11  C   UNL     1     -14.119  14.149 -30.270  1.00  0.00     0.087 C 
BRANCH  11  12
ATOM     12  C   UNL     1     -14.935  12.845 -30.434  1.00  0.00     0.066 C 
BRANCH  12  13
ATOM     13  C   UNL     1     -14.584  11.854 -29.339  1.00  0.00     0.140 C 
ATOM     14  O   UNL     1     -14.809  10.664 -29.499  1.00  0.00    -0.299 OA
BRANCH  13  15
ATOM     15  C   UNL     1     -13.991  12.312 -28.034  1.00  0.00     0.106 CG0
ATOM     16  G   UNL     1     -12.585  11.769 -27.884  1.00  0.00     0.000 G0
ENDBRANCH  13  15
ENDBRANCH  12  13
BRANCH  12  17
ATOM     17  C   UNL     1     -16.477  13.073 -30.513  1.00  0.00    -0.006 C 
ATOM     18  C   UNL     1     -17.087  13.697 -29.244  1.00  0.00     0.008 C 
ATOM     19  C   UNL     1     -16.863  13.912 -31.742  1.00  0.00     0.008 C 
ENDBRANCH  12  17
ENDBRANCH  11  12
ENDBRANCH   1  11
TORSDOF 1
ENDMDL
MODEL 7
REMARK VINA RESULT:    -3.678      1.888      3.694
REMARK INTER + INTRA:          -5.771
REMARK INTER:                  -5.967
REMARK INTRA:                   0.197
REMARK UNBOUND:                -0.158
REMARK SMILES CC1=CCC[C@H](C)C(=O)C[C@H](C(C)C)C(=O)C1
REMARK SMILES IDX 8 1 9 2 6 3 7 4 5 5 4 6 3 7 2 8 1 9 10 11 11 12 15 13 16 14
REMARK SMILES IDX 17 15 12 17 13 18 14 19
REMARK H PARENT
REMARK Flexibility Score: 70.00
ROOT
ATOM      1  C   UNL     1     -13.430  13.670 -29.885  1.00  0.00     0.136 C 
ATOM      2  O   UNL     1     -12.624  14.217 -29.146  1.00  0.00    -0.299 OA
ENDROOT
BRANCH   1   3
ATOM      3  C   UNL     1     -14.055  14.440 -31.028  1.00  0.00     0.053 C 
ATOM      4  C   UNL     1     -12.964  14.831 -32.031  1.00  0.00     0.016 C 
BRANCH   3   5
ATOM      5  C   UNL     1     -15.176  13.648 -31.738  1.00  0.00     0.015 C 
BRANCH   5   6
ATOM      6  C   UNL     1     -16.596  14.047 -31.292  1.00  0.00     0.028 C 
BRANCH   6   7
ATOM      7  C   UNL     1     -17.427  12.836 -30.930  1.00  0.00    -0.028 C 
ATOM      8  C   UNL     1     -17.542  12.278 -29.701  1.00  0.00    -0.070 CG0
ATOM      9  C   UNL     1     -18.454  11.086 -29.552  1.00  0.00     0.039 C 
ATOM     10  G   UNL     1     -16.757  12.737 -28.490  1.00  0.00     0.000 G0
ENDBRANCH   6   7
ENDBRANCH   5   6
ENDBRANCH   3   5
ENDBRANCH   1   3
BRANCH   1  11
ATOM     11  C   UNL     1     -13.816  12.234 -29.625  1.00  0.00     0.087 C 
BRANCH  11  12
ATOM     12  C   UNL     1     -14.252  12.005 -28.158  1.00  0.00     0.066 C 
BRANCH  12  13
ATOM     13  C   UNL     1     -15.738  11.710 -28.083  1.00  0.00     0.140 C 
ATOM     14  O   UNL     1     -16.123  10.608 -27.721  1.00  0.00    -0.299 OA
BRANCH  13  15
ATOM     15  C   UNL     1     -16.760  12.741 -28.481  1.00  0.00     0.106 CG0
ATOM     16  G   UNL     1     -17.543  12.259 -29.684  1.00  0.00     0.000 G0
ENDBRANCH  13  15
ENDBRANCH  12  13
BRANCH  12  17
ATOM     17  C   UNL     1     -13.422  10.909 -27.418  1.00  0.00    -0.006 C 
ATOM     18  C   UNL     1     -12.546  10.048 -28.347  1.00  0.00     0.008 C 
ATOM     19  C   UNL     1     -12.558  11.512 -26.300  1.00  0.00     0.008 C 
ENDBRANCH  12  17
ENDBRANCH  11  12
ENDBRANCH   1  11
TORSDOF 1
ENDMDL
MODEL 8
REMARK VINA RESULT:    -3.661      2.163      4.839
REMARK INTER + INTRA:          -5.745
REMARK INTER:                  -5.356
REMARK INTRA:                  -0.389
REMARK UNBOUND:                -0.158
REMARK SMILES CC1=CCC[C@H](C)C(=O)C[C@H](C(C)C)C(=O)C1
REMARK SMILES IDX 8 1 9 2 6 3 7 4 5 5 4 6 3 7 2 8 1 9 10 11 11 12 15 13 16 14
REMARK SMILES IDX 17 15 12 17 13 18 14 19
REMARK H PARENT
REMARK Flexibility Score: 70.00
ROOT
ATOM      1  C   UNL     1     -15.034  11.391 -27.294  1.00  0.00     0.136 C 
ATOM      2  O   UNL     1     -15.883  11.912 -26.585  1.00  0.00    -0.299 OA
ENDROOT
BRANCH   1   3
ATOM      3  C   UNL     1     -13.629  11.190 -26.769  1.00  0.00     0.053 C 
ATOM      4  C   UNL     1     -12.934  10.097 -27.589  1.00  0.00     0.016 C 
BRANCH   3   5
ATOM      5  C   UNL     1     -12.791  12.489 -26.792  1.00  0.00     0.015 C 
BRANCH   5   6
ATOM      6  C   UNL     1     -11.745  12.532 -27.923  1.00  0.00     0.028 C 
BRANCH   6   7
ATOM      7  C   UNL     1     -12.052  13.623 -28.925  1.00  0.00    -0.028 C 
ATOM      8  C   UNL     1     -12.715  13.477 -30.097  1.00  0.00    -0.070 CG0
ATOM      9  C   UNL     1     -12.941  14.709 -30.937  1.00  0.00     0.039 C 
ATOM     10  G   UNL     1     -13.178  12.142 -30.642  1.00  0.00     0.000 G0
ENDBRANCH   6   7
ENDBRANCH   5   6
ENDBRANCH   3   5
ENDBRANCH   1   3
BRANCH   1  11
ATOM     11  C   UNL     1     -15.393  10.984 -28.702  1.00  0.00     0.087 C 
BRANCH  11  12
ATOM     12  C   UNL     1     -15.627  12.207 -29.619  1.00  0.00     0.066 C 
BRANCH  12  13
ATOM     13  C   UNL     1     -14.698  12.161 -30.818  1.00  0.00     0.140 C 
ATOM     14  O   UNL     1     -15.161  12.104 -31.947  1.00  0.00    -0.299 OA
BRANCH  13  15
ATOM     15  C   UNL     1     -13.203  12.151 -30.646  1.00  0.00     0.106 CG0
ATOM     16  G   UNL     1     -12.732  13.487 -30.112  1.00  0.00     0.000 G0
ENDBRANCH  13  15
ENDBRANCH  12  13
BRANCH  12  17
ATOM     17  C   UNL     1     -17.113  12.383 -30.067  1.00  0.00    -0.006 C 
ATOM     18  C   UNL     1     -17.994  11.144 -29.827  1.00  0.00     0.008 C 
ATOM     19  C   UNL     1     -17.759  13.615 -29.411  1.00  0.00     0.008 C 
ENDBRANCH  12  17
ENDBRANCH  11  12
ENDBRANCH   1  11
TORSDOF 1
ENDMDL
MODEL 9
REMARK VINA RESULT:    -3.648      2.205      4.428
REMARK INTER + INTRA:          -5.725
REMARK INTER:                  -6.703
REMARK INTRA:                   0.978
REMARK UNBOUND:                -0.158
REMARK SMILES CC1=CCC[C@H](C)C(=O)C[C@H](C(C)C)C(=O)C1
REMARK SMILES IDX 8 1 9 2 6 3 7 4 5 5 4 6 3 7 2 8 1 9 10 11 11 12 15 13 16 14
REMARK SMILES IDX 17 15 12 17 13 18 14 19
REMARK H PARENT
REMARK Flexibility Score: 70.00
ROOT
ATOM      1  C   UNL     1     -16.749  13.603 -31.710  1.00  0.00     0.136 C 
ATOM      2  O   UNL     1     -17.204  14.351 -32.564  1.00  0.00    -0.299 OA
ENDROOT
BRANCH   1   3
ATOM      3  C   UNL     1     -15.259  13.349 -31.641  1.00  0.00     0.053 C 
ATOM      4  C   UNL     1     -14.732  13.045 -33.048  1.00  0.00     0.016 C 
BRANCH   3   5
ATOM      5  C   UNL     1     -14.480  14.531 -31.023  1.00  0.00     0.015 C 
BRANCH   5   6
ATOM      6  C   UNL     1     -13.619  14.137 -29.806  1.00  0.00     0.028 C 
BRANCH   6   7
ATOM      7  C   UNL     1     -13.345  12.650 -29.775  1.00  0.00    -0.028 C 
ATOM      8  C   UNL     1     -14.005  11.725 -29.037  1.00  0.00    -0.070 CG0
ATOM      9  C   UNL     1     -13.590  10.283 -29.180  1.00  0.00     0.039 C 
ATOM     10  G   UNL     1     -15.085  12.065 -28.030  1.00  0.00     0.000 G0
ENDBRANCH   6   7
ENDBRANCH   5   6
ENDBRANCH   3   5
ENDBRANCH   1   3
BRANCH   1  11
ATOM     11  C   UNL     1     -17.691  12.914 -30.752  1.00  0.00     0.087 C 
BRANCH  11  12
ATOM     12  C   UNL     1     -16.955  11.903 -29.841  1.00  0.00     0.066 C 
BRANCH  12  13
ATOM     13  C   UNL     1     -16.305  12.614 -28.669  1.00  0.00     0.140 C 
ATOM     14  O   UNL     1     -16.764  13.675 -28.270  1.00  0.00    -0.299 OA
BRANCH  13  15
ATOM     15  C   UNL     1     -15.077  12.057 -28.002  1.00  0.00     0.106 CG0
ATOM     16  G   UNL     1     -14.026  11.727 -29.041  1.00  0.00     0.000 G0
ENDBRANCH  13  15
ENDBRANCH  12  13
BRANCH  12  17
ATOM     17  C   UNL     1     -17.856  10.724 -29.354  1.00  0.00    -0.006 C 
ATOM     18  C   UNL     1     -17.592  10.289 -27.901  1.00  0.00     0.008 C 
ATOM     19  C   UNL     1     -19.349  11.039 -29.540  1.00  0.00     0.008 C 
ENDBRANCH  12  17
ENDBRANCH  11  12
ENDBRANCH   1  11
TORSDOF 1
ENDMDL
