MODEL 1
REMARK VINA RESULT:    -3.415      0.000      0.000
REMARK INTER + INTRA:          -4.543
REMARK INTER:                  -5.212
REMARK INTRA:                   0.669
REMARK UNBOUND:                 0.669
REMARK SMILES CC1=CCC[C@@H](C)C(=O)C[C@@H](C(C)C)C(=O)C1
REMARK SMILES IDX 8 1 9 2 6 3 7 4 5 5 4 6 3 7 2 8 1 9 10 11 11 12 15 13 16 14
REMARK SMILES IDX 17 15 12 17 13 18 14 19
REMARK H PARENT
REMARK Flexibility Score: 70.00
ROOT
ATOM      1  C   UNL     1      -5.064 -14.938  -6.844  1.00  0.00     0.136 C 
ATOM      2  O   UNL     1      -5.686 -14.352  -5.970  1.00  0.00    -0.299 OA
ENDROOT
BRANCH   1   3
ATOM      3  C   UNL     1      -5.709 -15.119  -8.209  1.00  0.00     0.053 C 
ATOM      4  C   UNL     1      -4.740 -15.879  -9.125  1.00  0.00     0.016 C 
BRANCH   3   5
ATOM      5  C   UNL     1      -6.143 -13.778  -8.862  1.00  0.00     0.015 C 
BRANCH   5   6
ATOM      6  C   UNL     1      -5.863 -12.506  -8.037  1.00  0.00     0.028 C 
BRANCH   6   7
ATOM      7  C   UNL     1      -4.862 -11.529  -8.608  1.00  0.00    -0.028 C 
ATOM      8  C   UNL     1      -3.568 -11.405  -8.237  1.00  0.00    -0.070 CG0
ATOM      9  C   UNL     1      -2.671 -10.575  -9.125  1.00  0.00     0.039 C 
ATOM     10  G   UNL     1      -2.976 -12.058  -6.999  1.00  0.00     0.000 G0
ENDBRANCH   6   7
ENDBRANCH   5   6
ENDBRANCH   3   5
ENDBRANCH   1   3
BRANCH   1  11
ATOM     11  C   UNL     1      -3.734 -15.581  -6.501  1.00  0.00     0.087 C 
BRANCH  11  12
ATOM     12  C   UNL     1      -2.549 -14.597  -6.271  1.00  0.00     0.066 C 
BRANCH  12  13
ATOM     13  C   UNL     1      -2.473 -13.469  -7.290  1.00  0.00     0.140 C 
ATOM     14  O   UNL     1      -2.086 -13.741  -8.418  1.00  0.00    -0.299 OA
BRANCH  13  15
ATOM     15  C   UNL     1      -2.934 -12.057  -6.999  1.00  0.00     0.106 CG0
ATOM     16  G   UNL     1      -3.538 -11.423  -8.242  1.00  0.00     0.000 G0
ENDBRANCH  13  15
ENDBRANCH  12  13
BRANCH  12  17
ATOM     17  C   UNL     1      -1.184 -15.347  -6.157  1.00  0.00    -0.006 C 
ATOM     18  C   UNL     1      -1.186 -16.354  -4.993  1.00  0.00     0.008 C 
ATOM     19  C   UNL     1      -0.005 -14.373  -5.969  1.00  0.00     0.008 C 
ENDBRANCH  12  17
ENDBRANCH  11  12
ENDBRANCH   1  11
TORSDOF 1
ENDMDL
MODEL 2
REMARK VINA RESULT:    -2.770      1.656      3.562
REMARK INTER + INTRA:          -3.558
REMARK INTER:                  -3.751
REMARK INTRA:                   0.193
REMARK UNBOUND:                 0.669
REMARK SMILES CC1=CCC[C@@H](C)C(=O)C[C@@H](C(C)C)C(=O)C1
REMARK SMILES IDX 8 1 9 2 6 3 7 4 5 5 4 6 3 7 2 8 1 9 10 11 11 12 15 13 16 14
REMARK SMILES IDX 17 15 12 17 13 18 14 19
REMARK H PARENT
REMARK Flexibility Score: 70.00
ROOT
ATOM      1  C   UNL     1      -2.697 -13.042  -8.289  1.00  0.00     0.136 C 
ATOM      2  O   UNL     1      -1.849 -13.462  -9.063  1.00  0.00    -0.299 OA
ENDROOT
BRANCH   1   3
ATOM      3  C   UNL     1      -3.597 -11.900  -8.733  1.00  0.00     0.053 C 
ATOM      4  C   UNL     1      -2.803 -10.588  -8.687  1.00  0.00     0.016 C 
BRANCH   3   5
ATOM      5  C   UNL     1      -4.897 -11.785  -7.892  1.00  0.00     0.015 C 
BRANCH   5   6
ATOM      6  C   UNL     1      -6.130 -12.524  -8.452  1.00  0.00     0.028 C 
BRANCH   6   7
ATOM      7  C   UNL     1      -5.894 -13.891  -9.048  1.00  0.00    -0.028 C 
ATOM      8  C   UNL     1      -5.652 -15.030  -8.360  1.00  0.00    -0.070 CG0
ATOM      9  C   UNL     1      -5.731 -16.330  -9.125  1.00  0.00     0.039 C 
ATOM     10  G   UNL     1      -5.323 -15.069  -6.876  1.00  0.00     0.000 G0
ENDBRANCH   6   7
ENDBRANCH   5   6
ENDBRANCH   3   5
ENDBRANCH   1   3
BRANCH   1  11
ATOM     11  C   UNL     1      -2.732 -13.578  -6.871  1.00  0.00     0.087 C 
BRANCH  11  12
ATOM     12  C   UNL     1      -2.650 -15.127  -6.733  1.00  0.00     0.066 C 
BRANCH  12  13
ATOM     13  C   UNL     1      -4.006 -15.814  -6.651  1.00  0.00     0.140 C 
ATOM     14  O   UNL     1      -4.033 -16.993  -6.324  1.00  0.00    -0.299 OA
BRANCH  13  15
ATOM     15  C   UNL     1      -5.317 -15.089  -6.869  1.00  0.00     0.106 CG0
ATOM     16  G   UNL     1      -5.653 -15.024  -8.350  1.00  0.00     0.000 G0
ENDBRANCH  13  15
ENDBRANCH  12  13
BRANCH  12  17
ATOM     17  C   UNL     1      -1.728 -15.558  -5.549  1.00  0.00    -0.006 C 
ATOM     18  C   UNL     1      -2.335 -15.173  -4.188  1.00  0.00     0.008 C 
ATOM     19  C   UNL     1      -0.323 -14.935  -5.658  1.00  0.00     0.008 C 
ENDBRANCH  12  17
ENDBRANCH  11  12
ENDBRANCH   1  11
TORSDOF 1
ENDMDL
MODEL 3
REMARK VINA RESULT:    -2.606      1.814      3.276
REMARK INTER + INTRA:          -3.309
REMARK INTER:                  -4.964
REMARK INTRA:                   1.655
REMARK UNBOUND:                 0.669
REMARK SMILES CC1=CCC[C@@H](C)C(=O)C[C@@H](C(C)C)C(=O)C1
REMARK SMILES IDX 8 1 9 2 6 3 7 4 5 5 4 6 3 7 2 8 1 9 10 11 11 12 15 13 16 14
REMARK SMILES IDX 17 15 12 17 13 18 14 19
REMARK H PARENT
REMARK Flexibility Score: 70.00
ROOT
ATOM      1  C   UNL     1      -5.625 -13.170  -6.665  1.00  0.00     0.136 C 
ATOM      2  O   UNL     1      -5.999 -12.620  -5.640  1.00  0.00    -0.299 OA
ENDROOT
BRANCH   1   3
ATOM      3  C   UNL     1      -5.380 -12.326  -7.906  1.00  0.00     0.053 C 
ATOM      4  C   UNL     1      -5.979 -13.040  -9.125  1.00  0.00     0.016 C 
BRANCH   3   5
ATOM      5  C   UNL     1      -3.878 -12.007  -8.140  1.00  0.00     0.015 C 
BRANCH   5   6
ATOM      6  C   UNL     1      -3.067 -13.088  -8.882  1.00  0.00     0.028 C 
BRANCH   6   7
ATOM      7  C   UNL     1      -1.922 -13.720  -8.128  1.00  0.00    -0.028 C 
ATOM      8  C   UNL     1      -1.852 -13.902  -6.790  1.00  0.00    -0.070 CG0
ATOM      9  C   UNL     1      -0.759 -14.806  -6.272  1.00  0.00     0.039 C 
ATOM     10  G   UNL     1      -2.810 -13.263  -5.798  1.00  0.00     0.000 G0
ENDBRANCH   6   7
ENDBRANCH   5   6
ENDBRANCH   3   5
ENDBRANCH   1   3
BRANCH   1  11
ATOM     11  C   UNL     1      -5.548 -14.684  -6.705  1.00  0.00     0.087 C 
BRANCH  11  12
ATOM     12  C   UNL     1      -4.508 -15.333  -5.743  1.00  0.00     0.066 C 
BRANCH  12  13
ATOM     13  C   UNL     1      -3.605 -14.330  -5.040  1.00  0.00     0.140 C 
ATOM     14  O   UNL     1      -3.474 -14.428  -3.828  1.00  0.00    -0.299 OA
BRANCH  13  15
ATOM     15  C   UNL     1      -2.801 -13.280  -5.777  1.00  0.00     0.106 CG0
ATOM     16  G   UNL     1      -1.862 -13.932  -6.779  1.00  0.00     0.000 G0
ENDBRANCH  13  15
ENDBRANCH  12  13
BRANCH  12  17
ATOM     17  C   UNL     1      -3.672 -16.443  -6.454  1.00  0.00    -0.006 C 
ATOM     18  C   UNL     1      -4.095 -16.618  -7.924  1.00  0.00     0.008 C 
ATOM     19  C   UNL     1      -3.793 -17.802  -5.739  1.00  0.00     0.008 C 
ENDBRANCH  12  17
ENDBRANCH  11  12
ENDBRANCH   1  11
TORSDOF 1
ENDMDL
MODEL 4
REMARK VINA RESULT:    -2.439      1.887      4.530
REMARK INTER + INTRA:          -3.053
REMARK INTER:                  -4.148
REMARK INTRA:                   1.094
REMARK UNBOUND:                 0.669
REMARK SMILES CC1=CCC[C@@H](C)C(=O)C[C@@H](C(C)C)C(=O)C1
REMARK SMILES IDX 8 1 9 2 6 3 7 4 5 5 4 6 3 7 2 8 1 9 10 11 11 12 15 13 16 14
REMARK SMILES IDX 17 15 12 17 13 18 14 19
REMARK H PARENT
REMARK Flexibility Score: 70.00
ROOT
ATOM      1  C   UNL     1      -4.796 -11.974  -7.627  1.00  0.00     0.136 C 
ATOM      2  O   UNL     1      -5.378 -11.286  -8.453  1.00  0.00    -0.299 OA
ENDROOT
BRANCH   1   3
ATOM      3  C   UNL     1      -3.277 -12.031  -7.657  1.00  0.00     0.053 C 
ATOM      4  C   UNL     1      -2.718 -10.618  -7.440  1.00  0.00     0.016 C 
BRANCH   3   5
ATOM      5  C   UNL     1      -2.715 -12.648  -8.966  1.00  0.00     0.015 C 
BRANCH   5   6
ATOM      6  C   UNL     1      -1.879 -13.934  -8.800  1.00  0.00     0.028 C 
BRANCH   6   7
ATOM      7  C   UNL     1      -1.356 -14.233  -7.415  1.00  0.00    -0.028 C 
ATOM      8  C   UNL     1      -1.862 -15.142  -6.551  1.00  0.00    -0.070 CG0
ATOM      9  C   UNL     1      -1.024 -15.489  -5.344  1.00  0.00     0.039 C 
ATOM     10  G   UNL     1      -3.204 -15.832  -6.737  1.00  0.00     0.000 G0
ENDBRANCH   6   7
ENDBRANCH   5   6
ENDBRANCH   3   5
ENDBRANCH   1   3
BRANCH   1  11
ATOM     11  C   UNL     1      -5.607 -12.850  -6.692  1.00  0.00     0.087 C 
BRANCH  11  12
ATOM     12  C   UNL     1      -5.435 -14.386  -6.887  1.00  0.00     0.066 C 
BRANCH  12  13
ATOM     13  C   UNL     1      -4.286 -14.986  -6.088  1.00  0.00     0.140 C 
ATOM     14  O   UNL     1      -4.291 -14.835  -4.874  1.00  0.00    -0.299 OA
BRANCH  13  15
ATOM     15  C   UNL     1      -3.195 -15.829  -6.712  1.00  0.00     0.106 CG0
ATOM     16  G   UNL     1      -1.838 -15.166  -6.535  1.00  0.00     0.000 G0
ENDBRANCH  13  15
ENDBRANCH  12  13
BRANCH  12  17
ATOM     17  C   UNL     1      -5.335 -14.773  -8.396  1.00  0.00    -0.006 C 
ATOM     18  C   UNL     1      -6.677 -14.572  -9.123  1.00  0.00     0.008 C 
ATOM     19  C   UNL     1      -4.882 -16.234  -8.586  1.00  0.00     0.008 C 
ENDBRANCH  12  17
ENDBRANCH  11  12
ENDBRANCH   1  11
TORSDOF 1
ENDMDL
MODEL 5
REMARK VINA RESULT:    -2.256      1.826      3.615
REMARK INTER + INTRA:          -2.773
REMARK INTER:                  -3.591
REMARK INTRA:                   0.818
REMARK UNBOUND:                 0.669
REMARK SMILES CC1=CCC[C@@H](C)C(=O)C[C@@H](C(C)C)C(=O)C1
REMARK SMILES IDX 8 1 9 2 6 3 7 4 5 5 4 6 3 7 2 8 1 9 10 11 11 12 15 13 16 14
REMARK SMILES IDX 17 15 12 17 13 18 14 19
REMARK H PARENT
REMARK Flexibility Score: 70.00
ROOT
ATOM      1  C   UNL     1      -1.938 -14.256  -7.009  1.00  0.00     0.136 C 
ATOM      2  O   UNL     1      -1.375 -14.314  -8.092  1.00  0.00    -0.299 OA
ENDROOT
BRANCH   1   3
ATOM      3  C   UNL     1      -2.193 -12.893  -6.385  1.00  0.00     0.053 C 
ATOM      4  C   UNL     1      -3.142 -13.058  -5.190  1.00  0.00     0.016 C 
BRANCH   3   5
ATOM      5  C   UNL     1      -2.755 -11.855  -7.394  1.00  0.00     0.015 C 
BRANCH   5   6
ATOM      6  C   UNL     1      -4.262 -11.549  -7.275  1.00  0.00     0.028 C 
BRANCH   6   7
ATOM      7  C   UNL     1      -5.176 -12.229  -8.266  1.00  0.00    -0.028 C 
ATOM      8  C   UNL     1      -5.732 -13.454  -8.129  1.00  0.00    -0.070 CG0
ATOM      9  C   UNL     1      -6.835 -13.826  -9.090  1.00  0.00     0.039 C 
ATOM     10  G   UNL     1      -5.317 -14.457  -7.064  1.00  0.00     0.000 G0
ENDBRANCH   6   7
ENDBRANCH   5   6
ENDBRANCH   3   5
ENDBRANCH   1   3
BRANCH   1  11
ATOM     11  C   UNL     1      -2.242 -15.541  -6.264  1.00  0.00     0.087 C 
BRANCH  11  12
ATOM     12  C   UNL     1      -3.464 -16.353  -6.788  1.00  0.00     0.066 C 
BRANCH  12  13
ATOM     13  C   UNL     1      -4.429 -15.539  -7.639  1.00  0.00     0.140 C 
ATOM     14  O   UNL     1      -4.522 -15.819  -8.826  1.00  0.00    -0.299 OA
BRANCH  13  15
ATOM     15  C   UNL     1      -5.334 -14.468  -7.070  1.00  0.00     0.106 CG0
ATOM     16  G   UNL     1      -5.724 -13.468  -8.147  1.00  0.00     0.000 G0
ENDBRANCH  13  15
ENDBRANCH  12  13
BRANCH  12  17
ATOM     17  C   UNL     1      -4.213 -17.087  -5.632  1.00  0.00    -0.006 C 
ATOM     18  C   UNL     1      -4.095 -16.320  -4.303  1.00  0.00     0.008 C 
ATOM     19  C   UNL     1      -3.688 -18.521  -5.425  1.00  0.00     0.008 C 
ENDBRANCH  12  17
ENDBRANCH  11  12
ENDBRANCH   1  11
TORSDOF 1
ENDMDL
MODEL 6
REMARK VINA RESULT:    -2.173      2.155      4.062
REMARK INTER + INTRA:          -2.647
REMARK INTER:                  -3.144
REMARK INTRA:                   0.497
REMARK UNBOUND:                 0.669
REMARK SMILES CC1=CCC[C@@H](C)C(=O)C[C@@H](C(C)C)C(=O)C1
REMARK SMILES IDX 8 1 9 2 6 3 7 4 5 5 4 6 3 7 2 8 1 9 10 11 11 12 15 13 16 14
REMARK SMILES IDX 17 15 12 17 13 18 14 19
REMARK H PARENT
REMARK Flexibility Score: 70.00
ROOT
ATOM      1  C   UNL     1      -2.906 -13.470  -8.184  1.00  0.00     0.136 C 
ATOM      2  O   UNL     1      -2.097 -13.851  -9.018  1.00  0.00    -0.299 OA
ENDROOT
BRANCH   1   3
ATOM      3  C   UNL     1      -4.289 -13.039  -8.646  1.00  0.00     0.053 C 
ATOM      4  C   UNL     1      -4.866 -12.040  -7.634  1.00  0.00     0.016 C 
BRANCH   3   5
ATOM      5  C   UNL     1      -5.262 -14.231  -8.856  1.00  0.00     0.015 C 
BRANCH   5   6
ATOM      6  C   UNL     1      -5.603 -15.052  -7.596  1.00  0.00     0.028 C 
BRANCH   6   7
ATOM      7  C   UNL     1      -4.752 -16.270  -7.324  1.00  0.00    -0.028 C 
ATOM      8  C   UNL     1      -4.333 -16.695  -6.111  1.00  0.00    -0.070 CG0
ATOM      9  C   UNL     1      -3.741 -18.082  -6.030  1.00  0.00     0.039 C 
ATOM     10  G   UNL     1      -4.437 -15.866  -4.841  1.00  0.00     0.000 G0
ENDBRANCH   6   7
ENDBRANCH   5   6
ENDBRANCH   3   5
ENDBRANCH   1   3
BRANCH   1  11
ATOM     11  C   UNL     1      -2.463 -13.313  -6.743  1.00  0.00     0.087 C 
BRANCH  11  12
ATOM     12  C   UNL     1      -2.327 -14.634  -5.930  1.00  0.00     0.066 C 
BRANCH  12  13
ATOM     13  C   UNL     1      -3.366 -14.793  -4.828  1.00  0.00     0.140 C 
ATOM     14  O   UNL     1      -3.386 -13.958  -3.934  1.00  0.00    -0.299 OA
BRANCH  13  15
ATOM     15  C   UNL     1      -4.421 -15.879  -4.835  1.00  0.00     0.106 CG0
ATOM     16  G   UNL     1      -4.341 -16.695  -6.115  1.00  0.00     0.000 G0
ENDBRANCH  13  15
ENDBRANCH  12  13
BRANCH  12  17
ATOM     17  C   UNL     1      -0.882 -14.829  -5.374  1.00  0.00    -0.006 C 
ATOM     18  C   UNL     1       0.182 -14.374  -6.389  1.00  0.00     0.008 C 
ATOM     19  C   UNL     1      -0.605 -16.296  -4.991  1.00  0.00     0.008 C 
ENDBRANCH  12  17
ENDBRANCH  11  12
ENDBRANCH   1  11
TORSDOF 1
ENDMDL
MODEL 7
REMARK VINA RESULT:    -1.995      1.877      3.288
REMARK INTER + INTRA:          -2.376
REMARK INTER:                  -3.706
REMARK INTRA:                   1.329
REMARK UNBOUND:                 0.669
REMARK SMILES CC1=CCC[C@@H](C)C(=O)C[C@@H](C(C)C)C(=O)C1
REMARK SMILES IDX 8 1 9 2 6 3 7 4 5 5 4 6 3 7 2 8 1 9 10 11 11 12 15 13 16 14
REMARK SMILES IDX 17 15 12 17 13 18 14 19
REMARK H PARENT
REMARK Flexibility Score: 70.00
ROOT
ATOM      1  C   UNL     1      -2.508 -12.727  -7.283  1.00  0.00     0.136 C 
ATOM      2  O   UNL     1      -2.736 -11.745  -6.593  1.00  0.00    -0.299 OA
ENDROOT
BRANCH   1   3
ATOM      3  C   UNL     1      -2.999 -12.746  -8.721  1.00  0.00     0.053 C 
ATOM      4  C   UNL     1      -3.928 -11.546  -8.950  1.00  0.00     0.016 C 
BRANCH   3   5
ATOM      5  C   UNL     1      -3.710 -14.072  -9.106  1.00  0.00     0.015 C 
BRANCH   5   6
ATOM      6  C   UNL     1      -5.252 -14.030  -9.120  1.00  0.00     0.028 C 
BRANCH   6   7
ATOM      7  C   UNL     1      -5.924 -13.285  -7.992  1.00  0.00    -0.028 C 
ATOM      8  C   UNL     1      -5.914 -13.636  -6.687  1.00  0.00    -0.070 CG0
ATOM      9  C   UNL     1      -6.398 -12.610  -5.690  1.00  0.00     0.039 C 
ATOM     10  G   UNL     1      -5.437 -14.987  -6.177  1.00  0.00     0.000 G0
ENDBRANCH   6   7
ENDBRANCH   5   6
ENDBRANCH   3   5
ENDBRANCH   1   3
BRANCH   1  11
ATOM     11  C   UNL     1      -1.865 -13.944  -6.645  1.00  0.00     0.087 C 
BRANCH  11  12
ATOM     12  C   UNL     1      -2.790 -15.187  -6.478  1.00  0.00     0.066 C 
BRANCH  12  13
ATOM     13  C   UNL     1      -4.027 -14.928  -5.630  1.00  0.00     0.140 C 
ATOM     14  O   UNL     1      -3.864 -14.574  -4.471  1.00  0.00    -0.299 OA
BRANCH  13  15
ATOM     15  C   UNL     1      -5.437 -15.005  -6.178  1.00  0.00     0.106 CG0
ATOM     16  G   UNL     1      -5.893 -13.642  -6.674  1.00  0.00     0.000 G0
ENDBRANCH  13  15
ENDBRANCH  12  13
BRANCH  12  17
ATOM     17  C   UNL     1      -2.003 -16.432  -5.962  1.00  0.00    -0.006 C 
ATOM     18  C   UNL     1      -2.935 -17.447  -5.276  1.00  0.00     0.008 C 
ATOM     19  C   UNL     1      -0.886 -16.039  -4.976  1.00  0.00     0.008 C 
ENDBRANCH  12  17
ENDBRANCH  11  12
ENDBRANCH   1  11
TORSDOF 1
ENDMDL
MODEL 8
REMARK VINA RESULT:    -1.799      1.738      4.206
REMARK INTER + INTRA:          -2.076
REMARK INTER:                  -2.447
REMARK INTRA:                   0.371
REMARK UNBOUND:                 0.669
REMARK SMILES CC1=CCC[C@@H](C)C(=O)C[C@@H](C(C)C)C(=O)C1
REMARK SMILES IDX 8 1 9 2 6 3 7 4 5 5 4 6 3 7 2 8 1 9 10 11 11 12 15 13 16 14
REMARK SMILES IDX 17 15 12 17 13 18 14 19
REMARK H PARENT
REMARK Flexibility Score: 70.00
ROOT
ATOM      1  C   UNL     1      -3.202 -13.787  -5.221  1.00  0.00     0.136 C 
ATOM      2  O   UNL     1      -4.044 -13.232  -4.530  1.00  0.00    -0.299 OA
ENDROOT
BRANCH   1   3
ATOM      3  C   UNL     1      -2.758 -15.193  -4.851  1.00  0.00     0.053 C 
ATOM      4  C   UNL     1      -1.548 -15.580  -5.713  1.00  0.00     0.016 C 
BRANCH   3   5
ATOM      5  C   UNL     1      -3.890 -16.247  -4.991  1.00  0.00     0.015 C 
BRANCH   5   6
ATOM      6  C   UNL     1      -4.291 -16.617  -6.433  1.00  0.00     0.028 C 
BRANCH   6   7
ATOM      7  C   UNL     1      -5.240 -15.679  -7.140  1.00  0.00    -0.028 C 
ATOM      8  C   UNL     1      -5.062 -15.138  -8.366  1.00  0.00    -0.070 CG0
ATOM      9  C   UNL     1      -6.252 -14.463  -9.005  1.00  0.00     0.039 C 
ATOM     10  G   UNL     1      -3.747 -15.185  -9.129  1.00  0.00     0.000 G0
ENDBRANCH   6   7
ENDBRANCH   5   6
ENDBRANCH   3   5
ENDBRANCH   1   3
BRANCH   1  11
ATOM     11  C   UNL     1      -2.532 -13.008  -6.336  1.00  0.00     0.087 C 
BRANCH  11  12
ATOM     12  C   UNL     1      -3.303 -12.967  -7.689  1.00  0.00     0.066 C 
BRANCH  12  13
ATOM     13  C   UNL     1      -2.863 -14.030  -8.686  1.00  0.00     0.140 C 
ATOM     14  O   UNL     1      -1.710 -13.991  -9.094  1.00  0.00    -0.299 OA
BRANCH  13  15
ATOM     15  C   UNL     1      -3.752 -15.175  -9.123  1.00  0.00     0.106 CG0
ATOM     16  G   UNL     1      -5.076 -15.139  -8.377  1.00  0.00     0.000 G0
ENDBRANCH  13  15
ENDBRANCH  12  13
BRANCH  12  17
ATOM     17  C   UNL     1      -3.274 -11.545  -8.332  1.00  0.00    -0.006 C 
ATOM     18  C   UNL     1      -2.783 -10.481  -7.334  1.00  0.00     0.008 C 
ATOM     19  C   UNL     1      -4.658 -11.125  -8.863  1.00  0.00     0.008 C 
ENDBRANCH  12  17
ENDBRANCH  11  12
ENDBRANCH   1  11
TORSDOF 1
ENDMDL
MODEL 9
REMARK VINA RESULT:    -1.789      1.689      3.017
REMARK INTER + INTRA:          -2.062
REMARK INTER:                  -3.745
REMARK INTRA:                   1.684
REMARK UNBOUND:                 0.669
REMARK SMILES CC1=CCC[C@@H](C)C(=O)C[C@@H](C(C)C)C(=O)C1
REMARK SMILES IDX 8 1 9 2 6 3 7 4 5 5 4 6 3 7 2 8 1 9 10 11 11 12 15 13 16 14
REMARK SMILES IDX 17 15 12 17 13 18 14 19
REMARK H PARENT
REMARK Flexibility Score: 70.00
ROOT
ATOM      1  C   UNL     1      -5.938 -12.949  -6.880  1.00  0.00     0.136 C 
ATOM      2  O   UNL     1      -6.016 -12.077  -6.027  1.00  0.00    -0.299 OA
ENDROOT
BRANCH   1   3
ATOM      3  C   UNL     1      -5.991 -12.550  -8.346  1.00  0.00     0.053 C 
ATOM      4  C   UNL     1      -6.790 -13.605  -9.123  1.00  0.00     0.016 C 
BRANCH   3   5
ATOM      5  C   UNL     1      -4.586 -12.350  -8.976  1.00  0.00     0.015 C 
BRANCH   5   6
ATOM      6  C   UNL     1      -3.555 -11.610  -8.101  1.00  0.00     0.028 C 
BRANCH   6   7
ATOM      7  C   UNL     1      -2.570 -12.463  -7.337  1.00  0.00    -0.028 C 
ATOM      8  C   UNL     1      -2.238 -13.743  -7.619  1.00  0.00    -0.070 CG0
ATOM      9  C   UNL     1      -1.030 -14.314  -6.915  1.00  0.00     0.039 C 
ATOM     10  G   UNL     1      -2.998 -14.618  -8.601  1.00  0.00     0.000 G0
ENDBRANCH   6   7
ENDBRANCH   5   6
ENDBRANCH   3   5
ENDBRANCH   1   3
BRANCH   1  11
ATOM     11  C   UNL     1      -5.927 -14.403  -6.450  1.00  0.00     0.087 C 
BRANCH  11  12
ATOM     12  C   UNL     1      -4.537 -15.107  -6.485  1.00  0.00     0.066 C 
BRANCH  12  13
ATOM     13  C   UNL     1      -4.045 -15.438  -7.887  1.00  0.00     0.140 C 
ATOM     14  O   UNL     1      -4.588 -16.358  -8.482  1.00  0.00    -0.299 OA
BRANCH  13  15
ATOM     15  C   UNL     1      -2.983 -14.632  -8.604  1.00  0.00     0.106 CG0
ATOM     16  G   UNL     1      -2.236 -13.741  -7.625  1.00  0.00     0.000 G0
ENDBRANCH  13  15
ENDBRANCH  12  13
BRANCH  12  17
ATOM     17  C   UNL     1      -4.500 -16.365  -5.562  1.00  0.00    -0.006 C 
ATOM     18  C   UNL     1      -4.436 -15.976  -4.074  1.00  0.00     0.008 C 
ATOM     19  C   UNL     1      -3.304 -17.281  -5.885  1.00  0.00     0.008 C 
ENDBRANCH  12  17
ENDBRANCH  11  12
ENDBRANCH   1  11
TORSDOF 1
ENDMDL
