MODEL 1
REMARK VINA RESULT:    -5.559      0.000      0.000
REMARK INTER + INTRA:          -6.183
REMARK INTER:                  -5.884
REMARK INTRA:                  -0.299
REMARK UNBOUND:                -0.299
REMARK SMILES C=C1CC[C@]2(C(C)C)C[C@H]12
REMARK SMILES IDX 5 1 4 2 3 3 2 4 1 5 10 6 9 7 6 8 7 9 8 10
REMARK H PARENT
REMARK Flexibility Score: inf
ROOT
ATOM      1  C   UNL     1       1.832  13.344   4.504  1.00  0.00    -0.020 C 
ATOM      2  C   UNL     1       2.227  13.755   5.933  1.00  0.00     0.012 C 
ATOM      3  C   UNL     1       1.210  13.126   6.887  1.00  0.00     0.031 C 
ATOM      4  C   UNL     1       0.228  12.431   6.006  1.00  0.00    -0.074 C 
ATOM      5  C   UNL     1      -0.852  11.795   6.468  1.00  0.00     0.008 C 
ATOM      6  C   UNL     1       0.548  12.530   4.557  1.00  0.00     0.021 C 
ATOM      7  C   UNL     1       0.525  13.940   3.977  1.00  0.00     0.016 C 
ENDROOT
BRANCH   1   8
ATOM      8  C   UNL     1       2.958  13.040   3.470  1.00  0.00    -0.011 C 
ATOM      9  C   UNL     1       4.177  13.979   3.512  1.00  0.00     0.008 C 
ATOM     10  C   UNL     1       3.407  11.580   3.605  1.00  0.00     0.008 C 
ENDBRANCH   1   8
TORSDOF 1
ENDMDL
MODEL 2
REMARK VINA RESULT:    -5.404      1.154      3.925
REMARK INTER + INTRA:          -6.018
REMARK INTER:                  -5.717
REMARK INTRA:                  -0.302
REMARK UNBOUND:                -0.299
REMARK SMILES C=C1CC[C@]2(C(C)C)C[C@H]12
REMARK SMILES IDX 5 1 4 2 3 3 2 4 1 5 10 6 9 7 6 8 7 9 8 10
REMARK H PARENT
REMARK Flexibility Score: inf
ROOT
ATOM      1  C   UNL     1       0.831  13.476   5.207  1.00  0.00    -0.020 C 
ATOM      2  C   UNL     1       0.649  14.091   3.809  1.00  0.00     0.012 C 
ATOM      3  C   UNL     1       1.684  13.444   2.886  1.00  0.00     0.031 C 
ATOM      4  C   UNL     1       2.472  12.533   3.765  1.00  0.00    -0.074 C 
ATOM      5  C   UNL     1       3.513  11.817   3.333  1.00  0.00     0.008 C 
ATOM      6  C   UNL     1       2.007  12.511   5.177  1.00  0.00     0.021 C 
ATOM      7  C   UNL     1       2.132  13.833   5.928  1.00  0.00     0.016 C 
ENDROOT
BRANCH   1   8
ATOM      8  C   UNL     1      -0.431  13.209   6.081  1.00  0.00    -0.011 C 
ATOM      9  C   UNL     1      -1.606  14.180   5.876  1.00  0.00     0.008 C 
ATOM     10  C   UNL     1      -0.899  11.761   5.891  1.00  0.00     0.008 C 
ENDBRANCH   1   8
TORSDOF 1
ENDMDL
MODEL 3
REMARK VINA RESULT:    -5.156      1.230      2.500
REMARK INTER + INTRA:          -5.756
REMARK INTER:                  -5.656
REMARK INTRA:                  -0.100
REMARK UNBOUND:                -0.299
REMARK SMILES C=C1CC[C@]2(C(C)C)C[C@H]12
REMARK SMILES IDX 5 1 4 2 3 3 2 4 1 5 10 6 9 7 6 8 7 9 8 10
REMARK H PARENT
REMARK Flexibility Score: inf
ROOT
ATOM      1  C   UNL     1       2.564  13.634   3.529  1.00  0.00    -0.020 C 
ATOM      2  C   UNL     1       1.060  13.891   3.337  1.00  0.00     0.012 C 
ATOM      3  C   UNL     1       0.389  13.722   4.702  1.00  0.00     0.031 C 
ATOM      4  C   UNL     1       1.486  13.316   5.626  1.00  0.00    -0.074 C 
ATOM      5  C   UNL     1       1.289  13.023   6.915  1.00  0.00     0.008 C 
ATOM      6  C   UNL     1       2.821  13.242   4.976  1.00  0.00     0.021 C 
ATOM      7  C   UNL     1       2.956  12.196   3.875  1.00  0.00     0.016 C 
ENDROOT
BRANCH   1   8
ATOM      8  C   UNL     1       3.583  14.486   2.713  1.00  0.00    -0.011 C 
ATOM      9  C   UNL     1       2.982  15.626   1.874  1.00  0.00     0.008 C 
ATOM     10  C   UNL     1       4.671  15.030   3.646  1.00  0.00     0.008 C 
ENDBRANCH   1   8
TORSDOF 1
ENDMDL
MODEL 4
REMARK VINA RESULT:    -5.074      1.583      2.908
REMARK INTER + INTRA:          -5.670
REMARK INTER:                  -5.367
REMARK INTRA:                  -0.303
REMARK UNBOUND:                -0.299
REMARK SMILES C=C1CC[C@]2(C(C)C)C[C@H]12
REMARK SMILES IDX 5 1 4 2 3 3 2 4 1 5 10 6 9 7 6 8 7 9 8 10
REMARK H PARENT
REMARK Flexibility Score: inf
ROOT
ATOM      1  C   UNL     1       1.874  13.245   3.407  1.00  0.00    -0.020 C 
ATOM      2  C   UNL     1       0.501  13.398   4.085  1.00  0.00     0.012 C 
ATOM      3  C   UNL     1       0.750  13.625   5.577  1.00  0.00     0.031 C 
ATOM      4  C   UNL     1       2.229  13.536   5.741  1.00  0.00    -0.074 C 
ATOM      5  C   UNL     1       2.843  13.634   6.924  1.00  0.00     0.008 C 
ATOM      6  C   UNL     1       2.962  13.305   4.468  1.00  0.00     0.021 C 
ATOM      7  C   UNL     1       2.659  11.983   3.770  1.00  0.00     0.016 C 
ENDROOT
BRANCH   1   8
ATOM      8  C   UNL     1       2.079  13.841   1.982  1.00  0.00    -0.011 C 
ATOM      9  C   UNL     1       0.850  13.807   1.057  1.00  0.00     0.008 C 
ATOM     10  C   UNL     1       2.624  15.270   2.089  1.00  0.00     0.008 C 
ENDBRANCH   1   8
TORSDOF 1
ENDMDL
MODEL 5
REMARK VINA RESULT:    -5.014      1.034      3.989
REMARK INTER + INTRA:          -5.606
REMARK INTER:                  -5.302
REMARK INTRA:                  -0.303
REMARK UNBOUND:                -0.299
REMARK SMILES C=C1CC[C@]2(C(C)C)C[C@H]12
REMARK SMILES IDX 5 1 4 2 3 3 2 4 1 5 10 6 9 7 6 8 7 9 8 10
REMARK H PARENT
REMARK Flexibility Score: inf
ROOT
ATOM      1  C   UNL     1       1.356  13.110   4.196  1.00  0.00    -0.020 C 
ATOM      2  C   UNL     1       2.249  11.859   4.145  1.00  0.00     0.012 C 
ATOM      3  C   UNL     1       3.677  12.327   3.859  1.00  0.00     0.031 C 
ATOM      4  C   UNL     1       3.574  13.805   3.690  1.00  0.00    -0.074 C 
ATOM      5  C   UNL     1       4.615  14.582   3.377  1.00  0.00     0.008 C 
ATOM      6  C   UNL     1       2.198  14.336   3.878  1.00  0.00     0.021 C 
ATOM      7  C   UNL     1       1.164  13.847   2.869  1.00  0.00     0.016 C 
ENDROOT
BRANCH   1   8
ATOM      8  C   UNL     1       0.187  13.158   5.227  1.00  0.00    -0.011 C 
ATOM      9  C   UNL     1      -0.522  11.820   5.499  1.00  0.00     0.008 C 
ATOM     10  C   UNL     1       0.678  13.777   6.541  1.00  0.00     0.008 C 
ENDBRANCH   1   8
TORSDOF 1
ENDMDL
MODEL 6
REMARK VINA RESULT:    -4.799      1.771      4.230
REMARK INTER + INTRA:          -5.378
REMARK INTER:                  -5.332
REMARK INTRA:                  -0.046
REMARK UNBOUND:                -0.299
REMARK SMILES C=C1CC[C@]2(C(C)C)C[C@H]12
REMARK SMILES IDX 5 1 4 2 3 3 2 4 1 5 10 6 9 7 6 8 7 9 8 10
REMARK H PARENT
REMARK Flexibility Score: inf
ROOT
ATOM      1  C   UNL     1       2.359  13.651   3.520  1.00  0.00    -0.020 C 
ATOM      2  C   UNL     1       3.825  14.078   3.712  1.00  0.00     0.012 C 
ATOM      3  C   UNL     1       4.071  15.287   2.808  1.00  0.00     0.031 C 
ATOM      4  C   UNL     1       2.789  15.493   2.076  1.00  0.00    -0.074 C 
ATOM      5  C   UNL     1       2.618  16.436   1.146  1.00  0.00     0.008 C 
ATOM      6  C   UNL     1       1.719  14.535   2.461  1.00  0.00     0.021 C 
ATOM      7  C   UNL     1       2.009  13.070   2.149  1.00  0.00     0.016 C 
ENDROOT
BRANCH   1   8
ATOM      8  C   UNL     1       1.559  13.131   4.753  1.00  0.00    -0.011 C 
ATOM      9  C   UNL     1       2.221  13.354   6.124  1.00  0.00     0.008 C 
ATOM     10  C   UNL     1       0.146  13.723   4.743  1.00  0.00     0.008 C 
ENDBRANCH   1   8
TORSDOF 1
ENDMDL
MODEL 7
REMARK VINA RESULT:    -4.641      2.721      3.943
REMARK INTER + INTRA:          -5.211
REMARK INTER:                  -5.031
REMARK INTRA:                  -0.179
REMARK UNBOUND:                -0.299
REMARK SMILES C=C1CC[C@]2(C(C)C)C[C@H]12
REMARK SMILES IDX 5 1 4 2 3 3 2 4 1 5 10 6 9 7 6 8 7 9 8 10
REMARK H PARENT
REMARK Flexibility Score: inf
ROOT
ATOM      1  C   UNL     1       2.256  14.781   2.012  1.00  0.00    -0.020 C 
ATOM      2  C   UNL     1       3.559  15.251   2.681  1.00  0.00     0.012 C 
ATOM      3  C   UNL     1       4.158  14.049   3.415  1.00  0.00     0.031 C 
ATOM      4  C   UNL     1       3.176  12.945   3.215  1.00  0.00    -0.074 C 
ATOM      5  C   UNL     1       3.319  11.730   3.752  1.00  0.00     0.008 C 
ATOM      6  C   UNL     1       2.006  13.326   2.380  1.00  0.00     0.021 C 
ATOM      7  C   UNL     1       1.114  14.417   2.963  1.00  0.00     0.016 C 
ENDROOT
BRANCH   1   8
ATOM      8  C   UNL     1       1.879  15.353   0.613  1.00  0.00    -0.011 C 
ATOM      9  C   UNL     1       2.825  16.429   0.052  1.00  0.00     0.008 C 
ATOM     10  C   UNL     1       1.723  14.207  -0.393  1.00  0.00     0.008 C 
ENDBRANCH   1   8
TORSDOF 1
ENDMDL
MODEL 8
REMARK VINA RESULT:    -4.597      2.018      3.716
REMARK INTER + INTRA:          -5.164
REMARK INTER:                  -4.902
REMARK INTRA:                  -0.263
REMARK UNBOUND:                -0.299
REMARK SMILES C=C1CC[C@]2(C(C)C)C[C@H]12
REMARK SMILES IDX 5 1 4 2 3 3 2 4 1 5 10 6 9 7 6 8 7 9 8 10
REMARK H PARENT
REMARK Flexibility Score: inf
ROOT
ATOM      1  C   UNL     1       1.972  13.981   3.176  1.00  0.00    -0.020 C 
ATOM      2  C   UNL     1       0.508  14.284   3.540  1.00  0.00     0.012 C 
ATOM      3  C   UNL     1      -0.325  14.107   2.269  1.00  0.00     0.031 C 
ATOM      4  C   UNL     1       0.661  13.775   1.201  1.00  0.00    -0.074 C 
ATOM      5  C   UNL     1       0.324  13.593  -0.078  1.00  0.00     0.008 C 
ATOM      6  C   UNL     1       2.064  13.688   1.687  1.00  0.00     0.021 C 
ATOM      7  C   UNL     1       2.647  14.984   2.239  1.00  0.00     0.016 C 
ENDROOT
BRANCH   1   8
ATOM      8  C   UNL     1       2.869  13.246   4.217  1.00  0.00    -0.011 C 
ATOM      9  C   UNL     1       2.360  13.259   5.669  1.00  0.00     0.008 C 
ATOM     10  C   UNL     1       3.127  11.806   3.757  1.00  0.00     0.008 C 
ENDBRANCH   1   8
TORSDOF 1
ENDMDL
MODEL 9
REMARK VINA RESULT:    -4.311      2.870      4.657
REMARK INTER + INTRA:          -4.862
REMARK INTER:                  -4.569
REMARK INTRA:                  -0.293
REMARK UNBOUND:                -0.299
REMARK SMILES C=C1CC[C@]2(C(C)C)C[C@H]12
REMARK SMILES IDX 5 1 4 2 3 3 2 4 1 5 10 6 9 7 6 8 7 9 8 10
REMARK H PARENT
REMARK Flexibility Score: inf
ROOT
ATOM      1  C   UNL     1       0.973  14.339   1.575  1.00  0.00    -0.020 C 
ATOM      2  C   UNL     1       1.745  15.634   1.268  1.00  0.00     0.012 C 
ATOM      3  C   UNL     1       3.088  15.550   1.996  1.00  0.00     0.031 C 
ATOM      4  C   UNL     1       3.042  14.264   2.748  1.00  0.00    -0.074 C 
ATOM      5  C   UNL     1       4.023  13.850   3.555  1.00  0.00     0.008 C 
ATOM      6  C   UNL     1       1.790  13.490   2.537  1.00  0.00     0.021 C 
ATOM      7  C   UNL     1       0.513  14.166   3.024  1.00  0.00     0.016 C 
ENDROOT
BRANCH   1   8
ATOM      8  C   UNL     1       0.096  13.703   0.456  1.00  0.00    -0.011 C 
ATOM      9  C   UNL     1      -0.762  14.684  -0.363  1.00  0.00     0.008 C 
ATOM     10  C   UNL     1       0.973  12.859  -0.476  1.00  0.00     0.008 C 
ENDBRANCH   1   8
TORSDOF 1
ENDMDL
