MODEL 1
REMARK VINA RESULT:    -3.558      0.000      0.000
REMARK INTER + INTRA:          -4.388
REMARK INTER:                  -4.078
REMARK INTRA:                  -0.310
REMARK UNBOUND:                -0.310
REMARK SMILES O=C1C[C@@H](c2ccc(O)cc2)Oc2cc(O)cc(O)c21
REMARK SMILES IDX 3 1 4 2 12 3 13 4 14 5 15 6 17 7 18 8 20 9 2 10 1 11 5 12
REMARK SMILES IDX 6 13 11 14 7 15 10 16 8 17 9 18 19 20 16 22
REMARK H PARENT 9 19 19 21 16 23
REMARK Flexibility Score: inf
ROOT
ATOM      1  C   UNL     1      -7.181 -22.841  19.728  1.00  0.00     0.131 C 
ATOM      2  C   UNL     1      -8.695 -23.110  19.738  1.00  0.00     0.211 C 
ATOM      3  O   UNL     1      -9.380 -22.161  18.918  1.00  0.00    -0.484 OA
ATOM      4  C   UNL     1      -8.894 -21.775  17.663  1.00  0.00     0.138 A 
ATOM      5  C   UNL     1      -9.739 -21.106  16.774  1.00  0.00     0.093 A 
ATOM      6  C   UNL     1      -9.280 -20.735  15.508  1.00  0.00     0.123 A 
ATOM      7  C   UNL     1      -7.963 -21.030  15.132  1.00  0.00     0.093 A 
ATOM      8  C   UNL     1      -7.098 -21.684  16.022  1.00  0.00     0.133 A 
ATOM      9  C   UNL     1      -7.561 -22.057  17.301  1.00  0.00     0.102 A 
ATOM     10  C   UNL     1      -6.692 -22.705  18.313  1.00  0.00     0.174 C 
ATOM     11  O   UNL     1      -5.531 -23.096  18.021  1.00  0.00    -0.294 OA
ENDROOT
BRANCH   2  12
ATOM     12  C   UNL     1      -9.235 -23.062  21.147  1.00  0.00    -0.007 A 
ATOM     13  C   UNL     1      -8.358 -23.125  22.244  1.00  0.00     0.011 A 
ATOM     14  C   UNL     1     -10.612 -22.899  21.381  1.00  0.00     0.011 A 
ATOM     15  C   UNL     1      -8.853 -23.051  23.549  1.00  0.00     0.046 A 
ATOM     16  C   UNL     1     -11.104 -22.825  22.687  1.00  0.00     0.046 A 
ATOM     17  C   UNL     1     -10.227 -22.902  23.774  1.00  0.00     0.115 A 
BRANCH  17  18
ATOM     18  O   UNL     1     -10.732 -22.827  25.070  1.00  0.00    -0.508 OA
ATOM     19  H   UNL     1     -10.122 -22.873  25.879  1.00  0.00     0.293 HD
ENDBRANCH  17  18
ENDBRANCH   2  12
BRANCH   8  20
ATOM     20  O   UNL     1      -5.785 -21.953  15.634  1.00  0.00    -0.507 OA
ATOM     21  H   UNL     1      -4.993 -21.588  16.149  1.00  0.00     0.293 HD
ENDBRANCH   8  20
BRANCH   6  22
ATOM     22  O   UNL     1     -10.138 -20.077  14.631  1.00  0.00    -0.508 OA
ATOM     23  H   UNL     1      -9.852 -19.839  13.689  1.00  0.00     0.293 HD
ENDBRANCH   6  22
TORSDOF 4
ENDMDL
MODEL 2
REMARK VINA RESULT:    -2.904      1.359      2.954
REMARK INTER + INTRA:          -3.638
REMARK INTER:                  -3.332
REMARK INTRA:                  -0.306
REMARK UNBOUND:                -0.310
REMARK SMILES O=C1C[C@@H](c2ccc(O)cc2)Oc2cc(O)cc(O)c21
REMARK SMILES IDX 3 1 4 2 12 3 13 4 14 5 15 6 17 7 18 8 20 9 2 10 1 11 5 12
REMARK SMILES IDX 6 13 11 14 7 15 10 16 8 17 9 18 19 20 16 22
REMARK H PARENT 9 19 19 21 16 23
REMARK Flexibility Score: inf
ROOT
ATOM      1  C   UNL     1     -10.647 -21.082  18.752  1.00  0.00     0.131 C 
ATOM      2  C   UNL     1      -9.492 -20.996  19.764  1.00  0.00     0.211 C 
ATOM      3  O   UNL     1      -8.381 -21.782  19.327  1.00  0.00    -0.484 OA
ATOM      4  C   UNL     1      -7.951 -21.784  17.994  1.00  0.00     0.138 A 
ATOM      5  C   UNL     1      -6.692 -22.300  17.679  1.00  0.00     0.093 A 
ATOM      6  C   UNL     1      -6.236 -22.289  16.358  1.00  0.00     0.123 A 
ATOM      7  C   UNL     1      -7.049 -21.764  15.346  1.00  0.00     0.093 A 
ATOM      8  C   UNL     1      -8.324 -21.259  15.646  1.00  0.00     0.133 A 
ATOM      9  C   UNL     1      -8.785 -21.273  16.979  1.00  0.00     0.102 A 
ATOM     10  C   UNL     1     -10.138 -20.804  17.366  1.00  0.00     0.174 C 
ATOM     11  O   UNL     1     -10.889 -20.224  16.537  1.00  0.00    -0.294 OA
ENDROOT
BRANCH   2  12
ATOM     12  C   UNL     1      -9.945 -21.455  21.130  1.00  0.00    -0.007 A 
ATOM     13  C   UNL     1      -9.535 -22.703  21.629  1.00  0.00     0.011 A 
ATOM     14  C   UNL     1     -10.734 -20.619  21.940  1.00  0.00     0.011 A 
ATOM     15  C   UNL     1      -9.928 -23.117  22.905  1.00  0.00     0.046 A 
ATOM     16  C   UNL     1     -11.125 -21.036  23.216  1.00  0.00     0.046 A 
ATOM     17  C   UNL     1     -10.725 -22.285  23.701  1.00  0.00     0.115 A 
BRANCH  17  18
ATOM     18  O   UNL     1     -11.123 -22.687  24.974  1.00  0.00    -0.508 OA
ATOM     19  H   UNL     1     -11.082 -22.054  25.766  1.00  0.00     0.293 HD
ENDBRANCH  17  18
ENDBRANCH   2  12
BRANCH   8  20
ATOM     20  O   UNL     1      -9.125 -20.756  14.621  1.00  0.00    -0.507 OA
ATOM     21  H   UNL     1      -8.891 -20.896  13.645  1.00  0.00     0.293 HD
ENDBRANCH   8  20
BRANCH   6  22
ATOM     22  O   UNL     1      -4.974 -22.800  16.062  1.00  0.00    -0.508 OA
ATOM     23  H   UNL     1      -4.129 -22.304  16.319  1.00  0.00     0.293 HD
ENDBRANCH   6  22
TORSDOF 4
ENDMDL
MODEL 3
REMARK VINA RESULT:    -2.086     14.011     17.799
REMARK INTER + INTRA:          -2.701
REMARK INTER:                  -2.383
REMARK INTRA:                  -0.318
REMARK UNBOUND:                -0.310
REMARK SMILES O=C1C[C@@H](c2ccc(O)cc2)Oc2cc(O)cc(O)c21
REMARK SMILES IDX 3 1 4 2 12 3 13 4 14 5 15 6 17 7 18 8 20 9 2 10 1 11 5 12
REMARK SMILES IDX 6 13 11 14 7 15 10 16 8 17 9 18 19 20 16 22
REMARK H PARENT 9 19 19 21 16 23
REMARK Flexibility Score: inf
ROOT
ATOM      1  C   UNL     1       5.015 -22.730  12.145  1.00  0.00     0.131 C 
ATOM      2  C   UNL     1       6.499 -23.125  12.219  1.00  0.00     0.211 C 
ATOM      3  O   UNL     1       7.165 -22.385  13.245  1.00  0.00    -0.484 OA
ATOM      4  C   UNL     1       6.585 -22.168  14.501  1.00  0.00     0.138 A 
ATOM      5  C   UNL     1       7.383 -21.730  15.561  1.00  0.00     0.093 A 
ATOM      6  C   UNL     1       6.827 -21.531  16.827  1.00  0.00     0.123 A 
ATOM      7  C   UNL     1       5.461 -21.766  17.032  1.00  0.00     0.093 A 
ATOM      8  C   UNL     1       4.644 -22.188  15.972  1.00  0.00     0.133 A 
ATOM      9  C   UNL     1       5.206 -22.387  14.693  1.00  0.00     0.102 A 
ATOM     10  C   UNL     1       4.398 -22.783  13.513  1.00  0.00     0.174 C 
ATOM     11  O   UNL     1       3.188 -23.113  13.633  1.00  0.00    -0.294 OA
ENDROOT
BRANCH   2  12
ATOM     12  C   UNL     1       7.179 -22.896  10.891  1.00  0.00    -0.007 A 
ATOM     13  C   UNL     1       6.484 -23.125   9.692  1.00  0.00     0.011 A 
ATOM     14  C   UNL     1       8.494 -22.400  10.837  1.00  0.00     0.011 A 
ATOM     15  C   UNL     1       7.102 -22.885   8.461  1.00  0.00     0.046 A 
ATOM     16  C   UNL     1       9.109 -22.162   9.605  1.00  0.00     0.046 A 
ATOM     17  C   UNL     1       8.417 -22.404   8.415  1.00  0.00     0.115 A 
BRANCH  17  18
ATOM     18  O   UNL     1       9.043 -22.162   7.193  1.00  0.00    -0.508 OA
ATOM     19  H   UNL     1       9.805 -22.744   6.865  1.00  0.00     0.293 HD
ENDBRANCH  17  18
ENDBRANCH   2  12
BRANCH   8  20
ATOM     20  O   UNL     1       3.283 -22.401  16.192  1.00  0.00    -0.507 OA
ATOM     21  H   UNL     1       2.767 -23.111  15.687  1.00  0.00     0.293 HD
ENDBRANCH   8  20
BRANCH   6  22
ATOM     22  O   UNL     1       7.638 -21.102  17.874  1.00  0.00    -0.508 OA
ATOM     23  H   UNL     1       8.488 -20.577  17.706  1.00  0.00     0.293 HD
ENDBRANCH   6  22
TORSDOF 4
ENDMDL
MODEL 4
REMARK VINA RESULT:    -1.970      2.715      7.166
REMARK INTER + INTRA:          -2.567
REMARK INTER:                  -2.282
REMARK INTRA:                  -0.286
REMARK UNBOUND:                -0.310
REMARK SMILES O=C1C[C@@H](c2ccc(O)cc2)Oc2cc(O)cc(O)c21
REMARK SMILES IDX 3 1 4 2 12 3 13 4 14 5 15 6 17 7 18 8 20 9 2 10 1 11 5 12
REMARK SMILES IDX 6 13 11 14 7 15 10 16 8 17 9 18 19 20 16 22
REMARK H PARENT 9 19 19 21 16 23
REMARK Flexibility Score: inf
ROOT
ATOM      1  C   UNL     1     -10.740 -22.019  19.187  1.00  0.00     0.131 C 
ATOM      2  C   UNL     1      -9.625 -21.083  18.692  1.00  0.00     0.211 C 
ATOM      3  O   UNL     1      -9.693 -19.822  19.362  1.00  0.00    -0.484 OA
ATOM      4  C   UNL     1      -9.930 -19.723  20.738  1.00  0.00     0.138 A 
ATOM      5  C   UNL     1      -9.674 -18.517  21.395  1.00  0.00     0.093 A 
ATOM      6  C   UNL     1      -9.881 -18.406  22.772  1.00  0.00     0.123 A 
ATOM      7  C   UNL     1     -10.356 -19.507  23.495  1.00  0.00     0.093 A 
ATOM      8  C   UNL     1     -10.636 -20.719  22.845  1.00  0.00     0.133 A 
ATOM      9  C   UNL     1     -10.429 -20.830  21.454  1.00  0.00     0.102 A 
ATOM     10  C   UNL     1     -10.750 -22.060  20.689  1.00  0.00     0.174 C 
ATOM     11  O   UNL     1     -11.081 -23.125  21.276  1.00  0.00    -0.294 OA
ENDROOT
BRANCH   2  12
ATOM     12  C   UNL     1      -9.720 -20.883  17.199  1.00  0.00    -0.007 A 
ATOM     13  C   UNL     1     -10.876 -20.319  16.633  1.00  0.00     0.011 A 
ATOM     14  C   UNL     1      -8.636 -21.205  16.363  1.00  0.00     0.011 A 
ATOM     15  C   UNL     1     -10.955 -20.105  15.254  1.00  0.00     0.046 A 
ATOM     16  C   UNL     1      -8.718 -20.990  14.985  1.00  0.00     0.046 A 
ATOM     17  C   UNL     1      -9.877 -20.441  14.427  1.00  0.00     0.115 A 
BRANCH  17  18
ATOM     18  O   UNL     1      -9.944 -20.232  13.050  1.00  0.00    -0.508 OA
ATOM     19  H   UNL     1      -9.512 -19.423  12.616  1.00  0.00     0.293 HD
ENDBRANCH  17  18
ENDBRANCH   2  12
BRANCH   8  20
ATOM     20  O   UNL     1     -11.125 -21.799  23.580  1.00  0.00    -0.507 OA
ATOM     21  H   UNL     1     -11.885 -21.693  24.241  1.00  0.00     0.293 HD
ENDBRANCH   8  20
BRANCH   6  22
ATOM     22  O   UNL     1      -9.611 -17.199  23.413  1.00  0.00    -0.508 OA
ATOM     23  H   UNL     1      -8.667 -16.932  23.662  1.00  0.00     0.293 HD
ENDBRANCH   6  22
TORSDOF 4
ENDMDL
MODEL 5
REMARK VINA RESULT:    -1.741     14.359     17.981
REMARK INTER + INTRA:          -2.306
REMARK INTER:                  -2.002
REMARK INTRA:                  -0.304
REMARK UNBOUND:                -0.310
REMARK SMILES O=C1C[C@@H](c2ccc(O)cc2)Oc2cc(O)cc(O)c21
REMARK SMILES IDX 3 1 4 2 12 3 13 4 14 5 15 6 17 7 18 8 20 9 2 10 1 11 5 12
REMARK SMILES IDX 6 13 11 14 7 15 10 16 8 17 9 18 19 20 16 22
REMARK H PARENT 9 19 19 21 16 23
REMARK Flexibility Score: inf
ROOT
ATOM      1  C   UNL     1       8.356 -21.766  13.279  1.00  0.00     0.131 C 
ATOM      2  C   UNL     1       7.300 -21.391  12.227  1.00  0.00     0.211 C 
ATOM      3  O   UNL     1       6.075 -22.084  12.474  1.00  0.00    -0.484 OA
ATOM      4  C   UNL     1       5.548 -22.224  13.764  1.00  0.00     0.138 A 
ATOM      5  C   UNL     1       4.217 -22.618  13.924  1.00  0.00     0.093 A 
ATOM      6  C   UNL     1       3.666 -22.740  15.202  1.00  0.00     0.123 A 
ATOM      7  C   UNL     1       4.455 -22.473  16.328  1.00  0.00     0.093 A 
ATOM      8  C   UNL     1       5.799 -22.095  16.182  1.00  0.00     0.133 A 
ATOM      9  C   UNL     1       6.355 -21.975  14.891  1.00  0.00     0.102 A 
ATOM     10  C   UNL     1       7.779 -21.629  14.659  1.00  0.00     0.174 C 
ATOM     11  O   UNL     1       8.527 -21.275  15.609  1.00  0.00    -0.294 OA
ENDROOT
BRANCH   2  12
ATOM     12  C   UNL     1       7.799 -21.701  10.836  1.00  0.00    -0.007 A 
ATOM     13  C   UNL     1       7.352 -22.851  10.164  1.00  0.00     0.011 A 
ATOM     14  C   UNL     1       8.670 -20.817  10.175  1.00  0.00     0.011 A 
ATOM     15  C   UNL     1       7.789 -23.125   8.865  1.00  0.00     0.046 A 
ATOM     16  C   UNL     1       9.105 -21.093   8.875  1.00  0.00     0.046 A 
ATOM     17  C   UNL     1       8.668 -22.247   8.218  1.00  0.00     0.115 A 
BRANCH  17  18
ATOM     18  O   UNL     1       9.110 -22.510   6.923  1.00  0.00    -0.508 OA
ATOM     19  H   UNL     1       9.388 -21.762   6.297  1.00  0.00     0.293 HD
ENDBRANCH  17  18
ENDBRANCH   2  12
BRANCH   8  20
ATOM     20  O   UNL     1       6.573 -21.850  17.317  1.00  0.00    -0.507 OA
ATOM     21  H   UNL     1       6.155 -21.562  18.194  1.00  0.00     0.293 HD
ENDBRANCH   8  20
BRANCH   6  22
ATOM     22  O   UNL     1       2.335 -23.125  15.343  1.00  0.00    -0.508 OA
ATOM     23  H   UNL     1       2.043 -24.084  15.201  1.00  0.00     0.293 HD
ENDBRANCH   6  22
TORSDOF 4
ENDMDL
MODEL 6
REMARK VINA RESULT:    -1.593     11.888     14.343
REMARK INTER + INTRA:          -2.136
REMARK INTER:                  -1.836
REMARK INTRA:                  -0.300
REMARK UNBOUND:                -0.310
REMARK SMILES O=C1C[C@@H](c2ccc(O)cc2)Oc2cc(O)cc(O)c21
REMARK SMILES IDX 3 1 4 2 12 3 13 4 14 5 15 6 17 7 18 8 20 9 2 10 1 11 5 12
REMARK SMILES IDX 6 13 11 14 7 15 10 16 8 17 9 18 19 20 16 22
REMARK H PARENT 9 19 19 21 16 23
REMARK Flexibility Score: inf
ROOT
ATOM      1  C   UNL     1       4.843 -21.573  16.716  1.00  0.00     0.131 C 
ATOM      2  C   UNL     1       4.027 -22.551  15.855  1.00  0.00     0.211 C 
ATOM      3  O   UNL     1       4.449 -22.492  14.490  1.00  0.00    -0.484 OA
ATOM      4  C   UNL     1       5.802 -22.433  14.133  1.00  0.00     0.138 A 
ATOM      5  C   UNL     1       6.176 -22.697  12.813  1.00  0.00     0.093 A 
ATOM      6  C   UNL     1       7.523 -22.666  12.442  1.00  0.00     0.123 A 
ATOM      7  C   UNL     1       8.501 -22.363  13.398  1.00  0.00     0.093 A 
ATOM      8  C   UNL     1       8.137 -22.077  14.723  1.00  0.00     0.133 A 
ATOM      9  C   UNL     1       6.777 -22.105  15.096  1.00  0.00     0.102 A 
ATOM     10  C   UNL     1       6.312 -21.766  16.463  1.00  0.00     0.174 C 
ATOM     11  O   UNL     1       7.130 -21.583  17.404  1.00  0.00    -0.294 OA
ENDROOT
BRANCH   2  12
ATOM     12  C   UNL     1       2.552 -22.247  15.954  1.00  0.00    -0.007 A 
ATOM     13  C   UNL     1       2.101 -21.185  16.757  1.00  0.00     0.011 A 
ATOM     14  C   UNL     1       1.617 -22.983  15.205  1.00  0.00     0.011 A 
ATOM     15  C   UNL     1       0.739 -20.882  16.827  1.00  0.00     0.046 A 
ATOM     16  C   UNL     1       0.255 -22.678  15.277  1.00  0.00     0.046 A 
ATOM     17  C   UNL     1      -0.188 -21.628  16.089  1.00  0.00     0.115 A 
BRANCH  17  18
ATOM     18  O   UNL     1      -1.549 -21.335  16.151  1.00  0.00    -0.508 OA
ATOM     19  H   UNL     1      -2.058 -21.008  15.337  1.00  0.00     0.293 HD
ENDBRANCH  17  18
ENDBRANCH   2  12
BRANCH   8  20
ATOM     20  O   UNL     1       9.125 -21.760  15.656  1.00  0.00    -0.507 OA
ATOM     21  H   UNL     1       8.893 -21.459  16.595  1.00  0.00     0.293 HD
ENDBRANCH   8  20
BRANCH   6  22
ATOM     22  O   UNL     1       7.879 -22.941  11.124  1.00  0.00    -0.508 OA
ATOM     23  H   UNL     1       8.266 -23.838  10.856  1.00  0.00     0.293 HD
ENDBRANCH   6  22
TORSDOF 4
ENDMDL
