MODEL 1
REMARK VINA RESULT:    -5.851      0.000      0.000
REMARK INTER + INTRA:         -14.640
REMARK INTER:                 -13.376
REMARK INTRA:                  -1.263
REMARK UNBOUND:                -1.263
REMARK SMILES CCCCCCCCCCCCCCCCCCCCCCCC(=O)[O-]
REMARK SMILES IDX 13 1 14 2 15 3 16 4 17 5 18 6 19 7 20 8 21 9 22 10 23 11
REMARK SMILES IDX 24 12 25 13 26 14 12 15 11 16 10 17 9 18 8 19 7 20 6 21 5 22
REMARK SMILES IDX 4 23 3 24 2 25 1 26
REMARK H PARENT
REMARK Flexibility Score: inf
ROOT
ATOM      1  C   UNL     1      27.847  39.015  33.719  1.00  0.00     0.000 C 
ENDROOT
BRANCH   1   2
ATOM      2  C   UNL     1      27.498  37.548  33.413  1.00  0.00     0.000 C 
BRANCH   2   3
ATOM      3  C   UNL     1      27.394  37.268  31.906  1.00  0.00     0.000 C 
BRANCH   3   4
ATOM      4  C   UNL     1      27.924  35.874  31.527  1.00  0.00     0.000 C 
BRANCH   4   5
ATOM      5  C   UNL     1      28.416  35.802  30.074  1.00  0.00     0.000 C 
BRANCH   5   6
ATOM      6  C   UNL     1      28.406  34.367  29.517  1.00  0.00     0.000 C 
BRANCH   6   7
ATOM      7  C   UNL     1      27.383  33.466  30.225  1.00  0.00     0.000 C 
BRANCH   7   8
ATOM      8  C   UNL     1      26.221  33.052  29.304  1.00  0.00     0.000 C 
BRANCH   8   9
ATOM      9  C   UNL     1      24.856  33.516  29.835  1.00  0.00     0.000 C 
BRANCH   9  10
ATOM     10  C   UNL     1      23.706  32.593  29.396  1.00  0.00     0.006 C 
BRANCH  10  11
ATOM     11  C   UNL     1      24.038  31.822  28.112  1.00  0.00     0.053 C 
BRANCH  11  12
ATOM     12  C   UNL     1      23.964  30.340  28.316  1.00  0.00     0.041 C 
ATOM     13  O   UNL     1      22.922  29.818  28.795  1.00  0.00    -0.550 OA
ATOM     14  O   UNL     1      25.032  29.534  27.947  1.00  0.00    -0.550 OA
ENDBRANCH  11  12
ENDBRANCH  10  11
ENDBRANCH   9  10
ENDBRANCH   8   9
ENDBRANCH   7   8
ENDBRANCH   6   7
ENDBRANCH   5   6
ENDBRANCH   4   5
ENDBRANCH   3   4
ENDBRANCH   2   3
ENDBRANCH   1   2
BRANCH   1  15
ATOM     15  C   UNL     1      28.065  39.849  32.446  1.00  0.00     0.000 C 
BRANCH  15  16
ATOM     16  C   UNL     1      27.819  41.350  32.672  1.00  0.00     0.000 C 
BRANCH  16  17
ATOM     17  C   UNL     1      27.507  41.692  34.140  1.00  0.00     0.000 C 
BRANCH  17  18
ATOM     18  C   UNL     1      27.951  43.096  34.589  1.00  0.00    -0.000 C 
BRANCH  18  19
ATOM     19  C   UNL     1      26.801  43.927  35.182  1.00  0.00    -0.000 C 
BRANCH  19  20
ATOM     20  C   UNL     1      25.623  43.049  35.641  1.00  0.00    -0.000 C 
BRANCH  20  21
ATOM     21  C   UNL     1      24.527  43.856  36.355  1.00  0.00    -0.000 C 
BRANCH  21  22
ATOM     22  C   UNL     1      23.268  43.962  35.482  1.00  0.00    -0.000 C 
BRANCH  22  23
ATOM     23  C   UNL     1      22.479  45.256  35.737  1.00  0.00    -0.000 C 
BRANCH  23  24
ATOM     24  C   UNL     1      21.294  45.426  34.775  1.00  0.00    -0.000 C 
BRANCH  24  25
ATOM     25  C   UNL     1      20.962  46.910  34.574  1.00  0.00    -0.003 C 
ATOM     26  C   UNL     1      21.989  47.803  35.263  1.00  0.00     0.004 C 
ENDBRANCH  24  25
ENDBRANCH  23  24
ENDBRANCH  22  23
ENDBRANCH  21  22
ENDBRANCH  20  21
ENDBRANCH  19  20
ENDBRANCH  18  19
ENDBRANCH  17  18
ENDBRANCH  16  17
ENDBRANCH  15  16
ENDBRANCH   1  15
TORSDOF 22
ENDMDL
MODEL 2
REMARK VINA RESULT:    -5.812      4.825     12.313
REMARK INTER + INTRA:         -14.551
REMARK INTER:                 -13.366
REMARK INTRA:                  -1.184
REMARK UNBOUND:                -1.263
REMARK SMILES CCCCCCCCCCCCCCCCCCCCCCCC(=O)[O-]
REMARK SMILES IDX 13 1 14 2 15 3 16 4 17 5 18 6 19 7 20 8 21 9 22 10 23 11
REMARK SMILES IDX 24 12 25 13 26 14 12 15 11 16 10 17 9 18 8 19 7 20 6 21 5 22
REMARK SMILES IDX 4 23 3 24 2 25 1 26
REMARK H PARENT
REMARK Flexibility Score: inf
ROOT
ATOM      1  C   UNL     1      27.512  39.588  34.022  1.00  0.00     0.000 C 
ENDROOT
BRANCH   1   2
ATOM      2  C   UNL     1      27.887  40.515  32.853  1.00  0.00     0.000 C 
BRANCH   2   3
ATOM      3  C   UNL     1      27.672  42.000  33.186  1.00  0.00     0.000 C 
BRANCH   3   4
ATOM      4  C   UNL     1      27.925  42.314  34.671  1.00  0.00     0.000 C 
BRANCH   4   5
ATOM      5  C   UNL     1      27.346  43.672  35.096  1.00  0.00     0.000 C 
BRANCH   5   6
ATOM      6  C   UNL     1      26.219  43.535  36.135  1.00  0.00     0.000 C 
BRANCH   6   7
ATOM      7  C   UNL     1      24.839  43.349  35.488  1.00  0.00     0.000 C 
BRANCH   7   8
ATOM      8  C   UNL     1      23.769  44.273  36.098  1.00  0.00     0.000 C 
BRANCH   8   9
ATOM      9  C   UNL     1      22.502  44.357  35.233  1.00  0.00     0.000 C 
BRANCH   9  10
ATOM     10  C   UNL     1      21.359  45.116  35.930  1.00  0.00     0.006 C 
BRANCH  10  11
ATOM     11  C   UNL     1      20.127  45.266  35.028  1.00  0.00     0.053 C 
BRANCH  11  12
ATOM     12  C   UNL     1      20.459  45.962  33.744  1.00  0.00     0.041 C 
ATOM     13  O   UNL     1      20.847  47.161  33.754  1.00  0.00    -0.550 OA
ATOM     14  O   UNL     1      20.371  45.277  32.539  1.00  0.00    -0.550 OA
ENDBRANCH  11  12
ENDBRANCH  10  11
ENDBRANCH   9  10
ENDBRANCH   8   9
ENDBRANCH   7   8
ENDBRANCH   6   7
ENDBRANCH   5   6
ENDBRANCH   4   5
ENDBRANCH   3   4
ENDBRANCH   2   3
ENDBRANCH   1   2
BRANCH   1  15
ATOM     15  C   UNL     1      27.482  38.106  33.615  1.00  0.00     0.000 C 
BRANCH  15  16
ATOM     16  C   UNL     1      27.450  37.912  32.090  1.00  0.00     0.000 C 
BRANCH  16  17
ATOM     17  C   UNL     1      27.299  36.437  31.677  1.00  0.00     0.000 C 
BRANCH  17  18
ATOM     18  C   UNL     1      28.185  35.998  30.496  1.00  0.00    -0.000 C 
BRANCH  18  19
ATOM     19  C   UNL     1      28.343  34.471  30.401  1.00  0.00    -0.000 C 
BRANCH  19  20
ATOM     20  C   UNL     1      27.082  33.723  30.869  1.00  0.00    -0.000 C 
BRANCH  20  21
ATOM     21  C   UNL     1      26.248  33.179  29.699  1.00  0.00    -0.000 C 
BRANCH  21  22
ATOM     22  C   UNL     1      24.764  33.534  29.872  1.00  0.00    -0.000 C 
BRANCH  22  23
ATOM     23  C   UNL     1      23.843  32.666  28.998  1.00  0.00    -0.000 C 
BRANCH  23  24
ATOM     24  C   UNL     1      24.623  31.686  28.110  1.00  0.00    -0.000 C 
BRANCH  24  25
ATOM     25  C   UNL     1      23.743  30.495  27.707  1.00  0.00    -0.003 C 
ATOM     26  C   UNL     1      24.142  29.234  28.467  1.00  0.00     0.004 C 
ENDBRANCH  24  25
ENDBRANCH  23  24
ENDBRANCH  22  23
ENDBRANCH  21  22
ENDBRANCH  20  21
ENDBRANCH  19  20
ENDBRANCH  18  19
ENDBRANCH  17  18
ENDBRANCH  16  17
ENDBRANCH  15  16
ENDBRANCH   1  15
TORSDOF 22
ENDMDL
MODEL 3
REMARK VINA RESULT:    -5.805      5.292     11.783
REMARK INTER + INTRA:         -14.534
REMARK INTER:                 -13.055
REMARK INTRA:                  -1.479
REMARK UNBOUND:                -1.263
REMARK SMILES CCCCCCCCCCCCCCCCCCCCCCCC(=O)[O-]
REMARK SMILES IDX 13 1 14 2 15 3 16 4 17 5 18 6 19 7 20 8 21 9 22 10 23 11
REMARK SMILES IDX 24 12 25 13 26 14 12 15 11 16 10 17 9 18 8 19 7 20 6 21 5 22
REMARK SMILES IDX 4 23 3 24 2 25 1 26
REMARK H PARENT
REMARK Flexibility Score: inf
ROOT
ATOM      1  C   UNL     1      27.067  37.395  35.152  1.00  0.00     0.000 C 
ENDROOT
BRANCH   1   2
ATOM      2  C   UNL     1      26.917  38.412  34.006  1.00  0.00     0.000 C 
BRANCH   2   3
ATOM      3  C   UNL     1      28.101  39.388  33.926  1.00  0.00     0.000 C 
BRANCH   3   4
ATOM      4  C   UNL     1      28.042  40.284  32.675  1.00  0.00     0.000 C 
BRANCH   4   5
ATOM      5  C   UNL     1      27.470  41.679  32.973  1.00  0.00     0.000 C 
BRANCH   5   6
ATOM      6  C   UNL     1      27.755  42.138  34.415  1.00  0.00     0.000 C 
BRANCH   6   7
ATOM      7  C   UNL     1      26.494  42.641  35.134  1.00  0.00     0.000 C 
BRANCH   7   8
ATOM      8  C   UNL     1      25.354  41.607  35.121  1.00  0.00     0.000 C 
BRANCH   8   9
ATOM      9  C   UNL     1      23.975  42.255  34.924  1.00  0.00     0.000 C 
BRANCH   9  10
ATOM     10  C   UNL     1      23.874  43.643  35.580  1.00  0.00     0.006 C 
BRANCH  10  11
ATOM     11  C   UNL     1      22.527  44.321  35.300  1.00  0.00     0.053 C 
BRANCH  11  12
ATOM     12  C   UNL     1      22.396  45.624  36.028  1.00  0.00     0.041 C 
ATOM     13  O   UNL     1      21.744  46.573  35.517  1.00  0.00    -0.550 OA
ATOM     14  O   UNL     1      22.968  45.779  37.283  1.00  0.00    -0.550 OA
ENDBRANCH  11  12
ENDBRANCH  10  11
ENDBRANCH   9  10
ENDBRANCH   8   9
ENDBRANCH   7   8
ENDBRANCH   6   7
ENDBRANCH   5   6
ENDBRANCH   4   5
ENDBRANCH   3   4
ENDBRANCH   2   3
ENDBRANCH   1   2
BRANCH   1  15
ATOM     15  C   UNL     1      27.039  35.940  34.659  1.00  0.00     0.000 C 
BRANCH  15  16
ATOM     16  C   UNL     1      27.424  35.810  33.175  1.00  0.00     0.000 C 
BRANCH  16  17
ATOM     17  C   UNL     1      28.478  34.717  32.923  1.00  0.00     0.000 C 
BRANCH  17  18
ATOM     18  C   UNL     1      28.522  34.177  31.482  1.00  0.00    -0.000 C 
BRANCH  18  19
ATOM     19  C   UNL     1      27.257  33.391  31.098  1.00  0.00    -0.000 C 
BRANCH  19  20
ATOM     20  C   UNL     1      26.418  34.118  30.033  1.00  0.00    -0.000 C 
BRANCH  20  21
ATOM     21  C   UNL     1      24.983  33.577  29.940  1.00  0.00    -0.000 C 
BRANCH  21  22
ATOM     22  C   UNL     1      24.924  32.332  29.043  1.00  0.00    -0.000 C 
BRANCH  22  23
ATOM     23  C   UNL     1      23.632  32.262  28.213  1.00  0.00    -0.000 C 
BRANCH  23  24
ATOM     24  C   UNL     1      22.419  31.816  29.043  1.00  0.00    -0.000 C 
BRANCH  24  25
ATOM     25  C   UNL     1      21.246  31.431  28.133  1.00  0.00    -0.003 C 
ATOM     26  C   UNL     1      20.528  32.670  27.607  1.00  0.00     0.004 C 
ENDBRANCH  24  25
ENDBRANCH  23  24
ENDBRANCH  22  23
ENDBRANCH  21  22
ENDBRANCH  20  21
ENDBRANCH  19  20
ENDBRANCH  18  19
ENDBRANCH  17  18
ENDBRANCH  16  17
ENDBRANCH  15  16
ENDBRANCH   1  15
TORSDOF 22
ENDMDL
MODEL 4
REMARK VINA RESULT:    -5.665      4.895     12.195
REMARK INTER + INTRA:         -14.213
REMARK INTER:                 -12.247
REMARK INTRA:                  -1.967
REMARK UNBOUND:                -1.263
REMARK SMILES CCCCCCCCCCCCCCCCCCCCCCCC(=O)[O-]
REMARK SMILES IDX 13 1 14 2 15 3 16 4 17 5 18 6 19 7 20 8 21 9 22 10 23 11
REMARK SMILES IDX 24 12 25 13 26 14 12 15 11 16 10 17 9 18 8 19 7 20 6 21 5 22
REMARK SMILES IDX 4 23 3 24 2 25 1 26
REMARK H PARENT
REMARK Flexibility Score: inf
ROOT
ATOM      1  C   UNL     1      23.921  42.352  35.042  1.00  0.00     0.000 C 
ENDROOT
BRANCH   1   2
ATOM      2  C   UNL     1      23.970  43.817  35.511  1.00  0.00     0.000 C 
BRANCH   2   3
ATOM      3  C   UNL     1      22.574  44.393  35.792  1.00  0.00     0.000 C 
BRANCH   3   4
ATOM      4  C   UNL     1      22.579  45.420  36.938  1.00  0.00     0.000 C 
BRANCH   4   5
ATOM      5  C   UNL     1      21.173  45.698  37.490  1.00  0.00     0.000 C 
BRANCH   5   6
ATOM      6  C   UNL     1      20.138  45.937  36.375  1.00  0.00     0.000 C 
BRANCH   6   7
ATOM      7  C   UNL     1      19.682  47.402  36.298  1.00  0.00     0.000 C 
BRANCH   7   8
ATOM      8  C   UNL     1      20.178  48.110  35.025  1.00  0.00     0.000 C 
BRANCH   8   9
ATOM      9  C   UNL     1      20.989  47.178  34.112  1.00  0.00     0.000 C 
BRANCH   9  10
ATOM     10  C   UNL     1      20.285  46.903  32.771  1.00  0.00     0.006 C 
BRANCH  10  11
ATOM     11  C   UNL     1      19.789  45.455  32.663  1.00  0.00     0.053 C 
BRANCH  11  12
ATOM     12  C   UNL     1      18.371  45.316  33.126  1.00  0.00     0.041 C 
ATOM     13  O   UNL     1      17.632  46.332  33.220  1.00  0.00    -0.550 OA
ATOM     14  O   UNL     1      17.858  44.061  33.424  1.00  0.00    -0.550 OA
ENDBRANCH  11  12
ENDBRANCH  10  11
ENDBRANCH   9  10
ENDBRANCH   8   9
ENDBRANCH   7   8
ENDBRANCH   6   7
ENDBRANCH   5   6
ENDBRANCH   4   5
ENDBRANCH   3   4
ENDBRANCH   2   3
ENDBRANCH   1   2
BRANCH   1  15
ATOM     15  C   UNL     1      25.288  41.656  35.132  1.00  0.00     0.000 C 
BRANCH  15  16
ATOM     16  C   UNL     1      26.461  42.651  35.124  1.00  0.00     0.000 C 
BRANCH  16  17
ATOM     17  C   UNL     1      27.722  42.086  34.445  1.00  0.00     0.000 C 
BRANCH  17  18
ATOM     18  C   UNL     1      27.571  41.781  32.944  1.00  0.00    -0.000 C 
BRANCH  18  19
ATOM     19  C   UNL     1      27.985  40.345  32.580  1.00  0.00    -0.000 C 
BRANCH  19  20
ATOM     20  C   UNL     1      28.041  39.423  33.811  1.00  0.00    -0.000 C 
BRANCH  20  21
ATOM     21  C   UNL     1      27.462  38.028  33.532  1.00  0.00    -0.000 C 
BRANCH  21  22
ATOM     22  C   UNL     1      27.568  37.679  32.040  1.00  0.00    -0.000 C 
BRANCH  22  23
ATOM     23  C   UNL     1      27.140  36.233  31.739  1.00  0.00    -0.000 C 
BRANCH  23  24
ATOM     24  C   UNL     1      28.337  35.299  31.507  1.00  0.00    -0.000 C 
BRANCH  24  25
ATOM     25  C   UNL     1      28.000  34.229  30.461  1.00  0.00    -0.003 C 
ATOM     26  C   UNL     1      26.491  34.048  30.325  1.00  0.00     0.004 C 
ENDBRANCH  24  25
ENDBRANCH  23  24
ENDBRANCH  22  23
ENDBRANCH  21  22
ENDBRANCH  20  21
ENDBRANCH  19  20
ENDBRANCH  18  19
ENDBRANCH  17  18
ENDBRANCH  16  17
ENDBRANCH  15  16
ENDBRANCH   1  15
TORSDOF 22
ENDMDL
MODEL 5
REMARK VINA RESULT:    -5.447      4.681     12.407
REMARK INTER + INTRA:         -13.716
REMARK INTER:                 -12.996
REMARK INTRA:                  -0.719
REMARK UNBOUND:                -1.263
REMARK SMILES CCCCCCCCCCCCCCCCCCCCCCCC(=O)[O-]
REMARK SMILES IDX 13 1 14 2 15 3 16 4 17 5 18 6 19 7 20 8 21 9 22 10 23 11
REMARK SMILES IDX 24 12 25 13 26 14 12 15 11 16 10 17 9 18 8 19 7 20 6 21 5 22
REMARK SMILES IDX 4 23 3 24 2 25 1 26
REMARK H PARENT
REMARK Flexibility Score: inf
ROOT
ATOM      1  C   UNL     1      26.782  40.008  33.998  1.00  0.00     0.000 C 
ENDROOT
BRANCH   1   2
ATOM      2  C   UNL     1      27.513  41.356  33.872  1.00  0.00     0.000 C 
BRANCH   2   3
ATOM      3  C   UNL     1      26.985  42.407  34.860  1.00  0.00     0.000 C 
BRANCH   3   4
ATOM      4  C   UNL     1      25.518  42.161  35.255  1.00  0.00     0.000 C 
BRANCH   4   5
ATOM      5  C   UNL     1      24.888  43.366  35.971  1.00  0.00     0.000 C 
BRANCH   5   6
ATOM      6  C   UNL     1      23.489  43.711  35.428  1.00  0.00     0.000 C 
BRANCH   6   7
ATOM      7  C   UNL     1      22.838  44.883  36.177  1.00  0.00     0.000 C 
BRANCH   7   8
ATOM      8  C   UNL     1      21.429  45.212  35.652  1.00  0.00     0.000 C 
BRANCH   8   9
ATOM      9  C   UNL     1      21.170  46.724  35.573  1.00  0.00     0.000 C 
BRANCH   9  10
ATOM     10  C   UNL     1      20.931  47.209  34.132  1.00  0.00     0.006 C 
BRANCH  10  11
ATOM     11  C   UNL     1      19.495  46.944  33.662  1.00  0.00     0.053 C 
BRANCH  11  12
ATOM     12  C   UNL     1      19.397  45.691  32.847  1.00  0.00     0.041 C 
ATOM     13  O   UNL     1      18.337  45.010  32.856  1.00  0.00    -0.550 OA
ATOM     14  O   UNL     1      20.465  45.292  32.055  1.00  0.00    -0.550 OA
ENDBRANCH  11  12
ENDBRANCH  10  11
ENDBRANCH   9  10
ENDBRANCH   8   9
ENDBRANCH   7   8
ENDBRANCH   6   7
ENDBRANCH   5   6
ENDBRANCH   4   5
ENDBRANCH   3   4
ENDBRANCH   2   3
ENDBRANCH   1   2
BRANCH   1  15
ATOM     15  C   UNL     1      27.691  38.811  33.679  1.00  0.00     0.000 C 
BRANCH  15  16
ATOM     16  C   UNL     1      27.681  38.441  32.185  1.00  0.00     0.000 C 
BRANCH  16  17
ATOM     17  C   UNL     1      27.474  36.936  31.942  1.00  0.00     0.000 C 
BRANCH  17  18
ATOM     18  C   UNL     1      28.181  36.376  30.693  1.00  0.00    -0.000 C 
BRANCH  18  19
ATOM     19  C   UNL     1      27.831  34.905  30.416  1.00  0.00    -0.000 C 
BRANCH  19  20
ATOM     20  C   UNL     1      26.325  34.625  30.561  1.00  0.00    -0.000 C 
BRANCH  20  21
ATOM     21  C   UNL     1      25.905  33.294  29.918  1.00  0.00    -0.000 C 
BRANCH  21  22
ATOM     22  C   UNL     1      24.403  33.289  29.601  1.00  0.00    -0.000 C 
BRANCH  22  23
ATOM     23  C   UNL     1      23.960  32.018  28.857  1.00  0.00    -0.000 C 
BRANCH  23  24
ATOM     24  C   UNL     1      22.436  31.833  28.856  1.00  0.00    -0.000 C 
BRANCH  24  25
ATOM     25  C   UNL     1      22.049  30.476  29.457  1.00  0.00    -0.003 C 
ATOM     26  C   UNL     1      21.076  30.646  30.619  1.00  0.00     0.004 C 
ENDBRANCH  24  25
ENDBRANCH  23  24
ENDBRANCH  22  23
ENDBRANCH  21  22
ENDBRANCH  20  21
ENDBRANCH  19  20
ENDBRANCH  18  19
ENDBRANCH  17  18
ENDBRANCH  16  17
ENDBRANCH  15  16
ENDBRANCH   1  15
TORSDOF 22
ENDMDL
MODEL 6
REMARK VINA RESULT:    -5.395      3.691      6.537
REMARK INTER + INTRA:         -13.597
REMARK INTER:                 -12.420
REMARK INTRA:                  -1.178
REMARK UNBOUND:                -1.263
REMARK SMILES CCCCCCCCCCCCCCCCCCCCCCCC(=O)[O-]
REMARK SMILES IDX 13 1 14 2 15 3 16 4 17 5 18 6 19 7 20 8 21 9 22 10 23 11
REMARK SMILES IDX 24 12 25 13 26 14 12 15 11 16 10 17 9 18 8 19 7 20 6 21 5 22
REMARK SMILES IDX 4 23 3 24 2 25 1 26
REMARK H PARENT
REMARK Flexibility Score: inf
ROOT
ATOM      1  C   UNL     1      24.263  42.311  35.455  1.00  0.00     0.000 C 
ENDROOT
BRANCH   1   2
ATOM      2  C   UNL     1      25.443  41.601  34.769  1.00  0.00     0.000 C 
BRANCH   2   3
ATOM      3  C   UNL     1      26.736  42.429  34.815  1.00  0.00     0.000 C 
BRANCH   3   4
ATOM      4  C   UNL     1      27.898  41.750  34.069  1.00  0.00     0.000 C 
BRANCH   4   5
ATOM      5  C   UNL     1      27.533  41.371  32.625  1.00  0.00     0.000 C 
BRANCH   5   6
ATOM      6  C   UNL     1      28.276  40.113  32.139  1.00  0.00     0.000 C 
BRANCH   6   7
ATOM      7  C   UNL     1      27.910  38.862  32.951  1.00  0.00     0.000 C 
BRANCH   7   8
ATOM      8  C   UNL     1      27.006  37.892  32.169  1.00  0.00     0.000 C 
BRANCH   8   9
ATOM      9  C   UNL     1      27.805  36.791  31.454  1.00  0.00     0.000 C 
BRANCH   9  10
ATOM     10  C   UNL     1      26.935  35.578  31.078  1.00  0.00     0.006 C 
BRANCH  10  11
ATOM     11  C   UNL     1      27.568  34.252  31.516  1.00  0.00     0.053 C 
BRANCH  11  12
ATOM     12  C   UNL     1      28.272  34.378  32.832  1.00  0.00     0.041 C 
ATOM     13  O   UNL     1      29.503  34.123  32.920  1.00  0.00    -0.550 OA
ATOM     14  O   UNL     1      27.577  34.809  33.954  1.00  0.00    -0.550 OA
ENDBRANCH  11  12
ENDBRANCH  10  11
ENDBRANCH   9  10
ENDBRANCH   8   9
ENDBRANCH   7   8
ENDBRANCH   6   7
ENDBRANCH   5   6
ENDBRANCH   4   5
ENDBRANCH   3   4
ENDBRANCH   2   3
ENDBRANCH   1   2
BRANCH   1  15
ATOM     15  C   UNL     1      24.691  43.583  36.203  1.00  0.00     0.000 C 
BRANCH  15  16
ATOM     16  C   UNL     1      23.553  44.611  36.323  1.00  0.00     0.000 C 
BRANCH  16  17
ATOM     17  C   UNL     1      22.523  44.500  35.185  1.00  0.00     0.000 C 
BRANCH  17  18
ATOM     18  C   UNL     1      21.486  45.637  35.134  1.00  0.00    -0.000 C 
BRANCH  18  19
ATOM     19  C   UNL     1      20.647  45.625  33.845  1.00  0.00    -0.000 C 
BRANCH  19  20
ATOM     20  C   UNL     1      19.351  46.442  33.984  1.00  0.00    -0.000 C 
BRANCH  20  21
ATOM     21  C   UNL     1      18.334  46.132  32.874  1.00  0.00    -0.000 C 
BRANCH  21  22
ATOM     22  C   UNL     1      17.547  44.852  33.194  1.00  0.00    -0.000 C 
BRANCH  22  23
ATOM     23  C   UNL     1      16.205  45.141  33.886  1.00  0.00    -0.000 C 
BRANCH  23  24
ATOM     24  C   UNL     1      15.005  44.586  33.105  1.00  0.00    -0.000 C 
BRANCH  24  25
ATOM     25  C   UNL     1      15.240  44.693  31.593  1.00  0.00    -0.003 C 
ATOM     26  C   UNL     1      14.793  46.051  31.061  1.00  0.00     0.004 C 
ENDBRANCH  24  25
ENDBRANCH  23  24
ENDBRANCH  22  23
ENDBRANCH  21  22
ENDBRANCH  20  21
ENDBRANCH  19  20
ENDBRANCH  18  19
ENDBRANCH  17  18
ENDBRANCH  16  17
ENDBRANCH  15  16
ENDBRANCH   1  15
TORSDOF 22
ENDMDL
MODEL 7
REMARK VINA RESULT:    -5.369      5.126     12.158
REMARK INTER + INTRA:         -13.537
REMARK INTER:                 -11.952
REMARK INTRA:                  -1.585
REMARK UNBOUND:                -1.263
REMARK SMILES CCCCCCCCCCCCCCCCCCCCCCCC(=O)[O-]
REMARK SMILES IDX 13 1 14 2 15 3 16 4 17 5 18 6 19 7 20 8 21 9 22 10 23 11
REMARK SMILES IDX 24 12 25 13 26 14 12 15 11 16 10 17 9 18 8 19 7 20 6 21 5 22
REMARK SMILES IDX 4 23 3 24 2 25 1 26
REMARK H PARENT
REMARK Flexibility Score: inf
ROOT
ATOM      1  C   UNL     1      24.090  42.475  35.111  1.00  0.00     0.000 C 
ENDROOT
BRANCH   1   2
ATOM      2  C   UNL     1      24.046  43.861  35.779  1.00  0.00     0.000 C 
BRANCH   2   3
ATOM      3  C   UNL     1      22.742  44.618  35.479  1.00  0.00     0.000 C 
BRANCH   3   4
ATOM      4  C   UNL     1      22.589  45.888  36.335  1.00  0.00     0.000 C 
BRANCH   4   5
ATOM      5  C   UNL     1      21.285  45.900  37.147  1.00  0.00     0.000 C 
BRANCH   5   6
ATOM      6  C   UNL     1      20.420  44.652  36.894  1.00  0.00     0.000 C 
BRANCH   6   7
ATOM      7  C   UNL     1      18.944  44.874  37.255  1.00  0.00     0.000 C 
BRANCH   7   8
ATOM      8  C   UNL     1      17.983  44.311  36.192  1.00  0.00     0.000 C 
BRANCH   8   9
ATOM      9  C   UNL     1      18.441  44.628  34.760  1.00  0.00     0.000 C 
BRANCH   9  10
ATOM     10  C   UNL     1      18.163  46.087  34.359  1.00  0.00     0.006 C 
BRANCH  10  11
ATOM     11  C   UNL     1      18.594  46.385  32.917  1.00  0.00     0.053 C 
BRANCH  11  12
ATOM     12  C   UNL     1      20.079  46.284  32.748  1.00  0.00     0.041 C 
ATOM     13  O   UNL     1      20.844  47.058  33.382  1.00  0.00    -0.550 OA
ATOM     14  O   UNL     1      20.619  45.314  31.914  1.00  0.00    -0.550 OA
ENDBRANCH  11  12
ENDBRANCH  10  11
ENDBRANCH   9  10
ENDBRANCH   8   9
ENDBRANCH   7   8
ENDBRANCH   6   7
ENDBRANCH   5   6
ENDBRANCH   4   5
ENDBRANCH   3   4
ENDBRANCH   2   3
ENDBRANCH   1   2
BRANCH   1  15
ATOM     15  C   UNL     1      25.477  41.821  35.199  1.00  0.00     0.000 C 
BRANCH  15  16
ATOM     16  C   UNL     1      26.622  42.835  35.041  1.00  0.00     0.000 C 
BRANCH  16  17
ATOM     17  C   UNL     1      27.719  42.356  34.073  1.00  0.00     0.000 C 
BRANCH  17  18
ATOM     18  C   UNL     1      27.441  41.001  33.396  1.00  0.00    -0.000 C 
BRANCH  18  19
ATOM     19  C   UNL     1      28.208  39.838  34.047  1.00  0.00    -0.000 C 
BRANCH  19  20
ATOM     20  C   UNL     1      27.489  38.490  33.865  1.00  0.00    -0.000 C 
BRANCH  20  21
ATOM     21  C   UNL     1      27.462  38.027  32.401  1.00  0.00    -0.000 C 
BRANCH  21  22
ATOM     22  C   UNL     1      27.174  36.521  32.308  1.00  0.00    -0.000 C 
BRANCH  22  23
ATOM     23  C   UNL     1      27.192  36.005  30.860  1.00  0.00    -0.000 C 
BRANCH  23  24
ATOM     24  C   UNL     1      27.935  34.668  30.718  1.00  0.00    -0.000 C 
BRANCH  24  25
ATOM     25  C   UNL     1      29.284  34.864  30.016  1.00  0.00    -0.003 C 
ATOM     26  C   UNL     1      29.098  35.442  28.616  1.00  0.00     0.004 C 
ENDBRANCH  24  25
ENDBRANCH  23  24
ENDBRANCH  22  23
ENDBRANCH  21  22
ENDBRANCH  20  21
ENDBRANCH  19  20
ENDBRANCH  18  19
ENDBRANCH  17  18
ENDBRANCH  16  17
ENDBRANCH  15  16
ENDBRANCH   1  15
TORSDOF 22
ENDMDL
MODEL 8
REMARK VINA RESULT:    -5.329      4.608      8.877
REMARK INTER + INTRA:         -13.445
REMARK INTER:                 -12.282
REMARK INTRA:                  -1.163
REMARK UNBOUND:                -1.263
REMARK SMILES CCCCCCCCCCCCCCCCCCCCCCCC(=O)[O-]
REMARK SMILES IDX 13 1 14 2 15 3 16 4 17 5 18 6 19 7 20 8 21 9 22 10 23 11
REMARK SMILES IDX 24 12 25 13 26 14 12 15 11 16 10 17 9 18 8 19 7 20 6 21 5 22
REMARK SMILES IDX 4 23 3 24 2 25 1 26
REMARK H PARENT
REMARK Flexibility Score: inf
ROOT
ATOM      1  C   UNL     1      22.316  45.090  36.302  1.00  0.00     0.000 C 
ENDROOT
BRANCH   1   2
ATOM      2  C   UNL     1      23.270  44.173  35.518  1.00  0.00     0.000 C 
BRANCH   2   3
ATOM      3  C   UNL     1      24.561  43.864  36.291  1.00  0.00     0.000 C 
BRANCH   3   4
ATOM      4  C   UNL     1      25.483  42.891  35.535  1.00  0.00     0.000 C 
BRANCH   4   5
ATOM      5  C   UNL     1      26.912  43.434  35.376  1.00  0.00     0.000 C 
BRANCH   5   6
ATOM      6  C   UNL     1      27.761  42.587  34.411  1.00  0.00     0.000 C 
BRANCH   6   7
ATOM      7  C   UNL     1      27.015  41.342  33.906  1.00  0.00     0.000 C 
BRANCH   7   8
ATOM      8  C   UNL     1      27.867  40.064  33.998  1.00  0.00     0.000 C 
BRANCH   8   9
ATOM      9  C   UNL     1      27.013  38.786  33.982  1.00  0.00     0.000 C 
BRANCH   9  10
ATOM     10  C   UNL     1      27.708  37.620  33.257  1.00  0.00     0.006 C 
BRANCH  10  11
ATOM     11  C   UNL     1      27.022  37.270  31.930  1.00  0.00     0.053 C 
BRANCH  11  12
ATOM     12  C   UNL     1      27.270  35.847  31.533  1.00  0.00     0.041 C 
ATOM     13  O   UNL     1      27.409  34.958  32.414  1.00  0.00    -0.550 OA
ATOM     14  O   UNL     1      27.314  35.499  30.190  1.00  0.00    -0.550 OA
ENDBRANCH  11  12
ENDBRANCH  10  11
ENDBRANCH   9  10
ENDBRANCH   8   9
ENDBRANCH   7   8
ENDBRANCH   6   7
ENDBRANCH   5   6
ENDBRANCH   4   5
ENDBRANCH   3   4
ENDBRANCH   2   3
ENDBRANCH   1   2
BRANCH   1  15
ATOM     15  C   UNL     1      21.564  46.076  35.395  1.00  0.00     0.000 C 
BRANCH  15  16
ATOM     16  C   UNL     1      20.694  45.366  34.343  1.00  0.00     0.000 C 
BRANCH  16  17
ATOM     17  C   UNL     1      19.230  45.843  34.356  1.00  0.00     0.000 C 
BRANCH  17  18
ATOM     18  C   UNL     1      18.588  46.007  32.966  1.00  0.00    -0.000 C 
BRANCH  18  19
ATOM     19  C   UNL     1      17.222  45.309  32.851  1.00  0.00    -0.000 C 
BRANCH  19  20
ATOM     20  C   UNL     1      16.076  46.173  33.405  1.00  0.00    -0.000 C 
BRANCH  20  21
ATOM     21  C   UNL     1      14.746  45.931  32.674  1.00  0.00    -0.000 C 
BRANCH  21  22
ATOM     22  C   UNL     1      14.873  46.269  31.181  1.00  0.00    -0.000 C 
BRANCH  22  23
ATOM     23  C   UNL     1      14.347  45.144  30.274  1.00  0.00    -0.000 C 
BRANCH  23  24
ATOM     24  C   UNL     1      13.279  44.281  30.961  1.00  0.00    -0.000 C 
BRANCH  24  25
ATOM     25  C   UNL     1      13.495  42.794  30.652  1.00  0.00    -0.003 C 
ATOM     26  C   UNL     1      14.980  42.442  30.651  1.00  0.00     0.004 C 
ENDBRANCH  24  25
ENDBRANCH  23  24
ENDBRANCH  22  23
ENDBRANCH  21  22
ENDBRANCH  20  21
ENDBRANCH  19  20
ENDBRANCH  18  19
ENDBRANCH  17  18
ENDBRANCH  16  17
ENDBRANCH  15  16
ENDBRANCH   1  15
TORSDOF 22
ENDMDL
MODEL 9
REMARK VINA RESULT:    -5.300      6.676     12.037
REMARK INTER + INTRA:         -13.379
REMARK INTER:                 -12.095
REMARK INTRA:                  -1.283
REMARK UNBOUND:                -1.263
REMARK SMILES CCCCCCCCCCCCCCCCCCCCCCCC(=O)[O-]
REMARK SMILES IDX 13 1 14 2 15 3 16 4 17 5 18 6 19 7 20 8 21 9 22 10 23 11
REMARK SMILES IDX 24 12 25 13 26 14 12 15 11 16 10 17 9 18 8 19 7 20 6 21 5 22
REMARK SMILES IDX 4 23 3 24 2 25 1 26
REMARK H PARENT
REMARK Flexibility Score: inf
ROOT
ATOM      1  C   UNL     1      22.678  32.218  27.535  1.00  0.00     0.000 C 
ENDROOT
BRANCH   1   2
ATOM      2  C   UNL     1      23.802  31.902  28.536  1.00  0.00     0.000 C 
BRANCH   2   3
ATOM      3  C   UNL     1      24.124  33.090  29.456  1.00  0.00     0.000 C 
BRANCH   3   4
ATOM      4  C   UNL     1      25.606  33.131  29.870  1.00  0.00     0.000 C 
BRANCH   4   5
ATOM      5  C   UNL     1      26.086  34.550  30.212  1.00  0.00     0.000 C 
BRANCH   5   6
ATOM      6  C   UNL     1      27.618  34.686  30.148  1.00  0.00     0.000 C 
BRANCH   6   7
ATOM      7  C   UNL     1      28.178  35.579  31.266  1.00  0.00     0.000 C 
BRANCH   7   8
ATOM      8  C   UNL     1      27.847  35.046  32.671  1.00  0.00     0.000 C 
BRANCH   8   9
ATOM      9  C   UNL     1      27.472  36.168  33.652  1.00  0.00     0.000 C 
BRANCH   9  10
ATOM     10  C   UNL     1      27.451  37.555  32.984  1.00  0.00     0.006 C 
BRANCH  10  11
ATOM     11  C   UNL     1      27.681  38.687  33.993  1.00  0.00     0.053 C 
BRANCH  11  12
ATOM     12  C   UNL     1      27.620  40.035  33.341  1.00  0.00     0.041 C 
ATOM     13  O   UNL     1      27.142  41.020  33.964  1.00  0.00    -0.550 OA
ATOM     14  O   UNL     1      28.120  40.209  32.057  1.00  0.00    -0.550 OA
ENDBRANCH  11  12
ENDBRANCH  10  11
ENDBRANCH   9  10
ENDBRANCH   8   9
ENDBRANCH   7   8
ENDBRANCH   6   7
ENDBRANCH   5   6
ENDBRANCH   4   5
ENDBRANCH   3   4
ENDBRANCH   2   3
ENDBRANCH   1   2
BRANCH   1  15
ATOM     15  C   UNL     1      21.560  31.164  27.549  1.00  0.00     0.000 C 
BRANCH  15  16
ATOM     16  C   UNL     1      20.872  31.048  28.920  1.00  0.00     0.000 C 
BRANCH  16  17
ATOM     17  C   UNL     1      20.064  32.303  29.293  1.00  0.00     0.000 C 
BRANCH  17  18
ATOM     18  C   UNL     1      18.751  32.487  28.511  1.00  0.00    -0.000 C 
BRANCH  18  19
ATOM     19  C   UNL     1      17.874  31.224  28.509  1.00  0.00    -0.000 C 
BRANCH  19  20
ATOM     20  C   UNL     1      16.378  31.550  28.354  1.00  0.00    -0.000 C 
BRANCH  20  21
ATOM     21  C   UNL     1      16.103  33.061  28.313  1.00  0.00    -0.000 C 
BRANCH  21  22
ATOM     22  C   UNL     1      14.816  33.404  29.078  1.00  0.00    -0.000 C 
BRANCH  22  23
ATOM     23  C   UNL     1      13.768  34.095  28.190  1.00  0.00    -0.000 C 
BRANCH  23  24
ATOM     24  C   UNL     1      12.484  33.267  28.038  1.00  0.00    -0.000 C 
BRANCH  24  25
ATOM     25  C   UNL     1      11.306  34.156  27.620  1.00  0.00    -0.003 C 
ATOM     26  C   UNL     1      11.608  35.628  27.882  1.00  0.00     0.004 C 
ENDBRANCH  24  25
ENDBRANCH  23  24
ENDBRANCH  22  23
ENDBRANCH  21  22
ENDBRANCH  20  21
ENDBRANCH  19  20
ENDBRANCH  18  19
ENDBRANCH  17  18
ENDBRANCH  16  17
ENDBRANCH  15  16
ENDBRANCH   1  15
TORSDOF 22
ENDMDL
