MODEL 1
REMARK VINA RESULT:    42.002      0.000      0.000
REMARK INTER + INTRA:          50.821
REMARK INTER:                  48.140
REMARK INTRA:                   2.680
REMARK UNBOUND:                 2.680
REMARK SMILES C=C(C)[C@H]1CC[C@]2(C(=O)[O-])CC[C@@]3(C)[C@H](CC[C@@H]4[C@]5(C)CC[C@@H](O)C(C)(C)[C@H]5CC[C@@]43C)[C@H]12
REMARK SMILES IDX 7 1 6 2 33 3 11 4 5 5 15 6 4 7 12 8 16 9 13 10 17 11 31 12
REMARK SMILES IDX 14 13 18 14 30 15 32 16 19 17 29 18 21 19 20 20 28 21 22 22
REMARK SMILES IDX 25 23 23 24 26 25 27 26 8 27 9 28 10 29 2 30 3 31 1 32 24 33
REMARK H PARENT 24 34
REMARK Flexibility Score: inf
ROOT
ATOM      1  C   UNL     1      51.788 -61.102 319.444  1.00  0.00     0.014 C 
ATOM      2  C   UNL     1      51.257 -62.125 318.418  1.00  0.00     0.014 C 
ATOM      3  C   UNL     1      52.398 -59.981 318.553  1.00  0.00     0.012 C 
ATOM      4  C   UNL     1      50.684 -60.632 320.439  1.00  0.00     0.014 C 
ATOM      5  C   UNL     1      52.109 -61.977 317.151  1.00  0.00     0.009 C 
ATOM      6  C   UNL     1      51.404 -58.823 318.146  1.00  0.00     0.000 C 
ATOM      7  C   UNL     1      53.014 -60.738 317.344  1.00  0.00     0.018 C 
ATOM      8  C   UNL     1      49.839 -59.411 320.033  1.00  0.00     0.008 C 
ATOM      9  C   UNL     1      50.415 -59.201 317.027  1.00  0.00     0.005 C 
ATOM     10  C   UNL     1      50.637 -58.229 319.379  1.00  0.00    -0.024 C 
ATOM     11  C   UNL     1      49.644 -57.995 316.547  1.00  0.00     0.005 C 
ATOM     12  C   UNL     1      49.639 -57.005 318.956  1.00  0.00    -0.024 C 
ATOM     13  C   UNL     1      51.705 -57.719 320.413  1.00  0.00     0.012 C 
ATOM     14  C   UNL     1      48.773 -57.327 317.645  1.00  0.00     0.002 C 
ATOM     15  C   UNL     1      50.461 -55.700 318.688  1.00  0.00     0.008 C 
ATOM     16  C   UNL     1      48.680 -56.727 320.166  1.00  0.00     0.012 C 
ATOM     17  C   UNL     1      47.931 -56.080 317.052  1.00  0.00    -0.026 C 
ATOM     18  C   UNL     1      49.652 -54.503 318.164  1.00  0.00     0.005 C 
ATOM     19  C   UNL     1      47.325 -56.411 315.641  1.00  0.00     0.010 C 
ATOM     20  C   UNL     1      46.721 -55.788 318.004  1.00  0.00     0.012 C 
ATOM     21  C   UNL     1      48.889 -54.840 316.863  1.00  0.00     0.003 C 
ATOM     22  C   UNL     1      46.649 -55.218 314.945  1.00  0.00     0.033 C 
ATOM     23  C   UNL     1      48.269 -53.583 316.114  1.00  0.00    -0.006 C 
ATOM     24  C   UNL     1      47.627 -54.053 314.766  1.00  0.00     0.120 C 
ATOM     25  C   UNL     1      47.238 -52.797 316.966  1.00  0.00     0.014 C 
ATOM     26  C   UNL     1      49.405 -52.584 315.752  1.00  0.00     0.014 C 
ENDROOT
BRANCH   1  27
ATOM     27  C   UNL     1      52.889 -61.747 320.291  1.00  0.00     0.048 C 
ATOM     28  O   UNL     1      52.646 -62.125 321.471  1.00  0.00    -0.550 OA
ATOM     29  O   UNL     1      54.142 -62.028 319.752  1.00  0.00    -0.550 OA
ENDBRANCH   1  27
BRANCH   7  30
ATOM     30  C   UNL     1      54.505 -61.038 317.560  1.00  0.00    -0.077 C 
ATOM     31  C   UNL     1      55.352 -60.309 318.578  1.00  0.00     0.039 C 
ATOM     32  C   UNL     1      55.051 -62.078 316.902  1.00  0.00     0.008 C 
ENDBRANCH   7  30
BRANCH  24  33
ATOM     33  O   UNL     1      46.945 -52.993 314.138  1.00  0.00    -0.393 OA
ATOM     34  H   UNL     1      47.598 -52.259 313.996  1.00  0.00     0.210 HD
ENDBRANCH  24  33
TORSDOF 3
ENDMDL
MODEL 2
REMARK VINA RESULT:    44.216      1.564      8.299
REMARK INTER + INTRA:          53.358
REMARK INTER:                  53.839
REMARK INTRA:                  -0.481
REMARK UNBOUND:                 2.680
REMARK SMILES C=C(C)[C@H]1CC[C@]2(C(=O)[O-])CC[C@@]3(C)[C@H](CC[C@@H]4[C@]5(C)CC[C@@H](O)C(C)(C)[C@H]5CC[C@@]43C)[C@H]12
REMARK SMILES IDX 7 1 6 2 33 3 11 4 5 5 15 6 4 7 12 8 16 9 13 10 17 11 31 12
REMARK SMILES IDX 14 13 18 14 30 15 32 16 19 17 29 18 21 19 20 20 28 21 22 22
REMARK SMILES IDX 25 23 23 24 26 25 27 26 8 27 9 28 10 29 2 30 3 31 1 32 24 33
REMARK H PARENT 24 34
REMARK Flexibility Score: inf
ROOT
ATOM      1  C   UNL     1      47.308 -54.509 314.639  1.00  0.00     0.014 C 
ATOM      2  C   UNL     1      48.304 -54.518 313.460  1.00  0.00     0.014 C 
ATOM      3  C   UNL     1      46.999 -56.017 314.862  1.00  0.00     0.012 C 
ATOM      4  C   UNL     1      47.870 -53.756 315.883  1.00  0.00     0.014 C 
ATOM      5  C   UNL     1      48.020 -55.783 312.640  1.00  0.00     0.009 C 
ATOM      6  C   UNL     1      47.953 -56.762 315.876  1.00  0.00     0.000 C 
ATOM      7  C   UNL     1      46.997 -56.629 313.433  1.00  0.00     0.018 C 
ATOM      8  C   UNL     1      48.682 -54.577 316.901  1.00  0.00     0.008 C 
ATOM      9  C   UNL     1      49.340 -57.112 315.302  1.00  0.00     0.005 C 
ATOM     10  C   UNL     1      48.101 -55.995 317.236  1.00  0.00    -0.024 C 
ATOM     11  C   UNL     1      50.117 -57.999 316.245  1.00  0.00     0.005 C 
ATOM     12  C   UNL     1      49.059 -56.791 318.295  1.00  0.00    -0.024 C 
ATOM     13  C   UNL     1      46.663 -55.810 317.845  1.00  0.00     0.012 C 
ATOM     14  C   UNL     1      50.404 -57.350 317.625  1.00  0.00     0.002 C 
ATOM     15  C   UNL     1      48.289 -58.000 318.924  1.00  0.00     0.008 C 
ATOM     16  C   UNL     1      49.421 -55.798 319.455  1.00  0.00     0.012 C 
ATOM     17  C   UNL     1      51.286 -58.328 318.564  1.00  0.00    -0.026 C 
ATOM     18  C   UNL     1      49.119 -58.905 319.849  1.00  0.00     0.005 C 
ATOM     19  C   UNL     1      52.436 -59.026 317.752  1.00  0.00     0.010 C 
ATOM     20  C   UNL     1      51.979 -57.472 319.678  1.00  0.00     0.012 C 
ATOM     21  C   UNL     1      50.367 -59.475 319.140  1.00  0.00     0.003 C 
ATOM     22  C   UNL     1      53.214 -60.092 318.541  1.00  0.00     0.033 C 
ATOM     23  C   UNL     1      51.109 -60.635 319.934  1.00  0.00    -0.006 C 
ATOM     24  C   UNL     1      52.279 -61.192 319.057  1.00  0.00     0.120 C 
ATOM     25  C   UNL     1      51.630 -60.200 321.329  1.00  0.00     0.014 C 
ATOM     26  C   UNL     1      50.121 -61.812 320.172  1.00  0.00     0.014 C 
ENDROOT
BRANCH   1  27
ATOM     27  C   UNL     1      46.029 -53.773 314.228  1.00  0.00     0.048 C 
ATOM     28  O   UNL     1      46.088 -52.780 313.451  1.00  0.00    -0.550 OA
ATOM     29  O   UNL     1      44.774 -54.240 314.610  1.00  0.00    -0.550 OA
ENDBRANCH   1  27
BRANCH   7  30
ATOM     30  C   UNL     1      45.581 -56.679 312.838  1.00  0.00    -0.077 C 
ATOM     31  C   UNL     1      45.241 -56.118 311.475  1.00  0.00     0.039 C 
ATOM     32  C   UNL     1      44.630 -57.359 313.504  1.00  0.00     0.008 C 
ENDBRANCH   7  30
BRANCH  24  33
ATOM     33  O   UNL     1      53.048 -62.125 319.778  1.00  0.00    -0.393 OA
ATOM     34  H   UNL     1      53.996 -61.832 319.732  1.00  0.00     0.210 HD
ENDBRANCH  24  33
TORSDOF 3
ENDMDL
