MODEL 1
REMARK VINA RESULT:    -5.258      0.000      0.000
REMARK INTER + INTRA:          -7.327
REMARK INTER:                  -6.948
REMARK INTRA:                  -0.378
REMARK UNBOUND:                -0.378
REMARK SMILES CCCCC=CC=CCO
REMARK SMILES IDX 5 1 6 2 4 3 3 4 2 5 1 6 7 7 8 8 9 9 10 10
REMARK H PARENT 10 11
REMARK Flexibility Score: inf
ROOT
ATOM      1  C   UNL     1      32.851  18.948  47.945  1.00  0.00    -0.027 C 
ATOM      2  C   UNL     1      32.297  17.869  47.384  1.00  0.00    -0.005 C 
ENDROOT
BRANCH   1   3
ATOM      3  C   UNL     1      33.183  18.995  49.409  1.00  0.00     0.027 C 
BRANCH   3   4
ATOM      4  C   UNL     1      32.038  19.565  50.266  1.00  0.00     0.004 C 
BRANCH   4   5
ATOM      5  C   UNL     1      31.141  18.489  50.904  1.00  0.00    -0.003 C 
ATOM      6  C   UNL     1      29.799  18.323  50.191  1.00  0.00     0.004 C 
ENDBRANCH   4   5
ENDBRANCH   3   4
ENDBRANCH   1   3
BRANCH   2   7
ATOM      7  C   UNL     1      31.975  17.843  45.949  1.00  0.00    -0.002 C 
ATOM      8  C   UNL     1      32.412  18.799  45.127  1.00  0.00     0.001 C 
BRANCH   8   9
ATOM      9  C   UNL     1      32.078  18.783  43.668  1.00  0.00     0.183 C 
BRANCH   9  10
ATOM     10  O   UNL     1      32.915  17.879  43.002  1.00  0.00    -0.392 OA
ATOM     11  H   UNL     1      33.018  17.101  43.609  1.00  0.00     0.210 HD
ENDBRANCH   9  10
ENDBRANCH   8   9
ENDBRANCH   2   7
TORSDOF 6
ENDMDL
MODEL 2
REMARK VINA RESULT:    -5.150      2.002      2.711
REMARK INTER + INTRA:          -7.184
REMARK INTER:                  -7.002
REMARK INTRA:                  -0.183
REMARK UNBOUND:                -0.378
REMARK SMILES CCCCC=CC=CCO
REMARK SMILES IDX 5 1 6 2 4 3 3 4 2 5 1 6 7 7 8 8 9 9 10 10
REMARK H PARENT 10 11
REMARK Flexibility Score: inf
ROOT
ATOM      1  C   UNL     1      30.470  18.276  49.195  1.00  0.00    -0.027 C 
ATOM      2  C   UNL     1      31.796  18.240  49.037  1.00  0.00    -0.005 C 
ENDROOT
BRANCH   1   3
ATOM      3  C   UNL     1      29.840  18.596  50.520  1.00  0.00     0.027 C 
BRANCH   3   4
ATOM      4  C   UNL     1      29.750  20.108  50.793  1.00  0.00     0.004 C 
BRANCH   4   5
ATOM      5  C   UNL     1      29.422  20.460  52.256  1.00  0.00    -0.003 C 
ATOM      6  C   UNL     1      29.595  21.944  52.573  1.00  0.00     0.004 C 
ENDBRANCH   4   5
ENDBRANCH   3   4
ENDBRANCH   1   3
BRANCH   2   7
ATOM      7  C   UNL     1      32.395  17.919  47.732  1.00  0.00    -0.002 C 
ATOM      8  C   UNL     1      31.646  17.840  46.631  1.00  0.00     0.001 C 
BRANCH   8   9
ATOM      9  C   UNL     1      32.248  17.504  45.303  1.00  0.00     0.183 C 
BRANCH   9  10
ATOM     10  O   UNL     1      31.238  17.128  44.408  1.00  0.00    -0.392 OA
ATOM     11  H   UNL     1      30.989  17.952  43.912  1.00  0.00     0.210 HD
ENDBRANCH   9  10
ENDBRANCH   8   9
ENDBRANCH   2   7
TORSDOF 6
ENDMDL
MODEL 3
REMARK VINA RESULT:    -5.101      5.202      7.272
REMARK INTER + INTRA:          -7.119
REMARK INTER:                  -6.915
REMARK INTRA:                  -0.204
REMARK UNBOUND:                -0.378
REMARK SMILES CCCCC=CC=CCO
REMARK SMILES IDX 5 1 6 2 4 3 3 4 2 5 1 6 7 7 8 8 9 9 10 10
REMARK H PARENT 10 11
REMARK Flexibility Score: inf
ROOT
ATOM      1  C   UNL     1      29.447  20.671  48.557  1.00  0.00    -0.027 C 
ATOM      2  C   UNL     1      30.147  21.233  49.546  1.00  0.00    -0.005 C 
ENDROOT
BRANCH   1   3
ATOM      3  C   UNL     1      29.643  21.072  47.123  1.00  0.00     0.027 C 
BRANCH   3   4
ATOM      4  C   UNL     1      30.820  22.045  46.927  1.00  0.00     0.004 C 
BRANCH   4   5
ATOM      5  C   UNL     1      30.495  23.239  46.011  1.00  0.00    -0.003 C 
ATOM      6  C   UNL     1      31.619  23.568  45.029  1.00  0.00     0.004 C 
ENDBRANCH   4   5
ENDBRANCH   3   4
ENDBRANCH   1   3
BRANCH   2   7
ATOM      7  C   UNL     1      29.938  20.831  50.946  1.00  0.00    -0.002 C 
ATOM      8  C   UNL     1      30.121  21.697  51.945  1.00  0.00     0.001 C 
BRANCH   8   9
ATOM      9  C   UNL     1      29.921  21.291  53.372  1.00  0.00     0.183 C 
BRANCH   9  10
ATOM     10  O   UNL     1      30.915  21.870  54.171  1.00  0.00    -0.392 OA
ATOM     11  H   UNL     1      30.483  22.631  54.639  1.00  0.00     0.210 HD
ENDBRANCH   9  10
ENDBRANCH   8   9
ENDBRANCH   2   7
TORSDOF 6
ENDMDL
MODEL 4
REMARK VINA RESULT:    -4.930      4.591      6.725
REMARK INTER + INTRA:          -6.893
REMARK INTER:                  -6.478
REMARK INTRA:                  -0.415
REMARK UNBOUND:                -0.378
REMARK SMILES CCCCC=CC=CCO
REMARK SMILES IDX 5 1 6 2 4 3 3 4 2 5 1 6 7 7 8 8 9 9 10 10
REMARK H PARENT 10 11
REMARK Flexibility Score: inf
ROOT
ATOM      1  C   UNL     1      29.779  20.614  49.656  1.00  0.00    -0.027 C 
ATOM      2  C   UNL     1      30.500  21.556  50.270  1.00  0.00    -0.005 C 
ENDROOT
BRANCH   1   3
ATOM      3  C   UNL     1      29.728  20.510  48.158  1.00  0.00     0.027 C 
BRANCH   3   4
ATOM      4  C   UNL     1      30.660  19.419  47.599  1.00  0.00     0.004 C 
BRANCH   4   5
ATOM      5  C   UNL     1      30.987  18.302  48.607  1.00  0.00    -0.003 C 
ATOM      6  C   UNL     1      32.461  18.264  49.008  1.00  0.00     0.004 C 
ENDBRANCH   4   5
ENDBRANCH   3   4
ENDBRANCH   1   3
BRANCH   2   7
ATOM      7  C   UNL     1      30.534  21.647  51.738  1.00  0.00    -0.002 C 
ATOM      8  C   UNL     1      30.487  20.550  52.497  1.00  0.00     0.001 C 
BRANCH   8   9
ATOM      9  C   UNL     1      30.511  20.637  53.991  1.00  0.00     0.183 C 
BRANCH   9  10
ATOM     10  O   UNL     1      30.930  21.915  54.383  1.00  0.00    -0.392 OA
ATOM     11  H   UNL     1      30.150  22.333  54.833  1.00  0.00     0.210 HD
ENDBRANCH   9  10
ENDBRANCH   8   9
ENDBRANCH   2   7
TORSDOF 6
ENDMDL
MODEL 5
REMARK VINA RESULT:    -4.923      4.322      5.294
REMARK INTER + INTRA:          -6.884
REMARK INTER:                  -6.618
REMARK INTRA:                  -0.266
REMARK UNBOUND:                -0.378
REMARK SMILES CCCCC=CC=CCO
REMARK SMILES IDX 5 1 6 2 4 3 3 4 2 5 1 6 7 7 8 8 9 9 10 10
REMARK H PARENT 10 11
REMARK Flexibility Score: inf
ROOT
ATOM      1  C   UNL     1      29.785  21.486  43.540  1.00  0.00    -0.027 C 
ATOM      2  C   UNL     1      29.498  20.182  43.531  1.00  0.00    -0.005 C 
ENDROOT
BRANCH   1   3
ATOM      3  C   UNL     1      28.749  22.521  43.871  1.00  0.00     0.027 C 
BRANCH   3   4
ATOM      4  C   UNL     1      28.699  22.863  45.372  1.00  0.00     0.004 C 
BRANCH   4   5
ATOM      5  C   UNL     1      30.031  22.633  46.108  1.00  0.00    -0.003 C 
ATOM      6  C   UNL     1      31.035  23.767  45.906  1.00  0.00     0.004 C 
ENDBRANCH   4   5
ENDBRANCH   3   4
ENDBRANCH   1   3
BRANCH   2   7
ATOM      7  C   UNL     1      30.524  19.181  43.199  1.00  0.00    -0.002 C 
ATOM      8  C   UNL     1      31.722  19.204  43.785  1.00  0.00     0.001 C 
BRANCH   8   9
ATOM      9  C   UNL     1      32.775  18.196  43.443  1.00  0.00     0.183 C 
BRANCH   9  10
ATOM     10  O   UNL     1      32.789  17.183  44.411  1.00  0.00    -0.392 OA
ATOM     11  H   UNL     1      32.245  16.440  44.039  1.00  0.00     0.210 HD
ENDBRANCH   9  10
ENDBRANCH   8   9
ENDBRANCH   2   7
TORSDOF 6
ENDMDL
MODEL 6
REMARK VINA RESULT:    -4.891      2.936      5.653
REMARK INTER + INTRA:          -6.841
REMARK INTER:                  -6.517
REMARK INTRA:                  -0.324
REMARK UNBOUND:                -0.378
REMARK SMILES CCCCC=CC=CCO
REMARK SMILES IDX 5 1 6 2 4 3 3 4 2 5 1 6 7 7 8 8 9 9 10 10
REMARK H PARENT 10 11
REMARK Flexibility Score: inf
ROOT
ATOM      1  C   UNL     1      31.341  17.901  45.982  1.00  0.00    -0.027 C 
ATOM      2  C   UNL     1      32.241  17.841  46.967  1.00  0.00    -0.005 C 
ENDROOT
BRANCH   1   3
ATOM      3  C   UNL     1      31.701  17.571  44.562  1.00  0.00     0.027 C 
BRANCH   3   4
ATOM      4  C   UNL     1      32.159  18.801  43.757  1.00  0.00     0.004 C 
BRANCH   4   5
ATOM      5  C   UNL     1      31.269  20.042  43.954  1.00  0.00    -0.003 C 
ATOM      6  C   UNL     1      29.977  19.992  43.141  1.00  0.00     0.004 C 
ENDBRANCH   4   5
ENDBRANCH   3   4
ENDBRANCH   1   3
BRANCH   2   7
ATOM      7  C   UNL     1      31.871  18.173  48.352  1.00  0.00    -0.002 C 
ATOM      8  C   UNL     1      30.592  18.287  48.715  1.00  0.00     0.001 C 
BRANCH   8   9
ATOM      9  C   UNL     1      30.210  18.634  50.120  1.00  0.00     0.183 C 
BRANCH   9  10
ATOM     10  O   UNL     1      28.983  18.038  50.437  1.00  0.00    -0.392 OA
ATOM     11  H   UNL     1      29.145  17.492  51.250  1.00  0.00     0.210 HD
ENDBRANCH   9  10
ENDBRANCH   8   9
ENDBRANCH   2   7
TORSDOF 6
ENDMDL
MODEL 7
REMARK VINA RESULT:    -4.846      4.167      6.351
REMARK INTER + INTRA:          -6.782
REMARK INTER:                  -6.504
REMARK INTRA:                  -0.278
REMARK UNBOUND:                -0.378
REMARK SMILES CCCCC=CC=CCO
REMARK SMILES IDX 5 1 6 2 4 3 3 4 2 5 1 6 7 7 8 8 9 9 10 10
REMARK H PARENT 10 11
REMARK Flexibility Score: inf
ROOT
ATOM      1  C   UNL     1      30.743  21.866  46.904  1.00  0.00    -0.027 C 
ATOM      2  C   UNL     1      29.695  21.486  47.640  1.00  0.00    -0.005 C 
ENDROOT
BRANCH   1   3
ATOM      3  C   UNL     1      30.715  23.121  46.079  1.00  0.00     0.027 C 
BRANCH   3   4
ATOM      4  C   UNL     1      31.020  22.869  44.591  1.00  0.00     0.004 C 
BRANCH   4   5
ATOM      5  C   UNL     1      29.858  22.221  43.817  1.00  0.00    -0.003 C 
ATOM      6  C   UNL     1      30.290  21.021  42.975  1.00  0.00     0.004 C 
ENDBRANCH   4   5
ENDBRANCH   3   4
ENDBRANCH   1   3
BRANCH   2   7
ATOM      7  C   UNL     1      29.738  20.251  48.438  1.00  0.00    -0.002 C 
ATOM      8  C   UNL     1      29.820  20.294  49.770  1.00  0.00     0.001 C 
BRANCH   8   9
ATOM      9  C   UNL     1      29.874  19.041  50.586  1.00  0.00     0.183 C 
BRANCH   9  10
ATOM     10  O   UNL     1      28.983  18.096  50.062  1.00  0.00    -0.392 OA
ATOM     11  H   UNL     1      29.521  17.515  49.463  1.00  0.00     0.210 HD
ENDBRANCH   9  10
ENDBRANCH   8   9
ENDBRANCH   2   7
TORSDOF 6
ENDMDL
MODEL 8
REMARK VINA RESULT:    -4.808      4.207      6.461
REMARK INTER + INTRA:          -6.732
REMARK INTER:                  -6.474
REMARK INTRA:                  -0.257
REMARK UNBOUND:                -0.378
REMARK SMILES CCCCC=CC=CCO
REMARK SMILES IDX 5 1 6 2 4 3 3 4 2 5 1 6 7 7 8 8 9 9 10 10
REMARK H PARENT 10 11
REMARK Flexibility Score: inf
ROOT
ATOM      1  C   UNL     1      32.271  19.344  50.094  1.00  0.00    -0.027 C 
ATOM      2  C   UNL     1      31.324  20.278  49.968  1.00  0.00    -0.005 C 
ENDROOT
BRANCH   1   3
ATOM      3  C   UNL     1      33.089  18.886  48.921  1.00  0.00     0.027 C 
BRANCH   3   4
ATOM      4  C   UNL     1      32.393  19.131  47.570  1.00  0.00     0.004 C 
BRANCH   4   5
ATOM      5  C   UNL     1      31.604  17.917  47.046  1.00  0.00    -0.003 C 
ATOM      6  C   UNL     1      31.686  17.754  45.529  1.00  0.00     0.004 C 
ENDBRANCH   4   5
ENDBRANCH   3   4
ENDBRANCH   1   3
BRANCH   2   7
ATOM      7  C   UNL     1      30.528  20.711  51.127  1.00  0.00    -0.002 C 
ATOM      8  C   UNL     1      31.010  20.616  52.367  1.00  0.00     0.001 C 
BRANCH   8   9
ATOM      9  C   UNL     1      30.201  21.045  53.551  1.00  0.00     0.183 C 
BRANCH   9  10
ATOM     10  O   UNL     1      30.958  21.908  54.353  1.00  0.00    -0.392 OA
ATOM     11  H   UNL     1      31.257  21.369  55.132  1.00  0.00     0.210 HD
ENDBRANCH   9  10
ENDBRANCH   8   9
ENDBRANCH   2   7
TORSDOF 6
ENDMDL
MODEL 9
REMARK VINA RESULT:    -4.738      3.802      4.133
REMARK INTER + INTRA:          -6.640
REMARK INTER:                  -6.405
REMARK INTRA:                  -0.235
REMARK UNBOUND:                -0.378
REMARK SMILES CCCCC=CC=CCO
REMARK SMILES IDX 5 1 6 2 4 3 3 4 2 5 1 6 7 7 8 8 9 9 10 10
REMARK H PARENT 10 11
REMARK Flexibility Score: inf
ROOT
ATOM      1  C   UNL     1      30.518  21.173  48.854  1.00  0.00    -0.027 C 
ATOM      2  C   UNL     1      29.611  21.313  47.883  1.00  0.00    -0.005 C 
ENDROOT
BRANCH   1   3
ATOM      3  C   UNL     1      30.133  20.739  50.239  1.00  0.00     0.027 C 
BRANCH   3   4
ATOM      4  C   UNL     1      31.299  20.820  51.241  1.00  0.00     0.004 C 
BRANCH   4   5
ATOM      5  C   UNL     1      31.032  21.753  52.435  1.00  0.00    -0.003 C 
ATOM      6  C   UNL     1      29.561  22.140  52.581  1.00  0.00     0.004 C 
ENDBRANCH   4   5
ENDBRANCH   3   4
ENDBRANCH   1   3
BRANCH   2   7
ATOM      7  C   UNL     1      30.006  21.743  46.533  1.00  0.00    -0.002 C 
ATOM      8  C   UNL     1      30.874  22.742  46.355  1.00  0.00     0.001 C 
BRANCH   8   9
ATOM      9  C   UNL     1      31.271  23.191  44.984  1.00  0.00     0.183 C 
BRANCH   9  10
ATOM     10  O   UNL     1      30.393  22.649  44.036  1.00  0.00    -0.392 OA
ATOM     11  H   UNL     1      29.508  23.062  44.214  1.00  0.00     0.210 HD
ENDBRANCH   9  10
ENDBRANCH   8   9
ENDBRANCH   2   7
TORSDOF 6
ENDMDL
