MODEL 1
REMARK VINA RESULT:    -4.183      0.000      0.000
REMARK INTER + INTRA:         -10.250
REMARK INTER:                  -8.830
REMARK INTRA:                  -1.419
REMARK UNBOUND:                -1.419
REMARK SMILES CCC(=O)CCCCC[C@H]1NC(=O)[C@@H]2CCCCN2C(=O)[C@H]([C@H](C)CC)NC(=O)[C@H](Cc2cn(OC)c3ccccc23)NC1=O
REMARK SMILES IDX 9 1 10 2 44 3 43 4 45 6 30 7 28 8 27 9 29 11 22 12 23 14
REMARK SMILES IDX 24 15 25 16 26 17 31 18 32 19 33 20 42 21 34 22 37 23 41 24
REMARK SMILES IDX 38 25 40 26 39 27 35 28 36 29 11 30 12 31 13 33 14 34 19 35
REMARK SMILES IDX 15 36 18 37 16 38 17 39 20 40 21 41 8 43 7 44 6 45 5 46 3 47
REMARK SMILES IDX 4 48 2 49 1 50
REMARK H PARENT 43 5 27 10 11 32
REMARK Flexibility Score: 80.00
ROOT
ATOM      1  C   UNL     1      66.146  29.964  47.354  1.00  0.00     0.035 C 
ENDROOT
BRANCH   1   2
ATOM      2  C   UNL     1      66.236  31.341  48.092  1.00  0.00     0.171 C 
BRANCH   2   3
ATOM      3  C   UNL     1      65.142  31.328  49.126  1.00  0.00     0.243 C 
ATOM      4  N   UNL     1      63.774  31.239  48.746  1.00  0.00    -0.342 N 
ATOM      5  H   UNL     1      63.533  30.885  47.797  1.00  0.00     0.164 HD
ATOM      6  O   UNL     1      65.452  31.256  50.344  1.00  0.00    -0.273 OA
BRANCH   4   7
ATOM      7  C   UNL     1      62.716  31.877  49.515  1.00  0.00     0.175 C 
BRANCH   7   8
ATOM      8  C   UNL     1      62.885  33.383  49.468  1.00  0.00     0.243 C 
ATOM      9  N   UNL     1      64.220  33.921  49.594  1.00  0.00    -0.342 N 
ATOM     10  H   UNL     1      65.036  33.270  49.447  1.00  0.00     0.164 HD
ATOM     11  O   UNL     1      61.893  34.134  49.304  1.00  0.00    -0.273 OA
BRANCH   9  12
ATOM     12  C   UNL     1      64.524  35.203  50.225  1.00  0.00     0.174 CG0
ATOM     13  G   UNL     1      65.898  35.660  49.755  1.00  0.00     0.000 G0
BRANCH  12  14
ATOM     14  C   UNL     1      64.444  35.115  51.777  1.00  0.00     0.018 C 
ATOM     15  C   UNL     1      64.708  33.680  52.282  1.00  0.00     0.010 C 
BRANCH  14  16
ATOM     16  C   UNL     1      63.078  35.634  52.318  1.00  0.00     0.002 C 
ATOM     17  C   UNL     1      62.235  34.604  53.065  1.00  0.00     0.004 C 
ENDBRANCH  14  16
ENDBRANCH  12  14
ENDBRANCH   9  12
ENDBRANCH   7   8
BRANCH   7  18
ATOM     18  C   UNL     1      62.679  31.273  50.946  1.00  0.00     0.073 C 
BRANCH  18  19
ATOM     19  C   UNL     1      62.172  29.874  50.920  1.00  0.00    -0.016 A 
ATOM     20  C   UNL     1      62.856  28.745  51.353  1.00  0.00     0.134 A 
ATOM     21  C   UNL     1      60.919  29.421  50.544  1.00  0.00     0.006 A 
ATOM     22  N   UNL     1      62.072  27.664  51.257  1.00  0.00    -0.191 N 
ATOM     23  C   UNL     1      60.890  28.071  50.774  1.00  0.00     0.087 A 
ATOM     24  C   UNL     1      59.796  30.106  50.063  1.00  0.00     0.011 A 
ATOM     25  C   UNL     1      59.730  27.318  50.581  1.00  0.00     0.030 A 
ATOM     26  C   UNL     1      58.618  29.363  49.837  1.00  0.00     0.001 A 
ATOM     27  C   UNL     1      58.584  27.975  50.104  1.00  0.00     0.002 A 
BRANCH  22  28
ATOM     28  O   UNL     1      62.400  26.382  51.678  1.00  0.00    -0.417 OA
ATOM     29  C   UNL     1      62.484  25.306  50.748  1.00  0.00     0.313 C 
ENDBRANCH  22  28
ENDBRANCH  18  19
ENDBRANCH   7  18
ENDBRANCH   4   7
ENDBRANCH   2   3
BRANCH   2  30
ATOM     30  N   UNL     1      66.049  32.482  47.175  1.00  0.00    -0.343 N 
ATOM     31  C   UNL     1      66.543  33.815  47.427  1.00  0.00     0.243 C 
ATOM     32  H   UNL     1      65.335  32.389  46.385  1.00  0.00     0.164 HD
ATOM     33  O   UNL     1      66.125  34.745  46.678  1.00  0.00    -0.273 OA
BRANCH  31  34
ATOM     34  C   UNL     1      67.596  34.198  48.424  1.00  0.00     0.174 C 
ATOM     35  N   UNL     1      67.090  34.819  49.678  1.00  0.00    -0.329 N 
ATOM     36  C   UNL     1      68.573  33.018  48.664  1.00  0.00     0.035 C 
ATOM     37  C   UNL     1      68.070  35.129  50.741  1.00  0.00     0.120 C 
ATOM     38  C   UNL     1      69.233  33.000  50.033  1.00  0.00     0.004 C 
ATOM     39  C   UNL     1      69.430  34.441  50.527  1.00  0.00     0.022 C 
BRANCH  35  40
ATOM     40  C   UNL     1      65.907  35.671  49.747  1.00  0.00     0.246 CG0
ATOM     41  O   UNL     1      66.011  36.862  49.330  1.00  0.00    -0.272 OA
ATOM     42  G   UNL     1      64.548  35.170  50.217  1.00  0.00     0.000 G0
ENDBRANCH  35  40
ENDBRANCH  31  34
ENDBRANCH   2  30
ENDBRANCH   1   2
BRANCH   1  43
ATOM     43  C   UNL     1      67.471  29.420  46.794  1.00  0.00     0.003 C 
BRANCH  43  44
ATOM     44  C   UNL     1      67.153  28.125  45.995  1.00  0.00     0.001 C 
BRANCH  44  45
ATOM     45  C   UNL     1      66.250  27.142  46.728  1.00  0.00     0.008 C 
BRANCH  45  46
ATOM     46  C   UNL     1      67.108  26.042  47.374  1.00  0.00     0.075 C 
BRANCH  46  47
ATOM     47  C   UNL     1      67.388  26.278  48.839  1.00  0.00     0.132 C 
ATOM     48  O   UNL     1      68.499  25.971  49.265  1.00  0.00    -0.300 OA
BRANCH  47  49
ATOM     49  C   UNL     1      66.287  26.725  49.794  1.00  0.00     0.072 C 
ATOM     50  C   UNL     1      66.125  25.737  50.952  1.00  0.00     0.012 C 
ENDBRANCH  47  49
ENDBRANCH  46  47
ENDBRANCH  45  46
ENDBRANCH  44  45
ENDBRANCH  43  44
ENDBRANCH   1  43
TORSDOF 12
ENDMDL
MODEL 2
REMARK VINA RESULT:    -4.097      1.399      2.200
REMARK INTER + INTRA:         -10.066
REMARK INTER:                  -7.656
REMARK INTRA:                  -2.410
REMARK UNBOUND:                -1.419
REMARK SMILES CCC(=O)CCCCC[C@H]1NC(=O)[C@@H]2CCCCN2C(=O)[C@H]([C@H](C)CC)NC(=O)[C@H](Cc2cn(OC)c3ccccc23)NC1=O
REMARK SMILES IDX 9 1 10 2 44 3 43 4 45 6 30 7 28 8 27 9 29 11 22 12 23 14
REMARK SMILES IDX 24 15 25 16 26 17 31 18 32 19 33 20 42 21 34 22 37 23 41 24
REMARK SMILES IDX 38 25 40 26 39 27 35 28 36 29 11 30 12 31 13 33 14 34 19 35
REMARK SMILES IDX 15 36 18 37 16 38 17 39 20 40 21 41 8 43 7 44 6 45 5 46 3 47
REMARK SMILES IDX 4 48 2 49 1 50
REMARK H PARENT 43 5 27 10 11 32
REMARK Flexibility Score: 80.00
ROOT
ATOM      1  C   UNL     1      65.675  29.944  47.385  1.00  0.00     0.035 C 
ENDROOT
BRANCH   1   2
ATOM      2  C   UNL     1      66.032  31.293  48.093  1.00  0.00     0.171 C 
BRANCH   2   3
ATOM      3  C   UNL     1      65.003  31.477  49.176  1.00  0.00     0.243 C 
ATOM      4  N   UNL     1      63.612  31.411  48.885  1.00  0.00    -0.342 N 
ATOM      5  H   UNL     1      63.298  30.948  48.008  1.00  0.00     0.164 HD
ATOM      6  O   UNL     1      65.382  31.551  50.374  1.00  0.00    -0.273 OA
BRANCH   4   7
ATOM      7  C   UNL     1      62.632  32.201  49.616  1.00  0.00     0.175 C 
BRANCH   7   8
ATOM      8  C   UNL     1      62.944  33.676  49.458  1.00  0.00     0.243 C 
ATOM      9  N   UNL     1      64.314  34.103  49.624  1.00  0.00    -0.342 N 
ATOM     10  H   UNL     1      65.073  33.373  49.581  1.00  0.00     0.164 HD
ATOM     11  O   UNL     1      62.037  34.496  49.172  1.00  0.00    -0.273 OA
BRANCH   9  12
ATOM     12  C   UNL     1      64.702  35.403  50.167  1.00  0.00     0.174 CG0
ATOM     13  G   UNL     1      66.123  35.711  49.717  1.00  0.00     0.000 G0
BRANCH  12  14
ATOM     14  C   UNL     1      64.565  35.444  51.717  1.00  0.00     0.018 C 
ATOM     15  C   UNL     1      64.833  34.063  52.351  1.00  0.00     0.010 C 
BRANCH  14  16
ATOM     16  C   UNL     1      63.170  35.980  52.162  1.00  0.00     0.002 C 
ATOM     17  C   UNL     1      63.018  36.253  53.655  1.00  0.00     0.004 C 
ENDBRANCH  14  16
ENDBRANCH  12  14
ENDBRANCH   9  12
ENDBRANCH   7   8
BRANCH   7  18
ATOM     18  C   UNL     1      62.562  31.707  51.087  1.00  0.00     0.073 C 
BRANCH  18  19
ATOM     19  C   UNL     1      61.752  30.462  51.192  1.00  0.00    -0.016 A 
ATOM     20  C   UNL     1      60.376  30.391  51.368  1.00  0.00     0.134 A 
ATOM     21  C   UNL     1      62.174  29.150  51.063  1.00  0.00     0.006 A 
ATOM     22  N   UNL     1      59.973  29.115  51.341  1.00  0.00    -0.191 N 
ATOM     23  C   UNL     1      61.061  28.357  51.148  1.00  0.00     0.087 A 
ATOM     24  C   UNL     1      63.444  28.608  50.832  1.00  0.00     0.011 A 
ATOM     25  C   UNL     1      61.129  26.974  50.966  1.00  0.00     0.030 A 
ATOM     26  C   UNL     1      63.544  27.209  50.669  1.00  0.00     0.001 A 
ATOM     27  C   UNL     1      62.387  26.397  50.728  1.00  0.00     0.002 A 
BRANCH  22  28
ATOM     28  O   UNL     1      58.657  28.677  51.403  1.00  0.00    -0.417 OA
ATOM     29  C   UNL     1      57.749  28.930  50.334  1.00  0.00     0.313 C 
ENDBRANCH  22  28
ENDBRANCH  18  19
ENDBRANCH   7  18
ENDBRANCH   4   7
ENDBRANCH   2   3
BRANCH   2  30
ATOM     30  N   UNL     1      65.996  32.440  47.165  1.00  0.00    -0.343 N 
ATOM     31  C   UNL     1      66.624  33.714  47.425  1.00  0.00     0.243 C 
ATOM     32  H   UNL     1      65.300  32.418  46.354  1.00  0.00     0.164 HD
ATOM     33  O   UNL     1      66.332  34.677  46.659  1.00  0.00    -0.273 OA
BRANCH  31  34
ATOM     34  C   UNL     1      67.683  33.990  48.451  1.00  0.00     0.174 C 
ATOM     35  N   UNL     1      67.214  34.694  49.675  1.00  0.00    -0.329 N 
ATOM     36  C   UNL     1      68.502  32.707  48.746  1.00  0.00     0.035 C 
ATOM     37  C   UNL     1      68.190  34.908  50.766  1.00  0.00     0.120 C 
ATOM     38  C   UNL     1      69.109  32.640  50.138  1.00  0.00     0.004 C 
ATOM     39  C   UNL     1      69.463  34.057  50.612  1.00  0.00     0.022 C 
BRANCH  35  40
ATOM     40  C   UNL     1      66.142  35.684  49.687  1.00  0.00     0.246 CG0
ATOM     41  O   UNL     1      66.387  36.829  49.205  1.00  0.00    -0.272 OA
ATOM     42  G   UNL     1      64.732  35.376  50.174  1.00  0.00     0.000 G0
ENDBRANCH  35  40
ENDBRANCH  31  34
ENDBRANCH   2  30
ENDBRANCH   1   2
BRANCH   1  43
ATOM     43  C   UNL     1      66.482  28.717  47.842  1.00  0.00     0.003 C 
BRANCH  43  44
ATOM     44  C   UNL     1      67.832  29.224  48.421  1.00  0.00     0.001 C 
BRANCH  44  45
ATOM     45  C   UNL     1      68.286  28.499  49.681  1.00  0.00     0.008 C 
BRANCH  45  46
ATOM     46  C   UNL     1      67.275  28.754  50.811  1.00  0.00     0.075 C 
BRANCH  46  47
ATOM     47  C   UNL     1      67.336  27.729  51.919  1.00  0.00     0.132 C 
ATOM     48  O   UNL     1      67.924  28.039  52.951  1.00  0.00    -0.300 OA
BRANCH  47  49
ATOM     49  C   UNL     1      66.832  26.306  51.709  1.00  0.00     0.072 C 
ATOM     50  C   UNL     1      66.726  25.556  53.038  1.00  0.00     0.012 C 
ENDBRANCH  47  49
ENDBRANCH  46  47
ENDBRANCH  45  46
ENDBRANCH  44  45
ENDBRANCH  43  44
ENDBRANCH   1  43
TORSDOF 12
ENDMDL
MODEL 3
REMARK VINA RESULT:    -4.012      2.910      6.562
REMARK INTER + INTRA:          -9.888
REMARK INTER:                  -8.174
REMARK INTRA:                  -1.714
REMARK UNBOUND:                -1.419
REMARK SMILES CCC(=O)CCCCC[C@H]1NC(=O)[C@@H]2CCCCN2C(=O)[C@H]([C@H](C)CC)NC(=O)[C@H](Cc2cn(OC)c3ccccc23)NC1=O
REMARK SMILES IDX 9 1 10 2 44 3 43 4 45 6 30 7 28 8 27 9 29 11 22 12 23 14
REMARK SMILES IDX 24 15 25 16 26 17 31 18 32 19 33 20 42 21 34 22 37 23 41 24
REMARK SMILES IDX 38 25 40 26 39 27 35 28 36 29 11 30 12 31 13 33 14 34 19 35
REMARK SMILES IDX 15 36 18 37 16 38 17 39 20 40 21 41 8 43 7 44 6 45 5 46 3 47
REMARK SMILES IDX 4 48 2 49 1 50
REMARK H PARENT 43 5 27 10 11 32
REMARK Flexibility Score: 80.00
ROOT
ATOM      1  C   UNL     1      61.411  28.183  49.624  1.00  0.00     0.035 C 
ENDROOT
BRANCH   1   2
ATOM      2  C   UNL     1      62.926  28.573  49.632  1.00  0.00     0.171 C 
BRANCH   2   3
ATOM      3  C   UNL     1      63.026  29.832  50.452  1.00  0.00     0.243 C 
ATOM      4  N   UNL     1      62.266  30.987  50.116  1.00  0.00    -0.342 N 
ATOM      5  H   UNL     1      61.431  30.886  49.504  1.00  0.00     0.164 HD
ATOM      6  O   UNL     1      63.683  29.813  51.526  1.00  0.00    -0.273 OA
BRANCH   4   7
ATOM      7  C   UNL     1      62.761  32.334  50.362  1.00  0.00     0.175 C 
BRANCH   7   8
ATOM      8  C   UNL     1      64.012  32.577  49.540  1.00  0.00     0.243 C 
ATOM      9  N   UNL     1      65.031  31.554  49.535  1.00  0.00    -0.342 N 
ATOM     10  H   UNL     1      64.771  30.589  49.868  1.00  0.00     0.164 HD
ATOM     11  O   UNL     1      64.143  33.630  48.870  1.00  0.00    -0.273 OA
BRANCH   9  12
ATOM     12  C   UNL     1      66.461  31.830  49.417  1.00  0.00     0.174 CG0
ATOM     13  G   UNL     1      67.159  30.568  48.929  1.00  0.00     0.000 G0
BRANCH  12  14
ATOM     14  C   UNL     1      67.062  32.341  50.759  1.00  0.00     0.018 C 
ATOM     15  C   UNL     1      66.245  31.853  51.974  1.00  0.00     0.010 C 
BRANCH  14  16
ATOM     16  C   UNL     1      67.188  33.894  50.783  1.00  0.00     0.002 C 
ATOM     17  C   UNL     1      67.787  34.523  49.528  1.00  0.00     0.004 C 
ENDBRANCH  14  16
ENDBRANCH  12  14
ENDBRANCH   9  12
ENDBRANCH   7   8
BRANCH   7  18
ATOM     18  C   UNL     1      62.937  32.551  51.890  1.00  0.00     0.073 C 
BRANCH  18  19
ATOM     19  C   UNL     1      61.644  32.922  52.527  1.00  0.00    -0.016 A 
ATOM     20  C   UNL     1      61.026  34.164  52.464  1.00  0.00     0.134 A 
ATOM     21  C   UNL     1      60.769  32.113  53.231  1.00  0.00     0.006 A 
ATOM     22  N   UNL     1      59.840  34.122  53.084  1.00  0.00    -0.191 N 
ATOM     23  C   UNL     1      59.675  32.875  53.545  1.00  0.00     0.087 A 
ATOM     24  C   UNL     1      60.840  30.757  53.574  1.00  0.00     0.011 A 
ATOM     25  C   UNL     1      58.559  32.329  54.183  1.00  0.00     0.030 A 
ATOM     26  C   UNL     1      59.734  30.187  54.242  1.00  0.00     0.001 A 
ATOM     27  C   UNL     1      58.594  30.971  54.537  1.00  0.00     0.002 A 
BRANCH  22  28
ATOM     28  O   UNL     1      58.916  35.158  53.144  1.00  0.00    -0.417 OA
ATOM     29  C   UNL     1      59.337  36.518  53.087  1.00  0.00     0.313 C 
ENDBRANCH  22  28
ENDBRANCH  18  19
ENDBRANCH   7  18
ENDBRANCH   4   7
ENDBRANCH   2   3
BRANCH   2  30
ATOM     30  N   UNL     1      63.451  28.815  48.274  1.00  0.00    -0.343 N 
ATOM     31  C   UNL     1      64.854  28.810  47.933  1.00  0.00     0.243 C 
ATOM     32  H   UNL     1      62.791  29.223  47.539  1.00  0.00     0.164 HD
ATOM     33  O   UNL     1      65.180  29.249  46.792  1.00  0.00    -0.273 OA
BRANCH  31  34
ATOM     34  C   UNL     1      65.966  28.230  48.755  1.00  0.00     0.174 C 
ATOM     35  N   UNL     1      66.820  29.223  49.461  1.00  0.00    -0.329 N 
ATOM     36  C   UNL     1      65.431  27.103  49.676  1.00  0.00     0.035 C 
ATOM     37  C   UNL     1      67.872  28.711  50.365  1.00  0.00     0.120 C 
ATOM     38  C   UNL     1      66.219  26.894  50.959  1.00  0.00     0.004 C 
ATOM     39  C   UNL     1      67.699  27.221  50.710  1.00  0.00     0.022 C 
BRANCH  35  40
ATOM     40  C   UNL     1      67.134  30.548  48.937  1.00  0.00     0.246 CG0
ATOM     41  O   UNL     1      67.969  30.626  47.987  1.00  0.00    -0.272 OA
ATOM     42  G   UNL     1      66.448  31.818  49.422  1.00  0.00     0.000 G0
ENDBRANCH  35  40
ENDBRANCH  31  34
ENDBRANCH   2  30
ENDBRANCH   1   2
BRANCH   1  43
ATOM     43  C   UNL     1      60.871  27.578  50.930  1.00  0.00     0.003 C 
BRANCH  43  44
ATOM     44  C   UNL     1      59.557  28.325  51.293  1.00  0.00     0.001 C 
BRANCH  44  45
ATOM     45  C   UNL     1      58.615  28.545  50.116  1.00  0.00     0.008 C 
BRANCH  45  46
ATOM     46  C   UNL     1      57.229  28.958  50.640  1.00  0.00     0.075 C 
BRANCH  46  47
ATOM     47  C   UNL     1      56.251  27.811  50.729  1.00  0.00     0.132 C 
ATOM     48  O   UNL     1      56.682  26.677  50.533  1.00  0.00    -0.300 OA
BRANCH  47  49
ATOM     49  C   UNL     1      54.756  28.056  50.893  1.00  0.00     0.072 C 
ATOM     50  C   UNL     1      54.421  29.542  50.750  1.00  0.00     0.012 C 
ENDBRANCH  47  49
ENDBRANCH  46  47
ENDBRANCH  45  46
ENDBRANCH  44  45
ENDBRANCH  43  44
ENDBRANCH   1  43
TORSDOF 12
ENDMDL
MODEL 4
REMARK VINA RESULT:    -3.859      6.538     10.277
REMARK INTER + INTRA:          -9.566
REMARK INTER:                  -7.088
REMARK INTRA:                  -2.478
REMARK UNBOUND:                -1.419
REMARK SMILES CCC(=O)CCCCC[C@H]1NC(=O)[C@@H]2CCCCN2C(=O)[C@H]([C@H](C)CC)NC(=O)[C@H](Cc2cn(OC)c3ccccc23)NC1=O
REMARK SMILES IDX 9 1 10 2 44 3 43 4 45 6 30 7 28 8 27 9 29 11 22 12 23 14
REMARK SMILES IDX 24 15 25 16 26 17 31 18 32 19 33 20 42 21 34 22 37 23 41 24
REMARK SMILES IDX 38 25 40 26 39 27 35 28 36 29 11 30 12 31 13 33 14 34 19 35
REMARK SMILES IDX 15 36 18 37 16 38 17 39 20 40 21 41 8 43 7 44 6 45 5 46 3 47
REMARK SMILES IDX 4 48 2 49 1 50
REMARK H PARENT 43 5 27 10 11 32
REMARK Flexibility Score: 80.00
ROOT
ATOM      1  C   UNL     1      54.777  30.325  56.798  1.00  0.00     0.035 C 
ENDROOT
BRANCH   1   2
ATOM      2  C   UNL     1      55.760  31.532  56.641  1.00  0.00     0.171 C 
BRANCH   2   3
ATOM      3  C   UNL     1      56.416  31.362  55.297  1.00  0.00     0.243 C 
ATOM      4  N   UNL     1      57.331  30.299  55.057  1.00  0.00    -0.342 N 
ATOM      5  H   UNL     1      57.327  29.473  55.691  1.00  0.00     0.164 HD
ATOM      6  O   UNL     1      56.042  32.086  54.338  1.00  0.00    -0.273 OA
BRANCH   4   7
ATOM      7  C   UNL     1      58.451  30.438  54.139  1.00  0.00     0.175 C 
BRANCH   7   8
ATOM      8  C   UNL     1      59.460  31.416  54.708  1.00  0.00     0.243 C 
ATOM      9  N   UNL     1      58.962  32.600  55.368  1.00  0.00    -0.342 N 
ATOM     10  H   UNL     1      57.951  32.617  55.666  1.00  0.00     0.164 HD
ATOM     11  O   UNL     1      60.691  31.189  54.622  1.00  0.00    -0.273 OA
BRANCH   9  12
ATOM     12  C   UNL     1      59.652  33.887  55.361  1.00  0.00     0.174 CG0
ATOM     13  G   UNL     1      59.170  34.701  56.555  1.00  0.00     0.000 G0
BRANCH  12  14
ATOM     14  C   UNL     1      59.440  34.649  54.020  1.00  0.00     0.018 C 
ATOM     15  C   UNL     1      58.073  34.316  53.385  1.00  0.00     0.010 C 
BRANCH  14  16
ATOM     16  C   UNL     1      60.589  34.366  53.006  1.00  0.00     0.002 C 
ATOM     17  C   UNL     1      61.982  34.230  53.614  1.00  0.00     0.004 C 
ENDBRANCH  14  16
ENDBRANCH  12  14
ENDBRANCH   9  12
ENDBRANCH   7   8
BRANCH   7  18
ATOM     18  C   UNL     1      57.921  30.802  52.725  1.00  0.00     0.073 C 
BRANCH  18  19
ATOM     19  C   UNL     1      57.598  29.576  51.945  1.00  0.00    -0.016 A 
ATOM     20  C   UNL     1      58.483  28.557  51.616  1.00  0.00     0.134 A 
ATOM     21  C   UNL     1      56.368  29.162  51.464  1.00  0.00     0.006 A 
ATOM     22  N   UNL     1      57.838  27.573  50.978  1.00  0.00    -0.191 N 
ATOM     23  C   UNL     1      56.550  27.932  50.890  1.00  0.00     0.087 A 
ATOM     24  C   UNL     1      55.103  29.759  51.532  1.00  0.00     0.011 A 
ATOM     25  C   UNL     1      55.479  27.194  50.383  1.00  0.00     0.030 A 
ATOM     26  C   UNL     1      54.007  29.042  51.004  1.00  0.00     0.001 A 
ATOM     27  C   UNL     1      54.195  27.760  50.439  1.00  0.00     0.002 A 
BRANCH  22  28
ATOM     28  O   UNL     1      58.392  26.365  50.575  1.00  0.00    -0.417 OA
ATOM     29  C   UNL     1      59.771  26.271  50.231  1.00  0.00     0.313 C 
ENDBRANCH  22  28
ENDBRANCH  18  19
ENDBRANCH   7  18
ENDBRANCH   4   7
ENDBRANCH   2   3
BRANCH   2  30
ATOM     30  N   UNL     1      56.787  31.560  57.702  1.00  0.00    -0.343 N 
ATOM     31  C   UNL     1      57.447  32.759  58.161  1.00  0.00     0.243 C 
ATOM     32  H   UNL     1      57.228  30.636  58.007  1.00  0.00     0.164 HD
ATOM     33  O   UNL     1      58.458  32.620  58.909  1.00  0.00    -0.273 OA
BRANCH  31  34
ATOM     34  C   UNL     1      56.988  34.169  57.933  1.00  0.00     0.174 C 
ATOM     35  N   UNL     1      57.722  34.914  56.875  1.00  0.00    -0.329 N 
ATOM     36  C   UNL     1      55.446  34.220  57.774  1.00  0.00     0.035 C 
ATOM     37  C   UNL     1      57.254  36.275  56.535  1.00  0.00     0.120 C 
ATOM     38  C   UNL     1      54.927  35.370  56.927  1.00  0.00     0.004 C 
ATOM     39  C   UNL     1      55.852  36.585  57.089  1.00  0.00     0.022 C 
BRANCH  35  40
ATOM     40  C   UNL     1      59.138  34.723  56.577  1.00  0.00     0.246 CG0
ATOM     41  O   UNL     1      59.984  35.221  57.376  1.00  0.00    -0.272 OA
ATOM     42  G   UNL     1      59.635  33.890  55.403  1.00  0.00     0.000 G0
ENDBRANCH  35  40
ENDBRANCH  31  34
ENDBRANCH   2  30
ENDBRANCH   1   2
BRANCH   1  43
ATOM     43  C   UNL     1      54.941  29.493  58.080  1.00  0.00     0.003 C 
BRANCH  43  44
ATOM     44  C   UNL     1      55.584  28.133  57.685  1.00  0.00     0.001 C 
BRANCH  44  45
ATOM     45  C   UNL     1      57.011  27.945  58.184  1.00  0.00     0.008 C 
BRANCH  45  46
ATOM     46  C   UNL     1      57.924  27.585  57.000  1.00  0.00     0.075 C 
BRANCH  46  47
ATOM     47  C   UNL     1      57.446  26.388  56.212  1.00  0.00     0.132 C 
ATOM     48  O   UNL     1      57.350  25.316  56.805  1.00  0.00    -0.300 OA
BRANCH  47  49
ATOM     49  C   UNL     1      57.247  26.462  54.704  1.00  0.00     0.072 C 
ATOM     50  C   UNL     1      55.930  27.157  54.353  1.00  0.00     0.012 C 
ENDBRANCH  47  49
ENDBRANCH  46  47
ENDBRANCH  45  46
ENDBRANCH  44  45
ENDBRANCH  43  44
ENDBRANCH   1  43
TORSDOF 12
ENDMDL
MODEL 5
REMARK VINA RESULT:    -3.810      1.895      2.752
REMARK INTER + INTRA:          -9.461
REMARK INTER:                  -7.854
REMARK INTRA:                  -1.607
REMARK UNBOUND:                -1.419
REMARK SMILES CCC(=O)CCCCC[C@H]1NC(=O)[C@@H]2CCCCN2C(=O)[C@H]([C@H](C)CC)NC(=O)[C@H](Cc2cn(OC)c3ccccc23)NC1=O
REMARK SMILES IDX 9 1 10 2 44 3 43 4 45 6 30 7 28 8 27 9 29 11 22 12 23 14
REMARK SMILES IDX 24 15 25 16 26 17 31 18 32 19 33 20 42 21 34 22 37 23 41 24
REMARK SMILES IDX 38 25 40 26 39 27 35 28 36 29 11 30 12 31 13 33 14 34 19 35
REMARK SMILES IDX 15 36 18 37 16 38 17 39 20 40 21 41 8 43 7 44 6 45 5 46 3 47
REMARK SMILES IDX 4 48 2 49 1 50
REMARK H PARENT 43 5 27 10 11 32
REMARK Flexibility Score: 80.00
ROOT
ATOM      1  C   UNL     1      65.657  29.838  47.427  1.00  0.00     0.035 C 
ENDROOT
BRANCH   1   2
ATOM      2  C   UNL     1      65.955  31.173  48.187  1.00  0.00     0.171 C 
BRANCH   2   3
ATOM      3  C   UNL     1      64.861  31.321  49.210  1.00  0.00     0.243 C 
ATOM      4  N   UNL     1      63.492  31.217  48.839  1.00  0.00    -0.342 N 
ATOM      5  H   UNL     1      63.242  30.750  47.942  1.00  0.00     0.164 HD
ATOM      6  O   UNL     1      65.168  31.399  50.428  1.00  0.00    -0.273 OA
BRANCH   4   7
ATOM      7  C   UNL     1      62.449  31.975  49.515  1.00  0.00     0.175 C 
BRANCH   7   8
ATOM      8  C   UNL     1      62.743  33.458  49.407  1.00  0.00     0.243 C 
ATOM      9  N   UNL     1      64.091  33.906  49.672  1.00  0.00    -0.342 N 
ATOM     10  H   UNL     1      64.864  33.189  49.665  1.00  0.00     0.164 HD
ATOM     11  O   UNL     1      61.842  34.268  49.078  1.00  0.00    -0.273 OA
BRANCH   9  12
ATOM     12  C   UNL     1      64.417  35.200  50.265  1.00  0.00     0.174 CG0
ATOM     13  G   UNL     1      65.851  35.554  49.895  1.00  0.00     0.000 G0
BRANCH  12  14
ATOM     14  C   UNL     1      64.203  35.198  51.807  1.00  0.00     0.018 C 
ATOM     15  C   UNL     1      64.296  33.774  52.395  1.00  0.00     0.010 C 
BRANCH  14  16
ATOM     16  C   UNL     1      62.848  35.857  52.204  1.00  0.00     0.002 C 
ATOM     17  C   UNL     1      61.774  34.897  52.709  1.00  0.00     0.004 C 
ENDBRANCH  14  16
ENDBRANCH  12  14
ENDBRANCH   9  12
ENDBRANCH   7   8
BRANCH   7  18
ATOM     18  C   UNL     1      62.287  31.450  50.968  1.00  0.00     0.073 C 
BRANCH  18  19
ATOM     19  C   UNL     1      61.493  30.191  50.994  1.00  0.00    -0.016 A 
ATOM     20  C   UNL     1      60.108  30.094  50.961  1.00  0.00     0.134 A 
ATOM     21  C   UNL     1      61.952  28.885  50.977  1.00  0.00     0.006 A 
ATOM     22  N   UNL     1      59.736  28.809  50.919  1.00  0.00    -0.191 N 
ATOM     23  C   UNL     1      60.853  28.070  50.920  1.00  0.00     0.087 A 
ATOM     24  C   UNL     1      63.253  28.365  50.962  1.00  0.00     0.011 A 
ATOM     25  C   UNL     1      60.974  26.684  50.801  1.00  0.00     0.030 A 
ATOM     26  C   UNL     1      63.400  26.964  50.866  1.00  0.00     0.001 A 
ATOM     27  C   UNL     1      62.263  26.128  50.777  1.00  0.00     0.002 A 
BRANCH  22  28
ATOM     28  O   UNL     1      58.434  28.343  50.795  1.00  0.00    -0.417 OA
ATOM     29  C   UNL     1      57.347  29.247  50.611  1.00  0.00     0.313 C 
ENDBRANCH  22  28
ENDBRANCH  18  19
ENDBRANCH   7  18
ENDBRANCH   4   7
ENDBRANCH   2   3
BRANCH   2  30
ATOM     30  N   UNL     1      65.963  32.341  47.285  1.00  0.00    -0.343 N 
ATOM     31  C   UNL     1      66.542  33.621  47.621  1.00  0.00     0.243 C 
ATOM     32  H   UNL     1      65.330  32.324  46.425  1.00  0.00     0.164 HD
ATOM     33  O   UNL     1      66.286  34.596  46.857  1.00  0.00    -0.273 OA
BRANCH  31  34
ATOM     34  C   UNL     1      67.515  33.893  48.729  1.00  0.00     0.174 C 
ATOM     35  N   UNL     1      66.941  34.553  49.932  1.00  0.00    -0.329 N 
ATOM     36  C   UNL     1      68.342  32.621  49.051  1.00  0.00     0.035 C 
ATOM     37  C   UNL     1      67.828  34.760  51.097  1.00  0.00     0.120 C 
ATOM     38  C   UNL     1      68.847  32.531  50.482  1.00  0.00     0.004 C 
ATOM     39  C   UNL     1      69.130  33.942  51.017  1.00  0.00     0.022 C 
BRANCH  35  40
ATOM     40  C   UNL     1      65.847  35.517  49.890  1.00  0.00     0.246 CG0
ATOM     41  O   UNL     1      66.099  36.680  49.457  1.00  0.00    -0.272 OA
ATOM     42  G   UNL     1      64.413  35.164  50.262  1.00  0.00     0.000 G0
ENDBRANCH  35  40
ENDBRANCH  31  34
ENDBRANCH   2  30
ENDBRANCH   1   2
BRANCH   1  43
ATOM     43  C   UNL     1      66.739  28.751  47.538  1.00  0.00     0.003 C 
BRANCH  43  44
ATOM     44  C   UNL     1      68.110  29.461  47.721  1.00  0.00     0.001 C 
BRANCH  44  45
ATOM     45  C   UNL     1      69.001  28.840  48.789  1.00  0.00     0.008 C 
BRANCH  45  46
ATOM     46  C   UNL     1      70.367  28.491  48.175  1.00  0.00     0.075 C 
BRANCH  46  47
ATOM     47  C   UNL     1      71.539  28.928  49.022  1.00  0.00     0.132 C 
ATOM     48  O   UNL     1      71.300  29.362  50.146  1.00  0.00    -0.300 OA
BRANCH  47  49
ATOM     49  C   UNL     1      72.950  28.987  48.452  1.00  0.00     0.072 C 
ATOM     50  C   UNL     1      72.958  28.641  46.961  1.00  0.00     0.012 C 
ENDBRANCH  47  49
ENDBRANCH  46  47
ENDBRANCH  45  46
ENDBRANCH  44  45
ENDBRANCH  43  44
ENDBRANCH   1  43
TORSDOF 12
ENDMDL
MODEL 6
REMARK VINA RESULT:    -3.697      4.171      8.267
REMARK INTER + INTRA:          -9.223
REMARK INTER:                  -6.951
REMARK INTRA:                  -2.272
REMARK UNBOUND:                -1.419
REMARK SMILES CCC(=O)CCCCC[C@H]1NC(=O)[C@@H]2CCCCN2C(=O)[C@H]([C@H](C)CC)NC(=O)[C@H](Cc2cn(OC)c3ccccc23)NC1=O
REMARK SMILES IDX 9 1 10 2 44 3 43 4 45 6 30 7 28 8 27 9 29 11 22 12 23 14
REMARK SMILES IDX 24 15 25 16 26 17 31 18 32 19 33 20 42 21 34 22 37 23 41 24
REMARK SMILES IDX 38 25 40 26 39 27 35 28 36 29 11 30 12 31 13 33 14 34 19 35
REMARK SMILES IDX 15 36 18 37 16 38 17 39 20 40 21 41 8 43 7 44 6 45 5 46 3 47
REMARK SMILES IDX 4 48 2 49 1 50
REMARK H PARENT 43 5 27 10 11 32
REMARK Flexibility Score: 80.00
ROOT
ATOM      1  C   UNL     1      60.282  32.971  53.221  1.00  0.00     0.035 C 
ENDROOT
BRANCH   1   2
ATOM      2  C   UNL     1      61.210  31.900  52.557  1.00  0.00     0.171 C 
BRANCH   2   3
ATOM      3  C   UNL     1      60.303  30.783  52.114  1.00  0.00     0.243 C 
ATOM      4  N   UNL     1      59.411  30.157  53.028  1.00  0.00    -0.342 N 
ATOM      5  H   UNL     1      59.161  30.648  53.911  1.00  0.00     0.164 HD
ATOM      6  O   UNL     1      60.238  30.498  50.890  1.00  0.00    -0.273 OA
BRANCH   4   7
ATOM      7  C   UNL     1      59.053  28.751  52.916  1.00  0.00     0.175 C 
BRANCH   7   8
ATOM      8  C   UNL     1      60.291  27.893  53.090  1.00  0.00     0.243 C 
ATOM      9  N   UNL     1      61.477  28.250  52.348  1.00  0.00    -0.342 N 
ATOM     10  H   UNL     1      61.532  29.217  51.932  1.00  0.00     0.164 HD
ATOM     11  O   UNL     1      60.285  26.912  53.874  1.00  0.00    -0.273 OA
BRANCH   9  12
ATOM     12  C   UNL     1      62.451  27.281  51.854  1.00  0.00     0.174 CG0
ATOM     13  G   UNL     1      63.762  28.007  51.583  1.00  0.00     0.000 G0
BRANCH  12  14
ATOM     14  C   UNL     1      61.932  26.533  50.591  1.00  0.00     0.018 C 
ATOM     15  C   UNL     1      60.871  27.359  49.835  1.00  0.00     0.010 C 
BRANCH  14  16
ATOM     16  C   UNL     1      61.369  25.123  50.943  1.00  0.00     0.002 C 
ATOM     17  C   UNL     1      59.865  24.952  50.750  1.00  0.00     0.004 C 
ENDBRANCH  14  16
ENDBRANCH  12  14
ENDBRANCH   9  12
ENDBRANCH   7   8
BRANCH   7  18
ATOM     18  C   UNL     1      58.284  28.516  51.587  1.00  0.00     0.073 C 
BRANCH  18  19
ATOM     19  C   UNL     1      56.814  28.621  51.797  1.00  0.00    -0.016 A 
ATOM     20  C   UNL     1      56.160  29.592  52.546  1.00  0.00     0.134 A 
ATOM     21  C   UNL     1      55.809  27.846  51.245  1.00  0.00     0.006 A 
ATOM     22  N   UNL     1      54.834  29.429  52.455  1.00  0.00    -0.191 N 
ATOM     23  C   UNL     1      54.615  28.374  51.659  1.00  0.00     0.087 A 
ATOM     24  C   UNL     1      55.863  26.748  50.376  1.00  0.00     0.011 A 
ATOM     25  C   UNL     1      53.394  27.873  51.203  1.00  0.00     0.030 A 
ATOM     26  C   UNL     1      54.641  26.208  49.921  1.00  0.00     0.001 A 
ATOM     27  C   UNL     1      53.411  26.776  50.327  1.00  0.00     0.002 A 
BRANCH  22  28
ATOM     28  O   UNL     1      53.873  30.265  53.007  1.00  0.00    -0.417 OA
ATOM     29  C   UNL     1      53.308  31.332  52.249  1.00  0.00     0.313 C 
ENDBRANCH  22  28
ENDBRANCH  18  19
ENDBRANCH   7  18
ENDBRANCH   4   7
ENDBRANCH   2   3
BRANCH   2  30
ATOM     30  N   UNL     1      62.227  31.382  53.493  1.00  0.00    -0.343 N 
ATOM     31  C   UNL     1      63.413  30.666  53.087  1.00  0.00     0.243 C 
ATOM     32  H   UNL     1      61.986  31.338  54.533  1.00  0.00     0.164 HD
ATOM     33  O   UNL     1      64.083  30.085  53.989  1.00  0.00    -0.273 OA
BRANCH  31  34
ATOM     34  C   UNL     1      64.003  30.633  51.708  1.00  0.00     0.174 C 
ATOM     35  N   UNL     1      63.802  29.362  50.961  1.00  0.00    -0.329 N 
ATOM     36  C   UNL     1      63.589  31.896  50.909  1.00  0.00     0.035 C 
ATOM     37  C   UNL     1      64.274  29.301  49.561  1.00  0.00     0.120 C 
ATOM     38  C   UNL     1      63.534  31.711  49.401  1.00  0.00     0.004 C 
ATOM     39  C   UNL     1      64.592  30.686  48.971  1.00  0.00     0.022 C 
BRANCH  35  40
ATOM     40  C   UNL     1      63.754  28.046  51.589  1.00  0.00     0.246 CG0
ATOM     41  O   UNL     1      64.845  27.536  51.980  1.00  0.00    -0.272 OA
ATOM     42  G   UNL     1      62.453  27.303  51.865  1.00  0.00     0.000 G0
ENDBRANCH  35  40
ENDBRANCH  31  34
ENDBRANCH   2  30
ENDBRANCH   1   2
BRANCH   1  43
ATOM     43  C   UNL     1      60.910  33.779  54.369  1.00  0.00     0.003 C 
BRANCH  43  44
ATOM     44  C   UNL     1      59.849  33.907  55.498  1.00  0.00     0.001 C 
BRANCH  44  45
ATOM     45  C   UNL     1      59.163  32.597  55.865  1.00  0.00     0.008 C 
BRANCH  45  46
ATOM     46  C   UNL     1      59.928  31.923  57.015  1.00  0.00     0.075 C 
BRANCH  46  47
ATOM     47  C   UNL     1      60.660  30.668  56.600  1.00  0.00     0.132 C 
ATOM     48  O   UNL     1      60.003  29.772  56.076  1.00  0.00    -0.300 OA
BRANCH  47  49
ATOM     49  C   UNL     1      62.123  30.449  56.962  1.00  0.00     0.072 C 
ATOM     50  C   UNL     1      62.814  31.772  57.298  1.00  0.00     0.012 C 
ENDBRANCH  47  49
ENDBRANCH  46  47
ENDBRANCH  45  46
ENDBRANCH  44  45
ENDBRANCH  43  44
ENDBRANCH   1  43
TORSDOF 12
ENDMDL
MODEL 7
REMARK VINA RESULT:    -3.694      8.972     11.875
REMARK INTER + INTRA:          -9.217
REMARK INTER:                  -8.073
REMARK INTRA:                  -1.145
REMARK UNBOUND:                -1.419
REMARK SMILES CCC(=O)CCCCC[C@H]1NC(=O)[C@@H]2CCCCN2C(=O)[C@H]([C@H](C)CC)NC(=O)[C@H](Cc2cn(OC)c3ccccc23)NC1=O
REMARK SMILES IDX 9 1 10 2 44 3 43 4 45 6 30 7 28 8 27 9 29 11 22 12 23 14
REMARK SMILES IDX 24 15 25 16 26 17 31 18 32 19 33 20 42 21 34 22 37 23 41 24
REMARK SMILES IDX 38 25 40 26 39 27 35 28 36 29 11 30 12 31 13 33 14 34 19 35
REMARK SMILES IDX 15 36 18 37 16 38 17 39 20 40 21 41 8 43 7 44 6 45 5 46 3 47
REMARK SMILES IDX 4 48 2 49 1 50
REMARK H PARENT 43 5 27 10 11 32
REMARK Flexibility Score: 80.00
ROOT
ATOM      1  C   UNL     1      55.305  29.940  56.897  1.00  0.00     0.035 C 
ENDROOT
BRANCH   1   2
ATOM      2  C   UNL     1      55.762  31.426  56.723  1.00  0.00     0.171 C 
BRANCH   2   3
ATOM      3  C   UNL     1      57.230  31.450  57.054  1.00  0.00     0.243 C 
ATOM      4  N   UNL     1      57.681  31.780  58.362  1.00  0.00    -0.342 N 
ATOM      5  H   UNL     1      57.016  31.713  59.160  1.00  0.00     0.164 HD
ATOM      6  O   UNL     1      58.056  31.038  56.198  1.00  0.00    -0.273 OA
BRANCH   4   7
ATOM      7  C   UNL     1      58.942  32.468  58.593  1.00  0.00     0.175 C 
BRANCH   7   8
ATOM      8  C   UNL     1      58.754  33.959  58.399  1.00  0.00     0.243 C 
ATOM      9  N   UNL     1      57.694  34.403  57.524  1.00  0.00    -0.342 N 
ATOM     10  H   UNL     1      56.937  33.716  57.270  1.00  0.00     0.164 HD
ATOM     11  O   UNL     1      59.489  34.781  58.999  1.00  0.00    -0.273 OA
BRANCH   9  12
ATOM     12  C   UNL     1      57.763  35.615  56.711  1.00  0.00     0.174 CG0
ATOM     13  G   UNL     1      56.357  35.965  56.244  1.00  0.00     0.000 G0
BRANCH  12  14
ATOM     14  C   UNL     1      58.745  35.451  55.514  1.00  0.00     0.018 C 
ATOM     15  C   UNL     1      58.936  33.968  55.131  1.00  0.00     0.010 C 
BRANCH  14  16
ATOM     16  C   UNL     1      60.124  36.116  55.802  1.00  0.00     0.002 C 
ATOM     17  C   UNL     1      61.301  35.153  55.935  1.00  0.00     0.004 C 
ENDBRANCH  14  16
ENDBRANCH  12  14
ENDBRANCH   9  12
ENDBRANCH   7   8
BRANCH   7  18
ATOM     18  C   UNL     1      60.049  31.833  57.705  1.00  0.00     0.073 C 
BRANCH  18  19
ATOM     19  C   UNL     1      61.369  31.870  58.393  1.00  0.00    -0.016 A 
ATOM     20  C   UNL     1      62.370  32.813  58.195  1.00  0.00     0.134 A 
ATOM     21  C   UNL     1      61.836  31.046  59.401  1.00  0.00     0.006 A 
ATOM     22  N   UNL     1      63.388  32.588  59.035  1.00  0.00    -0.191 N 
ATOM     23  C   UNL     1      63.065  31.520  59.776  1.00  0.00     0.087 A 
ATOM     24  C   UNL     1      61.247  29.948  60.042  1.00  0.00     0.011 A 
ATOM     25  C   UNL     1      63.773  30.960  60.841  1.00  0.00     0.030 A 
ATOM     26  C   UNL     1      61.955  29.349  61.106  1.00  0.00     0.001 A 
ATOM     27  C   UNL     1      63.210  29.860  61.509  1.00  0.00     0.002 A 
BRANCH  22  28
ATOM     28  O   UNL     1      64.519  33.381  59.171  1.00  0.00    -0.417 OA
ATOM     29  C   UNL     1      64.438  34.799  59.057  1.00  0.00     0.313 C 
ENDBRANCH  22  28
ENDBRANCH  18  19
ENDBRANCH   7  18
ENDBRANCH   4   7
ENDBRANCH   2   3
BRANCH   2  30
ATOM     30  N   UNL     1      55.029  32.346  57.615  1.00  0.00    -0.343 N 
ATOM     31  C   UNL     1      54.584  33.665  57.232  1.00  0.00     0.243 C 
ATOM     32  H   UNL     1      55.005  32.129  58.661  1.00  0.00     0.164 HD
ATOM     33  O   UNL     1      54.171  34.432  58.149  1.00  0.00    -0.273 OA
BRANCH  31  34
ATOM     34  C   UNL     1      54.454  34.188  55.832  1.00  0.00     0.174 C 
ATOM     35  N   UNL     1      55.579  35.042  55.364  1.00  0.00    -0.329 N 
ATOM     36  C   UNL     1      54.097  33.038  54.854  1.00  0.00     0.035 C 
ATOM     37  C   UNL     1      55.558  35.507  53.961  1.00  0.00     0.120 C 
ATOM     38  C   UNL     1      54.564  33.247  53.422  1.00  0.00     0.004 C 
ATOM     39  C   UNL     1      54.543  34.746  53.089  1.00  0.00     0.022 C 
BRANCH  35  40
ATOM     40  C   UNL     1      56.343  35.931  56.233  1.00  0.00     0.246 CG0
ATOM     41  O   UNL     1      55.773  36.980  56.656  1.00  0.00    -0.272 OA
ATOM     42  G   UNL     1      57.753  35.615  56.713  1.00  0.00     0.000 G0
ENDBRANCH  35  40
ENDBRANCH  31  34
ENDBRANCH   2  30
ENDBRANCH   1   2
BRANCH   1  43
ATOM     43  C   UNL     1      54.309  29.420  55.847  1.00  0.00     0.003 C 
BRANCH  43  44
ATOM     44  C   UNL     1      55.129  28.809  54.676  1.00  0.00     0.001 C 
BRANCH  44  45
ATOM     45  C   UNL     1      54.874  29.463  53.324  1.00  0.00     0.008 C 
BRANCH  45  46
ATOM     46  C   UNL     1      53.845  28.631  52.540  1.00  0.00     0.075 C 
BRANCH  46  47
ATOM     47  C   UNL     1      54.158  28.518  51.066  1.00  0.00     0.132 C 
ATOM     48  O   UNL     1      54.087  29.539  50.388  1.00  0.00    -0.300 OA
BRANCH  47  49
ATOM     49  C   UNL     1      54.393  27.164  50.409  1.00  0.00     0.072 C 
ATOM     50  C   UNL     1      55.867  26.760  50.486  1.00  0.00     0.012 C 
ENDBRANCH  47  49
ENDBRANCH  46  47
ENDBRANCH  45  46
ENDBRANCH  44  45
ENDBRANCH  43  44
ENDBRANCH   1  43
TORSDOF 12
ENDMDL
MODEL 8
REMARK VINA RESULT:    -3.560      8.484     12.382
REMARK INTER + INTRA:          -8.934
REMARK INTER:                  -7.531
REMARK INTRA:                  -1.402
REMARK UNBOUND:                -1.419
REMARK SMILES CCC(=O)CCCCC[C@H]1NC(=O)[C@@H]2CCCCN2C(=O)[C@H]([C@H](C)CC)NC(=O)[C@H](Cc2cn(OC)c3ccccc23)NC1=O
REMARK SMILES IDX 9 1 10 2 44 3 43 4 45 6 30 7 28 8 27 9 29 11 22 12 23 14
REMARK SMILES IDX 24 15 25 16 26 17 31 18 32 19 33 20 42 21 34 22 37 23 41 24
REMARK SMILES IDX 38 25 40 26 39 27 35 28 36 29 11 30 12 31 13 33 14 34 19 35
REMARK SMILES IDX 15 36 18 37 16 38 17 39 20 40 21 41 8 43 7 44 6 45 5 46 3 47
REMARK SMILES IDX 4 48 2 49 1 50
REMARK H PARENT 43 5 27 10 11 32
REMARK Flexibility Score: 80.00
ROOT
ATOM      1  C   UNL     1      56.356  31.821  53.934  1.00  0.00     0.035 C 
ENDROOT
BRANCH   1   2
ATOM      2  C   UNL     1      56.414  30.397  53.287  1.00  0.00     0.171 C 
BRANCH   2   3
ATOM      3  C   UNL     1      56.401  29.420  54.432  1.00  0.00     0.243 C 
ATOM      4  N   UNL     1      57.372  29.493  55.469  1.00  0.00    -0.342 N 
ATOM      5  H   UNL     1      57.902  30.379  55.608  1.00  0.00     0.164 HD
ATOM      6  O   UNL     1      55.436  28.620  54.543  1.00  0.00    -0.273 OA
BRANCH   4   7
ATOM      7  C   UNL     1      57.853  28.307  56.161  1.00  0.00     0.175 C 
BRANCH   7   8
ATOM      8  C   UNL     1      58.488  27.356  55.165  1.00  0.00     0.243 C 
ATOM      9  N   UNL     1      57.803  27.125  53.914  1.00  0.00    -0.342 N 
ATOM     10  H   UNL     1      57.052  27.804  53.624  1.00  0.00     0.164 HD
ATOM     11  O   UNL     1      59.586  26.804  55.417  1.00  0.00    -0.273 OA
BRANCH   9  12
ATOM     12  C   UNL     1      57.842  25.858  53.188  1.00  0.00     0.174 CG0
ATOM     13  G   UNL     1      57.577  26.137  51.714  1.00  0.00     0.000 G0
BRANCH  12  14
ATOM     14  C   UNL     1      56.831  24.828  53.771  1.00  0.00     0.018 C 
ATOM     15  C   UNL     1      55.653  25.524  54.484  1.00  0.00     0.010 C 
BRANCH  14  16
ATOM     16  C   UNL     1      57.524  23.819  54.735  1.00  0.00     0.002 C 
ATOM     17  C   UNL     1      57.304  24.077  56.223  1.00  0.00     0.004 C 
ENDBRANCH  14  16
ENDBRANCH  12  14
ENDBRANCH   9  12
ENDBRANCH   7   8
BRANCH   7  18
ATOM     18  C   UNL     1      56.698  27.692  56.999  1.00  0.00     0.073 C 
BRANCH  18  19
ATOM     19  C   UNL     1      57.110  27.507  58.418  1.00  0.00    -0.016 A 
ATOM     20  C   UNL     1      58.413  27.501  58.899  1.00  0.00     0.134 A 
ATOM     21  C   UNL     1      56.305  27.385  59.537  1.00  0.00     0.006 A 
ATOM     22  N   UNL     1      58.412  27.389  60.233  1.00  0.00    -0.191 N 
ATOM     23  C   UNL     1      57.133  27.327  60.627  1.00  0.00     0.087 A 
ATOM     24  C   UNL     1      54.911  27.368  59.673  1.00  0.00     0.011 A 
ATOM     25  C   UNL     1      56.630  27.291  61.929  1.00  0.00     0.030 A 
ATOM     26  C   UNL     1      54.378  27.307  60.979  1.00  0.00     0.001 A 
ATOM     27  C   UNL     1      55.236  27.277  62.103  1.00  0.00     0.002 A 
BRANCH  22  28
ATOM     28  O   UNL     1      59.531  27.433  61.054  1.00  0.00    -0.417 OA
ATOM     29  C   UNL     1      59.980  26.268  61.742  1.00  0.00     0.313 C 
ENDBRANCH  22  28
ENDBRANCH  18  19
ENDBRANCH   7  18
ENDBRANCH   4   7
ENDBRANCH   2   3
BRANCH   2  30
ATOM     30  N   UNL     1      57.629  30.201  52.472  1.00  0.00    -0.343 N 
ATOM     31  C   UNL     1      57.768  29.187  51.453  1.00  0.00     0.243 C 
ATOM     32  H   UNL     1      58.533  30.681  52.781  1.00  0.00     0.164 HD
ATOM     33  O   UNL     1      58.926  28.980  50.988  1.00  0.00    -0.273 OA
BRANCH  31  34
ATOM     34  C   UNL     1      56.653  28.424  50.802  1.00  0.00     0.174 C 
ATOM     35  N   UNL     1      56.470  27.029  51.285  1.00  0.00    -0.329 N 
ATOM     36  C   UNL     1      55.347  29.260  50.805  1.00  0.00     0.035 C 
ATOM     37  C   UNL     1      55.327  26.257  50.752  1.00  0.00     0.120 C 
ATOM     38  C   UNL     1      54.064  28.445  50.804  1.00  0.00     0.004 C 
ATOM     39  C   UNL     1      54.288  27.137  50.033  1.00  0.00     0.022 C 
BRANCH  35  40
ATOM     40  C   UNL     1      57.563  26.169  51.728  1.00  0.00     0.246 CG0
ATOM     41  O   UNL     1      58.358  25.722  50.849  1.00  0.00    -0.272 OA
ATOM     42  G   UNL     1      57.832  25.856  53.193  1.00  0.00     0.000 G0
ENDBRANCH  35  40
ENDBRANCH  31  34
ENDBRANCH   2  30
ENDBRANCH   1   2
BRANCH   1  43
ATOM     43  C   UNL     1      55.049  32.600  53.716  1.00  0.00     0.003 C 
BRANCH  43  44
ATOM     44  C   UNL     1      54.220  32.514  55.029  1.00  0.00     0.001 C 
BRANCH  44  45
ATOM     45  C   UNL     1      54.808  33.298  56.194  1.00  0.00     0.008 C 
BRANCH  45  46
ATOM     46  C   UNL     1      55.738  32.385  57.009  1.00  0.00     0.075 C 
BRANCH  46  47
ATOM     47  C   UNL     1      56.866  33.124  57.689  1.00  0.00     0.132 C 
ATOM     48  O   UNL     1      56.581  34.127  58.338  1.00  0.00    -0.300 OA
BRANCH  47  49
ATOM     49  C   UNL     1      58.321  32.741  57.451  1.00  0.00     0.072 C 
ATOM     50  C   UNL     1      58.963  33.639  56.391  1.00  0.00     0.012 C 
ENDBRANCH  47  49
ENDBRANCH  46  47
ENDBRANCH  45  46
ENDBRANCH  44  45
ENDBRANCH  43  44
ENDBRANCH   1  43
TORSDOF 12
ENDMDL
MODEL 9
REMARK VINA RESULT:    -3.521      7.146     11.077
REMARK INTER + INTRA:          -8.852
REMARK INTER:                  -7.673
REMARK INTRA:                  -1.179
REMARK UNBOUND:                -1.419
REMARK SMILES CCC(=O)CCCCC[C@H]1NC(=O)[C@@H]2CCCCN2C(=O)[C@H]([C@H](C)CC)NC(=O)[C@H](Cc2cn(OC)c3ccccc23)NC1=O
REMARK SMILES IDX 9 1 10 2 44 3 43 4 45 6 30 7 28 8 27 9 29 11 22 12 23 14
REMARK SMILES IDX 24 15 25 16 26 17 31 18 32 19 33 20 42 21 34 22 37 23 41 24
REMARK SMILES IDX 38 25 40 26 39 27 35 28 36 29 11 30 12 31 13 33 14 34 19 35
REMARK SMILES IDX 15 36 18 37 16 38 17 39 20 40 21 41 8 43 7 44 6 45 5 46 3 47
REMARK SMILES IDX 4 48 2 49 1 50
REMARK H PARENT 43 5 27 10 11 32
REMARK Flexibility Score: 80.00
ROOT
ATOM      1  C   UNL     1      57.358  32.020  53.514  1.00  0.00     0.035 C 
ENDROOT
BRANCH   1   2
ATOM      2  C   UNL     1      57.773  30.607  52.987  1.00  0.00     0.171 C 
BRANCH   2   3
ATOM      3  C   UNL     1      58.492  29.934  54.126  1.00  0.00     0.243 C 
ATOM      4  N   UNL     1      59.811  30.321  54.491  1.00  0.00    -0.342 N 
ATOM      5  H   UNL     1      60.171  31.249  54.186  1.00  0.00     0.164 HD
ATOM      6  O   UNL     1      57.863  29.117  54.849  1.00  0.00    -0.273 OA
BRANCH   4   7
ATOM      7  C   UNL     1      60.772  29.371  55.031  1.00  0.00     0.175 C 
BRANCH   7   8
ATOM      8  C   UNL     1      61.077  28.307  53.995  1.00  0.00     0.243 C 
ATOM      9  N   UNL     1      60.040  27.959  53.052  1.00  0.00    -0.342 N 
ATOM     10  H   UNL     1      59.227  28.619  52.939  1.00  0.00     0.164 HD
ATOM     11  O   UNL     1      62.207  27.762  53.951  1.00  0.00    -0.273 OA
BRANCH   9  12
ATOM     12  C   UNL     1      59.867  26.622  52.490  1.00  0.00     0.174 CG0
ATOM     13  G   UNL     1      59.158  26.749  51.148  1.00  0.00     0.000 G0
BRANCH  12  14
ATOM     14  C   UNL     1      59.097  25.683  53.463  1.00  0.00     0.018 C 
ATOM     15  C   UNL     1      58.578  26.444  54.701  1.00  0.00     0.010 C 
BRANCH  14  16
ATOM     16  C   UNL     1      59.966  24.466  53.903  1.00  0.00     0.002 C 
ATOM     17  C   UNL     1      61.453  24.570  53.577  1.00  0.00     0.004 C 
ENDBRANCH  14  16
ENDBRANCH  12  14
ENDBRANCH   9  12
ENDBRANCH   7   8
BRANCH   7  18
ATOM     18  C   UNL     1      60.253  28.823  56.389  1.00  0.00     0.073 C 
BRANCH  18  19
ATOM     19  C   UNL     1      61.216  29.119  57.485  1.00  0.00    -0.016 A 
ATOM     20  C   UNL     1      62.476  29.684  57.339  1.00  0.00     0.134 A 
ATOM     21  C   UNL     1      61.036  28.971  58.850  1.00  0.00     0.006 A 
ATOM     22  N   UNL     1      63.036  29.879  58.539  1.00  0.00    -0.191 N 
ATOM     23  C   UNL     1      62.162  29.455  59.462  1.00  0.00     0.087 A 
ATOM     24  C   UNL     1      59.949  28.489  59.590  1.00  0.00     0.011 A 
ATOM     25  C   UNL     1      62.265  29.533  60.852  1.00  0.00     0.030 A 
ATOM     26  C   UNL     1      60.040  28.535  60.998  1.00  0.00     0.001 A 
ATOM     27  C   UNL     1      61.191  29.064  61.626  1.00  0.00     0.002 A 
BRANCH  22  28
ATOM     28  O   UNL     1      64.256  30.500  58.776  1.00  0.00    -0.417 OA
ATOM     29  C   UNL     1      65.091  30.909  57.696  1.00  0.00     0.313 C 
ENDBRANCH  22  28
ENDBRANCH  18  19
ENDBRANCH   7  18
ENDBRANCH   4   7
ENDBRANCH   2   3
BRANCH   2  30
ATOM     30  N   UNL     1      58.659  30.685  51.809  1.00  0.00    -0.343 N 
ATOM     31  C   UNL     1      58.670  29.719  50.736  1.00  0.00     0.243 C 
ATOM     32  H   UNL     1      59.484  31.364  51.837  1.00  0.00     0.164 HD
ATOM     33  O   UNL     1      59.623  29.778  49.906  1.00  0.00    -0.273 OA
BRANCH  31  34
ATOM     34  C   UNL     1      57.599  28.713  50.435  1.00  0.00     0.174 C 
ATOM     35  N   UNL     1      57.832  27.351  50.989  1.00  0.00    -0.329 N 
ATOM     36  C   UNL     1      56.200  29.291  50.771  1.00  0.00     0.035 C 
ATOM     37  C   UNL     1      56.767  26.341  50.811  1.00  0.00     0.120 C 
ATOM     38  C   UNL     1      55.152  28.255  51.144  1.00  0.00     0.004 C 
ATOM     39  C   UNL     1      55.422  26.952  50.378  1.00  0.00     0.022 C 
BRANCH  35  40
ATOM     40  C   UNL     1      59.151  26.747  51.141  1.00  0.00     0.246 CG0
ATOM     41  O   UNL     1      59.751  26.364  50.094  1.00  0.00    -0.272 OA
ATOM     42  G   UNL     1      59.864  26.633  52.482  1.00  0.00     0.000 G0
ENDBRANCH  35  40
ENDBRANCH  31  34
ENDBRANCH   2  30
ENDBRANCH   1   2
BRANCH   1  43
ATOM     43  C   UNL     1      56.300  32.032  54.630  1.00  0.00     0.003 C 
BRANCH  43  44
ATOM     44  C   UNL     1      56.917  32.751  55.863  1.00  0.00     0.001 C 
BRANCH  44  45
ATOM     45  C   UNL     1      56.431  32.221  57.206  1.00  0.00     0.008 C 
BRANCH  45  46
ATOM     46  C   UNL     1      55.161  31.381  56.995  1.00  0.00     0.075 C 
BRANCH  46  47
ATOM     47  C   UNL     1      55.359  29.909  57.270  1.00  0.00     0.132 C 
ATOM     48  O   UNL     1      54.421  29.153  57.031  1.00  0.00    -0.300 OA
BRANCH  47  49
ATOM     49  C   UNL     1      56.610  29.396  57.971  1.00  0.00     0.072 C 
ATOM     50  C   UNL     1      56.435  27.945  58.425  1.00  0.00     0.012 C 
ENDBRANCH  47  49
ENDBRANCH  46  47
ENDBRANCH  45  46
ENDBRANCH  44  45
ENDBRANCH  43  44
ENDBRANCH   1  43
TORSDOF 12
ENDMDL
