MODEL 1
REMARK VINA RESULT:    42.681      0.000      0.000
REMARK INTER + INTRA:          58.033
REMARK INTER:                  57.651
REMARK INTRA:                   0.382
REMARK UNBOUND:                 0.382
REMARK SMILES O=c1c(-c2ccc(O)cc2)coc2c([C@H]3O[C@H](CO)[C@H](O)[C@@H](O)[C@@H]3O)c(O)ccc12
REMARK SMILES IDX 3 1 11 2 12 3 13 4 30 5 2 6 1 7 29 8 28 9 26 10 14 11 4 12
REMARK SMILES IDX 5 13 6 14 7 15 10 16 9 17 8 18 15 20 24 21 16 22 22 23 17 24
REMARK SMILES IDX 20 25 25 26 23 28 18 30 19 31 21 33 27 35
REMARK H PARENT 8 19 25 27 23 29 19 32 21 34 27 36
REMARK Flexibility Score: inf
ROOT
ATOM      1  C   UNL     1      18.226  18.099 -11.907  1.00  0.00     0.065 A 
ATOM      2  C   UNL     1      17.531  18.058 -10.690  1.00  0.00     0.208 A 
ATOM      3  O   UNL     1      16.654  17.094 -10.439  1.00  0.00    -0.463 OA
ATOM      4  C   UNL     1      16.378  16.117 -11.300  1.00  0.00     0.147 A 
ATOM      5  C   UNL     1      17.042  16.077 -12.548  1.00  0.00     0.066 A 
ATOM      6  C   UNL     1      17.979  17.082 -12.846  1.00  0.00     0.200 A 
ATOM      7  O   UNL     1      18.611  17.061 -13.940  1.00  0.00    -0.288 OA
ATOM      8  C   UNL     1      16.763  15.037 -13.449  1.00  0.00     0.020 A 
ATOM      9  C   UNL     1      15.843  14.046 -13.114  1.00  0.00     0.047 A 
ATOM     10  C   UNL     1      15.181  14.075 -11.881  1.00  0.00     0.125 A 
ATOM     11  C   UNL     1      15.428  15.123 -10.965  1.00  0.00     0.069 A 
ENDROOT
BRANCH   1  12
ATOM     12  C   UNL     1      19.196  19.194 -12.168  1.00  0.00    -0.011 A 
ATOM     13  C   UNL     1      20.569  18.914 -12.278  1.00  0.00     0.013 A 
ATOM     14  C   UNL     1      21.484  19.944 -12.515  1.00  0.00     0.047 A 
ATOM     15  C   UNL     1      21.041  21.264 -12.640  1.00  0.00     0.115 A 
ATOM     16  C   UNL     1      18.757  20.526 -12.287  1.00  0.00     0.013 A 
ATOM     17  C   UNL     1      19.676  21.553 -12.524  1.00  0.00     0.047 A 
BRANCH  15  18
ATOM     18  O   UNL     1      21.965  22.280 -12.876  1.00  0.00    -0.508 OA
ATOM     19  H   UNL     1      22.009  22.760 -13.768  1.00  0.00     0.293 HD
ENDBRANCH  15  18
ENDBRANCH   1  12
BRANCH  11  20
ATOM     20  C   UNL     1      14.727  15.150  -9.612  1.00  0.00     0.188 C 
ATOM     21  C   UNL     1      13.334  15.798  -9.755  1.00  0.00     0.179 C 
ATOM     22  O   UNL     1      15.540  15.855  -8.687  1.00  0.00    -0.362 OA
ATOM     23  C   UNL     1      12.633  15.829  -8.387  1.00  0.00     0.177 C 
ATOM     24  C   UNL     1      14.990  15.896  -7.377  1.00  0.00     0.176 C 
ATOM     25  C   UNL     1      13.553  16.480  -7.342  1.00  0.00     0.177 C 
BRANCH  21  26
ATOM     26  O   UNL     1      12.563  15.054 -10.664  1.00  0.00    -0.387 OA
ATOM     27  H   UNL     1      11.620  15.345 -10.552  1.00  0.00     0.211 HD
ENDBRANCH  21  26
BRANCH  23  28
ATOM     28  O   UNL     1      11.446  16.575  -8.478  1.00  0.00    -0.387 OA
ATOM     29  H   UNL     1      10.692  15.926  -8.457  1.00  0.00     0.211 HD
ENDBRANCH  23  28
BRANCH  24  30
ATOM     30  C   UNL     1      15.202  14.574  -6.602  1.00  0.00     0.191 C 
BRANCH  30  31
ATOM     31  O   UNL     1      16.026  13.680  -7.296  1.00  0.00    -0.394 OA
ATOM     32  H   UNL     1      15.772  12.772  -6.987  1.00  0.00     0.210 HD
ENDBRANCH  30  31
ENDBRANCH  24  30
BRANCH  25  33
ATOM     33  O   UNL     1      13.008  16.338  -6.054  1.00  0.00    -0.388 OA
ATOM     34  H   UNL     1      13.020  17.236  -5.633  1.00  0.00     0.211 HD
ENDBRANCH  25  33
ENDBRANCH  11  20
BRANCH  10  35
ATOM     35  O   UNL     1      14.279  13.059 -11.566  1.00  0.00    -0.507 OA
ATOM     36  H   UNL     1      13.471  12.864 -12.144  1.00  0.00     0.293 HD
ENDBRANCH  10  35
TORSDOF 9
ENDMDL
MODEL 2
REMARK VINA RESULT:    43.404      2.563      5.778
REMARK INTER + INTRA:          59.010
REMARK INTER:                  58.108
REMARK INTRA:                   0.902
REMARK UNBOUND:                 0.382
REMARK SMILES O=c1c(-c2ccc(O)cc2)coc2c([C@H]3O[C@H](CO)[C@H](O)[C@@H](O)[C@@H]3O)c(O)ccc12
REMARK SMILES IDX 3 1 11 2 12 3 13 4 30 5 2 6 1 7 29 8 28 9 26 10 14 11 4 12
REMARK SMILES IDX 5 13 6 14 7 15 10 16 9 17 8 18 15 20 24 21 16 22 22 23 17 24
REMARK SMILES IDX 20 25 25 26 23 28 18 30 19 31 21 33 27 35
REMARK H PARENT 8 19 25 27 23 29 19 32 21 34 27 36
REMARK Flexibility Score: inf
ROOT
ATOM      1  C   UNL     1      19.158  21.306 -13.281  1.00  0.00     0.065 A 
ATOM      2  C   UNL     1      18.176  20.306 -13.338  1.00  0.00     0.208 A 
ATOM      3  O   UNL     1      18.419  19.085 -12.880  1.00  0.00    -0.463 OA
ATOM      4  C   UNL     1      19.583  18.726 -12.343  1.00  0.00     0.147 A 
ATOM      5  C   UNL     1      20.626  19.676 -12.237  1.00  0.00     0.066 A 
ATOM      6  C   UNL     1      20.401  20.981 -12.710  1.00  0.00     0.200 A 
ATOM      7  O   UNL     1      21.301  21.861 -12.606  1.00  0.00    -0.288 OA
ATOM      8  C   UNL     1      21.848  19.301 -11.655  1.00  0.00     0.020 A 
ATOM      9  C   UNL     1      22.030  18.005 -11.178  1.00  0.00     0.047 A 
ATOM     10  C   UNL     1      21.004  17.058 -11.277  1.00  0.00     0.125 A 
ATOM     11  C   UNL     1      19.772  17.403 -11.878  1.00  0.00     0.069 A 
ENDROOT
BRANCH   1  12
ATOM     12  C   UNL     1      18.864  22.662 -13.808  1.00  0.00    -0.011 A 
ATOM     13  C   UNL     1      17.583  23.221 -13.654  1.00  0.00     0.013 A 
ATOM     14  C   UNL     1      17.302  24.495 -14.158  1.00  0.00     0.047 A 
ATOM     15  C   UNL     1      18.293  25.223 -14.824  1.00  0.00     0.115 A 
ATOM     16  C   UNL     1      19.854  23.397 -14.486  1.00  0.00     0.013 A 
ATOM     17  C   UNL     1      19.569  24.670 -14.989  1.00  0.00     0.047 A 
BRANCH  15  18
ATOM     18  O   UNL     1      17.998  26.491 -15.320  1.00  0.00    -0.508 OA
ATOM     19  H   UNL     1      18.040  26.695 -16.312  1.00  0.00     0.293 HD
ENDBRANCH  15  18
ENDBRANCH   1  12
BRANCH  11  20
ATOM     20  C   UNL     1      18.643  16.384 -11.970  1.00  0.00     0.188 C 
ATOM     21  C   UNL     1      18.948  15.361 -13.084  1.00  0.00     0.179 C 
ATOM     22  O   UNL     1      17.424  17.068 -12.209  1.00  0.00    -0.362 OA
ATOM     23  C   UNL     1      17.805  14.338 -13.178  1.00  0.00     0.177 C 
ATOM     24  C   UNL     1      16.298  16.202 -12.265  1.00  0.00     0.176 C 
ATOM     25  C   UNL     1      16.459  15.069 -13.312  1.00  0.00     0.177 C 
BRANCH  21  26
ATOM     26  O   UNL     1      20.153  14.697 -12.792  1.00  0.00    -0.387 OA
ATOM     27  H   UNL     1      20.113  14.429 -11.837  1.00  0.00     0.211 HD
ENDBRANCH  21  26
BRANCH  23  28
ATOM     28  O   UNL     1      17.993  13.516 -14.301  1.00  0.00    -0.387 OA
ATOM     29  H   UNL     1      18.959  13.553 -14.531  1.00  0.00     0.211 HD
ENDBRANCH  23  28
BRANCH  24  30
ATOM     30  C   UNL     1      15.813  15.765 -10.862  1.00  0.00     0.191 C 
BRANCH  30  31
ATOM     31  O   UNL     1      14.507  15.263 -10.888  1.00  0.00    -0.394 OA
ATOM     32  H   UNL     1      14.022  15.785 -11.578  1.00  0.00     0.210 HD
ENDBRANCH  30  31
ENDBRANCH  24  30
BRANCH  25  33
ATOM     33  O   UNL     1      15.395  14.157 -13.200  1.00  0.00    -0.388 OA
ATOM     34  H   UNL     1      14.820  14.472 -12.455  1.00  0.00     0.211 HD
ENDBRANCH  25  33
ENDBRANCH  11  20
BRANCH  10  35
ATOM     35  O   UNL     1      21.210  15.773 -10.773  1.00  0.00    -0.507 OA
ATOM     36  H   UNL     1      21.952  15.177 -11.119  1.00  0.00     0.293 HD
ENDBRANCH  10  35
TORSDOF 9
ENDMDL
MODEL 3
REMARK VINA RESULT:    44.319      1.828      7.621
REMARK INTER + INTRA:          60.245
REMARK INTER:                  59.645
REMARK INTRA:                   0.600
REMARK UNBOUND:                 0.382
REMARK SMILES O=c1c(-c2ccc(O)cc2)coc2c([C@H]3O[C@H](CO)[C@H](O)[C@@H](O)[C@@H]3O)c(O)ccc12
REMARK SMILES IDX 3 1 11 2 12 3 13 4 30 5 2 6 1 7 29 8 28 9 26 10 14 11 4 12
REMARK SMILES IDX 5 13 6 14 7 15 10 16 9 17 8 18 15 20 24 21 16 22 22 23 17 24
REMARK SMILES IDX 20 25 25 26 23 28 18 30 19 31 21 33 27 35
REMARK H PARENT 8 19 25 27 23 29 19 32 21 34 27 36
REMARK Flexibility Score: inf
ROOT
ATOM      1  C   UNL     1      15.196  16.528  -8.919  1.00  0.00     0.065 A 
ATOM      2  C   UNL     1      16.250  17.422  -9.152  1.00  0.00     0.208 A 
ATOM      3  O   UNL     1      17.008  17.315 -10.235  1.00  0.00    -0.463 OA
ATOM      4  C   UNL     1      16.829  16.376 -11.161  1.00  0.00     0.147 A 
ATOM      5  C   UNL     1      15.781  15.437 -11.011  1.00  0.00     0.066 A 
ATOM      6  C   UNL     1      14.956  15.524  -9.874  1.00  0.00     0.200 A 
ATOM      7  O   UNL     1      13.994  14.719  -9.723  1.00  0.00    -0.288 OA
ATOM      8  C   UNL     1      15.581  14.457 -11.996  1.00  0.00     0.020 A 
ATOM      9  C   UNL     1      16.405  14.412 -13.118  1.00  0.00     0.047 A 
ATOM     10  C   UNL     1      17.443  15.337 -13.278  1.00  0.00     0.125 A 
ATOM     11  C   UNL     1      17.679  16.320 -12.290  1.00  0.00     0.069 A 
ENDROOT
BRANCH   1  12
ATOM     12  C   UNL     1      14.367  16.663  -7.695  1.00  0.00    -0.011 A 
ATOM     13  C   UNL     1      13.401  15.690  -7.380  1.00  0.00     0.013 A 
ATOM     14  C   UNL     1      12.614  15.821  -6.232  1.00  0.00     0.047 A 
ATOM     15  C   UNL     1      12.777  16.923  -5.388  1.00  0.00     0.115 A 
ATOM     16  C   UNL     1      14.521  17.774  -6.844  1.00  0.00     0.013 A 
ATOM     17  C   UNL     1      13.731  17.900  -5.698  1.00  0.00     0.047 A 
BRANCH  15  18
ATOM     18  O   UNL     1      11.985  17.039  -4.247  1.00  0.00    -0.508 OA
ATOM     19  H   UNL     1      12.157  17.758  -3.554  1.00  0.00     0.293 HD
ENDBRANCH  15  18
ENDBRANCH   1  12
BRANCH  11  20
ATOM     20  C   UNL     1      18.794  17.344 -12.467  1.00  0.00     0.188 C 
ATOM     21  C   UNL     1      20.111  16.794 -11.878  1.00  0.00     0.179 C 
ATOM     22  O   UNL     1      18.409  18.557 -11.842  1.00  0.00    -0.362 OA
ATOM     23  C   UNL     1      21.231  17.830 -12.053  1.00  0.00     0.177 C 
ATOM     24  C   UNL     1      19.370  19.594 -11.993  1.00  0.00     0.176 C 
ATOM     25  C   UNL     1      20.780  19.188 -11.491  1.00  0.00     0.177 C 
BRANCH  21  26
ATOM     26  O   UNL     1      20.459  15.605 -12.542  1.00  0.00    -0.387 OA
ATOM     27  H   UNL     1      19.965  14.868 -12.096  1.00  0.00     0.211 HD
ENDBRANCH  21  26
BRANCH  23  28
ATOM     28  O   UNL     1      22.381  17.410 -11.363  1.00  0.00    -0.387 OA
ATOM     29  H   UNL     1      22.188  16.505 -11.000  1.00  0.00     0.211 HD
ENDBRANCH  23  28
BRANCH  24  30
ATOM     30  C   UNL     1      19.313  20.260 -13.388  1.00  0.00     0.191 C 
BRANCH  30  31
ATOM     31  O   UNL     1      17.999  20.481 -13.815  1.00  0.00    -0.394 OA
ATOM     32  H   UNL     1      17.873  21.465 -13.826  1.00  0.00     0.210 HD
ENDBRANCH  30  31
ENDBRANCH  24  30
BRANCH  25  33
ATOM     33  O   UNL     1      21.713  20.188 -11.820  1.00  0.00    -0.388 OA
ATOM     34  H   UNL     1      21.341  21.050 -11.498  1.00  0.00     0.211 HD
ENDBRANCH  25  33
ENDBRANCH  11  20
BRANCH  10  35
ATOM     35  O   UNL     1      18.240  15.279 -14.422  1.00  0.00    -0.507 OA
ATOM     36  H   UNL     1      18.145  14.533 -15.101  1.00  0.00     0.293 HD
ENDBRANCH  10  35
TORSDOF 9
ENDMDL
