MODEL 1
REMARK VINA RESULT:    -3.717      0.000      0.000
REMARK INTER + INTRA:          -5.492
REMARK INTER:                  -5.673
REMARK INTRA:                   0.181
REMARK UNBOUND:                 0.181
REMARK SMILES CC1=CCC[C@@H](C)C(=O)C[C@@H](C(C)C)C(=O)C1
REMARK SMILES IDX 8 1 9 2 6 3 7 4 5 5 4 6 3 7 2 8 1 9 10 11 11 12 15 13 16 14
REMARK SMILES IDX 17 15 12 17 13 18 14 19
REMARK H PARENT
REMARK Flexibility Score: 70.00
ROOT
ATOM      1  C   UNL     1      22.522  27.355  28.903  1.00  0.00     0.136 C 
ATOM      2  O   UNL     1      22.974  26.288  28.525  1.00  0.00    -0.299 OA
ENDROOT
BRANCH   1   3
ATOM      3  C   UNL     1      23.328  28.618  28.642  1.00  0.00     0.053 C 
ATOM      4  C   UNL     1      24.364  28.339  27.541  1.00  0.00     0.016 C 
BRANCH   3   5
ATOM      5  C   UNL     1      24.023  29.111  29.945  1.00  0.00     0.015 C 
BRANCH   5   6
ATOM      6  C   UNL     1      23.141  29.903  30.944  1.00  0.00     0.028 C 
BRANCH   6   7
ATOM      7  C   UNL     1      22.467  31.148  30.417  1.00  0.00    -0.028 C 
ATOM      8  C   UNL     1      21.144  31.283  30.182  1.00  0.00    -0.070 CG0
ATOM      9  C   UNL     1      20.641  32.659  29.810  1.00  0.00     0.039 C 
ATOM     10  G   UNL     1      20.158  30.152  30.408  1.00  0.00     0.000 G0
ENDBRANCH   6   7
ENDBRANCH   5   6
ENDBRANCH   3   5
ENDBRANCH   1   3
BRANCH   1  11
ATOM     11  C   UNL     1      21.115  27.418  29.458  1.00  0.00     0.087 C 
BRANCH  11  12
ATOM     12  C   UNL     1      20.024  28.166  28.626  1.00  0.00     0.066 C 
BRANCH  12  13
ATOM     13  C   UNL     1      19.655  29.561  29.111  1.00  0.00     0.140 C 
ATOM     14  O   UNL     1      18.908  30.235  28.413  1.00  0.00    -0.299 OA
BRANCH  13  15
ATOM     15  C   UNL     1      20.137  30.157  30.410  1.00  0.00     0.106 CG0
ATOM     16  G   UNL     1      21.146  31.270  30.191  1.00  0.00     0.000 G0
ENDBRANCH  13  15
ENDBRANCH  12  13
BRANCH  12  17
ATOM     17  C   UNL     1      18.757  27.363  28.175  1.00  0.00    -0.006 C 
ATOM     18  C   UNL     1      19.038  25.879  27.898  1.00  0.00     0.008 C 
ATOM     19  C   UNL     1      17.520  27.547  29.076  1.00  0.00     0.008 C 
ENDBRANCH  12  17
ENDBRANCH  11  12
ENDBRANCH   1  11
TORSDOF 1
ENDMDL
MODEL 2
REMARK VINA RESULT:    -3.657      2.093      4.000
REMARK INTER + INTRA:          -5.400
REMARK INTER:                  -5.302
REMARK INTRA:                  -0.099
REMARK UNBOUND:                 0.181
REMARK SMILES CC1=CCC[C@@H](C)C(=O)C[C@@H](C(C)C)C(=O)C1
REMARK SMILES IDX 8 1 9 2 6 3 7 4 5 5 4 6 3 7 2 8 1 9 10 11 11 12 15 13 16 14
REMARK SMILES IDX 17 15 12 17 13 18 14 19
REMARK H PARENT
REMARK Flexibility Score: 70.00
ROOT
ATOM      1  C   UNL     1      18.151  28.433  29.515  1.00  0.00     0.136 C 
ATOM      2  O   UNL     1      17.069  27.873  29.460  1.00  0.00    -0.299 OA
ENDROOT
BRANCH   1   3
ATOM      3  C   UNL     1      19.176  28.139  28.432  1.00  0.00     0.053 C 
ATOM      4  C   UNL     1      18.660  26.997  27.543  1.00  0.00     0.016 C 
BRANCH   3   5
ATOM      5  C   UNL     1      20.554  27.774  29.059  1.00  0.00     0.015 C 
BRANCH   5   6
ATOM      6  C   UNL     1      21.690  28.816  28.893  1.00  0.00     0.028 C 
BRANCH   6   7
ATOM      7  C   UNL     1      22.323  29.340  30.160  1.00  0.00    -0.028 C 
ATOM      8  C   UNL     1      22.130  30.570  30.683  1.00  0.00    -0.070 CG0
ATOM      9  C   UNL     1      22.726  30.848  32.044  1.00  0.00     0.039 C 
ATOM     10  G   UNL     1      21.242  31.605  30.019  1.00  0.00     0.000 G0
ENDBRANCH   6   7
ENDBRANCH   5   6
ENDBRANCH   3   5
ENDBRANCH   1   3
BRANCH   1  11
ATOM     11  C   UNL     1      18.379  29.521  30.543  1.00  0.00     0.087 C 
BRANCH  11  12
ATOM     12  C   UNL     1      18.648  30.975  30.035  1.00  0.00     0.066 C 
BRANCH  12  13
ATOM     13  C   UNL     1      19.867  31.672  30.624  1.00  0.00     0.140 C 
ATOM     14  O   UNL     1      19.723  32.306  31.661  1.00  0.00    -0.299 OA
BRANCH  13  15
ATOM     15  C   UNL     1      21.247  31.612  30.018  1.00  0.00     0.106 CG0
ATOM     16  G   UNL     1      22.132  30.589  30.704  1.00  0.00     0.000 G0
ENDBRANCH  13  15
ENDBRANCH  12  13
BRANCH  12  17
ATOM     17  C   UNL     1      17.432  31.954  29.913  1.00  0.00    -0.006 C 
ATOM     18  C   UNL     1      17.687  33.131  28.960  1.00  0.00     0.008 C 
ATOM     19  C   UNL     1      16.079  31.274  29.624  1.00  0.00     0.008 C 
ENDBRANCH  12  17
ENDBRANCH  11  12
ENDBRANCH   1  11
TORSDOF 1
ENDMDL
MODEL 3
REMARK VINA RESULT:    -3.656      2.833      5.221
REMARK INTER + INTRA:          -5.398
REMARK INTER:                  -5.407
REMARK INTRA:                   0.008
REMARK UNBOUND:                 0.181
REMARK SMILES CC1=CCC[C@@H](C)C(=O)C[C@@H](C(C)C)C(=O)C1
REMARK SMILES IDX 8 1 9 2 6 3 7 4 5 5 4 6 3 7 2 8 1 9 10 11 11 12 15 13 16 14
REMARK SMILES IDX 17 15 12 17 13 18 14 19
REMARK H PARENT
REMARK Flexibility Score: 70.00
ROOT
ATOM      1  C   UNL     1      20.046  29.037  29.080  1.00  0.00     0.136 C 
ATOM      2  O   UNL     1      21.158  29.431  29.391  1.00  0.00    -0.299 OA
ENDROOT
BRANCH   1   3
ATOM      3  C   UNL     1      19.752  27.549  29.174  1.00  0.00     0.053 C 
ATOM      4  C   UNL     1      21.065  26.785  29.401  1.00  0.00     0.016 C 
BRANCH   3   5
ATOM      5  C   UNL     1      19.033  27.045  27.887  1.00  0.00     0.015 C 
BRANCH   5   6
ATOM      6  C   UNL     1      17.484  27.109  27.888  1.00  0.00     0.028 C 
BRANCH   6   7
ATOM      7  C   UNL     1      16.792  26.844  29.204  1.00  0.00    -0.028 C 
ATOM      8  C   UNL     1      16.149  27.766  29.952  1.00  0.00    -0.070 CG0
ATOM      9  C   UNL     1      15.382  27.273  31.157  1.00  0.00     0.039 C 
ATOM     10  G   UNL     1      16.068  29.227  29.549  1.00  0.00     0.000 G0
ENDBRANCH   6   7
ENDBRANCH   5   6
ENDBRANCH   3   5
ENDBRANCH   1   3
BRANCH   1  11
ATOM     11  C   UNL     1      18.953  30.041  28.782  1.00  0.00     0.087 C 
BRANCH  11  12
ATOM     12  C   UNL     1      18.241  30.740  29.985  1.00  0.00     0.066 C 
BRANCH  12  13
ATOM     13  C   UNL     1      16.922  30.122  30.429  1.00  0.00     0.140 C 
ATOM     14  O   UNL     1      16.525  30.365  31.561  1.00  0.00    -0.299 OA
BRANCH  13  15
ATOM     15  C   UNL     1      16.065  29.244  29.552  1.00  0.00     0.106 CG0
ATOM     16  G   UNL     1      16.154  27.781  29.942  1.00  0.00     0.000 G0
ENDBRANCH  13  15
ENDBRANCH  12  13
BRANCH  12  17
ATOM     17  C   UNL     1      18.174  32.304  29.999  1.00  0.00    -0.006 C 
ATOM     18  C   UNL     1      19.523  32.978  29.710  1.00  0.00     0.008 C 
ATOM     19  C   UNL     1      17.044  32.911  29.145  1.00  0.00     0.008 C 
ENDBRANCH  12  17
ENDBRANCH  11  12
ENDBRANCH   1  11
TORSDOF 1
ENDMDL
MODEL 4
REMARK VINA RESULT:    -3.625      1.182      1.341
REMARK INTER + INTRA:          -5.352
REMARK INTER:                  -5.354
REMARK INTRA:                   0.003
REMARK UNBOUND:                 0.181
REMARK SMILES CC1=CCC[C@@H](C)C(=O)C[C@@H](C(C)C)C(=O)C1
REMARK SMILES IDX 8 1 9 2 6 3 7 4 5 5 4 6 3 7 2 8 1 9 10 11 11 12 15 13 16 14
REMARK SMILES IDX 17 15 12 17 13 18 14 19
REMARK H PARENT
REMARK Flexibility Score: 70.00
ROOT
ATOM      1  C   UNL     1      21.331  27.883  29.600  1.00  0.00     0.136 C 
ATOM      2  O   UNL     1      21.440  26.672  29.500  1.00  0.00    -0.299 OA
ENDROOT
BRANCH   1   3
ATOM      3  C   UNL     1      22.436  28.760  29.036  1.00  0.00     0.053 C 
ATOM      4  C   UNL     1      23.369  27.903  28.166  1.00  0.00     0.016 C 
BRANCH   3   5
ATOM      5  C   UNL     1      23.230  29.454  30.182  1.00  0.00     0.015 C 
BRANCH   5   6
ATOM      6  C   UNL     1      22.442  30.458  31.063  1.00  0.00     0.028 C 
BRANCH   6   7
ATOM      7  C   UNL     1      22.070  31.776  30.426  1.00  0.00    -0.028 C 
ATOM      8  C   UNL     1      20.812  32.237  30.254  1.00  0.00    -0.070 CG0
ATOM      9  C   UNL     1      20.653  33.651  29.744  1.00  0.00     0.039 C 
ATOM     10  G   UNL     1      19.590  31.443  30.676  1.00  0.00     0.000 G0
ENDBRANCH   6   7
ENDBRANCH   5   6
ENDBRANCH   3   5
ENDBRANCH   1   3
BRANCH   1  11
ATOM     11  C   UNL     1      20.037  28.477  30.116  1.00  0.00     0.087 C 
BRANCH  11  12
ATOM     12  C   UNL     1      19.159  29.311  29.127  1.00  0.00     0.066 C 
BRANCH  12  13
ATOM     13  C   UNL     1      18.903  30.759  29.521  1.00  0.00     0.140 C 
ATOM     14  O   UNL     1      18.088  31.398  28.869  1.00  0.00    -0.299 OA
BRANCH  13  15
ATOM     15  C   UNL     1      19.578  31.449  30.680  1.00  0.00     0.106 CG0
ATOM     16  G   UNL     1      20.797  32.241  30.245  1.00  0.00     0.000 G0
ENDBRANCH  13  15
ENDBRANCH  12  13
BRANCH  12  17
ATOM     17  C   UNL     1      17.873  28.642  28.535  1.00  0.00    -0.006 C 
ATOM     18  C   UNL     1      18.170  27.462  27.598  1.00  0.00     0.008 C 
ATOM     19  C   UNL     1      16.794  28.282  29.575  1.00  0.00     0.008 C 
ENDBRANCH  12  17
ENDBRANCH  11  12
ENDBRANCH   1  11
TORSDOF 1
ENDMDL
MODEL 5
REMARK VINA RESULT:    -3.591      1.512      4.203
REMARK INTER + INTRA:          -5.299
REMARK INTER:                  -5.061
REMARK INTRA:                  -0.238
REMARK UNBOUND:                 0.181
REMARK SMILES CC1=CCC[C@@H](C)C(=O)C[C@@H](C(C)C)C(=O)C1
REMARK SMILES IDX 8 1 9 2 6 3 7 4 5 5 4 6 3 7 2 8 1 9 10 11 11 12 15 13 16 14
REMARK SMILES IDX 17 15 12 17 13 18 14 19
REMARK H PARENT
REMARK Flexibility Score: 70.00
ROOT
ATOM      1  C   UNL     1      22.062  27.387  28.586  1.00  0.00     0.136 C 
ATOM      2  O   UNL     1      23.017  26.759  28.160  1.00  0.00    -0.299 OA
ENDROOT
BRANCH   1   3
ATOM      3  C   UNL     1      20.842  26.616  29.065  1.00  0.00     0.053 C 
ATOM      4  C   UNL     1      21.298  25.310  29.733  1.00  0.00     0.016 C 
BRANCH   3   5
ATOM      5  C   UNL     1      19.872  26.325  27.883  1.00  0.00     0.015 C 
BRANCH   5   6
ATOM      6  C   UNL     1      18.798  27.403  27.584  1.00  0.00     0.028 C 
BRANCH   6   7
ATOM      7  C   UNL     1      18.027  27.941  28.766  1.00  0.00    -0.028 C 
ATOM      8  C   UNL     1      18.207  29.152  29.335  1.00  0.00    -0.070 CG0
ATOM      9  C   UNL     1      17.226  29.570  30.406  1.00  0.00     0.039 C 
ATOM     10  G   UNL     1      19.257  30.132  28.845  1.00  0.00     0.000 G0
ENDBRANCH   6   7
ENDBRANCH   5   6
ENDBRANCH   3   5
ENDBRANCH   1   3
BRANCH   1  11
ATOM     11  C   UNL     1      22.179  28.883  28.786  1.00  0.00     0.087 C 
BRANCH  11  12
ATOM     12  C   UNL     1      21.554  29.508  30.075  1.00  0.00     0.066 C 
BRANCH  12  13
ATOM     13  C   UNL     1      20.342  30.406  29.861  1.00  0.00     0.140 C 
ATOM     14  O   UNL     1      20.240  31.410  30.552  1.00  0.00    -0.299 OA
BRANCH  13  15
ATOM     15  C   UNL     1      19.270  30.142  28.834  1.00  0.00     0.106 CG0
ATOM     16  G   UNL     1      18.235  29.147  29.327  1.00  0.00     0.000 G0
ENDBRANCH  13  15
ENDBRANCH  12  13
BRANCH  12  17
ATOM     17  C   UNL     1      22.521  30.101  31.155  1.00  0.00    -0.006 C 
ATOM     18  C   UNL     1      22.206  29.631  32.583  1.00  0.00     0.008 C 
ATOM     19  C   UNL     1      24.020  29.958  30.830  1.00  0.00     0.008 C 
ENDBRANCH  12  17
ENDBRANCH  11  12
ENDBRANCH   1  11
TORSDOF 1
ENDMDL
MODEL 6
REMARK VINA RESULT:    -3.561      1.847      4.144
REMARK INTER + INTRA:          -5.253
REMARK INTER:                  -5.138
REMARK INTRA:                  -0.115
REMARK UNBOUND:                 0.181
REMARK SMILES CC1=CCC[C@@H](C)C(=O)C[C@@H](C(C)C)C(=O)C1
REMARK SMILES IDX 8 1 9 2 6 3 7 4 5 5 4 6 3 7 2 8 1 9 10 11 11 12 15 13 16 14
REMARK SMILES IDX 17 15 12 17 13 18 14 19
REMARK H PARENT
REMARK Flexibility Score: 70.00
ROOT
ATOM      1  C   UNL     1      17.695  28.321  29.069  1.00  0.00     0.136 C 
ATOM      2  O   UNL     1      16.805  27.523  28.830  1.00  0.00    -0.299 OA
ENDROOT
BRANCH   1   3
ATOM      3  C   UNL     1      17.595  29.164  30.330  1.00  0.00     0.053 C 
ATOM      4  C   UNL     1      16.315  28.787  31.092  1.00  0.00     0.016 C 
BRANCH   3   5
ATOM      5  C   UNL     1      17.605  30.682  29.982  1.00  0.00     0.015 C 
BRANCH   5   6
ATOM      6  C   UNL     1      18.803  31.509  30.516  1.00  0.00     0.028 C 
BRANCH   6   7
ATOM      7  C   UNL     1      19.811  30.774  31.368  1.00  0.00    -0.028 C 
ATOM      8  C   UNL     1      20.930  30.169  30.914  1.00  0.00    -0.070 CG0
ATOM      9  C   UNL     1      21.894  29.627  31.944  1.00  0.00     0.039 C 
ATOM     10  G   UNL     1      21.299  30.141  29.442  1.00  0.00     0.000 G0
ENDBRANCH   6   7
ENDBRANCH   5   6
ENDBRANCH   3   5
ENDBRANCH   1   3
BRANCH   1  11
ATOM     11  C   UNL     1      18.943  28.328  28.212  1.00  0.00     0.087 C 
BRANCH  11  12
ATOM     12  C   UNL     1      20.263  27.755  28.822  1.00  0.00     0.066 C 
BRANCH  12  13
ATOM     13  C   UNL     1      21.432  28.727  28.915  1.00  0.00     0.140 C 
ATOM     14  O   UNL     1      22.529  28.349  28.524  1.00  0.00    -0.299 OA
BRANCH  13  15
ATOM     15  C   UNL     1      21.317  30.136  29.440  1.00  0.00     0.106 CG0
ATOM     16  G   UNL     1      20.922  30.172  30.905  1.00  0.00     0.000 G0
ENDBRANCH  13  15
ENDBRANCH  12  13
BRANCH  12  17
ATOM     17  C   UNL     1      20.736  26.335  28.363  1.00  0.00    -0.006 C 
ATOM     18  C   UNL     1      21.266  25.465  29.512  1.00  0.00     0.008 C 
ATOM     19  C   UNL     1      19.723  25.566  27.491  1.00  0.00     0.008 C 
ENDBRANCH  12  17
ENDBRANCH  11  12
ENDBRANCH   1  11
TORSDOF 1
ENDMDL
MODEL 7
REMARK VINA RESULT:    -3.500      2.712      4.788
REMARK INTER + INTRA:          -5.159
REMARK INTER:                  -4.780
REMARK INTRA:                  -0.379
REMARK UNBOUND:                 0.181
REMARK SMILES CC1=CCC[C@@H](C)C(=O)C[C@@H](C(C)C)C(=O)C1
REMARK SMILES IDX 8 1 9 2 6 3 7 4 5 5 4 6 3 7 2 8 1 9 10 11 11 12 15 13 16 14
REMARK SMILES IDX 17 15 12 17 13 18 14 19
REMARK H PARENT
REMARK Flexibility Score: 70.00
ROOT
ATOM      1  C   UNL     1      19.830  32.358  30.056  1.00  0.00     0.136 C 
ATOM      2  O   UNL     1      20.550  33.197  29.540  1.00  0.00    -0.299 OA
ENDROOT
BRANCH   1   3
ATOM      3  C   UNL     1      19.993  32.076  31.540  1.00  0.00     0.053 C 
ATOM      4  C   UNL     1      20.108  33.407  32.300  1.00  0.00     0.016 C 
BRANCH   3   5
ATOM      5  C   UNL     1      21.240  31.180  31.800  1.00  0.00     0.015 C 
BRANCH   5   6
ATOM      6  C   UNL     1      20.989  29.653  31.902  1.00  0.00     0.028 C 
BRANCH   6   7
ATOM      7  C   UNL     1      20.990  28.875  30.608  1.00  0.00    -0.028 C 
ATOM      8  C   UNL     1      19.898  28.364  29.999  1.00  0.00    -0.070 CG0
ATOM      9  C   UNL     1      20.087  27.757  28.628  1.00  0.00     0.039 C 
ATOM     10  G   UNL     1      18.504  28.499  30.583  1.00  0.00     0.000 G0
ENDBRANCH   6   7
ENDBRANCH   5   6
ENDBRANCH   3   5
ENDBRANCH   1   3
BRANCH   1  11
ATOM     11  C   UNL     1      18.694  31.755  29.257  1.00  0.00     0.087 C 
BRANCH  11  12
ATOM     12  C   UNL     1      17.598  30.946  30.025  1.00  0.00     0.066 C 
BRANCH  12  13
ATOM     13  C   UNL     1      17.615  29.437  29.818  1.00  0.00     0.140 C 
ATOM     14  O   UNL     1      16.880  28.965  28.961  1.00  0.00    -0.299 OA
BRANCH  13  15
ATOM     15  C   UNL     1      18.498  28.491  30.592  1.00  0.00     0.106 CG0
ATOM     16  G   UNL     1      19.882  28.369  29.982  1.00  0.00     0.000 G0
ENDBRANCH  13  15
ENDBRANCH  12  13
BRANCH  12  17
ATOM     17  C   UNL     1      16.136  31.506  30.035  1.00  0.00    -0.006 C 
ATOM     18  C   UNL     1      15.359  31.167  31.316  1.00  0.00     0.008 C 
ATOM     19  C   UNL     1      16.012  33.000  29.676  1.00  0.00     0.008 C 
ENDBRANCH  12  17
ENDBRANCH  11  12
ENDBRANCH   1  11
TORSDOF 1
ENDMDL
MODEL 8
REMARK VINA RESULT:    -3.458      2.223      4.702
REMARK INTER + INTRA:          -5.096
REMARK INTER:                  -5.046
REMARK INTRA:                  -0.050
REMARK UNBOUND:                 0.181
REMARK SMILES CC1=CCC[C@@H](C)C(=O)C[C@@H](C(C)C)C(=O)C1
REMARK SMILES IDX 8 1 9 2 6 3 7 4 5 5 4 6 3 7 2 8 1 9 10 11 11 12 15 13 16 14
REMARK SMILES IDX 17 15 12 17 13 18 14 19
REMARK H PARENT
REMARK Flexibility Score: 70.00
ROOT
ATOM      1  C   UNL     1      18.087  28.078  28.458  1.00  0.00     0.136 C 
ATOM      2  O   UNL     1      18.184  27.141  27.684  1.00  0.00    -0.299 OA
ENDROOT
BRANCH   1   3
ATOM      3  C   UNL     1      17.101  27.971  29.609  1.00  0.00     0.053 C 
ATOM      4  C   UNL     1      16.324  26.651  29.490  1.00  0.00     0.016 C 
BRANCH   3   5
ATOM      5  C   UNL     1      16.129  29.188  29.620  1.00  0.00     0.015 C 
BRANCH   5   6
ATOM      6  C   UNL     1      16.337  30.233  30.746  1.00  0.00     0.028 C 
BRANCH   6   7
ATOM      7  C   UNL     1      16.612  31.654  30.313  1.00  0.00    -0.028 C 
ATOM      8  C   UNL     1      17.794  32.296  30.434  1.00  0.00    -0.070 CG0
ATOM      9  C   UNL     1      17.912  33.660  29.794  1.00  0.00     0.039 C 
ATOM     10  G   UNL     1      19.012  31.645  31.061  1.00  0.00     0.000 G0
ENDBRANCH   6   7
ENDBRANCH   5   6
ENDBRANCH   3   5
ENDBRANCH   1   3
BRANCH   1  11
ATOM     11  C   UNL     1      19.060  29.234  28.357  1.00  0.00     0.087 C 
BRANCH  11  12
ATOM     12  C   UNL     1      19.922  29.588  29.612  1.00  0.00     0.066 C 
BRANCH  12  13
ATOM     13  C   UNL     1      19.944  31.056  30.014  1.00  0.00     0.140 C 
ATOM     14  O   UNL     1      20.740  31.796  29.450  1.00  0.00    -0.299 OA
BRANCH  13  15
ATOM     15  C   UNL     1      19.030  31.660  31.051  1.00  0.00     0.106 CG0
ATOM     16  G   UNL     1      17.795  32.288  30.432  1.00  0.00     0.000 G0
ENDBRANCH  13  15
ENDBRANCH  12  13
BRANCH  12  17
ATOM     17  C   UNL     1      21.340  28.937  29.744  1.00  0.00    -0.006 C 
ATOM     18  C   UNL     1      22.088  29.352  31.020  1.00  0.00     0.008 C 
ATOM     19  C   UNL     1      21.374  27.410  29.539  1.00  0.00     0.008 C 
ENDBRANCH  12  17
ENDBRANCH  11  12
ENDBRANCH   1  11
TORSDOF 1
ENDMDL
MODEL 9
REMARK VINA RESULT:    -3.385      2.268      4.451
REMARK INTER + INTRA:          -4.984
REMARK INTER:                  -4.981
REMARK INTRA:                  -0.003
REMARK UNBOUND:                 0.181
REMARK SMILES CC1=CCC[C@@H](C)C(=O)C[C@@H](C(C)C)C(=O)C1
REMARK SMILES IDX 8 1 9 2 6 3 7 4 5 5 4 6 3 7 2 8 1 9 10 11 11 12 15 13 16 14
REMARK SMILES IDX 17 15 12 17 13 18 14 19
REMARK H PARENT
REMARK Flexibility Score: 70.00
ROOT
ATOM      1  C   UNL     1      22.108  28.550  29.824  1.00  0.00     0.136 C 
ATOM      2  O   UNL     1      22.367  28.874  30.971  1.00  0.00    -0.299 OA
ENDROOT
BRANCH   1   3
ATOM      3  C   UNL     1      22.862  27.380  29.213  1.00  0.00     0.053 C 
ATOM      4  C   UNL     1      23.354  27.771  27.811  1.00  0.00     0.016 C 
BRANCH   3   5
ATOM      5  C   UNL     1      21.958  26.113  29.150  1.00  0.00     0.015 C 
BRANCH   5   6
ATOM      6  C   UNL     1      21.184  25.878  27.828  1.00  0.00     0.028 C 
BRANCH   6   7
ATOM      7  C   UNL     1      19.776  25.343  27.950  1.00  0.00    -0.028 C 
ATOM      8  C   UNL     1      18.650  26.089  27.946  1.00  0.00    -0.070 CG0
ATOM      9  C   UNL     1      17.330  25.354  27.915  1.00  0.00     0.039 C 
ATOM     10  G   UNL     1      18.678  27.602  27.838  1.00  0.00     0.000 G0
ENDBRANCH   6   7
ENDBRANCH   5   6
ENDBRANCH   3   5
ENDBRANCH   1   3
BRANCH   1  11
ATOM     11  C   UNL     1      20.941  29.198  29.109  1.00  0.00     0.087 C 
BRANCH  11  12
ATOM     12  C   UNL     1      19.543  29.181  29.809  1.00  0.00     0.066 C 
BRANCH  12  13
ATOM     13  C   UNL     1      18.486  28.296  29.163  1.00  0.00     0.140 C 
ATOM     14  O   UNL     1      17.424  28.144  29.753  1.00  0.00    -0.299 OA
BRANCH  13  15
ATOM     15  C   UNL     1      18.659  27.610  27.831  1.00  0.00     0.106 CG0
ATOM     16  G   UNL     1      18.644  26.098  27.958  1.00  0.00     0.000 G0
ENDBRANCH  13  15
ENDBRANCH  12  13
BRANCH  12  17
ATOM     17  C   UNL     1      18.936  30.544  30.284  1.00  0.00    -0.006 C 
ATOM     18  C   UNL     1      19.387  30.956  31.693  1.00  0.00     0.008 C 
ATOM     19  C   UNL     1      19.084  31.704  29.280  1.00  0.00     0.008 C 
ENDBRANCH  12  17
ENDBRANCH  11  12
ENDBRANCH   1  11
TORSDOF 1
ENDMDL
