MODEL 1
REMARK VINA RESULT:    -4.240      0.000      0.000
REMARK INTER + INTRA:          -9.774
REMARK INTER:                  -7.958
REMARK INTRA:                  -1.816
REMARK UNBOUND:                -1.816
REMARK SMILES O=C([O-])CCCCCCCCCCCCCCC(=O)[O-]
REMARK SMILES IDX 10 1 9 2 8 3 7 4 6 5 5 6 4 7 2 8 1 9 3 10 11 11 12 12 13 13
REMARK SMILES IDX 14 14 15 15 16 16 17 17 18 18 19 19 20 20
REMARK H PARENT
REMARK Flexibility Score: inf
ROOT
ATOM      1  C   UNL     1      -1.066   5.232   5.723  1.00  0.00     0.000 C 
ENDROOT
BRANCH   1   2
ATOM      2  C   UNL     1       0.360   5.720   6.030  1.00  0.00     0.000 C 
BRANCH   2   3
ATOM      3  C   UNL     1       0.769   5.463   7.490  1.00  0.00     0.000 C 
BRANCH   3   4
ATOM      4  C   UNL     1       2.041   4.607   7.605  1.00  0.00     0.000 C 
BRANCH   4   5
ATOM      5  C   UNL     1       2.005   3.362   6.705  1.00  0.00     0.000 C 
BRANCH   5   6
ATOM      6  C   UNL     1       1.661   2.108   7.518  1.00  0.00     0.006 C 
BRANCH   6   7
ATOM      7  C   UNL     1       2.932   1.381   7.970  1.00  0.00     0.053 C 
BRANCH   7   8
ATOM      8  C   UNL     1       3.690   0.868   6.787  1.00  0.00     0.041 C 
ATOM      9  O   UNL     1       4.890   1.204   6.608  1.00  0.00    -0.550 OA
ATOM     10  O   UNL     1       3.057   0.056   5.854  1.00  0.00    -0.550 OA
ENDBRANCH   7   8
ENDBRANCH   6   7
ENDBRANCH   5   6
ENDBRANCH   4   5
ENDBRANCH   3   4
ENDBRANCH   2   3
ENDBRANCH   1   2
BRANCH   1  11
ATOM     11  C   UNL     1      -1.101   4.165   4.614  1.00  0.00     0.000 C 
BRANCH  11  12
ATOM     12  C   UNL     1      -1.223   2.737   5.171  1.00  0.00     0.000 C 
BRANCH  12  13
ATOM     13  C   UNL     1      -1.929   2.696   6.537  1.00  0.00     0.000 C 
BRANCH  13  14
ATOM     14  C   UNL     1      -3.370   2.160   6.452  1.00  0.00     0.000 C 
BRANCH  14  15
ATOM     15  C   UNL     1      -4.410   3.160   5.912  1.00  0.00     0.000 C 
BRANCH  15  16
ATOM     16  C   UNL     1      -4.646   4.350   6.856  1.00  0.00     0.006 C 
BRANCH  16  17
ATOM     17  C   UNL     1      -5.602   5.388   6.253  1.00  0.00     0.053 C 
BRANCH  17  18
ATOM     18  C   UNL     1      -4.860   6.509   5.592  1.00  0.00     0.041 C 
ATOM     19  O   UNL     1      -5.028   6.745   4.367  1.00  0.00    -0.550 OA
ATOM     20  O   UNL     1      -3.963   7.276   6.324  1.00  0.00    -0.550 OA
ENDBRANCH  17  18
ENDBRANCH  16  17
ENDBRANCH  15  16
ENDBRANCH  14  15
ENDBRANCH  13  14
ENDBRANCH  12  13
ENDBRANCH  11  12
ENDBRANCH   1  11
TORSDOF 15
ENDMDL
MODEL 2
REMARK VINA RESULT:    -4.187      1.144      7.936
REMARK INTER + INTRA:          -9.674
REMARK INTER:                  -7.954
REMARK INTRA:                  -1.721
REMARK UNBOUND:                -1.816
REMARK SMILES O=C([O-])CCCCCCCCCCCCCCC(=O)[O-]
REMARK SMILES IDX 10 1 9 2 8 3 7 4 6 5 5 6 4 7 2 8 1 9 3 10 11 11 12 12 13 13
REMARK SMILES IDX 14 14 15 15 16 16 17 17 18 18 19 19 20 20
REMARK H PARENT
REMARK Flexibility Score: inf
ROOT
ATOM      1  C   UNL     1      -1.144   2.986   5.245  1.00  0.00     0.000 C 
ENDROOT
BRANCH   1   2
ATOM      2  C   UNL     1      -2.064   2.626   6.423  1.00  0.00     0.000 C 
BRANCH   2   3
ATOM      3  C   UNL     1      -3.483   2.245   5.966  1.00  0.00     0.000 C 
BRANCH   3   4
ATOM      4  C   UNL     1      -4.477   3.411   6.088  1.00  0.00     0.000 C 
BRANCH   4   5
ATOM      5  C   UNL     1      -4.155   4.348   7.263  1.00  0.00     0.000 C 
BRANCH   5   6
ATOM      6  C   UNL     1      -4.093   5.809   6.799  1.00  0.00     0.006 C 
BRANCH   6   7
ATOM      7  C   UNL     1      -4.433   5.927   5.310  1.00  0.00     0.053 C 
BRANCH   7   8
ATOM      8  C   UNL     1      -5.220   7.173   5.051  1.00  0.00     0.041 C 
ATOM      9  O   UNL     1      -5.847   7.733   5.988  1.00  0.00    -0.550 OA
ATOM     10  O   UNL     1      -5.299   7.690   3.765  1.00  0.00    -0.550 OA
ENDBRANCH   7   8
ENDBRANCH   6   7
ENDBRANCH   5   6
ENDBRANCH   4   5
ENDBRANCH   3   4
ENDBRANCH   2   3
ENDBRANCH   1   2
BRANCH   1  11
ATOM     11  C   UNL     1      -1.016   4.506   5.037  1.00  0.00     0.000 C 
BRANCH  11  12
ATOM     12  C   UNL     1       0.363   5.046   5.451  1.00  0.00     0.000 C 
BRANCH  12  13
ATOM     13  C   UNL     1       0.513   5.171   6.977  1.00  0.00     0.000 C 
BRANCH  13  14
ATOM     14  C   UNL     1       1.480   4.131   7.573  1.00  0.00     0.000 C 
BRANCH  14  15
ATOM     15  C   UNL     1       2.343   3.374   6.546  1.00  0.00     0.000 C 
BRANCH  15  16
ATOM     16  C   UNL     1       2.944   2.075   7.109  1.00  0.00     0.006 C 
BRANCH  16  17
ATOM     17  C   UNL     1       1.953   0.905   7.051  1.00  0.00     0.053 C 
BRANCH  17  18
ATOM     18  C   UNL     1       2.622  -0.369   6.638  1.00  0.00     0.041 C 
ATOM     19  O   UNL     1       2.294  -0.938   5.563  1.00  0.00    -0.550 OA
ATOM     20  O   UNL     1       3.589  -0.944   7.452  1.00  0.00    -0.550 OA
ENDBRANCH  17  18
ENDBRANCH  16  17
ENDBRANCH  15  16
ENDBRANCH  14  15
ENDBRANCH  13  14
ENDBRANCH  12  13
ENDBRANCH  11  12
ENDBRANCH   1  11
TORSDOF 15
ENDMDL
MODEL 3
REMARK VINA RESULT:    -4.168      1.811      2.912
REMARK INTER + INTRA:          -9.640
REMARK INTER:                  -7.214
REMARK INTRA:                  -2.426
REMARK UNBOUND:                -1.816
REMARK SMILES O=C([O-])CCCCCCCCCCCCCCC(=O)[O-]
REMARK SMILES IDX 10 1 9 2 8 3 7 4 6 5 5 6 4 7 2 8 1 9 3 10 11 11 12 12 13 13
REMARK SMILES IDX 14 14 15 15 16 16 17 17 18 18 19 19 20 20
REMARK H PARENT
REMARK Flexibility Score: inf
ROOT
ATOM      1  C   UNL     1      -0.399   5.198   5.536  1.00  0.00     0.000 C 
ENDROOT
BRANCH   1   2
ATOM      2  C   UNL     1      -1.101   4.006   4.865  1.00  0.00     0.000 C 
BRANCH   2   3
ATOM      3  C   UNL     1      -0.654   2.655   5.448  1.00  0.00     0.000 C 
BRANCH   3   4
ATOM      4  C   UNL     1       0.568   2.785   6.372  1.00  0.00     0.000 C 
BRANCH   4   5
ATOM      5  C   UNL     1       0.495   1.852   7.591  1.00  0.00     0.000 C 
BRANCH   5   6
ATOM      6  C   UNL     1       1.867   1.719   8.263  1.00  0.00     0.006 C 
BRANCH   6   7
ATOM      7  C   UNL     1       2.487   0.347   7.980  1.00  0.00     0.053 C 
BRANCH   7   8
ATOM      8  C   UNL     1       3.060   0.308   6.598  1.00  0.00     0.041 C 
ATOM      9  O   UNL     1       2.611  -0.506   5.749  1.00  0.00    -0.550 OA
ATOM     10  O   UNL     1       4.121   1.138   6.261  1.00  0.00    -0.550 OA
ENDBRANCH   7   8
ENDBRANCH   6   7
ENDBRANCH   5   6
ENDBRANCH   4   5
ENDBRANCH   3   4
ENDBRANCH   2   3
ENDBRANCH   1   2
BRANCH   1  11
ATOM     11  C   UNL     1      -1.356   6.036   6.405  1.00  0.00     0.000 C 
BRANCH  11  12
ATOM     12  C   UNL     1      -0.718   6.475   7.733  1.00  0.00     0.000 C 
BRANCH  12  13
ATOM     13  C   UNL     1      -0.654   5.333   8.762  1.00  0.00     0.000 C 
BRANCH  13  14
ATOM     14  C   UNL     1      -2.046   4.878   9.240  1.00  0.00     0.000 C 
BRANCH  14  15
ATOM     15  C   UNL     1      -2.257   3.353   9.288  1.00  0.00     0.000 C 
BRANCH  15  16
ATOM     16  C   UNL     1      -3.114   2.828   8.125  1.00  0.00     0.006 C 
BRANCH  16  17
ATOM     17  C   UNL     1      -4.143   3.861   7.649  1.00  0.00     0.053 C 
BRANCH  17  18
ATOM     18  C   UNL     1      -4.450   3.710   6.192  1.00  0.00     0.041 C 
ATOM     19  O   UNL     1      -4.254   2.609   5.613  1.00  0.00    -0.550 OA
ATOM     20  O   UNL     1      -4.930   4.792   5.466  1.00  0.00    -0.550 OA
ENDBRANCH  17  18
ENDBRANCH  16  17
ENDBRANCH  15  16
ENDBRANCH  14  15
ENDBRANCH  13  14
ENDBRANCH  12  13
ENDBRANCH  11  12
ENDBRANCH   1  11
TORSDOF 15
ENDMDL
MODEL 4
REMARK VINA RESULT:    -4.161     13.001     14.385
REMARK INTER + INTRA:          -9.627
REMARK INTER:                  -8.063
REMARK INTRA:                  -1.563
REMARK UNBOUND:                -1.816
REMARK SMILES O=C([O-])CCCCCCCCCCCCCCC(=O)[O-]
REMARK SMILES IDX 10 1 9 2 8 3 7 4 6 5 5 6 4 7 2 8 1 9 3 10 11 11 12 12 13 13
REMARK SMILES IDX 14 14 15 15 16 16 17 17 18 18 19 19 20 20
REMARK H PARENT
REMARK Flexibility Score: inf
ROOT
ATOM      1  C   UNL     1      -2.136  -1.004  -6.539  1.00  0.00     0.000 C 
ENDROOT
BRANCH   1   2
ATOM      2  C   UNL     1      -1.561  -2.020  -5.539  1.00  0.00     0.000 C 
BRANCH   2   3
ATOM      3  C   UNL     1      -0.037  -2.182  -5.674  1.00  0.00     0.000 C 
BRANCH   3   4
ATOM      4  C   UNL     1       0.438  -2.102  -7.134  1.00  0.00     0.000 C 
BRANCH   4   5
ATOM      5  C   UNL     1       1.615  -1.131  -7.324  1.00  0.00     0.000 C 
BRANCH   5   6
ATOM      6  C   UNL     1       1.284   0.252  -6.750  1.00  0.00     0.006 C 
BRANCH   6   7
ATOM      7  C   UNL     1       2.561   1.022  -6.401  1.00  0.00     0.053 C 
BRANCH   7   8
ATOM      8  C   UNL     1       2.254   2.469  -6.176  1.00  0.00     0.041 C 
ATOM      9  O   UNL     1       2.785   3.088  -5.216  1.00  0.00    -0.550 OA
ATOM     10  O   UNL     1       1.345   3.123  -6.997  1.00  0.00    -0.550 OA
ENDBRANCH   7   8
ENDBRANCH   6   7
ENDBRANCH   5   6
ENDBRANCH   4   5
ENDBRANCH   3   4
ENDBRANCH   2   3
ENDBRANCH   1   2
BRANCH   1  11
ATOM     11  C   UNL     1      -3.265  -0.150  -5.934  1.00  0.00     0.000 C 
BRANCH  11  12
ATOM     12  C   UNL     1      -4.465   0.003  -6.882  1.00  0.00     0.000 C 
BRANCH  12  13
ATOM     13  C   UNL     1      -4.510  -1.096  -7.958  1.00  0.00     0.000 C 
BRANCH  13  14
ATOM     14  C   UNL     1      -5.836  -1.879  -7.961  1.00  0.00     0.000 C 
BRANCH  14  15
ATOM     15  C   UNL     1      -6.148  -2.647  -6.664  1.00  0.00     0.000 C 
BRANCH  15  16
ATOM     16  C   UNL     1      -5.011  -3.588  -6.234  1.00  0.00     0.006 C 
BRANCH  16  17
ATOM     17  C   UNL     1      -4.831  -3.624  -4.711  1.00  0.00     0.053 C 
BRANCH  17  18
ATOM     18  C   UNL     1      -4.933  -5.017  -4.171  1.00  0.00     0.041 C 
ATOM     19  O   UNL     1      -4.537  -5.276  -3.005  1.00  0.00    -0.550 OA
ATOM     20  O   UNL     1      -5.442  -6.036  -4.967  1.00  0.00    -0.550 OA
ENDBRANCH  17  18
ENDBRANCH  16  17
ENDBRANCH  15  16
ENDBRANCH  14  15
ENDBRANCH  13  14
ENDBRANCH  12  13
ENDBRANCH  11  12
ENDBRANCH   1  11
TORSDOF 15
ENDMDL
MODEL 5
REMARK VINA RESULT:    -4.124     13.316     14.619
REMARK INTER + INTRA:          -9.557
REMARK INTER:                  -7.687
REMARK INTRA:                  -1.870
REMARK UNBOUND:                -1.816
REMARK SMILES O=C([O-])CCCCCCCCCCCCCCC(=O)[O-]
REMARK SMILES IDX 10 1 9 2 8 3 7 4 6 5 5 6 4 7 2 8 1 9 3 10 11 11 12 12 13 13
REMARK SMILES IDX 14 14 15 15 16 16 17 17 18 18 19 19 20 20
REMARK H PARENT
REMARK Flexibility Score: inf
ROOT
ATOM      1  C   UNL     1      -4.144   0.016  -6.923  1.00  0.00     0.000 C 
ENDROOT
BRANCH   1   2
ATOM      2  C   UNL     1      -3.340  -0.276  -5.645  1.00  0.00     0.000 C 
BRANCH   2   3
ATOM      3  C   UNL     1      -2.458  -1.530  -5.776  1.00  0.00     0.000 C 
BRANCH   3   4
ATOM      4  C   UNL     1      -1.157  -1.260  -6.549  1.00  0.00     0.000 C 
BRANCH   4   5
ATOM      5  C   UNL     1       0.078  -1.871  -5.868  1.00  0.00     0.000 C 
BRANCH   5   6
ATOM      6  C   UNL     1       0.300  -3.317  -6.331  1.00  0.00     0.006 C 
BRANCH   6   7
ATOM      7  C   UNL     1       0.632  -4.228  -5.146  1.00  0.00     0.053 C 
BRANCH   7   8
ATOM      8  C   UNL     1      -0.623  -4.758  -4.526  1.00  0.00     0.041 C 
ATOM      9  O   UNL     1      -1.064  -4.256  -3.459  1.00  0.00    -0.550 OA
ATOM     10  O   UNL     1      -1.279  -5.838  -5.101  1.00  0.00    -0.550 OA
ENDBRANCH   7   8
ENDBRANCH   6   7
ENDBRANCH   5   6
ENDBRANCH   4   5
ENDBRANCH   3   4
ENDBRANCH   2   3
ENDBRANCH   1   2
BRANCH   1  11
ATOM     11  C   UNL     1      -4.655  -1.266  -7.606  1.00  0.00     0.000 C 
BRANCH  11  12
ATOM     12  C   UNL     1      -6.070  -1.655  -7.150  1.00  0.00     0.000 C 
BRANCH  12  13
ATOM     13  C   UNL     1      -6.086  -2.947  -6.314  1.00  0.00     0.000 C 
BRANCH  13  14
ATOM     14  C   UNL     1      -5.108  -4.014  -6.840  1.00  0.00     0.000 C 
BRANCH  14  15
ATOM     15  C   UNL     1      -4.289  -4.744  -5.759  1.00  0.00     0.000 C 
BRANCH  15  16
ATOM     16  C   UNL     1      -4.638  -4.289  -4.332  1.00  0.00     0.006 C 
BRANCH  16  17
ATOM     17  C   UNL     1      -4.328  -5.369  -3.287  1.00  0.00     0.053 C 
BRANCH  17  18
ATOM     18  C   UNL     1      -4.863  -6.706  -3.695  1.00  0.00     0.041 C 
ATOM     19  O   UNL     1      -4.075  -7.635  -4.013  1.00  0.00    -0.550 OA
ATOM     20  O   UNL     1      -6.234  -6.920  -3.749  1.00  0.00    -0.550 OA
ENDBRANCH  17  18
ENDBRANCH  16  17
ENDBRANCH  15  16
ENDBRANCH  14  15
ENDBRANCH  13  14
ENDBRANCH  12  13
ENDBRANCH  11  12
ENDBRANCH   1  11
TORSDOF 15
ENDMDL
MODEL 6
REMARK VINA RESULT:    -4.115      3.022      5.428
REMARK INTER + INTRA:          -9.540
REMARK INTER:                  -7.419
REMARK INTRA:                  -2.121
REMARK UNBOUND:                -1.816
REMARK SMILES O=C([O-])CCCCCCCCCCCCCCC(=O)[O-]
REMARK SMILES IDX 10 1 9 2 8 3 7 4 6 5 5 6 4 7 2 8 1 9 3 10 11 11 12 12 13 13
REMARK SMILES IDX 14 14 15 15 16 16 17 17 18 18 19 19 20 20
REMARK H PARENT
REMARK Flexibility Score: inf
ROOT
ATOM      1  C   UNL     1       3.335   0.361   6.391  1.00  0.00     0.000 C 
ENDROOT
BRANCH   1   2
ATOM      2  C   UNL     1       1.856   0.083   6.709  1.00  0.00     0.000 C 
BRANCH   2   3
ATOM      3  C   UNL     1       1.576   0.047   8.222  1.00  0.00     0.000 C 
BRANCH   3   4
ATOM      4  C   UNL     1       1.850  -1.333   8.841  1.00  0.00     0.000 C 
BRANCH   4   5
ATOM      5  C   UNL     1       2.975  -1.302   9.889  1.00  0.00     0.000 C 
BRANCH   5   6
ATOM      6  C   UNL     1       4.164  -2.162   9.442  1.00  0.00     0.006 C 
BRANCH   6   7
ATOM      7  C   UNL     1       5.455  -1.340   9.411  1.00  0.00     0.053 C 
BRANCH   7   8
ATOM      8  C   UNL     1       6.205  -1.590   8.140  1.00  0.00     0.041 C 
ATOM      9  O   UNL     1       6.789  -0.643   7.551  1.00  0.00    -0.550 OA
ATOM     10  O   UNL     1       6.218  -2.861   7.580  1.00  0.00    -0.550 OA
ENDBRANCH   7   8
ENDBRANCH   6   7
ENDBRANCH   5   6
ENDBRANCH   4   5
ENDBRANCH   3   4
ENDBRANCH   2   3
ENDBRANCH   1   2
BRANCH   1  11
ATOM     11  C   UNL     1       3.958   1.404   7.337  1.00  0.00     0.000 C 
BRANCH  11  12
ATOM     12  C   UNL     1       4.515   2.624   6.586  1.00  0.00     0.000 C 
BRANCH  12  13
ATOM     13  C   UNL     1       3.442   3.694   6.320  1.00  0.00     0.000 C 
BRANCH  13  14
ATOM     14  C   UNL     1       2.725   4.157   7.602  1.00  0.00     0.000 C 
BRANCH  14  15
ATOM     15  C   UNL     1       1.187   4.130   7.540  1.00  0.00     0.000 C 
BRANCH  15  16
ATOM     16  C   UNL     1       0.649   3.556   6.218  1.00  0.00     0.006 C 
BRANCH  16  17
ATOM     17  C   UNL     1      -0.598   2.687   6.428  1.00  0.00     0.053 C 
BRANCH  17  18
ATOM     18  C   UNL     1      -1.544   2.784   5.272  1.00  0.00     0.041 C 
ATOM     19  O   UNL     1      -2.699   2.288   5.353  1.00  0.00    -0.550 OA
ATOM     20  O   UNL     1      -1.142   3.399   4.093  1.00  0.00    -0.550 OA
ENDBRANCH  17  18
ENDBRANCH  16  17
ENDBRANCH  15  16
ENDBRANCH  14  15
ENDBRANCH  13  14
ENDBRANCH  12  13
ENDBRANCH  11  12
ENDBRANCH   1  11
TORSDOF 15
ENDMDL
MODEL 7
REMARK VINA RESULT:    -4.112      1.244      1.735
REMARK INTER + INTRA:          -9.534
REMARK INTER:                  -7.479
REMARK INTRA:                  -2.054
REMARK UNBOUND:                -1.816
REMARK SMILES O=C([O-])CCCCCCCCCCCCCCC(=O)[O-]
REMARK SMILES IDX 10 1 9 2 8 3 7 4 6 5 5 6 4 7 2 8 1 9 3 10 11 11 12 12 13 13
REMARK SMILES IDX 14 14 15 15 16 16 17 17 18 18 19 19 20 20
REMARK H PARENT
REMARK Flexibility Score: inf
ROOT
ATOM      1  C   UNL     1      -0.485   5.846   6.362  1.00  0.00     0.000 C 
ENDROOT
BRANCH   1   2
ATOM      2  C   UNL     1       0.327   5.756   7.664  1.00  0.00     0.000 C 
BRANCH   2   3
ATOM      3  C   UNL     1       0.030   4.471   8.456  1.00  0.00     0.000 C 
BRANCH   3   4
ATOM      4  C   UNL     1       1.277   3.590   8.642  1.00  0.00     0.000 C 
BRANCH   4   5
ATOM      5  C   UNL     1       1.038   2.128   8.234  1.00  0.00     0.000 C 
BRANCH   5   6
ATOM      6  C   UNL     1       1.569   1.859   6.820  1.00  0.00     0.006 C 
BRANCH   6   7
ATOM      7  C   UNL     1       2.786   0.930   6.859  1.00  0.00     0.053 C 
BRANCH   7   8
ATOM      8  C   UNL     1       2.363  -0.494   6.684  1.00  0.00     0.041 C 
ATOM      9  O   UNL     1       2.413  -1.036   5.549  1.00  0.00    -0.550 OA
ATOM     10  O   UNL     1       1.867  -1.210   7.767  1.00  0.00    -0.550 OA
ENDBRANCH   7   8
ENDBRANCH   6   7
ENDBRANCH   5   6
ENDBRANCH   4   5
ENDBRANCH   3   4
ENDBRANCH   2   3
ENDBRANCH   1   2
BRANCH   1  11
ATOM     11  C   UNL     1      -0.006   4.845   5.295  1.00  0.00     0.000 C 
BRANCH  11  12
ATOM     12  C   UNL     1      -1.164   4.066   4.652  1.00  0.00     0.000 C 
BRANCH  12  13
ATOM     13  C   UNL     1      -1.481   2.758   5.397  1.00  0.00     0.000 C 
BRANCH  13  14
ATOM     14  C   UNL     1      -2.936   2.688   5.896  1.00  0.00     0.000 C 
BRANCH  14  15
ATOM     15  C   UNL     1      -3.210   3.415   7.225  1.00  0.00     0.000 C 
BRANCH  15  16
ATOM     16  C   UNL     1      -4.457   4.313   7.173  1.00  0.00     0.006 C 
BRANCH  16  17
ATOM     17  C   UNL     1      -4.828   4.707   5.737  1.00  0.00     0.053 C 
BRANCH  17  18
ATOM     18  C   UNL     1      -4.528   6.148   5.461  1.00  0.00     0.041 C 
ATOM     19  O   UNL     1      -3.805   6.809   6.252  1.00  0.00    -0.550 OA
ATOM     20  O   UNL     1      -5.068   6.769   4.342  1.00  0.00    -0.550 OA
ENDBRANCH  17  18
ENDBRANCH  16  17
ENDBRANCH  15  16
ENDBRANCH  14  15
ENDBRANCH  13  14
ENDBRANCH  12  13
ENDBRANCH  11  12
ENDBRANCH   1  11
TORSDOF 15
ENDMDL
MODEL 8
REMARK VINA RESULT:    -4.083     13.199     15.312
REMARK INTER + INTRA:          -9.480
REMARK INTER:                  -7.423
REMARK INTRA:                  -2.057
REMARK UNBOUND:                -1.816
REMARK SMILES O=C([O-])CCCCCCCCCCCCCCC(=O)[O-]
REMARK SMILES IDX 10 1 9 2 8 3 7 4 6 5 5 6 4 7 2 8 1 9 3 10 11 11 12 12 13 13
REMARK SMILES IDX 14 14 15 15 16 16 17 17 18 18 19 19 20 20
REMARK H PARENT
REMARK Flexibility Score: inf
ROOT
ATOM      1  C   UNL     1      -4.694  -1.266  -7.810  1.00  0.00     0.000 C 
ENDROOT
BRANCH   1   2
ATOM      2  C   UNL     1      -6.007  -2.017  -7.533  1.00  0.00     0.000 C 
BRANCH   2   3
ATOM      3  C   UNL     1      -5.852  -3.092  -6.443  1.00  0.00     0.000 C 
BRANCH   3   4
ATOM      4  C   UNL     1      -5.147  -4.358  -6.957  1.00  0.00     0.000 C 
BRANCH   4   5
ATOM      5  C   UNL     1      -4.807  -5.349  -5.833  1.00  0.00     0.000 C 
BRANCH   5   6
ATOM      6  C   UNL     1      -4.891  -4.670  -4.460  1.00  0.00     0.006 C 
BRANCH   6   7
ATOM      7  C   UNL     1      -4.124  -5.471  -3.404  1.00  0.00     0.053 C 
BRANCH   7   8
ATOM      8  C   UNL     1      -4.625  -6.880  -3.350  1.00  0.00     0.041 C 
ATOM      9  O   UNL     1      -3.836  -7.841  -3.547  1.00  0.00    -0.550 OA
ATOM     10  O   UNL     1      -5.973  -7.130  -3.130  1.00  0.00    -0.550 OA
ENDBRANCH   7   8
ENDBRANCH   6   7
ENDBRANCH   5   6
ENDBRANCH   4   5
ENDBRANCH   3   4
ENDBRANCH   2   3
ENDBRANCH   1   2
BRANCH   1  11
ATOM     11  C   UNL     1      -4.571   0.033  -6.994  1.00  0.00     0.000 C 
BRANCH  11  12
ATOM     12  C   UNL     1      -3.254   0.115  -6.206  1.00  0.00     0.000 C 
BRANCH  12  13
ATOM     13  C   UNL     1      -2.017   0.068  -7.119  1.00  0.00     0.000 C 
BRANCH  13  14
ATOM     14  C   UNL     1      -1.044  -1.069  -6.753  1.00  0.00     0.000 C 
BRANCH  14  15
ATOM     15  C   UNL     1      -1.260  -2.388  -7.517  1.00  0.00     0.000 C 
BRANCH  15  16
ATOM     16  C   UNL     1      -1.568  -3.576  -6.590  1.00  0.00     0.006 C 
BRANCH  16  17
ATOM     17  C   UNL     1      -1.702  -3.147  -5.123  1.00  0.00     0.053 C 
BRANCH  17  18
ATOM     18  C   UNL     1      -0.698  -3.834  -4.250  1.00  0.00     0.041 C 
ATOM     19  O   UNL     1      -0.742  -3.692  -2.999  1.00  0.00    -0.550 OA
ATOM     20  O   UNL     1       0.303  -4.610  -4.818  1.00  0.00    -0.550 OA
ENDBRANCH  17  18
ENDBRANCH  16  17
ENDBRANCH  15  16
ENDBRANCH  14  15
ENDBRANCH  13  14
ENDBRANCH  12  13
ENDBRANCH  11  12
ENDBRANCH   1  11
TORSDOF 15
ENDMDL
MODEL 9
REMARK VINA RESULT:    -4.041     13.342     15.426
REMARK INTER + INTRA:          -9.400
REMARK INTER:                  -6.986
REMARK INTRA:                  -2.414
REMARK UNBOUND:                -1.816
REMARK SMILES O=C([O-])CCCCCCCCCCCCCCC(=O)[O-]
REMARK SMILES IDX 10 1 9 2 8 3 7 4 6 5 5 6 4 7 2 8 1 9 3 10 11 11 12 12 13 13
REMARK SMILES IDX 14 14 15 15 16 16 17 17 18 18 19 19 20 20
REMARK H PARENT
REMARK Flexibility Score: inf
ROOT
ATOM      1  C   UNL     1      -3.727  -0.031  -6.028  1.00  0.00     0.000 C 
ENDROOT
BRANCH   1   2
ATOM      2  C   UNL     1      -4.590  -0.053  -7.301  1.00  0.00     0.000 C 
BRANCH   2   3
ATOM      3  C   UNL     1      -5.834  -0.946  -7.154  1.00  0.00     0.000 C 
BRANCH   3   4
ATOM      4  C   UNL     1      -5.563  -2.407  -7.546  1.00  0.00     0.000 C 
BRANCH   4   5
ATOM      5  C   UNL     1      -5.806  -3.389  -6.388  1.00  0.00     0.000 C 
BRANCH   5   6
ATOM      6  C   UNL     1      -4.510  -3.650  -5.609  1.00  0.00     0.006 C 
BRANCH   6   7
ATOM      7  C   UNL     1      -4.812  -4.162  -4.198  1.00  0.00     0.053 C 
BRANCH   7   8
ATOM      8  C   UNL     1      -4.797  -5.658  -4.170  1.00  0.00     0.041 C 
ATOM      9  O   UNL     1      -5.270  -6.278  -3.181  1.00  0.00    -0.550 OA
ATOM     10  O   UNL     1      -4.217  -6.367  -5.213  1.00  0.00    -0.550 OA
ENDBRANCH   7   8
ENDBRANCH   6   7
ENDBRANCH   5   6
ENDBRANCH   4   5
ENDBRANCH   3   4
ENDBRANCH   2   3
ENDBRANCH   1   2
BRANCH   1  11
ATOM     11  C   UNL     1      -2.358  -0.704  -6.229  1.00  0.00     0.000 C 
BRANCH  11  12
ATOM     12  C   UNL     1      -1.726  -0.365  -7.589  1.00  0.00     0.000 C 
BRANCH  12  13
ATOM     13  C   UNL     1      -1.127  -1.600  -8.285  1.00  0.00     0.000 C 
BRANCH  13  14
ATOM     14  C   UNL     1      -2.132  -2.759  -8.421  1.00  0.00     0.000 C 
BRANCH  14  15
ATOM     15  C   UNL     1      -1.607  -4.138  -7.980  1.00  0.00     0.000 C 
BRANCH  15  16
ATOM     16  C   UNL     1      -0.612  -4.057  -6.811  1.00  0.00     0.006 C 
BRANCH  16  17
ATOM     17  C   UNL     1      -1.094  -4.842  -5.584  1.00  0.00     0.053 C 
BRANCH  17  18
ATOM     18  C   UNL     1      -0.892  -4.071  -4.316  1.00  0.00     0.041 C 
ATOM     19  O   UNL     1      -1.227  -4.570  -3.210  1.00  0.00    -0.550 OA
ATOM     20  O   UNL     1      -0.358  -2.789  -4.359  1.00  0.00    -0.550 OA
ENDBRANCH  17  18
ENDBRANCH  16  17
ENDBRANCH  15  16
ENDBRANCH  14  15
ENDBRANCH  13  14
ENDBRANCH  12  13
ENDBRANCH  11  12
ENDBRANCH   1  11
TORSDOF 15
ENDMDL
