MODEL 1
REMARK VINA RESULT:    -3.269      0.000      0.000
REMARK INTER + INTRA:          -4.228
REMARK INTER:                  -3.842
REMARK INTRA:                  -0.386
REMARK UNBOUND:                -0.386
REMARK SMILES [NH3+][C@H](CO)C(=O)[O-]
REMARK SMILES IDX 3 1 2 2 1 3 5 7 6 8 7 9 4 10
REMARK H PARENT 1 4 1 5 1 6 4 11
REMARK Flexibility Score: inf
ROOT
ATOM      1  C   UNL     1      49.225  14.651  16.026  1.00  0.00     0.227 C 
ENDROOT
BRANCH   1   2
ATOM      2  C   UNL     1      49.847  14.814  17.422  1.00  0.00     0.253 C 
BRANCH   2   3
ATOM      3  N   UNL     1      49.467  16.102  18.010  1.00  0.00    -0.348 N 
ATOM      4  H   UNL     1      48.753  16.585  17.418  1.00  0.00     0.345 HD
ATOM      5  H   UNL     1      50.311  16.715  18.095  1.00  0.00     0.345 HD
ATOM      6  H   UNL     1      49.074  15.952  18.969  1.00  0.00     0.345 HD
ENDBRANCH   2   3
BRANCH   2   7
ATOM      7  C   UNL     1      49.424  13.684  18.324  1.00  0.00     0.102 C 
ATOM      8  O   UNL     1      48.523  13.866  19.185  1.00  0.00    -0.544 OA
ATOM      9  O   UNL     1      50.032  12.438  18.220  1.00  0.00    -0.544 OA
ENDBRANCH   2   7
ENDBRANCH   1   2
BRANCH   1  10
ATOM     10  O   UNL     1      48.161  13.740  16.078  1.00  0.00    -0.390 OA
ATOM     11  H   UNL     1      47.353  14.271  16.299  1.00  0.00     0.210 HD
ENDBRANCH   1  10
TORSDOF 4
ENDMDL
MODEL 2
REMARK VINA RESULT:    -3.267      1.871      2.763
REMARK INTER + INTRA:          -4.227
REMARK INTER:                  -4.027
REMARK INTRA:                  -0.199
REMARK UNBOUND:                -0.386
REMARK SMILES [NH3+][C@H](CO)C(=O)[O-]
REMARK SMILES IDX 3 1 2 2 1 3 5 7 6 8 7 9 4 10
REMARK H PARENT 1 4 1 5 1 6 4 11
REMARK Flexibility Score: inf
ROOT
ATOM      1  C   UNL     1      50.005  15.342  18.894  1.00  0.00     0.227 C 
ENDROOT
BRANCH   1   2
ATOM      2  C   UNL     1      49.623  13.978  18.299  1.00  0.00     0.253 C 
BRANCH   2   3
ATOM      3  N   UNL     1      48.299  13.560  18.772  1.00  0.00    -0.348 N 
ATOM      4  H   UNL     1      47.624  14.358  18.738  1.00  0.00     0.345 HD
ATOM      5  H   UNL     1      48.369  13.213  19.757  1.00  0.00     0.345 HD
ATOM      6  H   UNL     1      47.940  12.779  18.175  1.00  0.00     0.345 HD
ENDBRANCH   2   3
BRANCH   2   7
ATOM      7  C   UNL     1      49.644  14.034  16.794  1.00  0.00     0.102 C 
ATOM      8  O   UNL     1      49.533  15.140  16.200  1.00  0.00    -0.544 OA
ATOM      9  O   UNL     1      49.774  12.868  16.050  1.00  0.00    -0.544 OA
ENDBRANCH   2   7
ENDBRANCH   1   2
BRANCH   1  10
ATOM     10  O   UNL     1      48.858  16.125  19.077  1.00  0.00    -0.390 OA
ATOM     11  H   UNL     1      48.758  16.244  20.058  1.00  0.00     0.210 HD
ENDBRANCH   1  10
TORSDOF 4
ENDMDL
MODEL 3
REMARK VINA RESULT:    -3.246      2.033      2.950
REMARK INTER + INTRA:          -4.201
REMARK INTER:                  -3.971
REMARK INTRA:                  -0.230
REMARK UNBOUND:                -0.386
REMARK SMILES [NH3+][C@H](CO)C(=O)[O-]
REMARK SMILES IDX 3 1 2 2 1 3 5 7 6 8 7 9 4 10
REMARK H PARENT 1 4 1 5 1 6 4 11
REMARK Flexibility Score: inf
ROOT
ATOM      1  C   UNL     1      49.201  13.137  18.279  1.00  0.00     0.227 C 
ENDROOT
BRANCH   1   2
ATOM      2  C   UNL     1      49.375  13.706  16.862  1.00  0.00     0.253 C 
BRANCH   2   3
ATOM      3  N   UNL     1      48.137  13.557  16.090  1.00  0.00    -0.348 N 
ATOM      4  H   UNL     1      47.754  12.589  16.186  1.00  0.00     0.345 HD
ATOM      5  H   UNL     1      48.325  13.752  15.080  1.00  0.00     0.345 HD
ATOM      6  H   UNL     1      47.424  14.244  16.428  1.00  0.00     0.345 HD
ENDBRANCH   2   3
BRANCH   2   7
ATOM      7  C   UNL     1      49.782  15.155  16.921  1.00  0.00     0.102 C 
ATOM      8  O   UNL     1      49.846  15.837  15.864  1.00  0.00    -0.544 OA
ATOM      9  O   UNL     1      50.100  15.745  18.138  1.00  0.00    -0.544 OA
ENDBRANCH   2   7
ENDBRANCH   1   2
BRANCH   1  10
ATOM     10  O   UNL     1      48.098  13.734  18.905  1.00  0.00    -0.390 OA
ATOM     11  H   UNL     1      47.293  13.362  18.458  1.00  0.00     0.210 HD
ENDBRANCH   1  10
TORSDOF 4
ENDMDL
MODEL 4
REMARK VINA RESULT:    -3.244      1.927      2.894
REMARK INTER + INTRA:          -4.199
REMARK INTER:                  -3.790
REMARK INTRA:                  -0.409
REMARK UNBOUND:                -0.386
REMARK SMILES [NH3+][C@H](CO)C(=O)[O-]
REMARK SMILES IDX 3 1 2 2 1 3 5 7 6 8 7 9 4 10
REMARK H PARENT 1 4 1 5 1 6 4 11
REMARK Flexibility Score: inf
ROOT
ATOM      1  C   UNL     1      49.355  12.176  18.611  1.00  0.00     0.227 C 
ENDROOT
BRANCH   1   2
ATOM      2  C   UNL     1      48.680  13.538  18.386  1.00  0.00     0.253 C 
BRANCH   2   3
ATOM      3  N   UNL     1      47.911  13.936  19.570  1.00  0.00    -0.348 N 
ATOM      4  H   UNL     1      48.393  13.628  20.446  1.00  0.00     0.345 HD
ATOM      5  H   UNL     1      46.958  13.505  19.535  1.00  0.00     0.345 HD
ATOM      6  H   UNL     1      47.799  14.977  19.586  1.00  0.00     0.345 HD
ENDBRANCH   2   3
BRANCH   2   7
ATOM      7  C   UNL     1      49.707  14.588  18.053  1.00  0.00     0.102 C 
ATOM      8  O   UNL     1      49.982  14.845  16.851  1.00  0.00    -0.544 OA
ATOM      9  O   UNL     1      50.364  15.272  19.069  1.00  0.00    -0.544 OA
ENDBRANCH   2   7
ENDBRANCH   1   2
BRANCH   1  10
ATOM     10  O   UNL     1      50.731  12.275  18.361  1.00  0.00    -0.390 OA
ATOM     11  H   UNL     1      50.832  12.957  17.647  1.00  0.00     0.210 HD
ENDBRANCH   1  10
TORSDOF 4
ENDMDL
MODEL 5
REMARK VINA RESULT:    -3.206     17.138     18.000
REMARK INTER + INTRA:          -4.154
REMARK INTER:                  -3.784
REMARK INTRA:                  -0.370
REMARK UNBOUND:                -0.386
REMARK SMILES [NH3+][C@H](CO)C(=O)[O-]
REMARK SMILES IDX 3 1 2 2 1 3 5 7 6 8 7 9 4 10
REMARK H PARENT 1 4 1 5 1 6 4 11
REMARK Flexibility Score: inf
ROOT
ATOM      1  C   UNL     1      54.575  -3.877  18.377  1.00  0.00     0.227 C 
ENDROOT
BRANCH   1   2
ATOM      2  C   UNL     1      54.411  -2.520  19.080  1.00  0.00     0.253 C 
BRANCH   2   3
ATOM      3  N   UNL     1      53.921  -2.704  20.450  1.00  0.00    -0.348 N 
ATOM      4  H   UNL     1      53.049  -2.149  20.610  1.00  0.00     0.345 HD
ATOM      5  H   UNL     1      54.652  -2.395  21.131  1.00  0.00     0.345 HD
ATOM      6  H   UNL     1      53.720  -3.717  20.622  1.00  0.00     0.345 HD
ENDBRANCH   2   3
BRANCH   2   7
ATOM      7  C   UNL     1      55.716  -1.769  19.090  1.00  0.00     0.102 C 
ATOM      8  O   UNL     1      55.890  -0.793  18.312  1.00  0.00    -0.544 OA
ATOM      9  O   UNL     1      56.740  -2.153  19.948  1.00  0.00    -0.544 OA
ENDBRANCH   2   7
ENDBRANCH   1   2
BRANCH   1  10
ATOM     10  O   UNL     1      55.874  -3.998  17.865  1.00  0.00    -0.390 OA
ATOM     11  H   UNL     1      55.775  -4.113  16.884  1.00  0.00     0.210 HD
ENDBRANCH   1  10
TORSDOF 4
ENDMDL
MODEL 6
REMARK VINA RESULT:    -3.171     16.668     17.456
REMARK INTER + INTRA:          -4.114
REMARK INTER:                  -3.866
REMARK INTRA:                  -0.248
REMARK UNBOUND:                -0.386
REMARK SMILES [NH3+][C@H](CO)C(=O)[O-]
REMARK SMILES IDX 3 1 2 2 1 3 5 7 6 8 7 9 4 10
REMARK H PARENT 1 4 1 5 1 6 4 11
REMARK Flexibility Score: inf
ROOT
ATOM      1  C   UNL     1      55.489  -0.609  18.782  1.00  0.00     0.227 C 
ENDROOT
BRANCH   1   2
ATOM      2  C   UNL     1      55.830  -2.097  18.955  1.00  0.00     0.253 C 
BRANCH   2   3
ATOM      3  N   UNL     1      56.688  -2.298  20.127  1.00  0.00    -0.348 N 
ATOM      4  H   UNL     1      56.135  -2.672  20.932  1.00  0.00     0.345 HD
ATOM      5  H   UNL     1      57.125  -1.389  20.406  1.00  0.00     0.345 HD
ATOM      6  H   UNL     1      57.455  -2.972  19.894  1.00  0.00     0.345 HD
ENDBRANCH   2   3
BRANCH   2   7
ATOM      7  C   UNL     1      54.572  -2.916  19.084  1.00  0.00     0.102 C 
ATOM      8  O   UNL     1      53.817  -2.762  20.081  1.00  0.00    -0.544 OA
ATOM      9  O   UNL     1      54.241  -3.852  18.111  1.00  0.00    -0.544 OA
ENDBRANCH   2   7
ENDBRANCH   1   2
BRANCH   1  10
ATOM     10  O   UNL     1      54.123  -0.458  18.506  1.00  0.00    -0.390 OA
ATOM     11  H   UNL     1      53.988   0.504  18.300  1.00  0.00     0.210 HD
ENDBRANCH   1  10
TORSDOF 4
ENDMDL
MODEL 7
REMARK VINA RESULT:    -3.070      1.993      2.232
REMARK INTER + INTRA:          -3.995
REMARK INTER:                  -3.972
REMARK INTRA:                  -0.022
REMARK UNBOUND:                -0.386
REMARK SMILES [NH3+][C@H](CO)C(=O)[O-]
REMARK SMILES IDX 3 1 2 2 1 3 5 7 6 8 7 9 4 10
REMARK H PARENT 1 4 1 5 1 6 4 11
REMARK Flexibility Score: inf
ROOT
ATOM      1  C   UNL     1      49.334  13.779  16.545  1.00  0.00     0.227 C 
ENDROOT
BRANCH   1   2
ATOM      2  C   UNL     1      49.332  13.299  18.005  1.00  0.00     0.253 C 
BRANCH   2   3
ATOM      3  N   UNL     1      50.515  12.476  18.280  1.00  0.00    -0.348 N 
ATOM      4  H   UNL     1      50.236  11.531  18.630  1.00  0.00     0.345 HD
ATOM      5  H   UNL     1      51.111  12.944  19.001  1.00  0.00     0.345 HD
ATOM      6  H   UNL     1      51.082  12.367  17.407  1.00  0.00     0.345 HD
ENDBRANCH   2   3
BRANCH   2   7
ATOM      7  C   UNL     1      49.283  14.473  18.947  1.00  0.00     0.102 C 
ATOM      8  O   UNL     1      50.180  15.357  18.903  1.00  0.00    -0.544 OA
ATOM      9  O   UNL     1      48.257  14.584  19.878  1.00  0.00    -0.544 OA
ENDBRANCH   2   7
ENDBRANCH   1   2
BRANCH   1  10
ATOM     10  O   UNL     1      48.040  13.703  16.013  1.00  0.00    -0.390 OA
ATOM     11  H   UNL     1      48.106  14.036  15.080  1.00  0.00     0.210 HD
ENDBRANCH   1  10
TORSDOF 4
ENDMDL
MODEL 8
REMARK VINA RESULT:    -2.989     17.090     17.484
REMARK INTER + INTRA:          -3.899
REMARK INTER:                  -3.546
REMARK INTRA:                  -0.353
REMARK UNBOUND:                -0.386
REMARK SMILES [NH3+][C@H](CO)C(=O)[O-]
REMARK SMILES IDX 3 1 2 2 1 3 5 7 6 8 7 9 4 10
REMARK H PARENT 1 4 1 5 1 6 4 11
REMARK Flexibility Score: inf
ROOT
ATOM      1  C   UNL     1      55.136  -1.952  19.130  1.00  0.00     0.227 C 
ENDROOT
BRANCH   1   2
ATOM      2  C   UNL     1      56.646  -1.986  19.412  1.00  0.00     0.253 C 
BRANCH   2   3
ATOM      3  N   UNL     1      57.215  -3.282  19.025  1.00  0.00    -0.348 N 
ATOM      4  H   UNL     1      57.741  -3.202  18.125  1.00  0.00     0.345 HD
ATOM      5  H   UNL     1      56.449  -3.985  18.912  1.00  0.00     0.345 HD
ATOM      6  H   UNL     1      57.863  -3.622  19.773  1.00  0.00     0.345 HD
ENDBRANCH   2   3
BRANCH   2   7
ATOM      7  C   UNL     1      57.346  -0.871  18.681  1.00  0.00     0.102 C 
ATOM      8  O   UNL     1      57.980  -1.110  17.619  1.00  0.00    -0.544 OA
ATOM      9  O   UNL     1      57.306   0.427  19.178  1.00  0.00    -0.544 OA
ENDBRANCH   2   7
ENDBRANCH   1   2
BRANCH   1  10
ATOM     10  O   UNL     1      54.814  -0.815  18.376  1.00  0.00    -0.390 OA
ATOM     11  H   UNL     1      54.593  -0.103  19.031  1.00  0.00     0.210 HD
ENDBRANCH   1  10
TORSDOF 4
ENDMDL
MODEL 9
REMARK VINA RESULT:    -2.695     17.783     18.377
REMARK INTER + INTRA:          -3.554
REMARK INTER:                  -3.318
REMARK INTRA:                  -0.236
REMARK UNBOUND:                -0.386
REMARK SMILES [NH3+][C@H](CO)C(=O)[O-]
REMARK SMILES IDX 3 1 2 2 1 3 5 7 6 8 7 9 4 10
REMARK H PARENT 1 4 1 5 1 6 4 11
REMARK Flexibility Score: inf
ROOT
ATOM      1  C   UNL     1      57.018  -1.713  19.258  1.00  0.00     0.227 C 
ENDROOT
BRANCH   1   2
ATOM      2  C   UNL     1      56.319  -2.815  18.448  1.00  0.00     0.253 C 
BRANCH   2   3
ATOM      3  N   UNL     1      56.913  -4.125  18.737  1.00  0.00    -0.348 N 
ATOM      4  H   UNL     1      57.590  -4.058  19.532  1.00  0.00     0.345 HD
ATOM      5  H   UNL     1      57.415  -4.481  17.891  1.00  0.00     0.345 HD
ATOM      6  H   UNL     1      56.160  -4.809  18.983  1.00  0.00     0.345 HD
ENDBRANCH   2   3
BRANCH   2   7
ATOM      7  C   UNL     1      54.843  -2.835  18.746  1.00  0.00     0.102 C 
ATOM      8  O   UNL     1      54.259  -1.784  19.119  1.00  0.00    -0.544 OA
ATOM      9  O   UNL     1      54.118  -4.015  18.622  1.00  0.00    -0.544 OA
ENDBRANCH   2   7
ENDBRANCH   1   2
BRANCH   1  10
ATOM     10  O   UNL     1      56.749  -1.877  20.624  1.00  0.00    -0.390 OA
ATOM     11  H   UNL     1      56.711  -0.963  21.010  1.00  0.00     0.210 HD
ENDBRANCH   1  10
TORSDOF 4
ENDMDL
