MODEL 1
REMARK VINA RESULT:    28.047      0.000      0.000
REMARK INTER + INTRA:          32.050
REMARK INTER:                  32.146
REMARK INTRA:                  -0.096
REMARK UNBOUND:                -0.096
REMARK SMILES CC1(C)CC[C@]23CO[C@@]4(C=C[C@@H]5[C@]6(C)CC[C@@H](O)[C@@](C)(CO)[C@@H]6CC[C@]5(C)[C@]4(C)C[C@@H]2O)[C@H]3C1
REMARK SMILES IDX 1 1 2 2 4 3 5 4 6 5 7 6 8 7 9 8 33 9 34 10 10 11 11 12 12 13
REMARK SMILES IDX 13 14 15 15 16 16 17 17 19 18 23 19 24 20 25 21 26 22 28 23
REMARK SMILES IDX 30 24 31 25 29 26 27 27 20 28 14 29 3 30 32 31 21 33 22 34
REMARK SMILES IDX 18 36
REMARK H PARENT 32 32 22 35 18 37
REMARK Flexibility Score: inf
ROOT
ATOM      1  C   UNL     1      38.671 148.119 118.084  1.00  0.00     0.011 C 
ATOM      2  C   UNL     1      37.655 149.281 118.033  1.00  0.00    -0.035 C 
ATOM      3  C   UNL     1      38.427 150.600 117.809  1.00  0.00     0.007 C 
ATOM      4  C   UNL     1      37.498 151.800 117.585  1.00  0.00     0.013 C 
ATOM      5  C   UNL     1      36.399 151.576 116.509  1.00  0.00     0.026 C 
ATOM      6  C   UNL     1      36.946 151.500 115.076  1.00  0.00     0.171 C 
ATOM      7  O   UNL     1      36.072 150.687 114.317  1.00  0.00    -0.369 OA
ATOM      8  C   UNL     1      35.045 150.222 115.176  1.00  0.00     0.096 C 
ATOM      9  C   UNL     1      35.699 150.225 116.596  1.00  0.00     0.037 C 
ATOM     10  C   UNL     1      36.690 149.047 116.847  1.00  0.00     0.014 C 
ATOM     11  C   UNL     1      34.640 148.840 114.721  1.00  0.00     0.005 C 
ATOM     12  C   UNL     1      33.622 148.594 113.890  1.00  0.00    -0.024 C 
ATOM     13  C   UNL     1      32.652 149.623 113.319  1.00  0.00     0.024 C 
ATOM     14  C   UNL     1      32.210 149.306 111.804  1.00  0.00    -0.022 C 
ATOM     15  C   UNL     1      32.086 147.761 111.525  1.00  0.00     0.010 C 
ATOM     16  C   UNL     1      33.365 147.065 111.048  1.00  0.00     0.033 C 
ATOM     17  C   UNL     1      33.923 147.736 109.801  1.00  0.00     0.123 C 
ATOM     18  C   UNL     1      34.340 149.216 110.082  1.00  0.00     0.020 C 
ATOM     19  C   UNL     1      33.106 150.014 110.700  1.00  0.00     0.006 C 
ATOM     20  C   UNL     1      33.402 151.489 111.072  1.00  0.00     0.005 C 
ATOM     21  C   UNL     1      33.927 151.710 112.499  1.00  0.00     0.008 C 
ATOM     22  C   UNL     1      33.043 151.132 113.656  1.00  0.00    -0.017 C 
ATOM     23  C   UNL     1      33.779 151.198 115.112  1.00  0.00     0.009 C 
ATOM     24  C   UNL     1      34.268 152.651 115.478  1.00  0.00     0.043 C 
ATOM     25  C   UNL     1      35.307 152.694 116.632  1.00  0.00     0.124 C 
ATOM     26  C   UNL     1      32.739 150.773 116.216  1.00  0.00     0.015 C 
ATOM     27  C   UNL     1      31.747 152.025 113.709  1.00  0.00     0.013 C 
ATOM     28  C   UNL     1      35.592 149.236 110.994  1.00  0.00     0.017 C 
ATOM     29  C   UNL     1      30.741 149.820 111.620  1.00  0.00     0.012 C 
ATOM     30  C   UNL     1      36.889 149.304 119.377  1.00  0.00     0.011 C 
ENDROOT
BRANCH  25  31
ATOM     31  O   UNL     1      35.875 153.979 116.736  1.00  0.00    -0.392 OA
ATOM     32  H   UNL     1      36.761 153.967 116.295  1.00  0.00     0.210 HD
ENDBRANCH  25  31
BRANCH  18  33
ATOM     33  C   UNL     1      34.770 149.854 108.716  1.00  0.00     0.165 C 
BRANCH  33  34
ATOM     34  O   UNL     1      36.149 149.700 108.502  1.00  0.00    -0.396 OA
ATOM     35  H   UNL     1      36.526 149.346 109.349  1.00  0.00     0.210 HD
ENDBRANCH  33  34
ENDBRANCH  18  33
BRANCH  17  36
ATOM     36  O   UNL     1      32.957 147.672 108.776  1.00  0.00    -0.392 OA
ATOM     37  H   UNL     1      32.064 147.740 109.201  1.00  0.00     0.210 HD
ENDBRANCH  17  36
TORSDOF 4
ENDMDL
MODEL 2
REMARK VINA RESULT:    30.356      2.645      8.228
REMARK INTER + INTRA:          34.697
REMARK INTER:                  34.795
REMARK INTRA:                  -0.098
REMARK UNBOUND:                -0.096
REMARK SMILES CC1(C)CC[C@]23CO[C@@]4(C=C[C@@H]5[C@]6(C)CC[C@@H](O)[C@@](C)(CO)[C@@H]6CC[C@]5(C)[C@]4(C)C[C@@H]2O)[C@H]3C1
REMARK SMILES IDX 1 1 2 2 4 3 5 4 6 5 7 6 8 7 9 8 33 9 34 10 10 11 11 12 12 13
REMARK SMILES IDX 13 14 15 15 16 16 17 17 19 18 23 19 24 20 25 21 26 22 28 23
REMARK SMILES IDX 30 24 31 25 29 26 27 27 20 28 14 29 3 30 32 31 21 33 22 34
REMARK SMILES IDX 18 36
REMARK H PARENT 32 32 22 35 18 37
REMARK Flexibility Score: inf
ROOT
ATOM      1  C   UNL     1      34.702 145.370 105.715  1.00  0.00     0.011 C 
ATOM      2  C   UNL     1      33.516 146.317 105.994  1.00  0.00    -0.035 C 
ATOM      3  C   UNL     1      32.251 145.465 106.237  1.00  0.00     0.007 C 
ATOM      4  C   UNL     1      31.046 146.303 106.680  1.00  0.00     0.013 C 
ATOM      5  C   UNL     1      31.332 147.274 107.860  1.00  0.00     0.026 C 
ATOM      6  C   UNL     1      31.561 146.562 109.202  1.00  0.00     0.171 C 
ATOM      7  O   UNL     1      32.411 147.376 109.988  1.00  0.00    -0.369 OA
ATOM      8  C   UNL     1      32.757 148.519 109.225  1.00  0.00     0.096 C 
ATOM      9  C   UNL     1      32.644 148.041 107.741  1.00  0.00     0.037 C 
ATOM     10  C   UNL     1      33.826 147.143 107.266  1.00  0.00     0.014 C 
ATOM     11  C   UNL     1      34.160 148.929 109.602  1.00  0.00     0.005 C 
ATOM     12  C   UNL     1      34.448 149.850 110.528  1.00  0.00    -0.024 C 
ATOM     13  C   UNL     1      33.444 150.696 111.304  1.00  0.00     0.024 C 
ATOM     14  C   UNL     1      33.887 150.967 112.828  1.00  0.00    -0.022 C 
ATOM     15  C   UNL     1      35.445 151.127 112.982  1.00  0.00     0.010 C 
ATOM     16  C   UNL     1      36.228 149.834 113.233  1.00  0.00     0.033 C 
ATOM     17  C   UNL     1      35.696 149.099 114.456  1.00  0.00     0.123 C 
ATOM     18  C   UNL     1      34.212 148.651 114.258  1.00  0.00     0.020 C 
ATOM     19  C   UNL     1      33.316 149.913 113.871  1.00  0.00     0.006 C 
ATOM     20  C   UNL     1      31.824 149.596 113.598  1.00  0.00     0.005 C 
ATOM     21  C   UNL     1      31.489 149.237 112.142  1.00  0.00     0.008 C 
ATOM     22  C   UNL     1      31.924 150.279 111.056  1.00  0.00    -0.017 C 
ATOM     23  C   UNL     1      31.748 149.721 109.532  1.00  0.00     0.009 C 
ATOM     24  C   UNL     1      30.285 149.213 109.240  1.00  0.00     0.043 C 
ATOM     25  C   UNL     1      30.170 148.320 107.973  1.00  0.00     0.124 C 
ATOM     26  C   UNL     1      32.031 150.906 108.532  1.00  0.00     0.015 C 
ATOM     27  C   UNL     1      30.986 151.530 111.244  1.00  0.00     0.013 C 
ATOM     28  C   UNL     1      34.149 147.519 113.202  1.00  0.00     0.017 C 
ATOM     29  C   UNL     1      33.341 152.378 113.237  1.00  0.00     0.012 C 
ATOM     30  C   UNL     1      33.340 147.238 104.763  1.00  0.00     0.011 C 
ENDROOT
BRANCH  25  31
ATOM     31  O   UNL     1      28.901 147.711 107.914  1.00  0.00    -0.392 OA
ATOM     32  H   UNL     1      28.362 148.176 107.226  1.00  0.00     0.210 HD
ENDBRANCH  25  31
BRANCH  18  33
ATOM     33  C   UNL     1      33.720 148.031 115.611  1.00  0.00     0.165 C 
BRANCH  33  34
ATOM     34  O   UNL     1      34.087 146.679 115.706  1.00  0.00    -0.396 OA
ATOM     35  H   UNL     1      33.651 146.329 116.526  1.00  0.00     0.210 HD
ENDBRANCH  33  34
ENDBRANCH  18  33
BRANCH  17  36
ATOM     36  O   UNL     1      35.823 149.937 115.583  1.00  0.00    -0.392 OA
ATOM     37  H   UNL     1      35.331 149.510 116.331  1.00  0.00     0.210 HD
ENDBRANCH  17  36
TORSDOF 4
ENDMDL
