MODEL 1
REMARK VINA RESULT:    -4.248      0.000      0.000
REMARK INTER + INTRA:         -10.892
REMARK INTER:                  -8.221
REMARK INTRA:                  -2.671
REMARK UNBOUND:                -2.671
REMARK SMILES CCCCCCCCCCCCCCCCCC(=O)[O-]
REMARK SMILES IDX 10 1 11 2 12 3 13 4 14 5 15 6 16 7 17 8 18 9 19 10 20 11
REMARK SMILES IDX 9 12 8 13 7 14 6 15 5 16 4 17 3 18 2 19 1 20
REMARK H PARENT
REMARK Flexibility Score: inf
ROOT
ATOM      1  C   UNL     1      14.268  61.697  30.642  1.00  0.00     0.000 C 
ENDROOT
BRANCH   1   2
ATOM      2  C   UNL     1      15.466  62.183  31.476  1.00  0.00     0.000 C 
BRANCH   2   3
ATOM      3  C   UNL     1      15.988  63.555  31.019  1.00  0.00     0.000 C 
BRANCH   3   4
ATOM      4  C   UNL     1      16.315  64.489  32.194  1.00  0.00     0.000 C 
BRANCH   4   5
ATOM      5  C   UNL     1      15.246  64.388  33.289  1.00  0.00     0.000 C 
BRANCH   5   6
ATOM      6  C   UNL     1      14.372  65.650  33.322  1.00  0.00     0.000 C 
BRANCH   6   7
ATOM      7  C   UNL     1      15.046  66.854  32.642  1.00  0.00     0.006 C 
BRANCH   7   8
ATOM      8  C   UNL     1      15.478  67.933  33.643  1.00  0.00     0.053 C 
BRANCH   8   9
ATOM      9  C   UNL     1      16.013  69.129  32.922  1.00  0.00     0.041 C 
ATOM     10  O   UNL     1      15.535  69.464  31.806  1.00  0.00    -0.550 OA
ATOM     11  O   UNL     1      17.071  69.851  33.462  1.00  0.00    -0.550 OA
ENDBRANCH   8   9
ENDBRANCH   7   8
ENDBRANCH   6   7
ENDBRANCH   5   6
ENDBRANCH   4   5
ENDBRANCH   3   4
ENDBRANCH   2   3
ENDBRANCH   1   2
BRANCH   1  12
ATOM     12  C   UNL     1      13.338  62.848  30.222  1.00  0.00     0.000 C 
BRANCH  12  13
ATOM     13  C   UNL     1      11.924  62.706  30.812  1.00  0.00    -0.000 C 
BRANCH  13  14
ATOM     14  C   UNL     1      11.729  63.534  32.091  1.00  0.00    -0.000 C 
BRANCH  14  15
ATOM     15  C   UNL     1      11.779  62.678  33.367  1.00  0.00    -0.000 C 
BRANCH  15  16
ATOM     16  C   UNL     1      11.515  61.202  33.049  1.00  0.00    -0.000 C 
BRANCH  16  17
ATOM     17  C   UNL     1      12.626  60.307  33.617  1.00  0.00    -0.000 C 
BRANCH  17  18
ATOM     18  C   UNL     1      13.683  61.112  34.401  1.00  0.00    -0.000 C 
BRANCH  18  19
ATOM     19  C   UNL     1      14.863  60.260  34.897  1.00  0.00    -0.003 C 
ATOM     20  C   UNL     1      15.330  59.230  33.871  1.00  0.00     0.004 C 
ENDBRANCH  18  19
ENDBRANCH  17  18
ENDBRANCH  16  17
ENDBRANCH  15  16
ENDBRANCH  14  15
ENDBRANCH  13  14
ENDBRANCH  12  13
ENDBRANCH   1  12
TORSDOF 16
ENDMDL
MODEL 2
REMARK VINA RESULT:    -4.180      5.205      8.480
REMARK INTER + INTRA:         -10.760
REMARK INTER:                  -8.778
REMARK INTRA:                  -1.982
REMARK UNBOUND:                -2.671
REMARK SMILES CCCCCCCCCCCCCCCCCC(=O)[O-]
REMARK SMILES IDX 10 1 11 2 12 3 13 4 14 5 15 6 16 7 17 8 18 9 19 10 20 11
REMARK SMILES IDX 9 12 8 13 7 14 6 15 5 16 4 17 3 18 2 19 1 20
REMARK H PARENT
REMARK Flexibility Score: inf
ROOT
ATOM      1  C   UNL     1      11.668  58.527  32.867  1.00  0.00     0.000 C 
ENDROOT
BRANCH   1   2
ATOM      2  C   UNL     1      10.140  58.689  32.933  1.00  0.00     0.000 C 
BRANCH   2   3
ATOM      3  C   UNL     1       9.460  57.572  33.741  1.00  0.00     0.000 C 
BRANCH   3   4
ATOM      4  C   UNL     1       8.149  58.027  34.399  1.00  0.00     0.000 C 
BRANCH   4   5
ATOM      5  C   UNL     1       6.981  57.947  33.407  1.00  0.00     0.000 C 
BRANCH   5   6
ATOM      6  C   UNL     1       6.268  59.302  33.288  1.00  0.00     0.000 C 
BRANCH   6   7
ATOM      7  C   UNL     1       5.939  59.671  31.832  1.00  0.00     0.006 C 
BRANCH   7   8
ATOM      8  C   UNL     1       6.531  58.680  30.823  1.00  0.00     0.053 C 
BRANCH   8   9
ATOM      9  C   UNL     1       7.482  59.377  29.903  1.00  0.00     0.041 C 
ATOM     10  O   UNL     1       7.357  59.261  28.654  1.00  0.00    -0.550 OA
ATOM     11  O   UNL     1       8.535  60.119  30.423  1.00  0.00    -0.550 OA
ENDBRANCH   8   9
ENDBRANCH   7   8
ENDBRANCH   6   7
ENDBRANCH   5   6
ENDBRANCH   4   5
ENDBRANCH   3   4
ENDBRANCH   2   3
ENDBRANCH   1   2
BRANCH   1  12
ATOM     12  C   UNL     1      12.382  59.833  32.480  1.00  0.00     0.000 C 
BRANCH  12  13
ATOM     13  C   UNL     1      12.872  60.622  33.706  1.00  0.00    -0.000 C 
BRANCH  13  14
ATOM     14  C   UNL     1      12.103  61.937  33.911  1.00  0.00    -0.000 C 
BRANCH  14  15
ATOM     15  C   UNL     1      11.176  62.273  32.732  1.00  0.00    -0.000 C 
BRANCH  15  16
ATOM     16  C   UNL     1      11.754  63.414  31.886  1.00  0.00    -0.000 C 
BRANCH  16  17
ATOM     17  C   UNL     1      11.997  62.959  30.439  1.00  0.00    -0.000 C 
BRANCH  17  18
ATOM     18  C   UNL     1      13.433  62.439  30.223  1.00  0.00    -0.000 C 
BRANCH  18  19
ATOM     19  C   UNL     1      14.480  63.137  31.108  1.00  0.00    -0.003 C 
ATOM     20  C   UNL     1      15.554  62.185  31.629  1.00  0.00     0.004 C 
ENDBRANCH  18  19
ENDBRANCH  17  18
ENDBRANCH  16  17
ENDBRANCH  15  16
ENDBRANCH  14  15
ENDBRANCH  13  14
ENDBRANCH  12  13
ENDBRANCH   1  12
TORSDOF 16
ENDMDL
MODEL 3
REMARK VINA RESULT:    -4.137      1.602      3.149
REMARK INTER + INTRA:         -10.678
REMARK INTER:                  -8.968
REMARK INTRA:                  -1.710
REMARK UNBOUND:                -2.671
REMARK SMILES CCCCCCCCCCCCCCCCCC(=O)[O-]
REMARK SMILES IDX 10 1 11 2 12 3 13 4 14 5 15 6 16 7 17 8 18 9 19 10 20 11
REMARK SMILES IDX 9 12 8 13 7 14 6 15 5 16 4 17 3 18 2 19 1 20
REMARK H PARENT
REMARK Flexibility Score: inf
ROOT
ATOM      1  C   UNL     1      15.329  63.052  33.291  1.00  0.00     0.000 C 
ENDROOT
BRANCH   1   2
ATOM      2  C   UNL     1      16.035  64.002  32.308  1.00  0.00     0.000 C 
BRANCH   2   3
ATOM      3  C   UNL     1      15.271  65.322  32.110  1.00  0.00     0.000 C 
BRANCH   3   4
ATOM      4  C   UNL     1      14.821  65.954  33.436  1.00  0.00     0.000 C 
BRANCH   4   5
ATOM      5  C   UNL     1      15.620  67.230  33.733  1.00  0.00     0.000 C 
BRANCH   5   6
ATOM      6  C   UNL     1      15.188  68.377  32.808  1.00  0.00     0.000 C 
BRANCH   6   7
ATOM      7  C   UNL     1      16.242  69.492  32.716  1.00  0.00     0.006 C 
BRANCH   7   8
ATOM      8  C   UNL     1      17.492  69.195  33.553  1.00  0.00     0.053 C 
BRANCH   8   9
ATOM      9  C   UNL     1      17.656  70.222  34.629  1.00  0.00     0.041 C 
ATOM     10  O   UNL     1      18.095  69.889  35.762  1.00  0.00    -0.550 OA
ATOM     11  O   UNL     1      17.282  71.539  34.396  1.00  0.00    -0.550 OA
ENDBRANCH   8   9
ENDBRANCH   7   8
ENDBRANCH   6   7
ENDBRANCH   5   6
ENDBRANCH   4   5
ENDBRANCH   3   4
ENDBRANCH   2   3
ENDBRANCH   1   2
BRANCH   1  12
ATOM     12  C   UNL     1      14.875  61.744  32.622  1.00  0.00     0.000 C 
BRANCH  12  13
ATOM     13  C   UNL     1      15.091  61.757  31.099  1.00  0.00    -0.000 C 
BRANCH  13  14
ATOM     14  C   UNL     1      13.771  61.695  30.313  1.00  0.00    -0.000 C 
BRANCH  14  15
ATOM     15  C   UNL     1      12.915  62.960  30.488  1.00  0.00    -0.000 C 
BRANCH  15  16
ATOM     16  C   UNL     1      11.464  62.598  30.827  1.00  0.00    -0.000 C 
BRANCH  16  17
ATOM     17  C   UNL     1      11.212  62.685  32.340  1.00  0.00    -0.000 C 
BRANCH  17  18
ATOM     18  C   UNL     1      11.431  61.333  33.047  1.00  0.00    -0.000 C 
BRANCH  18  19
ATOM     19  C   UNL     1      10.894  60.129  32.254  1.00  0.00    -0.003 C 
ATOM     20  C   UNL     1      10.623  58.908  33.130  1.00  0.00     0.004 C 
ENDBRANCH  18  19
ENDBRANCH  17  18
ENDBRANCH  16  17
ENDBRANCH  15  16
ENDBRANCH  14  15
ENDBRANCH  13  14
ENDBRANCH  12  13
ENDBRANCH   1  12
TORSDOF 16
ENDMDL
MODEL 4
REMARK VINA RESULT:    -4.090      3.388      5.604
REMARK INTER + INTRA:         -10.587
REMARK INTER:                  -8.531
REMARK INTRA:                  -2.055
REMARK UNBOUND:                -2.671
REMARK SMILES CCCCCCCCCCCCCCCCCC(=O)[O-]
REMARK SMILES IDX 10 1 11 2 12 3 13 4 14 5 15 6 16 7 17 8 18 9 19 10 20 11
REMARK SMILES IDX 9 12 8 13 7 14 6 15 5 16 4 17 3 18 2 19 1 20
REMARK H PARENT
REMARK Flexibility Score: inf
ROOT
ATOM      1  C   UNL     1      16.817  66.055  36.752  1.00  0.00     0.000 C 
ENDROOT
BRANCH   1   2
ATOM      2  C   UNL     1      17.563  65.404  37.929  1.00  0.00     0.000 C 
BRANCH   2   3
ATOM      3  C   UNL     1      18.563  66.360  38.598  1.00  0.00     0.000 C 
BRANCH   3   4
ATOM      4  C   UNL     1      19.538  66.998  37.596  1.00  0.00     0.000 C 
BRANCH   4   5
ATOM      5  C   UNL     1      19.746  68.486  37.905  1.00  0.00     0.000 C 
BRANCH   5   6
ATOM      6  C   UNL     1      18.624  69.337  37.293  1.00  0.00     0.000 C 
BRANCH   6   7
ATOM      7  C   UNL     1      18.626  69.301  35.756  1.00  0.00     0.006 C 
BRANCH   7   8
ATOM      8  C   UNL     1      17.214  69.368  35.162  1.00  0.00     0.053 C 
BRANCH   8   9
ATOM      9  C   UNL     1      17.152  70.394  34.075  1.00  0.00     0.041 C 
ATOM     10  O   UNL     1      17.325  71.613  34.343  1.00  0.00    -0.550 OA
ATOM     11  O   UNL     1      16.860  70.011  32.772  1.00  0.00    -0.550 OA
ENDBRANCH   8   9
ENDBRANCH   7   8
ENDBRANCH   6   7
ENDBRANCH   5   6
ENDBRANCH   4   5
ENDBRANCH   3   4
ENDBRANCH   2   3
ENDBRANCH   1   2
BRANCH   1  12
ATOM     12  C   UNL     1      17.014  65.289  35.434  1.00  0.00     0.000 C 
BRANCH  12  13
ATOM     13  C   UNL     1      16.848  66.190  34.199  1.00  0.00    -0.000 C 
BRANCH  13  14
ATOM     14  C   UNL     1      15.379  66.536  33.909  1.00  0.00    -0.000 C 
BRANCH  14  15
ATOM     15  C   UNL     1      14.855  65.875  32.624  1.00  0.00    -0.000 C 
BRANCH  15  16
ATOM     16  C   UNL     1      13.861  64.754  32.948  1.00  0.00    -0.000 C 
BRANCH  16  17
ATOM     17  C   UNL     1      14.470  63.374  32.653  1.00  0.00    -0.000 C 
BRANCH  17  18
ATOM     18  C   UNL     1      15.107  63.304  31.250  1.00  0.00    -0.000 C 
BRANCH  18  19
ATOM     19  C   UNL     1      16.619  63.025  31.275  1.00  0.00    -0.003 C 
ATOM     20  C   UNL     1      17.161  62.784  32.682  1.00  0.00     0.004 C 
ENDBRANCH  18  19
ENDBRANCH  17  18
ENDBRANCH  16  17
ENDBRANCH  15  16
ENDBRANCH  14  15
ENDBRANCH  13  14
ENDBRANCH  12  13
ENDBRANCH   1  12
TORSDOF 16
ENDMDL
MODEL 5
REMARK VINA RESULT:    -4.084      4.162      7.616
REMARK INTER + INTRA:         -10.575
REMARK INTER:                  -9.391
REMARK INTRA:                  -1.184
REMARK UNBOUND:                -2.671
REMARK SMILES CCCCCCCCCCCCCCCCCC(=O)[O-]
REMARK SMILES IDX 10 1 11 2 12 3 13 4 14 5 15 6 16 7 17 8 18 9 19 10 20 11
REMARK SMILES IDX 9 12 8 13 7 14 6 15 5 16 4 17 3 18 2 19 1 20
REMARK H PARENT
REMARK Flexibility Score: inf
ROOT
ATOM      1  C   UNL     1      15.377  69.116  32.652  1.00  0.00     0.000 C 
ENDROOT
BRANCH   1   2
ATOM      2  C   UNL     1      15.383  67.695  33.242  1.00  0.00     0.000 C 
BRANCH   2   3
ATOM      3  C   UNL     1      14.817  66.648  32.269  1.00  0.00     0.000 C 
BRANCH   3   4
ATOM      4  C   UNL     1      15.223  65.212  32.639  1.00  0.00     0.000 C 
BRANCH   4   5
ATOM      5  C   UNL     1      14.066  64.235  32.393  1.00  0.00     0.000 C 
BRANCH   5   6
ATOM      6  C   UNL     1      14.563  62.958  31.701  1.00  0.00     0.000 C 
BRANCH   6   7
ATOM      7  C   UNL     1      13.631  62.497  30.568  1.00  0.00     0.006 C 
BRANCH   7   8
ATOM      8  C   UNL     1      12.194  63.001  30.744  1.00  0.00     0.053 C 
BRANCH   8   9
ATOM      9  C   UNL     1      11.398  62.037  31.565  1.00  0.00     0.041 C 
ATOM     10  O   UNL     1      10.794  62.431  32.598  1.00  0.00    -0.550 OA
ATOM     11  O   UNL     1      11.359  60.693  31.217  1.00  0.00    -0.550 OA
ENDBRANCH   8   9
ENDBRANCH   7   8
ENDBRANCH   6   7
ENDBRANCH   5   6
ENDBRANCH   4   5
ENDBRANCH   3   4
ENDBRANCH   2   3
ENDBRANCH   1   2
BRANCH   1  12
ATOM     12  C   UNL     1      16.747  69.806  32.766  1.00  0.00     0.000 C 
BRANCH  12  13
ATOM     13  C   UNL     1      17.690  69.083  33.743  1.00  0.00    -0.000 C 
BRANCH  13  14
ATOM     14  C   UNL     1      17.928  69.879  35.035  1.00  0.00    -0.000 C 
BRANCH  14  15
ATOM     15  C   UNL     1      18.234  68.977  36.242  1.00  0.00    -0.000 C 
BRANCH  15  16
ATOM     16  C   UNL     1      17.110  67.957  36.464  1.00  0.00    -0.000 C 
BRANCH  16  17
ATOM     17  C   UNL     1      17.679  66.551  36.705  1.00  0.00    -0.000 C 
BRANCH  17  18
ATOM     18  C   UNL     1      18.824  66.554  37.739  1.00  0.00    -0.000 C 
BRANCH  18  19
ATOM     19  C   UNL     1      18.338  66.641  39.195  1.00  0.00    -0.003 C 
ATOM     20  C   UNL     1      17.461  65.460  39.605  1.00  0.00     0.004 C 
ENDBRANCH  18  19
ENDBRANCH  17  18
ENDBRANCH  16  17
ENDBRANCH  15  16
ENDBRANCH  14  15
ENDBRANCH  13  14
ENDBRANCH  12  13
ENDBRANCH   1  12
TORSDOF 16
ENDMDL
MODEL 6
REMARK VINA RESULT:    -4.052      1.341      2.992
REMARK INTER + INTRA:         -10.512
REMARK INTER:                  -8.486
REMARK INTRA:                  -2.026
REMARK UNBOUND:                -2.671
REMARK SMILES CCCCCCCCCCCCCCCCCC(=O)[O-]
REMARK SMILES IDX 10 1 11 2 12 3 13 4 14 5 15 6 16 7 17 8 18 9 19 10 20 11
REMARK SMILES IDX 9 12 8 13 7 14 6 15 5 16 4 17 3 18 2 19 1 20
REMARK H PARENT
REMARK Flexibility Score: inf
ROOT
ATOM      1  C   UNL     1      15.480  61.835  33.104  1.00  0.00     0.000 C 
ENDROOT
BRANCH   1   2
ATOM      2  C   UNL     1      16.750  62.622  33.473  1.00  0.00     0.000 C 
BRANCH   2   3
ATOM      3  C   UNL     1      16.452  64.080  33.858  1.00  0.00     0.000 C 
BRANCH   3   4
ATOM      4  C   UNL     1      15.424  64.742  32.929  1.00  0.00     0.000 C 
BRANCH   4   5
ATOM      5  C   UNL     1      15.216  66.216  33.302  1.00  0.00     0.000 C 
BRANCH   5   6
ATOM      6  C   UNL     1      16.273  66.680  34.314  1.00  0.00     0.000 C 
BRANCH   6   7
ATOM      7  C   UNL     1      15.967  68.072  34.893  1.00  0.00     0.006 C 
BRANCH   7   8
ATOM      8  C   UNL     1      17.201  68.982  34.925  1.00  0.00     0.053 C 
BRANCH   8   9
ATOM      9  C   UNL     1      17.077  70.066  33.901  1.00  0.00     0.041 C 
ATOM     10  O   UNL     1      16.943  69.775  32.683  1.00  0.00    -0.550 OA
ATOM     11  O   UNL     1      17.154  71.399  34.286  1.00  0.00    -0.550 OA
ENDBRANCH   8   9
ENDBRANCH   7   8
ENDBRANCH   6   7
ENDBRANCH   5   6
ENDBRANCH   4   5
ENDBRANCH   3   4
ENDBRANCH   2   3
ENDBRANCH   1   2
BRANCH   1  12
ATOM     12  C   UNL     1      14.578  61.569  34.321  1.00  0.00     0.000 C 
BRANCH  12  13
ATOM     13  C   UNL     1      13.440  60.584  34.006  1.00  0.00    -0.000 C 
BRANCH  13  14
ATOM     14  C   UNL     1      12.105  61.291  33.722  1.00  0.00    -0.000 C 
BRANCH  14  15
ATOM     15  C   UNL     1      12.246  62.821  33.653  1.00  0.00    -0.000 C 
BRANCH  15  16
ATOM     16  C   UNL     1      11.627  63.371  32.363  1.00  0.00    -0.000 C 
BRANCH  16  17
ATOM     17  C   UNL     1      11.764  62.364  31.211  1.00  0.00    -0.000 C 
BRANCH  17  18
ATOM     18  C   UNL     1      13.023  62.620  30.357  1.00  0.00    -0.000 C 
BRANCH  18  19
ATOM     19  C   UNL     1      13.794  61.338  29.999  1.00  0.00    -0.003 C 
ATOM     20  C   UNL     1      13.041  60.063  30.372  1.00  0.00     0.004 C 
ENDBRANCH  18  19
ENDBRANCH  17  18
ENDBRANCH  16  17
ENDBRANCH  15  16
ENDBRANCH  14  15
ENDBRANCH  13  14
ENDBRANCH  12  13
ENDBRANCH   1  12
TORSDOF 16
ENDMDL
MODEL 7
REMARK VINA RESULT:    -3.984      3.239      5.508
REMARK INTER + INTRA:         -10.381
REMARK INTER:                  -8.124
REMARK INTRA:                  -2.257
REMARK UNBOUND:                -2.671
REMARK SMILES CCCCCCCCCCCCCCCCCC(=O)[O-]
REMARK SMILES IDX 10 1 11 2 12 3 13 4 14 5 15 6 16 7 17 8 18 9 19 10 20 11
REMARK SMILES IDX 9 12 8 13 7 14 6 15 5 16 4 17 3 18 2 19 1 20
REMARK H PARENT
REMARK Flexibility Score: inf
ROOT
ATOM      1  C   UNL     1      14.867  67.694  32.229  1.00  0.00     0.000 C 
ENDROOT
BRANCH   1   2
ATOM      2  C   UNL     1      15.583  69.053  32.305  1.00  0.00     0.000 C 
BRANCH   2   3
ATOM      3  C   UNL     1      15.945  69.453  33.744  1.00  0.00     0.000 C 
BRANCH   3   4
ATOM      4  C   UNL     1      17.439  69.765  33.917  1.00  0.00     0.000 C 
BRANCH   4   5
ATOM      5  C   UNL     1      17.932  69.336  35.305  1.00  0.00     0.000 C 
BRANCH   5   6
ATOM      6  C   UNL     1      16.996  68.287  35.921  1.00  0.00     0.000 C 
BRANCH   6   7
ATOM      7  C   UNL     1      17.756  67.086  36.507  1.00  0.00     0.006 C 
BRANCH   7   8
ATOM      8  C   UNL     1      18.678  67.480  37.667  1.00  0.00     0.053 C 
BRANCH   8   9
ATOM      9  C   UNL     1      17.884  67.694  38.917  1.00  0.00     0.041 C 
ATOM     10  O   UNL     1      17.384  66.712  39.526  1.00  0.00    -0.550 OA
ATOM     11  O   UNL     1      17.657  68.982  39.384  1.00  0.00    -0.550 OA
ENDBRANCH   8   9
ENDBRANCH   7   8
ENDBRANCH   6   7
ENDBRANCH   5   6
ENDBRANCH   4   5
ENDBRANCH   3   4
ENDBRANCH   2   3
ENDBRANCH   1   2
BRANCH   1  12
ATOM     12  C   UNL     1      15.584  66.605  33.046  1.00  0.00     0.000 C 
BRANCH  12  13
ATOM     13  C   UNL     1      14.602  65.622  33.706  1.00  0.00    -0.000 C 
BRANCH  13  14
ATOM     14  C   UNL     1      13.826  64.781  32.681  1.00  0.00    -0.000 C 
BRANCH  14  15
ATOM     15  C   UNL     1      14.421  63.376  32.491  1.00  0.00    -0.000 C 
BRANCH  15  16
ATOM     16  C   UNL     1      15.038  63.224  31.096  1.00  0.00    -0.000 C 
BRANCH  16  17
ATOM     17  C   UNL     1      16.555  63.463  31.134  1.00  0.00    -0.000 C 
BRANCH  17  18
ATOM     18  C   UNL     1      17.219  62.808  32.363  1.00  0.00    -0.000 C 
BRANCH  18  19
ATOM     19  C   UNL     1      18.178  63.746  33.116  1.00  0.00    -0.003 C 
ATOM     20  C   UNL     1      17.822  63.907  34.592  1.00  0.00     0.004 C 
ENDBRANCH  18  19
ENDBRANCH  17  18
ENDBRANCH  16  17
ENDBRANCH  15  16
ENDBRANCH  14  15
ENDBRANCH  13  14
ENDBRANCH  12  13
ENDBRANCH   1  12
TORSDOF 16
ENDMDL
MODEL 8
REMARK VINA RESULT:    -3.968      4.220      8.035
REMARK INTER + INTRA:         -10.351
REMARK INTER:                  -8.426
REMARK INTRA:                  -1.925
REMARK UNBOUND:                -2.671
REMARK SMILES CCCCCCCCCCCCCCCCCC(=O)[O-]
REMARK SMILES IDX 10 1 11 2 12 3 13 4 14 5 15 6 16 7 17 8 18 9 19 10 20 11
REMARK SMILES IDX 9 12 8 13 7 14 6 15 5 16 4 17 3 18 2 19 1 20
REMARK H PARENT
REMARK Flexibility Score: inf
ROOT
ATOM      1  C   UNL     1      19.600  64.988  38.015  1.00  0.00     0.000 C 
ENDROOT
BRANCH   1   2
ATOM      2  C   UNL     1      18.103  64.834  37.696  1.00  0.00     0.000 C 
BRANCH   2   3
ATOM      3  C   UNL     1      17.837  63.809  36.582  1.00  0.00     0.000 C 
BRANCH   3   4
ATOM      4  C   UNL     1      17.909  64.426  35.176  1.00  0.00     0.000 C 
BRANCH   4   5
ATOM      5  C   UNL     1      16.609  64.178  34.401  1.00  0.00     0.000 C 
BRANCH   5   6
ATOM      6  C   UNL     1      16.215  65.413  33.579  1.00  0.00     0.000 C 
BRANCH   6   7
ATOM      7  C   UNL     1      14.700  65.500  33.328  1.00  0.00     0.006 C 
BRANCH   7   8
ATOM      8  C   UNL     1      14.246  64.632  32.148  1.00  0.00     0.053 C 
BRANCH   8   9
ATOM      9  C   UNL     1      13.130  63.727  32.564  1.00  0.00     0.041 C 
ATOM     10  O   UNL     1      13.321  62.847  33.445  1.00  0.00    -0.550 OA
ATOM     11  O   UNL     1      11.889  63.824  31.947  1.00  0.00    -0.550 OA
ENDBRANCH   8   9
ENDBRANCH   7   8
ENDBRANCH   6   7
ENDBRANCH   5   6
ENDBRANCH   4   5
ENDBRANCH   3   4
ENDBRANCH   2   3
ENDBRANCH   1   2
BRANCH   1  12
ATOM     12  C   UNL     1      20.117  66.410  37.739  1.00  0.00     0.000 C 
BRANCH  12  13
ATOM     13  C   UNL     1      19.336  67.481  38.519  1.00  0.00    -0.000 C 
BRANCH  13  14
ATOM     14  C   UNL     1      19.345  68.849  37.819  1.00  0.00    -0.000 C 
BRANCH  14  15
ATOM     15  C   UNL     1      18.787  68.788  36.388  1.00  0.00    -0.000 C 
BRANCH  15  16
ATOM     16  C   UNL     1      17.383  68.173  36.372  1.00  0.00    -0.000 C 
BRANCH  16  17
ATOM     17  C   UNL     1      16.602  68.610  35.122  1.00  0.00    -0.000 C 
BRANCH  17  18
ATOM     18  C   UNL     1      17.535  69.047  33.974  1.00  0.00    -0.000 C 
BRANCH  18  19
ATOM     19  C   UNL     1      16.789  69.658  32.775  1.00  0.00    -0.003 C 
ATOM     20  C   UNL     1      15.398  69.064  32.569  1.00  0.00     0.004 C 
ENDBRANCH  18  19
ENDBRANCH  17  18
ENDBRANCH  16  17
ENDBRANCH  15  16
ENDBRANCH  14  15
ENDBRANCH  13  14
ENDBRANCH  12  13
ENDBRANCH   1  12
TORSDOF 16
ENDMDL
MODEL 9
REMARK VINA RESULT:    -3.939      1.951      2.913
REMARK INTER + INTRA:         -10.295
REMARK INTER:                  -8.404
REMARK INTRA:                  -1.891
REMARK UNBOUND:                -2.671
REMARK SMILES CCCCCCCCCCCCCCCCCC(=O)[O-]
REMARK SMILES IDX 10 1 11 2 12 3 13 4 14 5 15 6 16 7 17 8 18 9 19 10 20 11
REMARK SMILES IDX 9 12 8 13 7 14 6 15 5 16 4 17 3 18 2 19 1 20
REMARK H PARENT
REMARK Flexibility Score: inf
ROOT
ATOM      1  C   UNL     1      13.194  62.150  33.749  1.00  0.00     0.000 C 
ENDROOT
BRANCH   1   2
ATOM      2  C   UNL     1      14.350  61.460  33.004  1.00  0.00     0.000 C 
BRANCH   2   3
ATOM      3  C   UNL     1      14.593  62.055  31.608  1.00  0.00     0.000 C 
BRANCH   3   4
ATOM      4  C   UNL     1      15.917  62.829  31.513  1.00  0.00     0.000 C 
BRANCH   4   5
ATOM      5  C   UNL     1      15.664  64.321  31.261  1.00  0.00     0.000 C 
BRANCH   5   6
ATOM      6  C   UNL     1      15.664  65.107  32.580  1.00  0.00     0.000 C 
BRANCH   6   7
ATOM      7  C   UNL     1      14.812  66.385  32.506  1.00  0.00     0.006 C 
BRANCH   7   8
ATOM      8  C   UNL     1      15.352  67.508  33.401  1.00  0.00     0.053 C 
BRANCH   8   9
ATOM      9  C   UNL     1      15.565  68.755  32.603  1.00  0.00     0.041 C 
ATOM     10  O   UNL     1      14.716  69.109  31.741  1.00  0.00    -0.550 OA
ATOM     11  O   UNL     1      16.721  69.505  32.778  1.00  0.00    -0.550 OA
ENDBRANCH   8   9
ENDBRANCH   7   8
ENDBRANCH   6   7
ENDBRANCH   5   6
ENDBRANCH   4   5
ENDBRANCH   3   4
ENDBRANCH   2   3
ENDBRANCH   1   2
BRANCH   1  12
ATOM     12  C   UNL     1      12.546  63.272  32.920  1.00  0.00     0.000 C 
BRANCH  12  13
ATOM     13  C   UNL     1      11.091  62.954  32.534  1.00  0.00    -0.000 C 
BRANCH  13  14
ATOM     14  C   UNL     1      10.992  61.989  31.342  1.00  0.00    -0.000 C 
BRANCH  14  15
ATOM     15  C   UNL     1      10.340  60.648  31.716  1.00  0.00    -0.000 C 
BRANCH  15  16
ATOM     16  C   UNL     1      11.364  59.507  31.668  1.00  0.00    -0.000 C 
BRANCH  16  17
ATOM     17  C   UNL     1      11.562  58.883  33.058  1.00  0.00    -0.000 C 
BRANCH  17  18
ATOM     18  C   UNL     1      11.107  57.410  33.107  1.00  0.00    -0.000 C 
BRANCH  18  19
ATOM     19  C   UNL     1       9.580  57.240  33.192  1.00  0.00    -0.003 C 
ATOM     20  C   UNL     1       9.005  57.667  34.540  1.00  0.00     0.004 C 
ENDBRANCH  18  19
ENDBRANCH  17  18
ENDBRANCH  16  17
ENDBRANCH  15  16
ENDBRANCH  14  15
ENDBRANCH  13  14
ENDBRANCH  12  13
ENDBRANCH   1  12
TORSDOF 16
ENDMDL
