MODEL 1
REMARK VINA RESULT:    -2.941      0.000      0.000
REMARK INTER + INTRA:          -7.177
REMARK INTER:                  -5.177
REMARK INTRA:                  -2.000
REMARK UNBOUND:                -2.000
REMARK SMILES CCCCCCCCCCCCCCC(=O)[O-]
REMARK SMILES IDX 9 1 10 2 11 3 12 4 13 5 14 6 15 7 16 8 17 9 8 10 7 11 6 12
REMARK SMILES IDX 5 13 4 14 3 15 2 16 1 17
REMARK H PARENT
REMARK Flexibility Score: inf
ROOT
ATOM      1  C   UNL     1     143.267 144.057 145.794  1.00  0.00     0.000 C 
ENDROOT
BRANCH   1   2
ATOM      2  C   UNL     1     143.620 144.159 144.299  1.00  0.00     0.000 C 
BRANCH   2   3
ATOM      3  C   UNL     1     144.369 142.922 143.774  1.00  0.00     0.000 C 
BRANCH   3   4
ATOM      4  C   UNL     1     145.852 142.916 144.175  1.00  0.00     0.000 C 
BRANCH   4   5
ATOM      5  C   UNL     1     146.792 142.739 142.970  1.00  0.00     0.006 C 
BRANCH   5   6
ATOM      6  C   UNL     1     146.910 144.021 142.135  1.00  0.00     0.053 C 
BRANCH   6   7
ATOM      7  C   UNL     1     146.089 143.947 140.884  1.00  0.00     0.041 C 
ATOM      8  O   UNL     1     146.298 143.034 140.043  1.00  0.00    -0.550 OA
ATOM      9  O   UNL     1     145.117 144.907 140.631  1.00  0.00    -0.550 OA
ENDBRANCH   6   7
ENDBRANCH   5   6
ENDBRANCH   4   5
ENDBRANCH   3   4
ENDBRANCH   2   3
ENDBRANCH   1   2
BRANCH   1  10
ATOM     10  C   UNL     1     141.767 143.897 146.103  1.00  0.00     0.000 C 
BRANCH  10  11
ATOM     11  C   UNL     1     141.432 142.560 146.781  1.00  0.00    -0.000 C 
BRANCH  11  12
ATOM     12  C   UNL     1     140.770 141.594 145.791  1.00  0.00    -0.000 C 
BRANCH  12  13
ATOM     13  C   UNL     1     141.802 140.639 145.180  1.00  0.00    -0.000 C 
BRANCH  13  14
ATOM     14  C   UNL     1     142.775 140.119 146.249  1.00  0.00    -0.000 C 
BRANCH  14  15
ATOM     15  C   UNL     1     144.190 139.877 145.684  1.00  0.00    -0.000 C 
BRANCH  15  16
ATOM     16  C   UNL     1     145.316 140.257 146.660  1.00  0.00    -0.003 C 
ATOM     17  C   UNL     1     144.918 141.366 147.631  1.00  0.00     0.004 C 
ENDBRANCH  15  16
ENDBRANCH  14  15
ENDBRANCH  13  14
ENDBRANCH  12  13
ENDBRANCH  11  12
ENDBRANCH  10  11
ENDBRANCH   1  10
TORSDOF 13
ENDMDL
MODEL 2
REMARK VINA RESULT:    -2.882      4.472      6.608
REMARK INTER + INTRA:          -7.073
REMARK INTER:                  -4.766
REMARK INTRA:                  -2.307
REMARK UNBOUND:                -2.000
REMARK SMILES CCCCCCCCCCCCCCC(=O)[O-]
REMARK SMILES IDX 9 1 10 2 11 3 12 4 13 5 14 6 15 7 16 8 17 9 8 10 7 11 6 12
REMARK SMILES IDX 5 13 4 14 3 15 2 16 1 17
REMARK H PARENT
REMARK Flexibility Score: inf
ROOT
ATOM      1  C   UNL     1     145.330 141.803 145.184  1.00  0.00     0.000 C 
ENDROOT
BRANCH   1   2
ATOM      2  C   UNL     1     146.032 140.653 145.929  1.00  0.00     0.000 C 
BRANCH   2   3
ATOM      3  C   UNL     1     146.145 140.901 147.443  1.00  0.00     0.000 C 
BRANCH   3   4
ATOM      4  C   UNL     1     144.806 141.312 148.075  1.00  0.00     0.000 C 
BRANCH   4   5
ATOM      5  C   UNL     1     144.100 140.143 148.785  1.00  0.00     0.006 C 
BRANCH   5   6
ATOM      6  C   UNL     1     143.298 140.609 150.007  1.00  0.00     0.053 C 
BRANCH   6   7
ATOM      7  C   UNL     1     143.991 140.268 151.291  1.00  0.00     0.041 C 
ATOM      8  O   UNL     1     143.354 140.281 152.377  1.00  0.00    -0.550 OA
ATOM      9  O   UNL     1     145.348 139.970 151.292  1.00  0.00    -0.550 OA
ENDBRANCH   6   7
ENDBRANCH   5   6
ENDBRANCH   4   5
ENDBRANCH   3   4
ENDBRANCH   2   3
ENDBRANCH   1   2
BRANCH   1  10
ATOM     10  C   UNL     1     144.078 141.397 144.384  1.00  0.00     0.000 C 
BRANCH  10  11
ATOM     11  C   UNL     1     143.652 139.942 144.633  1.00  0.00    -0.000 C 
BRANCH  11  12
ATOM     12  C   UNL     1     142.453 139.877 145.588  1.00  0.00    -0.000 C 
BRANCH  12  13
ATOM     13  C   UNL     1     141.600 141.147 145.487  1.00  0.00    -0.000 C 
BRANCH  13  14
ATOM     14  C   UNL     1     141.234 141.679 146.881  1.00  0.00    -0.000 C 
BRANCH  14  15
ATOM     15  C   UNL     1     141.810 143.088 147.138  1.00  0.00    -0.000 C 
BRANCH  15  16
ATOM     16  C   UNL     1     141.863 143.970 145.879  1.00  0.00    -0.003 C 
ATOM     17  C   UNL     1     143.141 144.800 145.782  1.00  0.00     0.004 C 
ENDBRANCH  15  16
ENDBRANCH  14  15
ENDBRANCH  13  14
ENDBRANCH  12  13
ENDBRANCH  11  12
ENDBRANCH  10  11
ENDBRANCH   1  10
TORSDOF 13
ENDMDL
MODEL 3
REMARK VINA RESULT:    -2.844      4.713      6.569
REMARK INTER + INTRA:          -7.006
REMARK INTER:                  -4.756
REMARK INTRA:                  -2.250
REMARK UNBOUND:                -2.000
REMARK SMILES CCCCCCCCCCCCCCC(=O)[O-]
REMARK SMILES IDX 9 1 10 2 11 3 12 4 13 5 14 6 15 7 16 8 17 9 8 10 7 11 6 12
REMARK SMILES IDX 5 13 4 14 3 15 2 16 1 17
REMARK H PARENT
REMARK Flexibility Score: inf
ROOT
ATOM      1  C   UNL     1     143.078 143.877 146.745  1.00  0.00     0.000 C 
ENDROOT
BRANCH   1   2
ATOM      2  C   UNL     1     143.202 143.390 148.200  1.00  0.00     0.000 C 
BRANCH   2   3
ATOM      3  C   UNL     1     144.548 142.702 148.489  1.00  0.00     0.000 C 
BRANCH   3   4
ATOM      4  C   UNL     1     144.410 141.178 148.640  1.00  0.00     0.000 C 
BRANCH   4   5
ATOM      5  C   UNL     1     143.217 140.775 149.524  1.00  0.00     0.006 C 
BRANCH   5   6
ATOM      6  C   UNL     1     143.661 140.303 150.915  1.00  0.00     0.053 C 
BRANCH   6   7
ATOM      7  C   UNL     1     143.126 141.188 151.999  1.00  0.00     0.041 C 
ATOM      8  O   UNL     1     142.814 142.382 151.745  1.00  0.00    -0.550 OA
ATOM      9  O   UNL     1     143.003 140.705 153.296  1.00  0.00    -0.550 OA
ENDBRANCH   6   7
ENDBRANCH   5   6
ENDBRANCH   4   5
ENDBRANCH   3   4
ENDBRANCH   2   3
ENDBRANCH   1   2
BRANCH   1  10
ATOM     10  C   UNL     1     141.822 143.394 145.998  1.00  0.00     0.000 C 
BRANCH  10  11
ATOM     11  C   UNL     1     141.267 142.072 146.547  1.00  0.00    -0.000 C 
BRANCH  11  12
ATOM     12  C   UNL     1     141.255 140.989 145.462  1.00  0.00    -0.000 C 
BRANCH  12  13
ATOM     13  C   UNL     1     142.462 140.054 145.603  1.00  0.00    -0.000 C 
BRANCH  13  14
ATOM     14  C   UNL     1     143.515 140.347 144.523  1.00  0.00    -0.000 C 
BRANCH  14  15
ATOM     15  C   UNL     1     144.807 140.950 145.113  1.00  0.00    -0.000 C 
BRANCH  15  16
ATOM     16  C   UNL     1     145.459 142.012 144.211  1.00  0.00    -0.003 C 
ATOM     17  C   UNL     1     144.442 142.927 143.533  1.00  0.00     0.004 C 
ENDBRANCH  15  16
ENDBRANCH  14  15
ENDBRANCH  13  14
ENDBRANCH  12  13
ENDBRANCH  11  12
ENDBRANCH  10  11
ENDBRANCH   1  10
TORSDOF 13
ENDMDL
MODEL 4
REMARK VINA RESULT:    -2.802     16.138     18.385
REMARK INTER + INTRA:          -6.931
REMARK INTER:                  -5.699
REMARK INTRA:                  -1.232
REMARK UNBOUND:                -2.000
REMARK SMILES CCCCCCCCCCCCCCC(=O)[O-]
REMARK SMILES IDX 9 1 10 2 11 3 12 4 13 5 14 6 15 7 16 8 17 9 8 10 7 11 6 12
REMARK SMILES IDX 5 13 4 14 3 15 2 16 1 17
REMARK H PARENT
REMARK Flexibility Score: inf
ROOT
ATOM      1  C   UNL     1     141.873 157.537 150.670  1.00  0.00     0.000 C 
ENDROOT
BRANCH   1   2
ATOM      2  C   UNL     1     141.258 157.319 152.065  1.00  0.00     0.000 C 
BRANCH   2   3
ATOM      3  C   UNL     1     140.644 158.600 152.656  1.00  0.00     0.000 C 
BRANCH   3   4
ATOM      4  C   UNL     1     141.628 159.781 152.652  1.00  0.00     0.000 C 
BRANCH   4   5
ATOM      5  C   UNL     1     142.154 160.120 154.058  1.00  0.00     0.006 C 
BRANCH   5   6
ATOM      6  C   UNL     1     143.678 159.975 154.157  1.00  0.00     0.053 C 
BRANCH   6   7
ATOM      7  C   UNL     1     144.073 158.888 155.110  1.00  0.00     0.041 C 
ATOM      8  O   UNL     1     145.037 159.061 155.901  1.00  0.00    -0.550 OA
ATOM      9  O   UNL     1     143.398 157.674 155.101  1.00  0.00    -0.550 OA
ENDBRANCH   6   7
ENDBRANCH   5   6
ENDBRANCH   4   5
ENDBRANCH   3   4
ENDBRANCH   2   3
ENDBRANCH   1   2
BRANCH   1  10
ATOM     10  C   UNL     1     140.953 157.184 149.487  1.00  0.00     0.000 C 
BRANCH  10  11
ATOM     11  C   UNL     1     140.501 158.416 148.688  1.00  0.00    -0.000 C 
BRANCH  11  12
ATOM     12  C   UNL     1     141.693 159.323 148.358  1.00  0.00    -0.000 C 
BRANCH  12  13
ATOM     13  C   UNL     1     141.782 159.587 146.850  1.00  0.00    -0.000 C 
BRANCH  13  14
ATOM     14  C   UNL     1     140.396 159.507 146.193  1.00  0.00    -0.000 C 
BRANCH  14  15
ATOM     15  C   UNL     1     140.306 158.369 145.154  1.00  0.00    -0.000 C 
BRANCH  15  16
ATOM     16  C   UNL     1     141.592 157.531 145.046  1.00  0.00    -0.003 C 
ATOM     17  C   UNL     1     141.335 156.028 145.117  1.00  0.00     0.004 C 
ENDBRANCH  15  16
ENDBRANCH  14  15
ENDBRANCH  13  14
ENDBRANCH  12  13
ENDBRANCH  11  12
ENDBRANCH  10  11
ENDBRANCH   1  10
TORSDOF 13
ENDMDL
MODEL 5
REMARK VINA RESULT:    -2.758      1.635      3.041
REMARK INTER + INTRA:          -6.854
REMARK INTER:                  -5.047
REMARK INTRA:                  -1.807
REMARK UNBOUND:                -2.000
REMARK SMILES CCCCCCCCCCCCCCC(=O)[O-]
REMARK SMILES IDX 9 1 10 2 11 3 12 4 13 5 14 6 15 7 16 8 17 9 8 10 7 11 6 12
REMARK SMILES IDX 5 13 4 14 3 15 2 16 1 17
REMARK H PARENT
REMARK Flexibility Score: inf
ROOT
ATOM      1  C   UNL     1     142.915 139.876 146.092  1.00  0.00     0.000 C 
ENDROOT
BRANCH   1   2
ATOM      2  C   UNL     1     144.374 140.064 145.635  1.00  0.00     0.000 C 
BRANCH   2   3
ATOM      3  C   UNL     1     144.493 140.857 144.322  1.00  0.00     0.000 C 
BRANCH   3   4
ATOM      4  C   UNL     1     144.966 142.302 144.547  1.00  0.00     0.000 C 
BRANCH   4   5
ATOM      5  C   UNL     1     144.690 143.212 143.337  1.00  0.00     0.006 C 
BRANCH   5   6
ATOM      6  C   UNL     1     145.933 144.007 142.916  1.00  0.00     0.053 C 
BRANCH   6   7
ATOM      7  C   UNL     1     147.039 143.108 142.455  1.00  0.00     0.041 C 
ATOM      8  O   UNL     1     146.956 142.524 141.342  1.00  0.00    -0.550 OA
ATOM      9  O   UNL     1     148.144 142.888 143.267  1.00  0.00    -0.550 OA
ENDBRANCH   6   7
ENDBRANCH   5   6
ENDBRANCH   4   5
ENDBRANCH   3   4
ENDBRANCH   2   3
ENDBRANCH   1   2
BRANCH   1  10
ATOM     10  C   UNL     1     141.853 140.475 145.152  1.00  0.00     0.000 C 
BRANCH  10  11
ATOM     11  C   UNL     1     140.882 141.424 145.871  1.00  0.00    -0.000 C 
BRANCH  11  12
ATOM     12  C   UNL     1     141.571 142.745 146.231  1.00  0.00    -0.000 C 
BRANCH  12  13
ATOM     13  C   UNL     1     141.337 143.104 147.703  1.00  0.00    -0.000 C 
BRANCH  13  14
ATOM     14  C   UNL     1     142.623 143.639 148.352  1.00  0.00    -0.000 C 
BRANCH  14  15
ATOM     15  C   UNL     1     143.782 142.622 148.279  1.00  0.00    -0.000 C 
BRANCH  15  16
ATOM     16  C   UNL     1     143.960 141.799 149.566  1.00  0.00    -0.003 C 
ATOM     17  C   UNL     1     143.137 140.513 149.574  1.00  0.00     0.004 C 
ENDBRANCH  15  16
ENDBRANCH  14  15
ENDBRANCH  13  14
ENDBRANCH  12  13
ENDBRANCH  11  12
ENDBRANCH  10  11
ENDBRANCH   1  10
TORSDOF 13
ENDMDL
MODEL 6
REMARK VINA RESULT:    -2.758      1.492      2.074
REMARK INTER + INTRA:          -6.854
REMARK INTER:                  -5.249
REMARK INTRA:                  -1.605
REMARK UNBOUND:                -2.000
REMARK SMILES CCCCCCCCCCCCCCC(=O)[O-]
REMARK SMILES IDX 9 1 10 2 11 3 12 4 13 5 14 6 15 7 16 8 17 9 8 10 7 11 6 12
REMARK SMILES IDX 5 13 4 14 3 15 2 16 1 17
REMARK H PARENT
REMARK Flexibility Score: inf
ROOT
ATOM      1  C   UNL     1     142.490 145.385 145.744  1.00  0.00     0.000 C 
ENDROOT
BRANCH   1   2
ATOM      2  C   UNL     1     142.108 146.298 144.565  1.00  0.00     0.000 C 
BRANCH   2   3
ATOM      3  C   UNL     1     143.193 146.358 143.476  1.00  0.00     0.000 C 
BRANCH   3   4
ATOM      4  C   UNL     1     144.156 145.162 143.538  1.00  0.00     0.000 C 
BRANCH   4   5
ATOM      5  C   UNL     1     144.245 144.402 142.203  1.00  0.00     0.006 C 
BRANCH   5   6
ATOM      6  C   UNL     1     145.583 144.638 141.491  1.00  0.00     0.053 C 
BRANCH   6   7
ATOM      7  C   UNL     1     146.342 143.362 141.293  1.00  0.00     0.041 C 
ATOM      8  O   UNL     1     146.649 142.982 140.132  1.00  0.00    -0.550 OA
ATOM      9  O   UNL     1     146.678 142.574 142.387  1.00  0.00    -0.550 OA
ENDBRANCH   6   7
ENDBRANCH   5   6
ENDBRANCH   4   5
ENDBRANCH   3   4
ENDBRANCH   2   3
ENDBRANCH   1   2
BRANCH   1  10
ATOM     10  C   UNL     1     141.771 144.024 145.777  1.00  0.00     0.000 C 
BRANCH  10  11
ATOM     11  C   UNL     1     141.728 143.400 147.180  1.00  0.00    -0.000 C 
BRANCH  11  12
ATOM     12  C   UNL     1     141.334 141.920 147.111  1.00  0.00    -0.000 C 
BRANCH  12  13
ATOM     13  C   UNL     1     141.171 141.461 145.657  1.00  0.00    -0.000 C 
BRANCH  13  14
ATOM     14  C   UNL     1     142.075 140.256 145.355  1.00  0.00    -0.000 C 
BRANCH  14  15
ATOM     15  C   UNL     1     143.543 140.510 145.757  1.00  0.00    -0.000 C 
BRANCH  15  16
ATOM     16  C   UNL     1     144.275 141.492 144.827  1.00  0.00    -0.003 C 
ATOM     17  C   UNL     1     145.182 142.465 145.577  1.00  0.00     0.004 C 
ENDBRANCH  15  16
ENDBRANCH  14  15
ENDBRANCH  13  14
ENDBRANCH  12  13
ENDBRANCH  11  12
ENDBRANCH  10  11
ENDBRANCH   1  10
TORSDOF 13
ENDMDL
MODEL 7
REMARK VINA RESULT:    -2.722      6.100      8.505
REMARK INTER + INTRA:          -6.791
REMARK INTER:                  -5.956
REMARK INTRA:                  -0.835
REMARK UNBOUND:                -2.000
REMARK SMILES CCCCCCCCCCCCCCC(=O)[O-]
REMARK SMILES IDX 9 1 10 2 11 3 12 4 13 5 14 6 15 7 16 8 17 9 8 10 7 11 6 12
REMARK SMILES IDX 5 13 4 14 3 15 2 16 1 17
REMARK H PARENT
REMARK Flexibility Score: inf
ROOT
ATOM      1  C   UNL     1     141.964 142.025 147.957  1.00  0.00     0.000 C 
ENDROOT
BRANCH   1   2
ATOM      2  C   UNL     1     141.398 141.417 149.253  1.00  0.00     0.000 C 
BRANCH   2   3
ATOM      3  C   UNL     1     141.399 142.408 150.430  1.00  0.00     0.000 C 
BRANCH   3   4
ATOM      4  C   UNL     1     140.306 142.096 151.465  1.00  0.00     0.000 C 
BRANCH   4   5
ATOM      5  C   UNL     1     139.962 143.307 152.349  1.00  0.00     0.006 C 
BRANCH   5   6
ATOM      6  C   UNL     1     140.016 142.967 153.844  1.00  0.00     0.053 C 
BRANCH   6   7
ATOM      7  C   UNL     1     141.209 143.580 154.512  1.00  0.00     0.041 C 
ATOM      8  O   UNL     1     142.364 143.141 154.271  1.00  0.00    -0.550 OA
ATOM      9  O   UNL     1     141.041 144.614 155.425  1.00  0.00    -0.550 OA
ENDBRANCH   6   7
ENDBRANCH   5   6
ENDBRANCH   4   5
ENDBRANCH   3   4
ENDBRANCH   2   3
ENDBRANCH   1   2
BRANCH   1  10
ATOM     10  C   UNL     1     140.947 142.186 146.812  1.00  0.00     0.000 C 
BRANCH  10  11
ATOM     11  C   UNL     1     141.235 141.262 145.618  1.00  0.00    -0.000 C 
BRANCH  11  12
ATOM     12  C   UNL     1     142.312 140.230 145.971  1.00  0.00    -0.000 C 
BRANCH  12  13
ATOM     13  C   UNL     1     143.225 139.954 144.770  1.00  0.00    -0.000 C 
BRANCH  13  14
ATOM     14  C   UNL     1     144.700 140.183 145.134  1.00  0.00    -0.000 C 
BRANCH  14  15
ATOM     15  C   UNL     1     145.315 141.371 144.365  1.00  0.00    -0.000 C 
BRANCH  15  16
ATOM     16  C   UNL     1     144.471 142.655 144.440  1.00  0.00    -0.003 C 
ATOM     17  C   UNL     1     144.485 143.458 143.141  1.00  0.00     0.004 C 
ENDBRANCH  15  16
ENDBRANCH  14  15
ENDBRANCH  13  14
ENDBRANCH  12  13
ENDBRANCH  11  12
ENDBRANCH  10  11
ENDBRANCH   1  10
TORSDOF 13
ENDMDL
MODEL 8
REMARK VINA RESULT:    -2.704      6.546      8.925
REMARK INTER + INTRA:          -6.760
REMARK INTER:                  -5.458
REMARK INTRA:                  -1.302
REMARK UNBOUND:                -2.000
REMARK SMILES CCCCCCCCCCCCCCC(=O)[O-]
REMARK SMILES IDX 9 1 10 2 11 3 12 4 13 5 14 6 15 7 16 8 17 9 8 10 7 11 6 12
REMARK SMILES IDX 5 13 4 14 3 15 2 16 1 17
REMARK H PARENT
REMARK Flexibility Score: inf
ROOT
ATOM      1  C   UNL     1     143.507 142.464 150.274  1.00  0.00     0.000 C 
ENDROOT
BRANCH   1   2
ATOM      2  C   UNL     1     142.331 143.404 149.951  1.00  0.00     0.000 C 
BRANCH   2   3
ATOM      3  C   UNL     1     141.680 144.003 151.210  1.00  0.00     0.000 C 
BRANCH   3   4
ATOM      4  C   UNL     1     140.427 143.230 151.650  1.00  0.00     0.000 C 
BRANCH   4   5
ATOM      5  C   UNL     1     140.537 142.690 153.087  1.00  0.00     0.006 C 
BRANCH   5   6
ATOM      6  C   UNL     1     141.760 143.252 153.824  1.00  0.00     0.053 C 
BRANCH   6   7
ATOM      7  C   UNL     1     141.364 144.113 154.984  1.00  0.00     0.041 C 
ATOM      8  O   UNL     1     142.244 144.590 155.747  1.00  0.00    -0.550 OA
ATOM      9  O   UNL     1     140.021 144.360 155.242  1.00  0.00    -0.550 OA
ENDBRANCH   6   7
ENDBRANCH   5   6
ENDBRANCH   4   5
ENDBRANCH   3   4
ENDBRANCH   2   3
ENDBRANCH   1   2
BRANCH   1  10
ATOM     10  C   UNL     1     143.173 140.961 150.235  1.00  0.00     0.000 C 
BRANCH  10  11
ATOM     11  C   UNL     1     144.153 140.150 149.374  1.00  0.00    -0.000 C 
BRANCH  11  12
ATOM     12  C   UNL     1     143.565 139.875 147.985  1.00  0.00    -0.000 C 
BRANCH  12  13
ATOM     13  C   UNL     1     144.445 140.481 146.885  1.00  0.00    -0.000 C 
BRANCH  13  14
ATOM     14  C   UNL     1     143.588 141.088 145.764  1.00  0.00    -0.000 C 
BRANCH  14  15
ATOM     15  C   UNL     1     142.287 140.293 145.527  1.00  0.00    -0.000 C 
BRANCH  15  16
ATOM     16  C   UNL     1     141.026 141.174 145.490  1.00  0.00    -0.003 C 
ATOM     17  C   UNL     1     140.983 142.207 146.614  1.00  0.00     0.004 C 
ENDBRANCH  15  16
ENDBRANCH  14  15
ENDBRANCH  13  14
ENDBRANCH  12  13
ENDBRANCH  11  12
ENDBRANCH  10  11
ENDBRANCH   1  10
TORSDOF 13
ENDMDL
MODEL 9
REMARK VINA RESULT:    -2.695      1.307      2.148
REMARK INTER + INTRA:          -6.743
REMARK INTER:                  -4.751
REMARK INTRA:                  -1.991
REMARK UNBOUND:                -2.000
REMARK SMILES CCCCCCCCCCCCCCC(=O)[O-]
REMARK SMILES IDX 9 1 10 2 11 3 12 4 13 5 14 6 15 7 16 8 17 9 8 10 7 11 6 12
REMARK SMILES IDX 5 13 4 14 3 15 2 16 1 17
REMARK H PARENT
REMARK Flexibility Score: inf
ROOT
ATOM      1  C   UNL     1     143.005 142.815 148.037  1.00  0.00     0.000 C 
ENDROOT
BRANCH   1   2
ATOM      2  C   UNL     1     143.031 143.950 146.997  1.00  0.00     0.000 C 
BRANCH   2   3
ATOM      3  C   UNL     1     143.846 143.595 145.741  1.00  0.00     0.000 C 
BRANCH   3   4
ATOM      4  C   UNL     1     143.548 144.532 144.560  1.00  0.00     0.000 C 
BRANCH   4   5
ATOM      5  C   UNL     1     144.515 144.326 143.381  1.00  0.00     0.006 C 
BRANCH   5   6
ATOM      6  C   UNL     1     145.777 143.558 143.794  1.00  0.00     0.053 C 
BRANCH   6   7
ATOM      7  C   UNL     1     146.563 143.099 142.605  1.00  0.00     0.041 C 
ATOM      8  O   UNL     1     146.054 143.143 141.454  1.00  0.00    -0.550 OA
ATOM      9  O   UNL     1     147.845 142.590 142.771  1.00  0.00    -0.550 OA
ENDBRANCH   6   7
ENDBRANCH   5   6
ENDBRANCH   4   5
ENDBRANCH   3   4
ENDBRANCH   2   3
ENDBRANCH   1   2
BRANCH   1  10
ATOM     10  C   UNL     1     141.953 141.720 147.784  1.00  0.00     0.000 C 
BRANCH  10  11
ATOM     11  C   UNL     1     141.018 142.044 146.610  1.00  0.00    -0.000 C 
BRANCH  11  12
ATOM     12  C   UNL     1     141.173 141.015 145.484  1.00  0.00    -0.000 C 
BRANCH  12  13
ATOM     13  C   UNL     1     142.313 140.035 145.787  1.00  0.00    -0.000 C 
BRANCH  13  14
ATOM     14  C   UNL     1     143.241 139.875 144.573  1.00  0.00    -0.000 C 
BRANCH  14  15
ATOM     15  C   UNL     1     144.711 140.193 144.915  1.00  0.00    -0.000 C 
BRANCH  15  16
ATOM     16  C   UNL     1     145.055 139.994 146.401  1.00  0.00    -0.003 C 
ATOM     17  C   UNL     1     146.103 140.980 146.912  1.00  0.00     0.004 C 
ENDBRANCH  15  16
ENDBRANCH  14  15
ENDBRANCH  13  14
ENDBRANCH  12  13
ENDBRANCH  11  12
ENDBRANCH  10  11
ENDBRANCH   1  10
TORSDOF 13
ENDMDL
