MODEL 1
REMARK VINA RESULT:    -5.800      0.000      0.000
REMARK INTER + INTRA:         -12.484
REMARK INTER:                 -10.885
REMARK INTRA:                  -1.599
REMARK UNBOUND:                -1.599
REMARK SMILES CCCCCCCCC=CCCCCCCCC(=O)[O-]
REMARK SMILES IDX 10 1 9 2 11 3 12 4 13 5 14 6 15 7 16 8 17 9 18 10 19 11
REMARK SMILES IDX 20 12 8 13 7 14 6 15 5 16 4 17 3 18 2 19 1 20
REMARK H PARENT
REMARK Flexibility Score: inf
ROOT
ATOM      1  C   UNL     1     -12.950  11.638   7.766  1.00  0.00    -0.031 C 
ATOM      2  C   UNL     1     -12.442  12.515   8.652  1.00  0.00    -0.031 C 
ENDROOT
BRANCH   1   3
ATOM      3  C   UNL     1     -12.192  10.483   7.164  1.00  0.00     0.027 C 
BRANCH   3   4
ATOM      4  C   UNL     1     -11.841  10.708   5.679  1.00  0.00     0.004 C 
BRANCH   4   5
ATOM      5  C   UNL     1     -10.792  11.811   5.445  1.00  0.00     0.000 C 
BRANCH   5   6
ATOM      6  C   UNL     1     -10.633  12.177   3.961  1.00  0.00     0.000 C 
BRANCH   6   7
ATOM      7  C   UNL     1     -10.266  10.968   3.079  1.00  0.00     0.000 C 
BRANCH   7   8
ATOM      8  C   UNL     1      -8.909  11.069   2.360  1.00  0.00     0.006 C 
BRANCH   8   9
ATOM      9  C   UNL     1      -8.610  12.481   1.839  1.00  0.00     0.053 C 
BRANCH   9  10
ATOM     10  C   UNL     1      -7.370  13.021   2.479  1.00  0.00     0.041 C 
ATOM     11  O   UNL     1      -6.497  13.603   1.781  1.00  0.00    -0.550 OA
ATOM     12  O   UNL     1      -7.154  12.839   3.838  1.00  0.00    -0.550 OA
ENDBRANCH   9  10
ENDBRANCH   8   9
ENDBRANCH   7   8
ENDBRANCH   6   7
ENDBRANCH   5   6
ENDBRANCH   4   5
ENDBRANCH   3   4
ENDBRANCH   1   3
BRANCH   2  13
ATOM     13  C   UNL     1     -11.016  12.515   9.152  1.00  0.00     0.027 C 
BRANCH  13  14
ATOM     14  C   UNL     1     -10.481  13.942   9.316  1.00  0.00     0.004 C 
BRANCH  14  15
ATOM     15  C   UNL     1      -9.252  14.204   8.430  1.00  0.00     0.000 C 
BRANCH  15  16
ATOM     16  C   UNL     1      -7.987  14.539   9.241  1.00  0.00     0.000 C 
BRANCH  16  17
ATOM     17  C   UNL     1      -8.232  15.378  10.508  1.00  0.00    -0.000 C 
BRANCH  17  18
ATOM     18  C   UNL     1      -7.882  14.624  11.803  1.00  0.00    -0.000 C 
BRANCH  18  19
ATOM     19  C   UNL     1      -7.558  13.144  11.552  1.00  0.00    -0.003 C 
ATOM     20  C   UNL     1      -8.628  12.203  12.104  1.00  0.00     0.004 C 
ENDBRANCH  18  19
ENDBRANCH  17  18
ENDBRANCH  16  17
ENDBRANCH  15  16
ENDBRANCH  14  15
ENDBRANCH  13  14
ENDBRANCH   2  13
TORSDOF 15
ENDMDL
MODEL 2
REMARK VINA RESULT:    -5.730      1.346      2.390
REMARK INTER + INTRA:         -12.354
REMARK INTER:                 -10.645
REMARK INTRA:                  -1.709
REMARK UNBOUND:                -1.599
REMARK SMILES CCCCCCCCC=CCCCCCCCC(=O)[O-]
REMARK SMILES IDX 10 1 9 2 11 3 12 4 13 5 14 6 15 7 16 8 17 9 18 10 19 11
REMARK SMILES IDX 20 12 8 13 7 14 6 15 5 16 4 17 3 18 2 19 1 20
REMARK H PARENT
REMARK Flexibility Score: inf
ROOT
ATOM      1  C   UNL     1     -10.966  12.477   9.128  1.00  0.00    -0.031 C 
ATOM      2  C   UNL     1     -10.145  13.478   9.497  1.00  0.00    -0.031 C 
ENDROOT
BRANCH   1   3
ATOM      3  C   UNL     1     -12.375  12.659   8.622  1.00  0.00     0.027 C 
BRANCH   3   4
ATOM      4  C   UNL     1     -12.755  11.636   7.532  1.00  0.00     0.004 C 
BRANCH   4   5
ATOM      5  C   UNL     1     -11.547  11.039   6.787  1.00  0.00     0.000 C 
BRANCH   5   6
ATOM      6  C   UNL     1     -11.806  10.852   5.284  1.00  0.00     0.000 C 
BRANCH   6   7
ATOM      7  C   UNL     1     -10.742  11.531   4.402  1.00  0.00     0.000 C 
BRANCH   7   8
ATOM      8  C   UNL     1     -10.012  12.720   5.052  1.00  0.00     0.006 C 
BRANCH   8   9
ATOM      9  C   UNL     1      -8.783  13.178   4.257  1.00  0.00     0.053 C 
BRANCH   9  10
ATOM     10  C   UNL     1      -9.124  13.324   2.807  1.00  0.00     0.041 C 
ATOM     11  O   UNL     1      -8.588  12.574   1.950  1.00  0.00    -0.550 OA
ATOM     12  O   UNL     1      -9.998  14.322   2.396  1.00  0.00    -0.550 OA
ENDBRANCH   9  10
ENDBRANCH   8   9
ENDBRANCH   7   8
ENDBRANCH   6   7
ENDBRANCH   5   6
ENDBRANCH   4   5
ENDBRANCH   3   4
ENDBRANCH   1   3
BRANCH   2  13
ATOM     13  C   UNL     1     -10.515  14.944   9.508  1.00  0.00     0.027 C 
BRANCH  13  14
ATOM     14  C   UNL     1      -9.336  15.813   9.961  1.00  0.00     0.004 C 
BRANCH  14  15
ATOM     15  C   UNL     1      -8.076  14.978  10.240  1.00  0.00     0.000 C 
BRANCH  15  16
ATOM     16  C   UNL     1      -7.500  15.212  11.648  1.00  0.00     0.000 C 
BRANCH  16  17
ATOM     17  C   UNL     1      -6.833  13.982  12.289  1.00  0.00    -0.000 C 
BRANCH  17  18
ATOM     18  C   UNL     1      -7.498  12.657  11.876  1.00  0.00    -0.000 C 
BRANCH  18  19
ATOM     19  C   UNL     1      -8.604  12.225  12.850  1.00  0.00    -0.003 C 
ATOM     20  C   UNL     1      -9.393  11.016  12.348  1.00  0.00     0.004 C 
ENDBRANCH  18  19
ENDBRANCH  17  18
ENDBRANCH  16  17
ENDBRANCH  15  16
ENDBRANCH  14  15
ENDBRANCH  13  14
ENDBRANCH   2  13
TORSDOF 15
ENDMDL
MODEL 3
REMARK VINA RESULT:    -5.563      3.281      7.567
REMARK INTER + INTRA:         -12.041
REMARK INTER:                 -10.768
REMARK INTRA:                  -1.273
REMARK UNBOUND:                -1.599
REMARK SMILES CCCCCCCCC=CCCCCCCCC(=O)[O-]
REMARK SMILES IDX 10 1 9 2 11 3 12 4 13 5 14 6 15 7 16 8 17 9 18 10 19 11
REMARK SMILES IDX 20 12 8 13 7 14 6 15 5 16 4 17 3 18 2 19 1 20
REMARK H PARENT
REMARK Flexibility Score: inf
ROOT
ATOM      1  C   UNL     1     -12.270  12.631   8.864  1.00  0.00    -0.031 C 
ATOM      2  C   UNL     1     -12.819  11.743   8.013  1.00  0.00    -0.031 C 
ENDROOT
BRANCH   1   3
ATOM      3  C   UNL     1     -10.828  12.625   9.303  1.00  0.00     0.027 C 
BRANCH   3   4
ATOM      4  C   UNL     1      -9.977  13.683   8.571  1.00  0.00     0.004 C 
BRANCH   4   5
ATOM      5  C   UNL     1      -9.503  14.837   9.474  1.00  0.00     0.000 C 
BRANCH   5   6
ATOM      6  C   UNL     1      -8.020  14.721   9.862  1.00  0.00     0.000 C 
BRANCH   6   7
ATOM      7  C   UNL     1      -7.733  15.213  11.292  1.00  0.00     0.000 C 
BRANCH   7   8
ATOM      8  C   UNL     1      -7.215  14.137  12.264  1.00  0.00     0.006 C 
BRANCH   8   9
ATOM      9  C   UNL     1      -7.521  12.709  11.797  1.00  0.00     0.053 C 
BRANCH   9  10
ATOM     10  C   UNL     1      -8.529  12.069  12.698  1.00  0.00     0.041 C 
ATOM     11  O   UNL     1      -9.369  11.253  12.234  1.00  0.00    -0.550 OA
ATOM     12  O   UNL     1      -8.575  12.411  14.043  1.00  0.00    -0.550 OA
ENDBRANCH   9  10
ENDBRANCH   8   9
ENDBRANCH   7   8
ENDBRANCH   6   7
ENDBRANCH   5   6
ENDBRANCH   4   5
ENDBRANCH   3   4
ENDBRANCH   1   3
BRANCH   2  13
ATOM     13  C   UNL     1     -12.094  10.570   7.395  1.00  0.00     0.027 C 
BRANCH  13  14
ATOM     14  C   UNL     1     -12.038  10.690   5.868  1.00  0.00     0.004 C 
BRANCH  14  15
ATOM     15  C   UNL     1     -10.925  11.642   5.402  1.00  0.00     0.000 C 
BRANCH  15  16
ATOM     16  C   UNL     1     -10.405  11.315   3.991  1.00  0.00     0.000 C 
BRANCH  16  17
ATOM     17  C   UNL     1     -10.495  12.475   2.982  1.00  0.00    -0.000 C 
BRANCH  17  18
ATOM     18  C   UNL     1      -9.471  13.590   3.260  1.00  0.00    -0.000 C 
BRANCH  18  19
ATOM     19  C   UNL     1      -8.123  13.042   3.752  1.00  0.00    -0.003 C 
ATOM     20  C   UNL     1      -7.121  12.834   2.618  1.00  0.00     0.004 C 
ENDBRANCH  18  19
ENDBRANCH  17  18
ENDBRANCH  16  17
ENDBRANCH  15  16
ENDBRANCH  14  15
ENDBRANCH  13  14
ENDBRANCH   2  13
TORSDOF 15
ENDMDL
MODEL 4
REMARK VINA RESULT:    -5.533      4.768      7.434
REMARK INTER + INTRA:         -11.984
REMARK INTER:                 -10.772
REMARK INTRA:                  -1.212
REMARK UNBOUND:                -1.599
REMARK SMILES CCCCCCCCC=CCCCCCCCC(=O)[O-]
REMARK SMILES IDX 10 1 9 2 11 3 12 4 13 5 14 6 15 7 16 8 17 9 18 10 19 11
REMARK SMILES IDX 20 12 8 13 7 14 6 15 5 16 4 17 3 18 2 19 1 20
REMARK H PARENT
REMARK Flexibility Score: inf
ROOT
ATOM      1  C   UNL     1      -6.496  11.670   2.588  1.00  0.00    -0.031 C 
ATOM      2  C   UNL     1      -7.023  12.813   3.066  1.00  0.00    -0.031 C 
ENDROOT
BRANCH   1   3
ATOM      3  C   UNL     1      -7.054  10.292   2.840  1.00  0.00     0.027 C 
BRANCH   3   4
ATOM      4  C   UNL     1      -5.972   9.276   3.258  1.00  0.00     0.004 C 
BRANCH   4   5
ATOM      5  C   UNL     1      -4.873   9.869   4.159  1.00  0.00     0.000 C 
BRANCH   5   6
ATOM      6  C   UNL     1      -4.271   8.836   5.124  1.00  0.00     0.000 C 
BRANCH   6   7
ATOM      7  C   UNL     1      -4.088   9.383   6.553  1.00  0.00     0.000 C 
BRANCH   7   8
ATOM      8  C   UNL     1      -4.395   8.383   7.682  1.00  0.00     0.006 C 
BRANCH   8   9
ATOM      9  C   UNL     1      -5.488   7.373   7.308  1.00  0.00     0.053 C 
BRANCH   9  10
ATOM     10  C   UNL     1      -4.988   5.974   7.486  1.00  0.00     0.041 C 
ATOM     11  O   UNL     1      -3.843   5.651   7.072  1.00  0.00    -0.550 OA
ATOM     12  O   UNL     1      -5.805   5.012   8.064  1.00  0.00    -0.550 OA
ENDBRANCH   9  10
ENDBRANCH   8   9
ENDBRANCH   7   8
ENDBRANCH   6   7
ENDBRANCH   5   6
ENDBRANCH   4   5
ENDBRANCH   3   4
ENDBRANCH   1   3
BRANCH   2  13
ATOM     13  C   UNL     1      -8.231  12.900   3.969  1.00  0.00     0.027 C 
BRANCH  13  14
ATOM     14  C   UNL     1      -9.437  13.496   3.232  1.00  0.00     0.004 C 
BRANCH  14  15
ATOM     15  C   UNL     1     -10.541  12.452   2.993  1.00  0.00     0.000 C 
BRANCH  15  16
ATOM     16  C   UNL     1     -10.522  11.310   4.024  1.00  0.00     0.000 C 
BRANCH  16  17
ATOM     17  C   UNL     1     -11.272  11.606   5.334  1.00  0.00    -0.000 C 
BRANCH  17  18
ATOM     18  C   UNL     1     -11.996  10.372   5.902  1.00  0.00    -0.000 C 
BRANCH  18  19
ATOM     19  C   UNL     1     -12.108  10.408   7.433  1.00  0.00    -0.003 C 
ATOM     20  C   UNL     1     -12.998   9.295   7.986  1.00  0.00     0.004 C 
ENDBRANCH  18  19
ENDBRANCH  17  18
ENDBRANCH  16  17
ENDBRANCH  15  16
ENDBRANCH  14  15
ENDBRANCH  13  14
ENDBRANCH   2  13
TORSDOF 15
ENDMDL
MODEL 5
REMARK VINA RESULT:    -5.422      2.431      7.357
REMARK INTER + INTRA:         -11.775
REMARK INTER:                 -10.380
REMARK INTRA:                  -1.395
REMARK UNBOUND:                -1.599
REMARK SMILES CCCCCCCCC=CCCCCCCCC(=O)[O-]
REMARK SMILES IDX 10 1 9 2 11 3 12 4 13 5 14 6 15 7 16 8 17 9 18 10 19 11
REMARK SMILES IDX 20 12 8 13 7 14 6 15 5 16 4 17 3 18 2 19 1 20
REMARK H PARENT
REMARK Flexibility Score: inf
ROOT
ATOM      1  C   UNL     1     -10.704  11.421   3.702  1.00  0.00    -0.031 C 
ATOM      2  C   UNL     1     -10.061  12.286   2.895  1.00  0.00    -0.031 C 
ENDROOT
BRANCH   1   3
ATOM      3  C   UNL     1     -10.874  11.592   5.190  1.00  0.00     0.027 C 
BRANCH   3   4
ATOM      4  C   UNL     1     -12.253  11.120   5.692  1.00  0.00     0.004 C 
BRANCH   4   5
ATOM      5  C   UNL     1     -12.185  10.150   6.886  1.00  0.00     0.000 C 
BRANCH   5   6
ATOM      6  C   UNL     1     -12.844  10.717   8.154  1.00  0.00     0.000 C 
BRANCH   6   7
ATOM      7  C   UNL     1     -12.451  12.180   8.432  1.00  0.00     0.000 C 
BRANCH   7   8
ATOM      8  C   UNL     1     -10.959  12.415   8.724  1.00  0.00     0.006 C 
BRANCH   8   9
ATOM      9  C   UNL     1     -10.692  13.731   9.466  1.00  0.00     0.053 C 
BRANCH   9  10
ATOM     10  C   UNL     1      -9.454  14.386   8.939  1.00  0.00     0.041 C 
ATOM     11  O   UNL     1      -9.042  14.123   7.778  1.00  0.00    -0.550 OA
ATOM     12  O   UNL     1      -8.728  15.250   9.747  1.00  0.00    -0.550 OA
ENDBRANCH   9  10
ENDBRANCH   8   9
ENDBRANCH   7   8
ENDBRANCH   6   7
ENDBRANCH   5   6
ENDBRANCH   4   5
ENDBRANCH   3   4
ENDBRANCH   1   3
BRANCH   2  13
ATOM     13  C   UNL     1      -9.365  13.547   3.355  1.00  0.00     0.027 C 
BRANCH  13  14
ATOM     14  C   UNL     1      -7.935  13.256   3.823  1.00  0.00     0.004 C 
BRANCH  14  15
ATOM     15  C   UNL     1      -7.281  12.122   3.016  1.00  0.00     0.000 C 
BRANCH  15  16
ATOM     16  C   UNL     1      -6.174  12.620   2.070  1.00  0.00     0.000 C 
BRANCH  16  17
ATOM     17  C   UNL     1      -6.559  12.651   0.580  1.00  0.00    -0.000 C 
BRANCH  17  18
ATOM     18  C   UNL     1      -7.331  13.924   0.188  1.00  0.00    -0.000 C 
BRANCH  18  19
ATOM     19  C   UNL     1      -6.747  15.189   0.835  1.00  0.00    -0.003 C 
ATOM     20  C   UNL     1      -5.687  15.861  -0.036  1.00  0.00     0.004 C 
ENDBRANCH  18  19
ENDBRANCH  17  18
ENDBRANCH  16  17
ENDBRANCH  15  16
ENDBRANCH  14  15
ENDBRANCH  13  14
ENDBRANCH   2  13
TORSDOF 15
ENDMDL
MODEL 6
REMARK VINA RESULT:    -5.419      2.890      6.879
REMARK INTER + INTRA:         -11.769
REMARK INTER:                 -10.565
REMARK INTRA:                  -1.204
REMARK UNBOUND:                -1.599
REMARK SMILES CCCCCCCCC=CCCCCCCCC(=O)[O-]
REMARK SMILES IDX 10 1 9 2 11 3 12 4 13 5 14 6 15 7 16 8 17 9 18 10 19 11
REMARK SMILES IDX 20 12 8 13 7 14 6 15 5 16 4 17 3 18 2 19 1 20
REMARK H PARENT
REMARK Flexibility Score: inf
ROOT
ATOM      1  C   UNL     1     -10.880  11.299   3.382  1.00  0.00    -0.031 C 
ATOM      2  C   UNL     1     -10.409  12.197   2.497  1.00  0.00    -0.031 C 
ENDROOT
BRANCH   1   3
ATOM      3  C   UNL     1     -10.869  11.476   4.880  1.00  0.00     0.027 C 
BRANCH   3   4
ATOM      4  C   UNL     1     -11.900  10.579   5.595  1.00  0.00     0.004 C 
BRANCH   4   5
ATOM      5  C   UNL     1     -12.016  10.844   7.107  1.00  0.00     0.000 C 
BRANCH   5   6
ATOM      6  C   UNL     1     -11.027  11.911   7.603  1.00  0.00     0.000 C 
BRANCH   6   7
ATOM      7  C   UNL     1     -11.410  12.493   8.977  1.00  0.00     0.000 C 
BRANCH   7   8
ATOM      8  C   UNL     1     -10.253  13.137   9.762  1.00  0.00     0.006 C 
BRANCH   8   9
ATOM      9  C   UNL     1      -9.947  14.571   9.311  1.00  0.00     0.053 C 
BRANCH   9  10
ATOM     10  C   UNL     1      -8.542  14.941   9.669  1.00  0.00     0.041 C 
ATOM     11  O   UNL     1      -8.312  15.666  10.673  1.00  0.00    -0.550 OA
ATOM     12  O   UNL     1      -7.488  14.527   8.865  1.00  0.00    -0.550 OA
ENDBRANCH   9  10
ENDBRANCH   8   9
ENDBRANCH   7   8
ENDBRANCH   6   7
ENDBRANCH   5   6
ENDBRANCH   4   5
ENDBRANCH   3   4
ENDBRANCH   1   3
BRANCH   2  13
ATOM     13  C   UNL     1      -9.751  13.509   2.859  1.00  0.00     0.027 C 
BRANCH  13  14
ATOM     14  C   UNL     1      -8.252  13.488   2.539  1.00  0.00     0.004 C 
BRANCH  14  15
ATOM     15  C   UNL     1      -7.442  12.739   3.610  1.00  0.00     0.000 C 
BRANCH  15  16
ATOM     16  C   UNL     1      -6.248  11.962   3.026  1.00  0.00     0.000 C 
BRANCH  16  17
ATOM     17  C   UNL     1      -6.600  10.593   2.418  1.00  0.00    -0.000 C 
BRANCH  17  18
ATOM     18  C   UNL     1      -6.182   9.414   3.315  1.00  0.00    -0.000 C 
BRANCH  18  19
ATOM     19  C   UNL     1      -4.682   9.432   3.649  1.00  0.00    -0.003 C 
ATOM     20  C   UNL     1      -4.413   9.555   5.148  1.00  0.00     0.004 C 
ENDBRANCH  18  19
ENDBRANCH  17  18
ENDBRANCH  16  17
ENDBRANCH  15  16
ENDBRANCH  14  15
ENDBRANCH  13  14
ENDBRANCH   2  13
TORSDOF 15
ENDMDL
MODEL 7
REMARK VINA RESULT:    -5.388      4.754      7.169
REMARK INTER + INTRA:         -11.712
REMARK INTER:                 -10.297
REMARK INTRA:                  -1.415
REMARK UNBOUND:                -1.599
REMARK SMILES CCCCCCCCC=CCCCCCCCC(=O)[O-]
REMARK SMILES IDX 10 1 9 2 11 3 12 4 13 5 14 6 15 7 16 8 17 9 18 10 19 11
REMARK SMILES IDX 20 12 8 13 7 14 6 15 5 16 4 17 3 18 2 19 1 20
REMARK H PARENT
REMARK Flexibility Score: inf
ROOT
ATOM      1  C   UNL     1      -5.221  10.579   2.804  1.00  0.00    -0.031 C 
ATOM      2  C   UNL     1      -5.086   9.245   2.932  1.00  0.00    -0.031 C 
ENDROOT
BRANCH   1   3
ATOM      3  C   UNL     1      -6.047  11.453   3.712  1.00  0.00     0.027 C 
BRANCH   3   4
ATOM      4  C   UNL     1      -7.310  12.008   3.022  1.00  0.00     0.004 C 
BRANCH   4   5
ATOM      5  C   UNL     1      -7.850  13.303   3.656  1.00  0.00     0.000 C 
BRANCH   5   6
ATOM      6  C   UNL     1      -9.339  13.210   4.025  1.00  0.00     0.000 C 
BRANCH   6   7
ATOM      7  C   UNL     1     -10.084  12.110   3.246  1.00  0.00     0.000 C 
BRANCH   7   8
ATOM      8  C   UNL     1     -10.856  11.099   4.113  1.00  0.00     0.006 C 
BRANCH   8   9
ATOM      9  C   UNL     1     -11.065  11.582   5.554  1.00  0.00     0.053 C 
BRANCH   9  10
ATOM     10  C   UNL     1     -11.921  10.615   6.309  1.00  0.00     0.041 C 
ATOM     11  O   UNL     1     -12.720   9.859   5.695  1.00  0.00    -0.550 OA
ATOM     12  O   UNL     1     -11.875  10.582   7.697  1.00  0.00    -0.550 OA
ENDBRANCH   9  10
ENDBRANCH   8   9
ENDBRANCH   7   8
ENDBRANCH   6   7
ENDBRANCH   5   6
ENDBRANCH   4   5
ENDBRANCH   3   4
ENDBRANCH   1   3
BRANCH   2  13
ATOM     13  C   UNL     1      -5.775   8.401   3.978  1.00  0.00     0.027 C 
BRANCH  13  14
ATOM     14  C   UNL     1      -4.907   7.206   4.391  1.00  0.00     0.004 C 
BRANCH  14  15
ATOM     15  C   UNL     1      -5.493   6.457   5.600  1.00  0.00     0.000 C 
BRANCH  15  16
ATOM     16  C   UNL     1      -4.699   6.696   6.897  1.00  0.00     0.000 C 
BRANCH  16  17
ATOM     17  C   UNL     1      -5.267   7.796   7.812  1.00  0.00    -0.000 C 
BRANCH  17  18
ATOM     18  C   UNL     1      -4.278   8.952   8.044  1.00  0.00    -0.000 C 
BRANCH  18  19
ATOM     19  C   UNL     1      -3.915   9.686   6.745  1.00  0.00    -0.003 C 
ATOM     20  C   UNL     1      -3.384  11.098   6.994  1.00  0.00     0.004 C 
ENDBRANCH  18  19
ENDBRANCH  17  18
ENDBRANCH  16  17
ENDBRANCH  15  16
ENDBRANCH  14  15
ENDBRANCH  13  14
ENDBRANCH   2  13
TORSDOF 15
ENDMDL
MODEL 8
REMARK VINA RESULT:    -5.369      1.465      2.888
REMARK INTER + INTRA:         -11.675
REMARK INTER:                 -10.679
REMARK INTRA:                  -0.997
REMARK UNBOUND:                -1.599
REMARK SMILES CCCCCCCCC=CCCCCCCCC(=O)[O-]
REMARK SMILES IDX 10 1 9 2 11 3 12 4 13 5 14 6 15 7 16 8 17 9 18 10 19 11
REMARK SMILES IDX 20 12 8 13 7 14 6 15 5 16 4 17 3 18 2 19 1 20
REMARK H PARENT
REMARK Flexibility Score: inf
ROOT
ATOM      1  C   UNL     1     -11.630  10.597   5.369  1.00  0.00    -0.031 C 
ATOM      2  C   UNL     1     -12.424  10.374   6.433  1.00  0.00    -0.031 C 
ENDROOT
BRANCH   1   3
ATOM      3  C   UNL     1     -10.883  11.880   5.103  1.00  0.00     0.027 C 
BRANCH   3   4
ATOM      4  C   UNL     1     -10.634  12.126   3.602  1.00  0.00     0.004 C 
BRANCH   4   5
ATOM      5  C   UNL     1      -9.692  11.098   2.948  1.00  0.00     0.000 C 
BRANCH   5   6
ATOM      6  C   UNL     1      -8.272  11.643   2.731  1.00  0.00     0.000 C 
BRANCH   6   7
ATOM      7  C   UNL     1      -8.008  12.954   3.496  1.00  0.00     0.000 C 
BRANCH   7   8
ATOM      8  C   UNL     1      -7.716  14.181   2.613  1.00  0.00     0.006 C 
BRANCH   8   9
ATOM      9  C   UNL     1      -8.192  14.005   1.166  1.00  0.00     0.053 C 
BRANCH   9  10
ATOM     10  C   UNL     1      -7.113  14.406   0.209  1.00  0.00     0.041 C 
ATOM     11  O   UNL     1      -7.214  15.475  -0.449  1.00  0.00    -0.550 OA
ATOM     12  O   UNL     1      -6.020  13.575   0.007  1.00  0.00    -0.550 OA
ENDBRANCH   9  10
ENDBRANCH   8   9
ENDBRANCH   7   8
ENDBRANCH   6   7
ENDBRANCH   5   6
ENDBRANCH   4   5
ENDBRANCH   3   4
ENDBRANCH   1   3
BRANCH   2  13
ATOM     13  C   UNL     1     -12.734  11.387   7.511  1.00  0.00     0.027 C 
BRANCH  13  14
ATOM     14  C   UNL     1     -11.561  11.541   8.486  1.00  0.00     0.004 C 
BRANCH  14  15
ATOM     15  C   UNL     1     -11.475  12.962   9.067  1.00  0.00     0.000 C 
BRANCH  15  16
ATOM     16  C   UNL     1     -10.059  13.331   9.544  1.00  0.00     0.000 C 
BRANCH  16  17
ATOM     17  C   UNL     1      -9.280  14.269   8.604  1.00  0.00    -0.000 C 
BRANCH  17  18
ATOM     18  C   UNL     1      -7.858  14.574   9.105  1.00  0.00    -0.000 C 
BRANCH  18  19
ATOM     19  C   UNL     1      -7.804  14.788  10.626  1.00  0.00    -0.003 C 
ATOM     20  C   UNL     1      -8.103  16.232  11.029  1.00  0.00     0.004 C 
ENDBRANCH  18  19
ENDBRANCH  17  18
ENDBRANCH  16  17
ENDBRANCH  15  16
ENDBRANCH  14  15
ENDBRANCH  13  14
ENDBRANCH   2  13
TORSDOF 15
ENDMDL
MODEL 9
REMARK VINA RESULT:    -5.293      5.407      8.413
REMARK INTER + INTRA:         -11.534
REMARK INTER:                  -9.730
REMARK INTRA:                  -1.805
REMARK UNBOUND:                -1.599
REMARK SMILES CCCCCCCCC=CCCCCCCCC(=O)[O-]
REMARK SMILES IDX 10 1 9 2 11 3 12 4 13 5 14 6 15 7 16 8 17 9 18 10 19 11
REMARK SMILES IDX 20 12 8 13 7 14 6 15 5 16 4 17 3 18 2 19 1 20
REMARK H PARENT
REMARK Flexibility Score: inf
ROOT
ATOM      1  C   UNL     1      -5.368  10.828   3.736  1.00  0.00    -0.031 C 
ATOM      2  C   UNL     1      -6.014  11.866   3.172  1.00  0.00    -0.031 C 
ENDROOT
BRANCH   1   3
ATOM      3  C   UNL     1      -5.331   9.428   3.176  1.00  0.00     0.027 C 
BRANCH   3   4
ATOM      4  C   UNL     1      -5.172   8.352   4.269  1.00  0.00     0.004 C 
BRANCH   4   5
ATOM      5  C   UNL     1      -3.789   7.675   4.283  1.00  0.00     0.000 C 
BRANCH   5   6
ATOM      6  C   UNL     1      -2.876   8.207   5.398  1.00  0.00     0.000 C 
BRANCH   6   7
ATOM      7  C   UNL     1      -3.626   9.074   6.427  1.00  0.00     0.000 C 
BRANCH   7   8
ATOM      8  C   UNL     1      -3.893   8.398   7.784  1.00  0.00     0.006 C 
BRANCH   8   9
ATOM      9  C   UNL     1      -5.326   7.868   7.917  1.00  0.00     0.053 C 
BRANCH   9  10
ATOM     10  C   UNL     1      -5.344   6.376   7.803  1.00  0.00     0.041 C 
ATOM     11  O   UNL     1      -6.394   5.732   8.064  1.00  0.00    -0.550 OA
ATOM     12  O   UNL     1      -4.186   5.692   7.457  1.00  0.00    -0.550 OA
ENDBRANCH   9  10
ENDBRANCH   8   9
ENDBRANCH   7   8
ENDBRANCH   6   7
ENDBRANCH   5   6
ENDBRANCH   4   5
ENDBRANCH   3   4
ENDBRANCH   1   3
BRANCH   2  13
ATOM     13  C   UNL     1      -6.845  11.789   1.913  1.00  0.00     0.027 C 
BRANCH  13  14
ATOM     14  C   UNL     1      -6.595  12.999   1.004  1.00  0.00     0.004 C 
BRANCH  14  15
ATOM     15  C   UNL     1      -7.902  13.713   0.620  1.00  0.00     0.000 C 
BRANCH  15  16
ATOM     16  C   UNL     1      -8.384  14.703   1.695  1.00  0.00     0.000 C 
BRANCH  16  17
ATOM     17  C   UNL     1      -9.663  14.279   2.440  1.00  0.00    -0.000 C 
BRANCH  17  18
ATOM     18  C   UNL     1      -9.375  13.663   3.821  1.00  0.00    -0.000 C 
BRANCH  18  19
ATOM     19  C   UNL     1      -9.960  12.250   3.968  1.00  0.00    -0.003 C 
ATOM     20  C   UNL     1     -10.746  11.806   2.735  1.00  0.00     0.004 C 
ENDBRANCH  18  19
ENDBRANCH  17  18
ENDBRANCH  16  17
ENDBRANCH  15  16
ENDBRANCH  14  15
ENDBRANCH  13  14
ENDBRANCH   2  13
TORSDOF 15
ENDMDL
