MODEL 1
REMARK VINA RESULT:    48.080      0.000      0.000
REMARK INTER + INTRA:          52.610
REMARK INTER:                  52.296
REMARK INTRA:                   0.314
REMARK UNBOUND:                 0.314
REMARK SMILES CC1(C)CC[C@@]2(C(=O)[O-])CC[C@@]3(C)C(=CC[C@@H]4[C@@]5(C)CC[C@@H](O)C(C)(C)[C@H]5CC[C@@]43C)[C@H]2C1
REMARK SMILES IDX 6 1 5 2 10 3 32 4 4 5 11 6 14 7 33 8 2 9 12 10 15 11 1 12
REMARK SMILES IDX 3 13 13 14 30 15 16 16 17 17 29 18 31 19 18 20 28 21 27 22
REMARK SMILES IDX 20 23 19 24 24 25 21 26 22 27 25 28 26 29 7 30 8 31 9 32
REMARK SMILES IDX 23 33
REMARK H PARENT 23 34
REMARK Flexibility Score: inf
ROOT
ATOM      1  C   UNL     1      17.151   3.105  -3.965  1.00  0.00     0.017 C 
ATOM      2  C   UNL     1      18.717   3.007  -4.028  1.00  0.00     0.014 C 
ATOM      3  C   UNL     1      16.557   2.248  -5.112  1.00  0.00     0.014 C 
ATOM      4  C   UNL     1      16.640   2.608  -2.566  1.00  0.00     0.028 C 
ATOM      5  C   UNL     1      19.377   3.199  -2.653  1.00  0.00     0.007 C 
ATOM      6  C   UNL     1      15.030   2.035  -5.018  1.00  0.00     0.013 C 
ATOM      7  C   UNL     1      15.139   2.263  -2.564  1.00  0.00    -0.064 C 
ATOM      8  C   UNL     1      17.544   1.518  -1.952  1.00  0.00     0.015 C 
ATOM      9  C   UNL     1      18.977   2.069  -1.648  1.00  0.00    -0.035 C 
ATOM     10  C   UNL     1      14.521   1.398  -3.677  1.00  0.00    -0.006 C 
ATOM     11  C   UNL     1      14.382   2.961  -1.704  1.00  0.00    -0.027 C 
ATOM     12  C   UNL     1      19.026   2.630  -0.210  1.00  0.00     0.011 C 
ATOM     13  C   UNL     1      19.994   0.908  -1.742  1.00  0.00     0.011 C 
ATOM     14  C   UNL     1      15.098  -0.049  -3.562  1.00  0.00     0.017 C 
ATOM     15  C   UNL     1      12.887   1.324  -3.624  1.00  0.00    -0.020 C 
ATOM     16  C   UNL     1      12.909   3.110  -1.788  1.00  0.00     0.032 C 
ATOM     17  C   UNL     1      12.260   2.696  -3.146  1.00  0.00     0.006 C 
ATOM     18  C   UNL     1      12.378   0.246  -2.617  1.00  0.00     0.008 C 
ATOM     19  C   UNL     1      12.381   0.910  -5.045  1.00  0.00     0.012 C 
ATOM     20  C   UNL     1      10.656   2.739  -3.006  1.00  0.00    -0.025 C 
ATOM     21  C   UNL     1      10.849   0.172  -2.488  1.00  0.00     0.005 C 
ATOM     22  C   UNL     1      10.125   1.509  -2.138  1.00  0.00     0.003 C 
ATOM     23  C   UNL     1       9.953   2.842  -4.415  1.00  0.00     0.010 C 
ATOM     24  C   UNL     1      10.272   4.070  -2.272  1.00  0.00     0.012 C 
ATOM     25  C   UNL     1       8.521   1.360  -2.084  1.00  0.00    -0.006 C 
ATOM     26  C   UNL     1       8.739   1.922  -4.594  1.00  0.00     0.033 C 
ATOM     27  C   UNL     1       7.832   1.978  -3.357  1.00  0.00     0.120 C 
ATOM     28  C   UNL     1       8.069  -0.122  -1.906  1.00  0.00     0.014 C 
ATOM     29  C   UNL     1       7.971   2.090  -0.828  1.00  0.00     0.014 C 
ENDROOT
BRANCH   1  30
ATOM     30  C   UNL     1      16.732   4.556  -4.205  1.00  0.00     0.048 C 
ATOM     31  O   UNL     1      17.550   5.409  -4.646  1.00  0.00    -0.550 OA
ATOM     32  O   UNL     1      15.456   4.981  -3.854  1.00  0.00    -0.550 OA
ENDBRANCH   1  30
BRANCH  27  33
ATOM     33  O   UNL     1       6.572   1.403  -3.626  1.00  0.00    -0.393 OA
ATOM     34  H   UNL     1       6.695   0.426  -3.758  1.00  0.00     0.210 HD
ENDBRANCH  27  33
TORSDOF 2
ENDMDL
