MODEL 1
REMARK VINA RESULT:    -4.365      0.000      0.000
REMARK INTER + INTRA:          -6.838
REMARK INTER:                  -6.662
REMARK INTRA:                  -0.176
REMARK UNBOUND:                -0.176
REMARK SMILES CC1=CCC[C@H](C)C(=O)C[C@H](C(C)C)C(=O)C1
REMARK SMILES IDX 8 1 9 2 6 3 7 4 5 5 4 6 3 7 2 8 1 9 10 11 11 12 15 13 16 14
REMARK SMILES IDX 17 15 12 17 13 18 14 19
REMARK H PARENT
REMARK Flexibility Score: 70.00
ROOT
ATOM      1  C   UNL     1      33.419  31.813 -14.782  1.00  0.00     0.136 C 
ATOM      2  O   UNL     1      33.729  32.694 -15.573  1.00  0.00    -0.299 OA
ENDROOT
BRANCH   1   3
ATOM      3  C   UNL     1      34.539  30.961 -14.189  1.00  0.00     0.053 C 
ATOM      4  C   UNL     1      35.962  31.477 -14.459  1.00  0.00     0.016 C 
BRANCH   3   5
ATOM      5  C   UNL     1      34.324  30.662 -12.683  1.00  0.00     0.015 C 
BRANCH   5   6
ATOM      6  C   UNL     1      33.752  29.267 -12.361  1.00  0.00     0.028 C 
BRANCH   6   7
ATOM      7  C   UNL     1      32.497  29.370 -11.526  1.00  0.00    -0.028 C 
ATOM      8  C   UNL     1      31.244  29.102 -11.956  1.00  0.00    -0.070 CG0
ATOM      9  C   UNL     1      30.111  29.239 -10.969  1.00  0.00     0.039 C 
ATOM     10  G   UNL     1      30.930  28.690 -13.380  1.00  0.00     0.000 G0
ENDBRANCH   6   7
ENDBRANCH   5   6
ENDBRANCH   3   5
ENDBRANCH   1   3
BRANCH   1  11
ATOM     11  C   UNL     1      31.957  31.706 -14.390  1.00  0.00     0.087 C 
BRANCH  11  12
ATOM     12  C   UNL     1      31.212  30.595 -15.175  1.00  0.00     0.066 C 
BRANCH  12  13
ATOM     13  C   UNL     1      30.350  29.791 -14.215  1.00  0.00     0.140 C 
ATOM     14  O   UNL     1      29.144  29.989 -14.185  1.00  0.00    -0.299 OA
BRANCH  13  15
ATOM     15  C   UNL     1      30.921  28.676 -13.373  1.00  0.00     0.106 CG0
ATOM     16  G   UNL     1      31.245  29.115 -11.959  1.00  0.00     0.000 G0
ENDBRANCH  13  15
ENDBRANCH  12  13
BRANCH  12  17
ATOM     17  C   UNL     1      30.337  31.172 -16.337  1.00  0.00    -0.006 C 
ATOM     18  C   UNL     1      29.881  32.618 -16.060  1.00  0.00     0.008 C 
ATOM     19  C   UNL     1      31.098  31.142 -17.676  1.00  0.00     0.008 C 
ENDBRANCH  12  17
ENDBRANCH  11  12
ENDBRANCH   1  11
TORSDOF 1
ENDMDL
MODEL 2
REMARK VINA RESULT:    -4.262      8.521     10.761
REMARK INTER + INTRA:          -6.680
REMARK INTER:                  -6.560
REMARK INTRA:                  -0.120
REMARK UNBOUND:                -0.176
REMARK SMILES CC1=CCC[C@H](C)C(=O)C[C@H](C(C)C)C(=O)C1
REMARK SMILES IDX 8 1 9 2 6 3 7 4 5 5 4 6 3 7 2 8 1 9 10 11 11 12 15 13 16 14
REMARK SMILES IDX 17 15 12 17 13 18 14 19
REMARK H PARENT
REMARK Flexibility Score: 70.00
ROOT
ATOM      1  C   UNL     1      20.516  27.622 -15.333  1.00  0.00     0.136 C 
ATOM      2  O   UNL     1      20.018  26.950 -16.225  1.00  0.00    -0.299 OA
ENDROOT
BRANCH   1   3
ATOM      3  C   UNL     1      19.578  28.438 -14.446  1.00  0.00     0.053 C 
ATOM      4  C   UNL     1      18.079  28.176 -14.671  1.00  0.00     0.016 C 
BRANCH   3   5
ATOM      5  C   UNL     1      19.948  28.341 -12.943  1.00  0.00     0.015 C 
BRANCH   5   6
ATOM      6  C   UNL     1      20.564  29.616 -12.332  1.00  0.00     0.028 C 
BRANCH   6   7
ATOM      7  C   UNL     1      21.775  29.287 -11.490  1.00  0.00    -0.028 C 
ATOM      8  C   UNL     1      23.060  29.529 -11.834  1.00  0.00    -0.070 CG0
ATOM      9  C   UNL     1      24.141  29.152 -10.852  1.00  0.00     0.039 C 
ATOM     10  G   UNL     1      23.456  30.144 -13.162  1.00  0.00     0.000 G0
ENDBRANCH   6   7
ENDBRANCH   5   6
ENDBRANCH   3   5
ENDBRANCH   1   3
BRANCH   1  11
ATOM     11  C   UNL     1      22.016  27.514 -15.128  1.00  0.00     0.087 C 
BRANCH  11  12
ATOM     12  C   UNL     1      22.748  28.859 -15.374  1.00  0.00     0.066 C 
BRANCH  12  13
ATOM     13  C   UNL     1      23.728  29.114 -14.240  1.00  0.00     0.140 C 
ATOM     14  O   UNL     1      24.803  28.534 -14.238  1.00  0.00    -0.299 OA
BRANCH  13  15
ATOM     15  C   UNL     1      23.462  30.148 -13.173  1.00  0.00     0.106 CG0
ATOM     16  G   UNL     1      23.069  29.532 -11.845  1.00  0.00     0.000 G0
ENDBRANCH  13  15
ENDBRANCH  12  13
BRANCH  12  17
ATOM     17  C   UNL     1      23.490  28.889 -16.750  1.00  0.00    -0.006 C 
ATOM     18  C   UNL     1      24.015  27.499 -17.160  1.00  0.00     0.008 C 
ATOM     19  C   UNL     1      22.571  29.420 -17.868  1.00  0.00     0.008 C 
ENDBRANCH  12  17
ENDBRANCH  11  12
ENDBRANCH   1  11
TORSDOF 1
ENDMDL
MODEL 3
REMARK VINA RESULT:    -4.196      1.611      2.017
REMARK INTER + INTRA:          -6.580
REMARK INTER:                  -6.476
REMARK INTRA:                  -0.104
REMARK UNBOUND:                -0.176
REMARK SMILES CC1=CCC[C@H](C)C(=O)C[C@H](C(C)C)C(=O)C1
REMARK SMILES IDX 8 1 9 2 6 3 7 4 5 5 4 6 3 7 2 8 1 9 10 11 11 12 15 13 16 14
REMARK SMILES IDX 17 15 12 17 13 18 14 19
REMARK H PARENT
REMARK Flexibility Score: 70.00
ROOT
ATOM      1  C   UNL     1      34.604  31.256 -15.572  1.00  0.00     0.136 C 
ATOM      2  O   UNL     1      35.095  30.651 -16.516  1.00  0.00    -0.299 OA
ENDROOT
BRANCH   1   3
ATOM      3  C   UNL     1      35.338  31.206 -14.234  1.00  0.00     0.053 C 
ATOM      4  C   UNL     1      36.436  32.266 -14.054  1.00  0.00     0.016 C 
BRANCH   3   5
ATOM      5  C   UNL     1      34.366  31.190 -13.024  1.00  0.00     0.015 C 
BRANCH   5   6
ATOM      6  C   UNL     1      33.362  30.020 -12.999  1.00  0.00     0.028 C 
BRANCH   6   7
ATOM      7  C   UNL     1      32.019  30.465 -12.468  1.00  0.00    -0.028 C 
ATOM      8  C   UNL     1      30.864  30.481 -13.171  1.00  0.00    -0.070 CG0
ATOM      9  C   UNL     1      29.611  30.937 -12.465  1.00  0.00     0.039 C 
ATOM     10  G   UNL     1      30.779  30.079 -14.630  1.00  0.00     0.000 G0
ENDBRANCH   6   7
ENDBRANCH   5   6
ENDBRANCH   3   5
ENDBRANCH   1   3
BRANCH   1  11
ATOM     11  C   UNL     1      33.357  32.079 -15.840  1.00  0.00     0.087 C 
BRANCH  11  12
ATOM     12  C   UNL     1      32.227  31.248 -16.502  1.00  0.00     0.066 C 
BRANCH  12  13
ATOM     13  C   UNL     1      31.014  31.227 -15.585  1.00  0.00     0.140 C 
ATOM     14  O   UNL     1      30.180  32.114 -15.678  1.00  0.00    -0.299 OA
BRANCH  13  15
ATOM     15  C   UNL     1      30.750  30.082 -14.638  1.00  0.00     0.106 CG0
ATOM     16  G   UNL     1      30.866  30.486 -13.182  1.00  0.00     0.000 G0
ENDBRANCH  13  15
ENDBRANCH  12  13
BRANCH  12  17
ATOM     17  C   UNL     1      31.833  31.798 -17.912  1.00  0.00    -0.006 C 
ATOM     18  C   UNL     1      33.038  32.400 -18.661  1.00  0.00     0.008 C 
ATOM     19  C   UNL     1      31.209  30.694 -18.787  1.00  0.00     0.008 C 
ENDBRANCH  12  17
ENDBRANCH  11  12
ENDBRANCH   1  11
TORSDOF 1
ENDMDL
MODEL 4
REMARK VINA RESULT:    -4.150      2.135      4.252
REMARK INTER + INTRA:          -6.509
REMARK INTER:                  -6.051
REMARK INTRA:                  -0.458
REMARK UNBOUND:                -0.176
REMARK SMILES CC1=CCC[C@H](C)C(=O)C[C@H](C(C)C)C(=O)C1
REMARK SMILES IDX 8 1 9 2 6 3 7 4 5 5 4 6 3 7 2 8 1 9 10 11 11 12 15 13 16 14
REMARK SMILES IDX 17 15 12 17 13 18 14 19
REMARK H PARENT
REMARK Flexibility Score: 70.00
ROOT
ATOM      1  C   UNL     1      32.596  29.227 -12.578  1.00  0.00     0.136 C 
ATOM      2  O   UNL     1      32.982  28.071 -12.472  1.00  0.00    -0.299 OA
ENDROOT
BRANCH   1   3
ATOM      3  C   UNL     1      33.598  30.342 -12.287  1.00  0.00     0.053 C 
ATOM      4  C   UNL     1      34.412  30.164 -10.994  1.00  0.00     0.016 C 
BRANCH   3   5
ATOM      5  C   UNL     1      34.520  30.643 -13.497  1.00  0.00     0.015 C 
BRANCH   5   6
ATOM      6  C   UNL     1      34.102  31.849 -14.361  1.00  0.00     0.028 C 
BRANCH   6   7
ATOM      7  C   UNL     1      33.428  31.399 -15.637  1.00  0.00    -0.028 C 
ATOM      8  C   UNL     1      32.138  31.633 -15.967  1.00  0.00    -0.070 CG0
ATOM      9  C   UNL     1      31.644  31.125 -17.299  1.00  0.00     0.039 C 
ATOM     10  G   UNL     1      31.172  32.363 -15.056  1.00  0.00     0.000 G0
ENDBRANCH   6   7
ENDBRANCH   5   6
ENDBRANCH   3   5
ENDBRANCH   1   3
BRANCH   1  11
ATOM     11  C   UNL     1      31.181  29.450 -13.079  1.00  0.00     0.087 C 
BRANCH  11  12
ATOM     12  C   UNL     1      30.715  30.920 -12.904  1.00  0.00     0.066 C 
BRANCH  12  13
ATOM     13  C   UNL     1      30.278  31.473 -14.251  1.00  0.00     0.140 C 
ATOM     14  O   UNL     1      29.143  31.252 -14.648  1.00  0.00    -0.299 OA
BRANCH  13  15
ATOM     15  C   UNL     1      31.165  32.381 -15.067  1.00  0.00     0.106 CG0
ATOM     16  G   UNL     1      32.123  31.618 -15.960  1.00  0.00     0.000 G0
ENDBRANCH  13  15
ENDBRANCH  12  13
BRANCH  12  17
ATOM     17  C   UNL     1      29.558  31.056 -11.860  1.00  0.00    -0.006 C 
ATOM     18  C   UNL     1      28.835  29.718 -11.613  1.00  0.00     0.008 C 
ATOM     19  C   UNL     1      30.083  31.590 -10.513  1.00  0.00     0.008 C 
ENDBRANCH  12  17
ENDBRANCH  11  12
ENDBRANCH   1  11
TORSDOF 1
ENDMDL
MODEL 5
REMARK VINA RESULT:    -4.133      1.747      4.015
REMARK INTER + INTRA:          -6.484
REMARK INTER:                  -6.381
REMARK INTRA:                  -0.103
REMARK UNBOUND:                -0.176
REMARK SMILES CC1=CCC[C@H](C)C(=O)C[C@H](C(C)C)C(=O)C1
REMARK SMILES IDX 8 1 9 2 6 3 7 4 5 5 4 6 3 7 2 8 1 9 10 11 11 12 15 13 16 14
REMARK SMILES IDX 17 15 12 17 13 18 14 19
REMARK H PARENT
REMARK Flexibility Score: 70.00
ROOT
ATOM      1  C   UNL     1      31.900  32.068 -14.856  1.00  0.00     0.136 C 
ATOM      2  O   UNL     1      32.523  33.001 -15.344  1.00  0.00    -0.299 OA
ENDROOT
BRANCH   1   3
ATOM      3  C   UNL     1      30.379  32.190 -14.776  1.00  0.00     0.053 C 
ATOM      4  C   UNL     1      29.677  32.463 -16.116  1.00  0.00     0.016 C 
BRANCH   3   5
ATOM      5  C   UNL     1      29.727  30.997 -14.031  1.00  0.00     0.015 C 
BRANCH   5   6
ATOM      6  C   UNL     1      29.462  31.222 -12.528  1.00  0.00     0.028 C 
BRANCH   6   7
ATOM      7  C   UNL     1      29.645  29.942 -11.744  1.00  0.00    -0.028 C 
ATOM      8  C   UNL     1      30.767  29.582 -11.082  1.00  0.00    -0.070 CG0
ATOM      9  C   UNL     1      30.757  28.273 -10.331  1.00  0.00     0.039 C 
ATOM     10  G   UNL     1      32.028  30.422 -11.076  1.00  0.00     0.000 G0
ENDBRANCH   6   7
ENDBRANCH   5   6
ENDBRANCH   3   5
ENDBRANCH   1   3
BRANCH   1  11
ATOM     11  C   UNL     1      32.686  30.832 -14.458  1.00  0.00     0.087 C 
BRANCH  11  12
ATOM     12  C   UNL     1      33.505  31.043 -13.158  1.00  0.00     0.066 C 
BRANCH  12  13
ATOM     13  C   UNL     1      33.043  30.048 -12.105  1.00  0.00     0.140 C 
ATOM     14  O   UNL     1      33.564  28.943 -12.057  1.00  0.00    -0.299 OA
BRANCH  13  15
ATOM     15  C   UNL     1      32.037  30.419 -11.043  1.00  0.00     0.106 CG0
ATOM     16  G   UNL     1      30.780  29.574 -11.106  1.00  0.00     0.000 G0
ENDBRANCH  13  15
ENDBRANCH  12  13
BRANCH  12  17
ATOM     17  C   UNL     1      35.045  30.905 -13.396  1.00  0.00    -0.006 C 
ATOM     18  C   UNL     1      35.429  31.139 -14.870  1.00  0.00     0.008 C 
ATOM     19  C   UNL     1      35.836  31.893 -12.516  1.00  0.00     0.008 C 
ENDBRANCH  12  17
ENDBRANCH  11  12
ENDBRANCH   1  11
TORSDOF 1
ENDMDL
MODEL 6
REMARK VINA RESULT:    -4.067      2.697      4.684
REMARK INTER + INTRA:          -6.382
REMARK INTER:                  -5.938
REMARK INTRA:                  -0.444
REMARK UNBOUND:                -0.176
REMARK SMILES CC1=CCC[C@H](C)C(=O)C[C@H](C(C)C)C(=O)C1
REMARK SMILES IDX 8 1 9 2 6 3 7 4 5 5 4 6 3 7 2 8 1 9 10 11 11 12 15 13 16 14
REMARK SMILES IDX 17 15 12 17 13 18 14 19
REMARK H PARENT
REMARK Flexibility Score: 70.00
ROOT
ATOM      1  C   UNL     1      33.288  29.684 -12.001  1.00  0.00     0.136 C 
ATOM      2  O   UNL     1      33.445  28.568 -12.477  1.00  0.00    -0.299 OA
ENDROOT
BRANCH   1   3
ATOM      3  C   UNL     1      33.505  30.887 -12.917  1.00  0.00     0.053 C 
ATOM      4  C   UNL     1      34.976  31.228 -13.206  1.00  0.00     0.016 C 
BRANCH   3   5
ATOM      5  C   UNL     1      32.681  30.792 -14.227  1.00  0.00     0.015 C 
BRANCH   5   6
ATOM      6  C   UNL     1      31.291  31.459 -14.183  1.00  0.00     0.028 C 
BRANCH   6   7
ATOM      7  C   UNL     1      30.218  30.461 -13.811  1.00  0.00    -0.028 C 
ATOM      8  C   UNL     1      29.520  30.454 -12.653  1.00  0.00    -0.070 CG0
ATOM      9  C   UNL     1      28.467  29.390 -12.467  1.00  0.00     0.039 C 
ATOM     10  G   UNL     1      29.760  31.453 -11.539  1.00  0.00     0.000 G0
ENDBRANCH   6   7
ENDBRANCH   5   6
ENDBRANCH   3   5
ENDBRANCH   1   3
BRANCH   1  11
ATOM     11  C   UNL     1      32.802  29.772 -10.566  1.00  0.00     0.087 C 
BRANCH  11  12
ATOM     12  C   UNL     1      32.062  31.103 -10.270  1.00  0.00     0.066 C 
BRANCH  12  13
ATOM     13  C   UNL     1      30.563  30.881 -10.383  1.00  0.00     0.140 C 
ATOM     14  O   UNL     1      29.974  30.303  -9.482  1.00  0.00    -0.299 OA
BRANCH  13  15
ATOM     15  C   UNL     1      29.756  31.452 -11.524  1.00  0.00     0.106 CG0
ATOM     16  G   UNL     1      29.546  30.458 -12.649  1.00  0.00     0.000 G0
ENDBRANCH  13  15
ENDBRANCH  12  13
BRANCH  12  17
ATOM     17  C   UNL     1      32.421  31.682  -8.862  1.00  0.00    -0.006 C 
ATOM     18  C   UNL     1      33.941  31.709  -8.613  1.00  0.00     0.008 C 
ATOM     19  C   UNL     1      31.866  33.109  -8.687  1.00  0.00     0.008 C 
ENDBRANCH  12  17
ENDBRANCH  11  12
ENDBRANCH   1  11
TORSDOF 1
ENDMDL
MODEL 7
REMARK VINA RESULT:    -3.964      2.051      4.134
REMARK INTER + INTRA:          -6.225
REMARK INTER:                  -6.024
REMARK INTRA:                  -0.201
REMARK UNBOUND:                -0.176
REMARK SMILES CC1=CCC[C@H](C)C(=O)C[C@H](C(C)C)C(=O)C1
REMARK SMILES IDX 8 1 9 2 6 3 7 4 5 5 4 6 3 7 2 8 1 9 10 11 11 12 15 13 16 14
REMARK SMILES IDX 17 15 12 17 13 18 14 19
REMARK H PARENT
REMARK Flexibility Score: 70.00
ROOT
ATOM      1  C   UNL     1      30.534  31.920 -15.428  1.00  0.00     0.136 C 
ATOM      2  O   UNL     1      29.667  32.673 -15.848  1.00  0.00    -0.299 OA
ENDROOT
BRANCH   1   3
ATOM      3  C   UNL     1      31.553  31.379 -16.428  1.00  0.00     0.053 C 
ATOM      4  C   UNL     1      31.084  31.367 -17.893  1.00  0.00     0.016 C 
BRANCH   3   5
ATOM      5  C   UNL     1      32.942  32.055 -16.287  1.00  0.00     0.015 C 
BRANCH   5   6
ATOM      6  C   UNL     1      34.096  31.116 -15.883  1.00  0.00     0.028 C 
BRANCH   6   7
ATOM      7  C   UNL     1      34.862  31.668 -14.703  1.00  0.00    -0.028 C 
ATOM      8  C   UNL     1      34.776  31.217 -13.431  1.00  0.00    -0.070 CG0
ATOM      9  C   UNL     1      35.638  31.879 -12.385  1.00  0.00     0.039 C 
ATOM     10  G   UNL     1      33.847  30.095 -13.014  1.00  0.00     0.000 G0
ENDBRANCH   6   7
ENDBRANCH   5   6
ENDBRANCH   3   5
ENDBRANCH   1   3
BRANCH   1  11
ATOM     11  C   UNL     1      30.576  31.663 -13.933  1.00  0.00     0.087 C 
BRANCH  11  12
ATOM     12  C   UNL     1      31.257  30.314 -13.581  1.00  0.00     0.066 C 
BRANCH  12  13
ATOM     13  C   UNL     1      32.447  30.573 -12.670  1.00  0.00     0.140 C 
ATOM     14  O   UNL     1      32.263  31.101 -11.583  1.00  0.00    -0.299 OA
BRANCH  13  15
ATOM     15  C   UNL     1      33.836  30.098 -13.018  1.00  0.00     0.106 CG0
ATOM     16  G   UNL     1      34.765  31.232 -13.402  1.00  0.00     0.000 G0
ENDBRANCH  13  15
ENDBRANCH  12  13
BRANCH  12  17
ATOM     17  C   UNL     1      30.267  29.307 -12.909  1.00  0.00    -0.006 C 
ATOM     18  C   UNL     1      28.910  29.250 -13.636  1.00  0.00     0.008 C 
ATOM     19  C   UNL     1      30.863  27.886 -12.863  1.00  0.00     0.008 C 
ENDBRANCH  12  17
ENDBRANCH  11  12
ENDBRANCH   1  11
TORSDOF 1
ENDMDL
MODEL 8
REMARK VINA RESULT:    -3.936      2.088      4.192
REMARK INTER + INTRA:          -6.182
REMARK INTER:                  -6.382
REMARK INTRA:                   0.199
REMARK UNBOUND:                -0.176
REMARK SMILES CC1=CCC[C@H](C)C(=O)C[C@H](C(C)C)C(=O)C1
REMARK SMILES IDX 8 1 9 2 6 3 7 4 5 5 4 6 3 7 2 8 1 9 10 11 11 12 15 13 16 14
REMARK SMILES IDX 17 15 12 17 13 18 14 19
REMARK H PARENT
REMARK Flexibility Score: 70.00
ROOT
ATOM      1  C   UNL     1      34.558  30.969 -12.561  1.00  0.00     0.136 C 
ATOM      2  O   UNL     1      34.883  30.984 -11.382  1.00  0.00    -0.299 OA
ENDROOT
BRANCH   1   3
ATOM      3  C   UNL     1      35.373  31.814 -13.537  1.00  0.00     0.053 C 
ATOM      4  C   UNL     1      36.893  31.791 -13.305  1.00  0.00     0.016 C 
BRANCH   3   5
ATOM      5  C   UNL     1      35.025  31.513 -15.018  1.00  0.00     0.015 C 
BRANCH   5   6
ATOM      6  C   UNL     1      34.027  32.489 -15.674  1.00  0.00     0.028 C 
BRANCH   6   7
ATOM      7  C   UNL     1      33.182  31.788 -16.713  1.00  0.00    -0.028 C 
ATOM      8  C   UNL     1      31.893  31.413 -16.553  1.00  0.00    -0.070 CG0
ATOM      9  C   UNL     1      31.200  30.744 -17.715  1.00  0.00     0.039 C 
ATOM     10  G   UNL     1      31.127  31.620 -15.262  1.00  0.00     0.000 G0
ENDBRANCH   6   7
ENDBRANCH   5   6
ENDBRANCH   3   5
ENDBRANCH   1   3
BRANCH   1  11
ATOM     11  C   UNL     1      33.428  30.039 -12.965  1.00  0.00     0.087 C 
BRANCH  11  12
ATOM     12  C   UNL     1      32.043  30.738 -12.934  1.00  0.00     0.066 C 
BRANCH  12  13
ATOM     13  C   UNL     1      31.330  30.502 -14.256  1.00  0.00     0.140 C 
ATOM     14  O   UNL     1      30.837  29.407 -14.481  1.00  0.00    -0.299 OA
BRANCH  13  15
ATOM     15  C   UNL     1      31.114  31.611 -15.255  1.00  0.00     0.106 CG0
ATOM     16  G   UNL     1      31.883  31.399 -16.544  1.00  0.00     0.000 G0
ENDBRANCH  13  15
ENDBRANCH  12  13
BRANCH  12  17
ATOM     17  C   UNL     1      31.156  30.248 -11.743  1.00  0.00    -0.006 C 
ATOM     18  C   UNL     1      31.579  30.879 -10.402  1.00  0.00     0.008 C 
ATOM     19  C   UNL     1      29.668  30.562 -11.989  1.00  0.00     0.008 C 
ENDBRANCH  12  17
ENDBRANCH  11  12
ENDBRANCH   1  11
TORSDOF 1
ENDMDL
MODEL 9
REMARK VINA RESULT:    -3.790      8.869     11.251
REMARK INTER + INTRA:          -5.960
REMARK INTER:                  -5.606
REMARK INTRA:                  -0.354
REMARK UNBOUND:                -0.176
REMARK SMILES CC1=CCC[C@H](C)C(=O)C[C@H](C(C)C)C(=O)C1
REMARK SMILES IDX 8 1 9 2 6 3 7 4 5 5 4 6 3 7 2 8 1 9 10 11 11 12 15 13 16 14
REMARK SMILES IDX 17 15 12 17 13 18 14 19
REMARK H PARENT
REMARK Flexibility Score: 70.00
ROOT
ATOM      1  C   UNL     1      33.922  37.333 -24.745  1.00  0.00     0.136 C 
ATOM      2  O   UNL     1      34.699  38.017 -25.398  1.00  0.00    -0.299 OA
ENDROOT
BRANCH   1   3
ATOM      3  C   UNL     1      34.060  35.815 -24.834  1.00  0.00     0.053 C 
ATOM      4  C   UNL     1      33.982  35.238 -26.257  1.00  0.00     0.016 C 
BRANCH   3   5
ATOM      5  C   UNL     1      35.307  35.286 -24.079  1.00  0.00     0.015 C 
BRANCH   5   6
ATOM      6  C   UNL     1      35.275  35.463 -22.547  1.00  0.00     0.028 C 
BRANCH   6   7
ATOM      7  C   UNL     1      34.202  34.603 -21.920  1.00  0.00    -0.028 C 
ATOM      8  C   UNL     1      33.057  35.057 -21.364  1.00  0.00    -0.070 CG0
ATOM      9  C   UNL     1      32.089  34.044 -20.806  1.00  0.00     0.039 C 
ATOM     10  G   UNL     1      32.716  36.531 -21.265  1.00  0.00     0.000 G0
ENDBRANCH   6   7
ENDBRANCH   5   6
ENDBRANCH   3   5
ENDBRANCH   1   3
BRANCH   1  11
ATOM     11  C   UNL     1      32.950  38.056 -23.831  1.00  0.00     0.087 C 
BRANCH  11  12
ATOM     12  C   UNL     1      31.651  37.245 -23.584  1.00  0.00     0.066 C 
BRANCH  12  13
ATOM     13  C   UNL     1      31.526  36.933 -22.101  1.00  0.00     0.140 C 
ATOM     14  O   UNL     1      30.417  36.911 -21.587  1.00  0.00    -0.299 OA
BRANCH  13  15
ATOM     15  C   UNL     1      32.719  36.540 -21.265  1.00  0.00     0.106 CG0
ATOM     16  G   UNL     1      33.050  35.065 -21.372  1.00  0.00     0.000 G0
ENDBRANCH  13  15
ENDBRANCH  12  13
BRANCH  12  17
ATOM     17  C   UNL     1      30.376  37.995 -24.091  1.00  0.00    -0.006 C 
ATOM     18  C   UNL     1      30.512  39.525 -23.966  1.00  0.00     0.008 C 
ATOM     19  C   UNL     1      30.069  37.645 -25.560  1.00  0.00     0.008 C 
ENDBRANCH  12  17
ENDBRANCH  11  12
ENDBRANCH   1  11
TORSDOF 1
ENDMDL
