MODEL 1
REMARK VINA RESULT:    -5.003      0.000      0.000
REMARK INTER + INTRA:          -5.659
REMARK INTER:                  -5.442
REMARK INTRA:                  -0.217
REMARK UNBOUND:                -0.217
REMARK SMILES O=C([O-])c1ccccc1O
REMARK SMILES IDX 4 1 9 2 5 3 8 4 6 5 7 6 2 7 1 8 3 9 10 10
REMARK H PARENT 10 11
REMARK Flexibility Score: inf
ROOT
ATOM      1  C   UNL     1      61.963  59.260  71.454  1.00  0.00     0.039 A 
ATOM      2  C   UNL     1      62.454  59.319  70.128  1.00  0.00     0.124 A 
ATOM      3  C   UNL     1      62.464  60.170  72.405  1.00  0.00     0.014 A 
ATOM      4  C   UNL     1      63.423  60.272  69.782  1.00  0.00     0.047 A 
ATOM      5  C   UNL     1      63.429  61.116  72.046  1.00  0.00     0.001 A 
ATOM      6  C   UNL     1      63.908  61.166  70.738  1.00  0.00     0.004 A 
ENDROOT
BRANCH   1   7
ATOM      7  C   UNL     1      60.937  58.270  71.871  1.00  0.00     0.075 C 
ATOM      8  O   UNL     1      60.842  57.898  73.071  1.00  0.00    -0.545 OA
ATOM      9  O   UNL     1      60.059  57.734  70.936  1.00  0.00    -0.545 OA
ENDBRANCH   1   7
BRANCH   2  10
ATOM     10  O   UNL     1      61.985  58.436  69.153  1.00  0.00    -0.507 OA
ATOM     11  H   UNL     1      61.860  57.449  69.345  1.00  0.00     0.293 HD
ENDBRANCH   2  10
TORSDOF 2
ENDMDL
MODEL 2
REMARK VINA RESULT:    -4.976      0.964      2.181
REMARK INTER + INTRA:          -5.630
REMARK INTER:                  -5.381
REMARK INTRA:                  -0.249
REMARK UNBOUND:                -0.217
REMARK SMILES O=C([O-])c1ccccc1O
REMARK SMILES IDX 4 1 9 2 5 3 8 4 6 5 7 6 2 7 1 8 3 9 10 10
REMARK H PARENT 10 11
REMARK Flexibility Score: inf
ROOT
ATOM      1  C   UNL     1      62.058  59.353  71.051  1.00  0.00     0.039 A 
ATOM      2  C   UNL     1      62.294  60.100  72.230  1.00  0.00     0.124 A 
ATOM      3  C   UNL     1      62.848  59.613  69.914  1.00  0.00     0.014 A 
ATOM      4  C   UNL     1      63.300  61.078  72.250  1.00  0.00     0.047 A 
ATOM      5  C   UNL     1      63.847  60.589  69.948  1.00  0.00     0.001 A 
ATOM      6  C   UNL     1      64.073  61.321  71.113  1.00  0.00     0.004 A 
ENDROOT
BRANCH   1   7
ATOM      7  C   UNL     1      61.007  58.307  70.979  1.00  0.00     0.075 C 
ATOM      8  O   UNL     1      60.849  57.480  71.916  1.00  0.00    -0.545 OA
ATOM      9  O   UNL     1      60.174  58.224  69.869  1.00  0.00    -0.545 OA
ENDBRANCH   1   7
BRANCH   2  10
ATOM     10  O   UNL     1      61.536  59.877  73.380  1.00  0.00    -0.507 OA
ATOM     11  H   UNL     1      61.089  60.637  73.880  1.00  0.00     0.293 HD
ENDBRANCH   2  10
TORSDOF 2
ENDMDL
MODEL 3
REMARK VINA RESULT:    -4.970      1.615      2.612
REMARK INTER + INTRA:          -5.623
REMARK INTER:                  -5.432
REMARK INTRA:                  -0.191
REMARK UNBOUND:                -0.217
REMARK SMILES O=C([O-])c1ccccc1O
REMARK SMILES IDX 4 1 9 2 5 3 8 4 6 5 7 6 2 7 1 8 3 9 10 10
REMARK H PARENT 10 11
REMARK Flexibility Score: inf
ROOT
ATOM      1  C   UNL     1      61.448  59.449  72.528  1.00  0.00     0.039 A 
ATOM      2  C   UNL     1      61.344  58.191  71.888  1.00  0.00     0.124 A 
ATOM      3  C   UNL     1      62.176  60.475  71.894  1.00  0.00     0.014 A 
ATOM      4  C   UNL     1      61.961  57.984  70.646  1.00  0.00     0.047 A 
ATOM      5  C   UNL     1      62.785  60.255  70.656  1.00  0.00     0.001 A 
ATOM      6  C   UNL     1      62.679  59.013  70.033  1.00  0.00     0.004 A 
ENDROOT
BRANCH   1   7
ATOM      7  C   UNL     1      60.812  59.718  73.844  1.00  0.00     0.075 C 
ATOM      8  O   UNL     1      61.245  59.178  74.896  1.00  0.00    -0.545 OA
ATOM      9  O   UNL     1      59.723  60.577  73.934  1.00  0.00    -0.545 OA
ENDBRANCH   1   7
BRANCH   2  10
ATOM     10  O   UNL     1      60.633  57.146  72.480  1.00  0.00    -0.507 OA
ATOM     11  H   UNL     1      60.597  56.222  72.064  1.00  0.00     0.293 HD
ENDBRANCH   2  10
TORSDOF 2
ENDMDL
MODEL 4
REMARK VINA RESULT:    -4.944      8.010      9.219
REMARK INTER + INTRA:          -5.595
REMARK INTER:                  -5.348
REMARK INTRA:                  -0.247
REMARK UNBOUND:                -0.217
REMARK SMILES O=C([O-])c1ccccc1O
REMARK SMILES IDX 4 1 9 2 5 3 8 4 6 5 7 6 2 7 1 8 3 9 10 10
REMARK H PARENT 10 11
REMARK Flexibility Score: inf
ROOT
ATOM      1  C   UNL     1      67.446  65.922  69.813  1.00  0.00     0.039 A 
ATOM      2  C   UNL     1      68.822  65.691  70.052  1.00  0.00     0.124 A 
ATOM      3  C   UNL     1      66.499  65.088  70.439  1.00  0.00     0.014 A 
ATOM      4  C   UNL     1      69.219  64.647  70.900  1.00  0.00     0.047 A 
ATOM      5  C   UNL     1      66.909  64.051  71.282  1.00  0.00     0.001 A 
ATOM      6  C   UNL     1      68.266  63.830  71.511  1.00  0.00     0.004 A 
ENDROOT
BRANCH   1   7
ATOM      7  C   UNL     1      66.973  67.014  68.924  1.00  0.00     0.075 C 
ATOM      8  O   UNL     1      67.555  67.263  67.835  1.00  0.00    -0.545 OA
ATOM      9  O   UNL     1      65.873  67.784  69.284  1.00  0.00    -0.545 OA
ENDBRANCH   1   7
BRANCH   2  10
ATOM     10  O   UNL     1      69.794  66.493  69.453  1.00  0.00    -0.507 OA
ATOM     11  H   UNL     1      69.971  66.460  68.456  1.00  0.00     0.293 HD
ENDBRANCH   2  10
TORSDOF 2
ENDMDL
MODEL 5
REMARK VINA RESULT:    -4.941      1.788      2.182
REMARK INTER + INTRA:          -5.592
REMARK INTER:                  -5.337
REMARK INTRA:                  -0.254
REMARK UNBOUND:                -0.217
REMARK SMILES O=C([O-])c1ccccc1O
REMARK SMILES IDX 4 1 9 2 5 3 8 4 6 5 7 6 2 7 1 8 3 9 10 10
REMARK H PARENT 10 11
REMARK Flexibility Score: inf
ROOT
ATOM      1  C   UNL     1      60.534  59.530  70.150  1.00  0.00     0.039 A 
ATOM      2  C   UNL     1      61.820  59.066  69.782  1.00  0.00     0.124 A 
ATOM      3  C   UNL     1      60.391  60.862  70.585  1.00  0.00     0.014 A 
ATOM      4  C   UNL     1      62.923  59.930  69.854  1.00  0.00     0.047 A 
ATOM      5  C   UNL     1      61.499  61.712  70.652  1.00  0.00     0.001 A 
ATOM      6  C   UNL     1      62.762  61.247  70.289  1.00  0.00     0.004 A 
ENDROOT
BRANCH   1   7
ATOM      7  C   UNL     1      59.335  58.655  70.090  1.00  0.00     0.075 C 
ATOM      8  O   UNL     1      58.251  59.072  69.603  1.00  0.00    -0.545 OA
ATOM      9  O   UNL     1      59.391  57.353  70.574  1.00  0.00    -0.545 OA
ENDBRANCH   1   7
BRANCH   2  10
ATOM     10  O   UNL     1      62.007  57.754  69.344  1.00  0.00    -0.507 OA
ATOM     11  H   UNL     1      62.661  57.528  68.603  1.00  0.00     0.293 HD
ENDBRANCH   2  10
TORSDOF 2
ENDMDL
MODEL 6
REMARK VINA RESULT:    -4.915      2.236      3.027
REMARK INTER + INTRA:          -5.562
REMARK INTER:                  -5.329
REMARK INTRA:                  -0.234
REMARK UNBOUND:                -0.217
REMARK SMILES O=C([O-])c1ccccc1O
REMARK SMILES IDX 4 1 9 2 5 3 8 4 6 5 7 6 2 7 1 8 3 9 10 10
REMARK H PARENT 10 11
REMARK Flexibility Score: inf
ROOT
ATOM      1  C   UNL     1      60.420  59.874  70.151  1.00  0.00     0.039 A 
ATOM      2  C   UNL     1      60.192  61.037  70.925  1.00  0.00     0.124 A 
ATOM      3  C   UNL     1      61.607  59.782  69.399  1.00  0.00     0.014 A 
ATOM      4  C   UNL     1      61.141  62.070  70.933  1.00  0.00     0.047 A 
ATOM      5  C   UNL     1      62.544  60.818  69.416  1.00  0.00     0.001 A 
ATOM      6  C   UNL     1      62.312  61.961  70.181  1.00  0.00     0.004 A 
ENDROOT
BRANCH   1   7
ATOM      7  C   UNL     1      59.447  58.752  70.109  1.00  0.00     0.075 C 
ATOM      8  O   UNL     1      58.269  58.930  69.700  1.00  0.00    -0.545 OA
ATOM      9  O   UNL     1      59.825  57.481  70.523  1.00  0.00    -0.545 OA
ENDBRANCH   1   7
BRANCH   2  10
ATOM     10  O   UNL     1      59.029  61.171  71.686  1.00  0.00    -0.507 OA
ATOM     11  H   UNL     1      58.246  61.730  71.368  1.00  0.00     0.293 HD
ENDBRANCH   2  10
TORSDOF 2
ENDMDL
MODEL 7
REMARK VINA RESULT:    -4.776      4.254      5.783
REMARK INTER + INTRA:          -5.412
REMARK INTER:                  -5.223
REMARK INTRA:                  -0.189
REMARK UNBOUND:                -0.217
REMARK SMILES O=C([O-])c1ccccc1O
REMARK SMILES IDX 4 1 9 2 5 3 8 4 6 5 7 6 2 7 1 8 3 9 10 10
REMARK H PARENT 10 11
REMARK Flexibility Score: inf
ROOT
ATOM      1  C   UNL     1      65.537  62.267  70.947  1.00  0.00     0.039 A 
ATOM      2  C   UNL     1      64.750  62.068  72.106  1.00  0.00     0.124 A 
ATOM      3  C   UNL     1      65.162  61.621  69.752  1.00  0.00     0.014 A 
ATOM      4  C   UNL     1      63.620  61.238  72.051  1.00  0.00     0.047 A 
ATOM      5  C   UNL     1      64.034  60.797  69.712  1.00  0.00     0.001 A 
ATOM      6  C   UNL     1      63.265  60.605  70.859  1.00  0.00     0.004 A 
ENDROOT
BRANCH   1   7
ATOM      7  C   UNL     1      66.741  63.137  70.952  1.00  0.00     0.075 C 
ATOM      8  O   UNL     1      67.789  62.790  71.560  1.00  0.00    -0.545 OA
ATOM      9  O   UNL     1      66.731  64.354  70.282  1.00  0.00    -0.545 OA
ENDBRANCH   1   7
BRANCH   2  10
ATOM     10  O   UNL     1      65.084  62.689  73.311  1.00  0.00    -0.507 OA
ATOM     11  H   UNL     1      65.944  62.474  73.801  1.00  0.00     0.293 HD
ENDBRANCH   2  10
TORSDOF 2
ENDMDL
MODEL 8
REMARK VINA RESULT:    -4.748      7.969      8.775
REMARK INTER + INTRA:          -5.381
REMARK INTER:                  -5.152
REMARK INTRA:                  -0.229
REMARK UNBOUND:                -0.217
REMARK SMILES O=C([O-])c1ccccc1O
REMARK SMILES IDX 4 1 9 2 5 3 8 4 6 5 7 6 2 7 1 8 3 9 10 10
REMARK H PARENT 10 11
REMARK Flexibility Score: inf
ROOT
ATOM      1  C   UNL     1      67.789  65.527  71.349  1.00  0.00     0.039 A 
ATOM      2  C   UNL     1      68.779  65.183  70.398  1.00  0.00     0.124 A 
ATOM      3  C   UNL     1      66.818  66.487  71.002  1.00  0.00     0.014 A 
ATOM      4  C   UNL     1      68.780  65.796  69.136  1.00  0.00     0.047 A 
ATOM      5  C   UNL     1      66.831  67.089  69.742  1.00  0.00     0.001 A 
ATOM      6  C   UNL     1      67.810  66.746  68.810  1.00  0.00     0.004 A 
ENDROOT
BRANCH   1   7
ATOM      7  C   UNL     1      67.744  64.906  72.698  1.00  0.00     0.075 C 
ATOM      8  O   UNL     1      67.578  63.665  72.837  1.00  0.00    -0.545 OA
ATOM      9  O   UNL     1      67.886  65.691  73.836  1.00  0.00    -0.545 OA
ENDBRANCH   1   7
BRANCH   2  10
ATOM     10  O   UNL     1      69.760  64.237  70.698  1.00  0.00    -0.507 OA
ATOM     11  H   UNL     1      69.782  63.758  71.591  1.00  0.00     0.293 HD
ENDBRANCH   2  10
TORSDOF 2
ENDMDL
MODEL 9
REMARK VINA RESULT:    -4.734      4.420      5.327
REMARK INTER + INTRA:          -5.366
REMARK INTER:                  -5.111
REMARK INTRA:                  -0.255
REMARK UNBOUND:                -0.217
REMARK SMILES O=C([O-])c1ccccc1O
REMARK SMILES IDX 4 1 9 2 5 3 8 4 6 5 7 6 2 7 1 8 3 9 10 10
REMARK H PARENT 10 11
REMARK Flexibility Score: inf
ROOT
ATOM      1  C   UNL     1      65.137  62.370  71.866  1.00  0.00     0.039 A 
ATOM      2  C   UNL     1      65.690  62.381  70.563  1.00  0.00     0.124 A 
ATOM      3  C   UNL     1      64.048  61.518  72.134  1.00  0.00     0.014 A 
ATOM      4  C   UNL     1      65.151  61.553  69.567  1.00  0.00     0.047 A 
ATOM      5  C   UNL     1      63.521  60.698  71.132  1.00  0.00     0.001 A 
ATOM      6  C   UNL     1      64.071  60.716  69.851  1.00  0.00     0.004 A 
ENDROOT
BRANCH   1   7
ATOM      7  C   UNL     1      65.672  63.226  72.956  1.00  0.00     0.075 C 
ATOM      8  O   UNL     1      64.901  63.903  73.688  1.00  0.00    -0.545 OA
ATOM      9  O   UNL     1      67.041  63.295  73.186  1.00  0.00    -0.545 OA
ENDBRANCH   1   7
BRANCH   2  10
ATOM     10  O   UNL     1      66.770  63.209  70.253  1.00  0.00    -0.507 OA
ATOM     11  H   UNL     1      66.647  64.078  69.746  1.00  0.00     0.293 HD
ENDBRANCH   2  10
TORSDOF 2
ENDMDL
