MODEL 1
REMARK VINA RESULT:     2.788      0.000      0.000
REMARK INTER + INTRA:           3.225
REMARK INTER:                   3.195
REMARK INTRA:                   0.030
REMARK UNBOUND:                 0.030
REMARK SMILES C=C(C)[C@H]1CC[C@@]2(C(=O)[O-])CC[C@]3(C)[C@H](CC[C@@H]4[C@]5(C)CC[C@@H](O)C(C)(C)[C@@H]5CC[C@]43C)[C@H]12
REMARK SMILES IDX 7 1 6 2 33 3 11 4 5 5 15 6 4 7 12 8 16 9 13 10 17 11 31 12
REMARK SMILES IDX 14 13 18 14 30 15 32 16 19 17 29 18 21 19 20 20 28 21 22 22
REMARK SMILES IDX 25 23 23 24 26 25 27 26 8 27 9 28 10 29 2 30 3 31 1 32 24 33
REMARK H PARENT 24 34
REMARK Flexibility Score: inf
ROOT
ATOM      1  C   UNL     1      99.810 112.631 110.302  1.00  0.00     0.014 C 
ATOM      2  C   UNL     1      98.973 113.146 109.117  1.00  0.00     0.014 C 
ATOM      3  C   UNL     1      98.723 112.732 111.419  1.00  0.00     0.012 C 
ATOM      4  C   UNL     1     101.021 113.596 110.642  1.00  0.00     0.014 C 
ATOM      5  C   UNL     1      97.541 112.483 109.329  1.00  0.00     0.009 C 
ATOM      6  C   UNL     1      99.087 112.653 112.886  1.00  0.00     0.000 C 
ATOM      7  C   UNL     1      97.432 112.137 110.842  1.00  0.00     0.018 C 
ATOM      8  C   UNL     1     100.885 114.304 111.996  1.00  0.00     0.008 C 
ATOM      9  C   UNL     1      98.767 111.487 113.846  1.00  0.00     0.005 C 
ATOM     10  C   UNL     1     100.517 113.271 113.172  1.00  0.00    -0.024 C 
ATOM     11  C   UNL     1      98.656 112.052 115.291  1.00  0.00     0.005 C 
ATOM     12  C   UNL     1     100.446 113.949 114.617  1.00  0.00    -0.024 C 
ATOM     13  C   UNL     1     101.634 112.158 113.088  1.00  0.00     0.012 C 
ATOM     14  C   UNL     1     100.013 112.771 115.651  1.00  0.00     0.002 C 
ATOM     15  C   UNL     1     101.893 114.510 114.973  1.00  0.00     0.008 C 
ATOM     16  C   UNL     1      99.382 115.114 114.647  1.00  0.00     0.012 C 
ATOM     17  C   UNL     1     100.229 113.011 117.191  1.00  0.00    -0.026 C 
ATOM     18  C   UNL     1     102.495 113.978 116.239  1.00  0.00     0.005 C 
ATOM     19  C   UNL     1      99.004 113.574 117.940  1.00  0.00     0.010 C 
ATOM     20  C   UNL     1     100.469 111.501 117.775  1.00  0.00     0.012 C 
ATOM     21  C   UNL     1     101.572 113.907 117.461  1.00  0.00     0.003 C 
ATOM     22  C   UNL     1      99.380 113.912 119.428  1.00  0.00     0.033 C 
ATOM     23  C   UNL     1     101.390 115.251 118.280  1.00  0.00    -0.006 C 
ATOM     24  C   UNL     1     100.442 115.002 119.568  1.00  0.00     0.120 C 
ATOM     25  C   UNL     1     100.728 116.399 117.386  1.00  0.00     0.014 C 
ATOM     26  C   UNL     1     102.841 115.802 118.688  1.00  0.00     0.014 C 
ENDROOT
BRANCH   1  27
ATOM     27  C   UNL     1     100.334 111.237 110.000  1.00  0.00     0.048 C 
ATOM     28  O   UNL     1     101.587 111.117 109.879  1.00  0.00    -0.550 OA
ATOM     29  O   UNL     1      99.546 110.295 109.252  1.00  0.00    -0.550 OA
ENDBRANCH   1  27
BRANCH   7  30
ATOM     30  C   UNL     1      96.157 112.768 111.513  1.00  0.00    -0.077 C 
ATOM     31  C   UNL     1      94.774 112.297 111.123  1.00  0.00     0.039 C 
ATOM     32  C   UNL     1      96.282 113.906 112.159  1.00  0.00     0.008 C 
ENDBRANCH   7  30
BRANCH  24  33
ATOM     33  O   UNL     1     101.171 114.693 120.710  1.00  0.00    -0.393 OA
ATOM     34  H   UNL     1     101.496 115.614 121.087  1.00  0.00     0.210 HD
ENDBRANCH  24  33
TORSDOF 3
ENDMDL
MODEL 2
REMARK VINA RESULT:     5.389      3.371      9.896
REMARK INTER + INTRA:           6.206
REMARK INTER:                   6.363
REMARK INTRA:                  -0.156
REMARK UNBOUND:                 0.030
REMARK SMILES C=C(C)[C@H]1CC[C@@]2(C(=O)[O-])CC[C@]3(C)[C@H](CC[C@@H]4[C@]5(C)CC[C@@H](O)C(C)(C)[C@@H]5CC[C@]43C)[C@H]12
REMARK SMILES IDX 7 1 6 2 33 3 11 4 5 5 15 6 4 7 12 8 16 9 13 10 17 11 31 12
REMARK SMILES IDX 14 13 18 14 30 15 32 16 19 17 29 18 21 19 20 20 28 21 22 22
REMARK SMILES IDX 25 23 23 24 26 25 27 26 8 27 9 28 10 29 2 30 3 31 1 32 24 33
REMARK H PARENT 24 34
REMARK Flexibility Score: inf
ROOT
ATOM      1  C   UNL     1      99.856 115.724 124.017  1.00  0.00     0.014 C 
ATOM      2  C   UNL     1      98.803 116.277 124.993  1.00  0.00     0.014 C 
ATOM      3  C   UNL     1      99.441 116.529 122.743  1.00  0.00     0.012 C 
ATOM      4  C   UNL     1      99.671 114.172 123.755  1.00  0.00     0.014 C 
ATOM      5  C   UNL     1      98.719 117.829 124.644  1.00  0.00     0.009 C 
ATOM      6  C   UNL     1      99.941 116.145 121.368  1.00  0.00     0.000 C 
ATOM      7  C   UNL     1      99.229 117.983 123.183  1.00  0.00     0.018 C 
ATOM      8  C   UNL     1      99.235 113.834 122.323  1.00  0.00     0.008 C 
ATOM      9  C   UNL     1     100.957 116.933 120.511  1.00  0.00     0.005 C 
ATOM     10  C   UNL     1     100.151 114.581 121.232  1.00  0.00    -0.024 C 
ATOM     11  C   UNL     1     100.672 116.639 119.010  1.00  0.00     0.005 C 
ATOM     12  C   UNL     1      99.788 114.196 119.724  1.00  0.00    -0.024 C 
ATOM     13  C   UNL     1     101.630 114.179 121.612  1.00  0.00     0.012 C 
ATOM     14  C   UNL     1     100.772 115.081 118.780  1.00  0.00     0.002 C 
ATOM     15  C   UNL     1     100.067 112.640 119.529  1.00  0.00     0.008 C 
ATOM     16  C   UNL     1      98.281 114.529 119.399  1.00  0.00     0.012 C 
ATOM     17  C   UNL     1     100.941 114.661 117.273  1.00  0.00    -0.026 C 
ATOM     18  C   UNL     1     101.036 112.292 118.440  1.00  0.00     0.005 C 
ATOM     19  C   UNL     1      99.998 115.381 116.287  1.00  0.00     0.010 C 
ATOM     20  C   UNL     1     102.455 115.165 116.910  1.00  0.00     0.012 C 
ATOM     21  C   UNL     1     100.867 113.034 117.108  1.00  0.00     0.003 C 
ATOM     22  C   UNL     1     100.151 114.776 114.844  1.00  0.00     0.033 C 
ATOM     23  C   UNL     1      99.769 112.458 116.121  1.00  0.00    -0.006 C 
ATOM     24  C   UNL     1      99.752 113.304 114.742  1.00  0.00     0.120 C 
ATOM     25  C   UNL     1      98.308 112.521 116.766  1.00  0.00     0.014 C 
ATOM     26  C   UNL     1     100.067 110.900 115.877  1.00  0.00     0.014 C 
ENDROOT
BRANCH   1  27
ATOM     27  C   UNL     1     101.252 115.992 124.553  1.00  0.00     0.048 C 
ATOM     28  O   UNL     1     101.400 115.921 125.807  1.00  0.00    -0.550 OA
ATOM     29  O   UNL     1     102.148 116.888 123.873  1.00  0.00    -0.550 OA
ENDBRANCH   1  27
BRANCH   7  30
ATOM     30  C   UNL     1      98.190 118.718 122.258  1.00  0.00    -0.077 C 
ATOM     31  C   UNL     1      97.519 119.992 122.721  1.00  0.00     0.039 C 
ATOM     32  C   UNL     1      97.675 118.062 121.242  1.00  0.00     0.008 C 
ENDBRANCH   7  30
BRANCH  24  33
ATOM     33  O   UNL     1     100.568 112.745 113.767  1.00  0.00    -0.393 OA
ATOM     34  H   UNL     1     100.324 113.247 112.882  1.00  0.00     0.210 HD
ENDBRANCH  24  33
TORSDOF 3
ENDMDL
