MODEL 1
REMARK VINA RESULT:    -4.995      0.000      0.000
REMARK INTER + INTRA:          -8.009
REMARK INTER:                  -7.623
REMARK INTRA:                  -0.386
REMARK UNBOUND:                -0.386
REMARK SMILES CCCCCCCCCCC(=O)[O-]
REMARK SMILES IDX 7 1 8 2 9 3 10 4 11 5 12 6 13 7 6 8 5 9 4 10 3 11 2 12 1 13
REMARK H PARENT
REMARK Flexibility Score: inf
ROOT
ATOM      1  C   UNL     1      97.100 124.072 126.268  1.00  0.00     0.000 C 
ENDROOT
BRANCH   1   2
ATOM      2  C   UNL     1      96.903 124.877 124.979  1.00  0.00     0.000 C 
BRANCH   2   3
ATOM      3  C   UNL     1      95.858 124.213 124.070  1.00  0.00     0.006 C 
BRANCH   3   4
ATOM      4  C   UNL     1      94.847 123.375 124.862  1.00  0.00     0.053 C 
BRANCH   4   5
ATOM      5  C   UNL     1      93.543 123.245 124.136  1.00  0.00     0.041 C 
ATOM      6  O   UNL     1      92.468 123.121 124.779  1.00  0.00    -0.550 OA
ATOM      7  O   UNL     1      93.514 123.294 122.748  1.00  0.00    -0.550 OA
ENDBRANCH   4   5
ENDBRANCH   3   4
ENDBRANCH   2   3
ENDBRANCH   1   2
BRANCH   1   8
ATOM      8  C   UNL     1      98.574 123.678 126.451  1.00  0.00     0.000 C 
BRANCH   8   9
ATOM      9  C   UNL     1      98.791 122.157 126.403  1.00  0.00    -0.000 C 
BRANCH   9  10
ATOM     10  C   UNL     1     100.280 121.774 126.357  1.00  0.00    -0.000 C 
BRANCH  10  11
ATOM     11  C   UNL     1     100.545 120.365 126.912  1.00  0.00    -0.000 C 
BRANCH  11  12
ATOM     12  C   UNL     1     101.814 119.730 126.327  1.00  0.00    -0.003 C 
ATOM     13  C   UNL     1     102.026 120.160 124.878  1.00  0.00     0.004 C 
ENDBRANCH  11  12
ENDBRANCH  10  11
ENDBRANCH   9  10
ENDBRANCH   8   9
ENDBRANCH   1   8
TORSDOF 9
ENDMDL
MODEL 2
REMARK VINA RESULT:    -4.960      3.568      6.735
REMARK INTER + INTRA:          -7.956
REMARK INTER:                  -7.510
REMARK INTRA:                  -0.446
REMARK UNBOUND:                -0.386
REMARK SMILES CCCCCCCCCCC(=O)[O-]
REMARK SMILES IDX 7 1 8 2 9 3 10 4 11 5 12 6 13 7 6 8 5 9 4 10 3 11 2 12 1 13
REMARK H PARENT
REMARK Flexibility Score: inf
ROOT
ATOM      1  C   UNL     1      98.454 124.171 126.660  1.00  0.00     0.000 C 
ENDROOT
BRANCH   1   2
ATOM      2  C   UNL     1      99.600 123.183 126.419  1.00  0.00     0.000 C 
BRANCH   2   3
ATOM      3  C   UNL     1      99.091 121.735 126.433  1.00  0.00     0.006 C 
BRANCH   3   4
ATOM      4  C   UNL     1     100.132 120.757 126.992  1.00  0.00     0.053 C 
BRANCH   4   5
ATOM      5  C   UNL     1     100.907 120.086 125.900  1.00  0.00     0.041 C 
ATOM      6  O   UNL     1     102.113 119.770 126.079  1.00  0.00    -0.550 OA
ATOM      7  O   UNL     1     100.287 119.780 124.695  1.00  0.00    -0.550 OA
ENDBRANCH   4   5
ENDBRANCH   3   4
ENDBRANCH   2   3
ENDBRANCH   1   2
BRANCH   1   8
ATOM      8  C   UNL     1      97.152 123.673 126.013  1.00  0.00     0.000 C 
BRANCH   8   9
ATOM      9  C   UNL     1      96.642 124.614 124.910  1.00  0.00    -0.000 C 
BRANCH   9  10
ATOM     10  C   UNL     1      95.457 124.019 124.128  1.00  0.00    -0.000 C 
BRANCH  10  11
ATOM     11  C   UNL     1      94.563 123.125 125.002  1.00  0.00    -0.000 C 
BRANCH  11  12
ATOM     12  C   UNL     1      93.099 123.124 124.540  1.00  0.00    -0.003 C 
ATOM     13  C   UNL     1      93.002 122.956 123.026  1.00  0.00     0.004 C 
ENDBRANCH  11  12
ENDBRANCH  10  11
ENDBRANCH   9  10
ENDBRANCH   8   9
ENDBRANCH   1   8
TORSDOF 9
ENDMDL
MODEL 3
REMARK VINA RESULT:    -4.471      3.406      6.813
REMARK INTER + INTRA:          -7.209
REMARK INTER:                  -6.786
REMARK INTRA:                  -0.423
REMARK UNBOUND:                -0.386
REMARK SMILES CCCCCCCCCCC(=O)[O-]
REMARK SMILES IDX 7 1 8 2 9 3 10 4 11 5 12 6 13 7 6 8 5 9 4 10 3 11 2 12 1 13
REMARK H PARENT
REMARK Flexibility Score: inf
ROOT
ATOM      1  C   UNL     1      95.408 124.204 124.158  1.00  0.00     0.000 C 
ENDROOT
BRANCH   1   2
ATOM      2  C   UNL     1      96.680 124.701 124.853  1.00  0.00     0.000 C 
BRANCH   2   3
ATOM      3  C   UNL     1      96.991 123.860 126.100  1.00  0.00     0.006 C 
BRANCH   3   4
ATOM      4  C   UNL     1      98.416 124.093 126.618  1.00  0.00     0.053 C 
BRANCH   4   5
ATOM      5  C   UNL     1      99.248 122.851 126.533  1.00  0.00     0.041 C 
ATOM      6  O   UNL     1      98.704 121.717 126.591  1.00  0.00    -0.550 OA
ATOM      7  O   UNL     1     100.623 122.946 126.356  1.00  0.00    -0.550 OA
ENDBRANCH   4   5
ENDBRANCH   3   4
ENDBRANCH   2   3
ENDBRANCH   1   2
BRANCH   1   8
ATOM      8  C   UNL     1      94.643 123.215 125.051  1.00  0.00     0.000 C 
BRANCH   8   9
ATOM      9  C   UNL     1      93.216 122.945 124.548  1.00  0.00    -0.000 C 
BRANCH   9  10
ATOM     10  C   UNL     1      93.019 123.360 123.079  1.00  0.00    -0.000 C 
BRANCH  10  11
ATOM     11  C   UNL     1      92.701 122.165 122.166  1.00  0.00    -0.000 C 
BRANCH  11  12
ATOM     12  C   UNL     1      92.686 122.548 120.679  1.00  0.00    -0.003 C 
ATOM     13  C   UNL     1      93.579 121.616 119.863  1.00  0.00     0.004 C 
ENDBRANCH  11  12
ENDBRANCH  10  11
ENDBRANCH   9  10
ENDBRANCH   8   9
ENDBRANCH   1   8
TORSDOF 9
ENDMDL
MODEL 4
REMARK VINA RESULT:    -4.290      2.457      4.524
REMARK INTER + INTRA:          -6.932
REMARK INTER:                  -6.560
REMARK INTRA:                  -0.373
REMARK UNBOUND:                -0.386
REMARK SMILES CCCCCCCCCCC(=O)[O-]
REMARK SMILES IDX 7 1 8 2 9 3 10 4 11 5 12 6 13 7 6 8 5 9 4 10 3 11 2 12 1 13
REMARK H PARENT
REMARK Flexibility Score: inf
ROOT
ATOM      1  C   UNL     1      93.194 122.931 124.696  1.00  0.00     0.000 C 
ENDROOT
BRANCH   1   2
ATOM      2  C   UNL     1      93.037 123.484 123.276  1.00  0.00     0.000 C 
BRANCH   2   3
ATOM      3  C   UNL     1      93.178 122.368 122.231  1.00  0.00     0.006 C 
BRANCH   3   4
ATOM      4  C   UNL     1      92.280 122.599 121.009  1.00  0.00     0.053 C 
BRANCH   4   5
ATOM      5  C   UNL     1      92.896 122.057 119.756  1.00  0.00     0.041 C 
ATOM      6  O   UNL     1      93.950 121.371 119.812  1.00  0.00    -0.550 OA
ATOM      7  O   UNL     1      92.285 122.282 118.529  1.00  0.00    -0.550 OA
ENDBRANCH   4   5
ENDBRANCH   3   4
ENDBRANCH   2   3
ENDBRANCH   1   2
BRANCH   1   8
ATOM      8  C   UNL     1      94.650 123.045 125.174  1.00  0.00     0.000 C 
BRANCH   8   9
ATOM      9  C   UNL     1      95.450 124.096 124.388  1.00  0.00    -0.000 C 
BRANCH   9  10
ATOM     10  C   UNL     1      96.732 124.531 125.120  1.00  0.00    -0.000 C 
BRANCH  10  11
ATOM     11  C   UNL     1      97.202 123.494 126.153  1.00  0.00    -0.000 C 
BRANCH  11  12
ATOM     12  C   UNL     1      98.656 123.718 126.593  1.00  0.00    -0.003 C 
ATOM     13  C   UNL     1      99.461 122.424 126.505  1.00  0.00     0.004 C 
ENDBRANCH  11  12
ENDBRANCH  10  11
ENDBRANCH   9  10
ENDBRANCH   8   9
ENDBRANCH   1   8
TORSDOF 9
ENDMDL
MODEL 5
REMARK VINA RESULT:    -4.205     13.475     16.146
REMARK INTER + INTRA:          -6.804
REMARK INTER:                  -6.177
REMARK INTRA:                  -0.627
REMARK UNBOUND:                -0.386
REMARK SMILES CCCCCCCCCCC(=O)[O-]
REMARK SMILES IDX 7 1 8 2 9 3 10 4 11 5 12 6 13 7 6 8 5 9 4 10 3 11 2 12 1 13
REMARK H PARENT
REMARK Flexibility Score: inf
ROOT
ATOM      1  C   UNL     1      82.000 127.225 130.405  1.00  0.00     0.000 C 
ENDROOT
BRANCH   1   2
ATOM      2  C   UNL     1      83.087 126.153 130.271  1.00  0.00     0.000 C 
BRANCH   2   3
ATOM      3  C   UNL     1      82.809 125.232 129.075  1.00  0.00     0.006 C 
BRANCH   3   4
ATOM      4  C   UNL     1      83.824 124.086 128.975  1.00  0.00     0.053 C 
BRANCH   4   5
ATOM      5  C   UNL     1      84.637 124.173 127.720  1.00  0.00     0.041 C 
ATOM      6  O   UNL     1      84.113 124.581 126.650  1.00  0.00    -0.550 OA
ATOM      7  O   UNL     1      85.984 123.833 127.740  1.00  0.00    -0.550 OA
ENDBRANCH   4   5
ENDBRANCH   3   4
ENDBRANCH   2   3
ENDBRANCH   1   2
BRANCH   1   8
ATOM      8  C   UNL     1      82.620 128.627 130.514  1.00  0.00     0.000 C 
BRANCH   8   9
ATOM      9  C   UNL     1      84.146 128.616 130.328  1.00  0.00    -0.000 C 
BRANCH   9  10
ATOM     10  C   UNL     1      84.887 129.310 131.484  1.00  0.00    -0.000 C 
BRANCH  10  11
ATOM     11  C   UNL     1      83.929 129.856 132.555  1.00  0.00    -0.000 C 
BRANCH  11  12
ATOM     12  C   UNL     1      84.043 131.377 132.728  1.00  0.00    -0.003 C 
ATOM     13  C   UNL     1      83.066 132.108 131.811  1.00  0.00     0.004 C 
ENDBRANCH  11  12
ENDBRANCH  10  11
ENDBRANCH   9  10
ENDBRANCH   8   9
ENDBRANCH   1   8
TORSDOF 9
ENDMDL
MODEL 6
REMARK VINA RESULT:    -4.068     13.877     15.524
REMARK INTER + INTRA:          -6.594
REMARK INTER:                  -6.041
REMARK INTRA:                  -0.553
REMARK UNBOUND:                -0.386
REMARK SMILES CCCCCCCCCCC(=O)[O-]
REMARK SMILES IDX 7 1 8 2 9 3 10 4 11 5 12 6 13 7 6 8 5 9 4 10 3 11 2 12 1 13
REMARK H PARENT
REMARK Flexibility Score: inf
ROOT
ATOM      1  C   UNL     1      81.956 125.407 129.354  1.00  0.00     0.000 C 
ENDROOT
BRANCH   1   2
ATOM      2  C   UNL     1      83.105 126.137 130.057  1.00  0.00     0.000 C 
BRANCH   2   3
ATOM      3  C   UNL     1      82.733 127.598 130.350  1.00  0.00     0.006 C 
BRANCH   3   4
ATOM      4  C   UNL     1      83.892 128.561 130.064  1.00  0.00     0.053 C 
BRANCH   4   5
ATOM      5  C   UNL     1      84.107 129.522 131.192  1.00  0.00     0.041 C 
ATOM      6  O   UNL     1      83.317 130.486 131.365  1.00  0.00    -0.550 OA
ATOM      7  O   UNL     1      85.164 129.332 132.074  1.00  0.00    -0.550 OA
ENDBRANCH   4   5
ENDBRANCH   3   4
ENDBRANCH   2   3
ENDBRANCH   1   2
BRANCH   1   8
ATOM      8  C   UNL     1      82.488 124.459 128.269  1.00  0.00     0.000 C 
BRANCH   8   9
ATOM      9  C   UNL     1      84.011 124.564 128.085  1.00  0.00    -0.000 C 
BRANCH   9  10
ATOM     10  C   UNL     1      84.454 124.267 126.642  1.00  0.00    -0.000 C 
BRANCH  10  11
ATOM     11  C   UNL     1      83.270 124.197 125.664  1.00  0.00    -0.000 C 
BRANCH  11  12
ATOM     12  C   UNL     1      83.306 122.940 124.784  1.00  0.00    -0.003 C 
ATOM     13  C   UNL     1      84.585 122.141 125.022  1.00  0.00     0.004 C 
ENDBRANCH  11  12
ENDBRANCH  10  11
ENDBRANCH   9  10
ENDBRANCH   8   9
ENDBRANCH   1   8
TORSDOF 9
ENDMDL
MODEL 7
REMARK VINA RESULT:    -4.020     13.438     15.726
REMARK INTER + INTRA:          -6.521
REMARK INTER:                  -6.043
REMARK INTRA:                  -0.478
REMARK UNBOUND:                -0.386
REMARK SMILES CCCCCCCCCCC(=O)[O-]
REMARK SMILES IDX 7 1 8 2 9 3 10 4 11 5 12 6 13 7 6 8 5 9 4 10 3 11 2 12 1 13
REMARK H PARENT
REMARK Flexibility Score: inf
ROOT
ATOM      1  C   UNL     1      81.938 125.368 129.565  1.00  0.00     0.000 C 
ENDROOT
BRANCH   1   2
ATOM      2  C   UNL     1      82.435 124.625 128.320  1.00  0.00     0.000 C 
BRANCH   2   3
ATOM      3  C   UNL     1      83.932 124.299 128.434  1.00  0.00     0.006 C 
BRANCH   3   4
ATOM      4  C   UNL     1      84.694 124.614 127.140  1.00  0.00     0.053 C 
BRANCH   4   5
ATOM      5  C   UNL     1      84.419 123.601 126.072  1.00  0.00     0.041 C 
ATOM      6  O   UNL     1      84.887 122.437 126.166  1.00  0.00    -0.550 OA
ATOM      7  O   UNL     1      83.617 123.935 124.989  1.00  0.00    -0.550 OA
ENDBRANCH   4   5
ENDBRANCH   3   4
ENDBRANCH   2   3
ENDBRANCH   1   2
BRANCH   1   8
ATOM      8  C   UNL     1      83.051 126.239 130.167  1.00  0.00     0.000 C 
BRANCH   8   9
ATOM      9  C   UNL     1      82.603 127.690 130.408  1.00  0.00    -0.000 C 
BRANCH   9  10
ATOM     10  C   UNL     1      83.679 128.714 130.007  1.00  0.00    -0.000 C 
BRANCH  10  11
ATOM     11  C   UNL     1      84.538 129.165 131.200  1.00  0.00    -0.000 C 
BRANCH  11  12
ATOM     12  C   UNL     1      83.700 129.779 132.331  1.00  0.00    -0.003 C 
ATOM     13  C   UNL     1      84.006 131.266 132.495  1.00  0.00     0.004 C 
ENDBRANCH  11  12
ENDBRANCH  10  11
ENDBRANCH   9  10
ENDBRANCH   8   9
ENDBRANCH   1   8
TORSDOF 9
ENDMDL
MODEL 8
REMARK VINA RESULT:    -4.013     13.322     14.590
REMARK INTER + INTRA:          -6.510
REMARK INTER:                  -5.576
REMARK INTRA:                  -0.934
REMARK UNBOUND:                -0.386
REMARK SMILES CCCCCCCCCCC(=O)[O-]
REMARK SMILES IDX 7 1 8 2 9 3 10 4 11 5 12 6 13 7 6 8 5 9 4 10 3 11 2 12 1 13
REMARK H PARENT
REMARK Flexibility Score: inf
ROOT
ATOM      1  C   UNL     1      84.546 121.909 124.763  1.00  0.00     0.000 C 
ENDROOT
BRANCH   1   2
ATOM      2  C   UNL     1      83.349 121.056 125.196  1.00  0.00     0.000 C 
BRANCH   2   3
ATOM      3  C   UNL     1      82.688 120.379 123.987  1.00  0.00     0.006 C 
BRANCH   3   4
ATOM      4  C   UNL     1      82.478 121.351 122.819  1.00  0.00     0.053 C 
BRANCH   4   5
ATOM      5  C   UNL     1      82.526 120.650 121.497  1.00  0.00     0.041 C 
ATOM      6  O   UNL     1      82.444 121.307 120.426  1.00  0.00    -0.550 OA
ATOM      7  O   UNL     1      82.696 119.272 121.447  1.00  0.00    -0.550 OA
ENDBRANCH   4   5
ENDBRANCH   3   4
ENDBRANCH   2   3
ENDBRANCH   1   2
BRANCH   1   8
ATOM      8  C   UNL     1      84.404 123.354 125.266  1.00  0.00     0.000 C 
BRANCH   8   9
ATOM      9  C   UNL     1      83.001 123.653 125.819  1.00  0.00    -0.000 C 
BRANCH   9  10
ATOM     10  C   UNL     1      83.040 124.263 127.231  1.00  0.00    -0.000 C 
BRANCH  10  11
ATOM     11  C   UNL     1      84.300 123.859 128.014  1.00  0.00    -0.000 C 
BRANCH  11  12
ATOM     12  C   UNL     1      84.081 122.609 128.878  1.00  0.00    -0.003 C 
ATOM     13  C   UNL     1      85.332 121.736 128.905  1.00  0.00     0.004 C 
ENDBRANCH  11  12
ENDBRANCH  10  11
ENDBRANCH   9  10
ENDBRANCH   8   9
ENDBRANCH   1   8
TORSDOF 9
ENDMDL
MODEL 9
REMARK VINA RESULT:    -3.871     12.230     13.971
REMARK INTER + INTRA:          -6.294
REMARK INTER:                  -5.135
REMARK INTRA:                  -1.159
REMARK UNBOUND:                -0.386
REMARK SMILES CCCCCCCCCCC(=O)[O-]
REMARK SMILES IDX 7 1 8 2 9 3 10 4 11 5 12 6 13 7 6 8 5 9 4 10 3 11 2 12 1 13
REMARK H PARENT
REMARK Flexibility Score: inf
ROOT
ATOM      1  C   UNL     1      83.960 122.972 128.950  1.00  0.00     0.000 C 
ENDROOT
BRANCH   1   2
ATOM      2  C   UNL     1      84.068 121.487 129.314  1.00  0.00     0.000 C 
BRANCH   2   3
ATOM      3  C   UNL     1      85.262 120.832 128.605  1.00  0.00     0.006 C 
BRANCH   3   4
ATOM      4  C   UNL     1      86.098 119.966 129.556  1.00  0.00     0.053 C 
BRANCH   4   5
ATOM      5  C   UNL     1      86.910 120.800 130.498  1.00  0.00     0.041 C 
ATOM      6  O   UNL     1      86.627 120.831 131.724  1.00  0.00    -0.550 OA
ATOM      7  O   UNL     1      88.001 121.519 130.025  1.00  0.00    -0.550 OA
ENDBRANCH   4   5
ENDBRANCH   3   4
ENDBRANCH   2   3
ENDBRANCH   1   2
BRANCH   1   8
ATOM      8  C   UNL     1      85.014 123.360 127.902  1.00  0.00     0.000 C 
BRANCH   8   9
ATOM      9  C   UNL     1      84.535 124.483 126.968  1.00  0.00    -0.000 C 
BRANCH   9  10
ATOM     10  C   UNL     1      83.970 123.948 125.641  1.00  0.00    -0.000 C 
BRANCH  10  11
ATOM     11  C   UNL     1      84.652 122.646 125.192  1.00  0.00    -0.000 C 
BRANCH  11  12
ATOM     12  C   UNL     1      83.646 121.585 124.723  1.00  0.00    -0.003 C 
ATOM     13  C   UNL     1      82.607 121.298 125.805  1.00  0.00     0.004 C 
ENDBRANCH  11  12
ENDBRANCH  10  11
ENDBRANCH   9  10
ENDBRANCH   8   9
ENDBRANCH   1   8
TORSDOF 9
ENDMDL
