MODEL 1
REMARK VINA RESULT:    -4.163      0.000      0.000
REMARK INTER + INTRA:          -7.191
REMARK INTER:                  -5.988
REMARK INTRA:                  -1.202
REMARK UNBOUND:                -1.202
REMARK SMILES O=C(CO)[C@H](O)[C@@H](O)[C@H](O)CO
REMARK SMILES IDX 7 1 9 2 11 3 12 4 10 6 5 8 2 9 1 10 3 11 4 12 6 14 8 16
REMARK H PARENT 12 5 10 7 4 13 6 15 8 17
REMARK Flexibility Score: inf
ROOT
ATOM      1  C   UNL     1      11.827 -15.653  31.152  1.00  0.00     0.181 C 
ENDROOT
BRANCH   1   2
ATOM      2  C   UNL     1      11.287 -16.943  31.837  1.00  0.00     0.171 C 
BRANCH   2   3
ATOM      3  C   UNL     1      10.078 -16.705  32.749  1.00  0.00     0.190 C 
BRANCH   3   4
ATOM      4  O   UNL     1       9.090 -15.967  32.081  1.00  0.00    -0.394 OA
ATOM      5  H   UNL     1       8.933 -16.435  31.220  1.00  0.00     0.210 HD
ENDBRANCH   3   4
ENDBRANCH   2   3
BRANCH   2   6
ATOM      6  O   UNL     1      10.913 -17.873  30.851  1.00  0.00    -0.388 OA
ATOM      7  H   UNL     1      10.612 -17.356  30.058  1.00  0.00     0.211 HD
ENDBRANCH   2   6
ENDBRANCH   1   2
BRANCH   1   8
ATOM      8  C   UNL     1      13.300 -15.769  30.649  1.00  0.00     0.214 C 
BRANCH   8   9
ATOM      9  C   UNL     1      13.542 -15.035  29.344  1.00  0.00     0.189 C 
ATOM     10  O   UNL     1      13.499 -13.814  29.318  1.00  0.00    -0.294 OA
BRANCH   9  11
ATOM     11  C   UNL     1      13.789 -15.781  28.060  1.00  0.00     0.234 C 
BRANCH  11  12
ATOM     12  O   UNL     1      12.629 -16.462  27.668  1.00  0.00    -0.388 OA
ATOM     13  H   UNL     1      12.403 -17.085  28.407  1.00  0.00     0.211 HD
ENDBRANCH  11  12
ENDBRANCH   9  11
ENDBRANCH   8   9
BRANCH   8  14
ATOM     14  O   UNL     1      13.665 -17.118  30.484  1.00  0.00    -0.382 OA
ATOM     15  H   UNL     1      13.878 -17.485  31.381  1.00  0.00     0.211 HD
ENDBRANCH   8  14
ENDBRANCH   1   8
BRANCH   1  16
ATOM     16  O   UNL     1      10.985 -15.313  30.077  1.00  0.00    -0.387 OA
ATOM     17  H   UNL     1      11.422 -15.632  29.243  1.00  0.00     0.211 HD
ENDBRANCH   1  16
TORSDOF 10
ENDMDL
MODEL 2
REMARK VINA RESULT:    -4.116      1.899      2.808
REMARK INTER + INTRA:          -7.123
REMARK INTER:                  -6.065
REMARK INTRA:                  -1.058
REMARK UNBOUND:                -1.202
REMARK SMILES O=C(CO)[C@H](O)[C@@H](O)[C@H](O)CO
REMARK SMILES IDX 7 1 9 2 11 3 12 4 10 6 5 8 2 9 1 10 3 11 4 12 6 14 8 16
REMARK H PARENT 12 5 10 7 4 13 6 15 8 17
REMARK Flexibility Score: inf
ROOT
ATOM      1  C   UNL     1      12.423 -14.594  29.597  1.00  0.00     0.181 C 
ENDROOT
BRANCH   1   2
ATOM      2  C   UNL     1      13.161 -15.508  30.619  1.00  0.00     0.171 C 
BRANCH   2   3
ATOM      3  C   UNL     1      12.230 -16.424  31.422  1.00  0.00     0.190 C 
BRANCH   3   4
ATOM      4  O   UNL     1      11.441 -17.204  30.563  1.00  0.00    -0.394 OA
ATOM      5  H   UNL     1      11.056 -16.576  29.898  1.00  0.00     0.210 HD
ENDBRANCH   3   4
ENDBRANCH   2   3
BRANCH   2   6
ATOM      6  O   UNL     1      14.088 -16.316  29.938  1.00  0.00    -0.388 OA
ATOM      7  H   UNL     1      14.706 -15.710  29.450  1.00  0.00     0.211 HD
ENDBRANCH   2   6
ENDBRANCH   1   2
BRANCH   1   8
ATOM      8  C   UNL     1      12.671 -14.978  28.105  1.00  0.00     0.214 C 
BRANCH   8   9
ATOM      9  C   UNL     1      11.817 -14.182  27.137  1.00  0.00     0.189 C 
ATOM     10  O   UNL     1      11.501 -13.034  27.409  1.00  0.00    -0.294 OA
BRANCH   9  11
ATOM     11  C   UNL     1      11.304 -14.794  25.860  1.00  0.00     0.234 C 
BRANCH  11  12
ATOM     12  O   UNL     1      12.376 -15.126  25.021  1.00  0.00    -0.388 OA
ATOM     13  H   UNL     1      12.285 -16.093  24.815  1.00  0.00     0.211 HD
ENDBRANCH  11  12
ENDBRANCH   9  11
ENDBRANCH   8   9
BRANCH   8  14
ATOM     14  O   UNL     1      12.433 -16.349  27.898  1.00  0.00    -0.382 OA
ATOM     15  H   UNL     1      11.966 -16.699  28.702  1.00  0.00     0.211 HD
ENDBRANCH   8  14
ENDBRANCH   1   8
BRANCH   1  16
ATOM     16  O   UNL     1      11.042 -14.617  29.869  1.00  0.00    -0.387 OA
ATOM     17  H   UNL     1      10.638 -13.825  29.425  1.00  0.00     0.211 HD
ENDBRANCH   1  16
TORSDOF 10
ENDMDL
MODEL 3
REMARK VINA RESULT:    -3.984      2.857      4.475
REMARK INTER + INTRA:          -6.933
REMARK INTER:                  -5.955
REMARK INTRA:                  -0.978
REMARK UNBOUND:                -1.202
REMARK SMILES O=C(CO)[C@H](O)[C@@H](O)[C@H](O)CO
REMARK SMILES IDX 7 1 9 2 11 3 12 4 10 6 5 8 2 9 1 10 3 11 4 12 6 14 8 16
REMARK H PARENT 12 5 10 7 4 13 6 15 8 17
REMARK Flexibility Score: inf
ROOT
ATOM      1  C   UNL     1       9.673 -19.202  31.852  1.00  0.00     0.181 C 
ENDROOT
BRANCH   1   2
ATOM      2  C   UNL     1       9.534 -20.612  32.498  1.00  0.00     0.171 C 
BRANCH   2   3
ATOM      3  C   UNL     1       8.811 -21.634  31.612  1.00  0.00     0.190 C 
BRANCH   3   4
ATOM      4  O   UNL     1       9.713 -22.257  30.737  1.00  0.00    -0.394 OA
ATOM      5  H   UNL     1      10.045 -21.544  30.131  1.00  0.00     0.210 HD
ENDBRANCH   3   4
ENDBRANCH   2   3
BRANCH   2   6
ATOM      6  O   UNL     1      10.811 -21.117  32.795  1.00  0.00    -0.388 OA
ATOM      7  H   UNL     1      10.698 -21.809  33.499  1.00  0.00     0.211 HD
ENDBRANCH   2   6
ENDBRANCH   1   2
BRANCH   1   8
ATOM      8  C   UNL     1      10.763 -18.303  32.516  1.00  0.00     0.214 C 
BRANCH   8   9
ATOM      9  C   UNL     1      10.492 -16.820  32.349  1.00  0.00     0.189 C 
ATOM     10  O   UNL     1       9.582 -16.295  32.974  1.00  0.00    -0.294 OA
BRANCH   9  11
ATOM     11  C   UNL     1      11.293 -15.981  31.389  1.00  0.00     0.234 C 
BRANCH  11  12
ATOM     12  O   UNL     1      11.470 -16.669  30.180  1.00  0.00    -0.388 OA
ATOM     13  H   UNL     1      11.227 -16.035  29.456  1.00  0.00     0.211 HD
ENDBRANCH  11  12
ENDBRANCH   9  11
ENDBRANCH   8   9
BRANCH   8  14
ATOM     14  O   UNL     1      12.035 -18.592  31.991  1.00  0.00    -0.382 OA
ATOM     15  H   UNL     1      12.585 -17.768  32.061  1.00  0.00     0.211 HD
ENDBRANCH   8  14
ENDBRANCH   1   8
BRANCH   1  16
ATOM     16  O   UNL     1       9.952 -19.347  30.480  1.00  0.00    -0.387 OA
ATOM     17  H   UNL     1       9.463 -18.628  29.998  1.00  0.00     0.211 HD
ENDBRANCH   1  16
TORSDOF 10
ENDMDL
MODEL 4
REMARK VINA RESULT:    -3.983      1.681      4.511
REMARK INTER + INTRA:          -6.931
REMARK INTER:                  -5.972
REMARK INTRA:                  -0.959
REMARK UNBOUND:                -1.202
REMARK SMILES O=C(CO)[C@H](O)[C@@H](O)[C@H](O)CO
REMARK SMILES IDX 7 1 9 2 11 3 12 4 10 6 5 8 2 9 1 10 3 11 4 12 6 14 8 16
REMARK H PARENT 12 5 10 7 4 13 6 15 8 17
REMARK Flexibility Score: inf
ROOT
ATOM      1  C   UNL     1      12.869 -15.106  28.449  1.00  0.00     0.181 C 
ENDROOT
BRANCH   1   2
ATOM      2  C   UNL     1      12.373 -13.961  27.517  1.00  0.00     0.171 C 
BRANCH   2   3
ATOM      3  C   UNL     1      11.436 -14.430  26.398  1.00  0.00     0.190 C 
BRANCH   3   4
ATOM      4  O   UNL     1      12.170 -14.824  25.269  1.00  0.00    -0.394 OA
ATOM      5  H   UNL     1      13.055 -14.380  25.348  1.00  0.00     0.210 HD
ENDBRANCH   3   4
ENDBRANCH   2   3
BRANCH   2   6
ATOM      6  O   UNL     1      11.692 -12.998  28.282  1.00  0.00    -0.388 OA
ATOM      7  H   UNL     1      11.777 -12.130  27.807  1.00  0.00     0.211 HD
ENDBRANCH   2   6
ENDBRANCH   1   2
BRANCH   1   8
ATOM      8  C   UNL     1      12.256 -15.068  29.884  1.00  0.00     0.214 C 
BRANCH   8   9
ATOM      9  C   UNL     1      12.680 -16.245  30.743  1.00  0.00     0.189 C 
ATOM     10  O   UNL     1      13.832 -16.648  30.692  1.00  0.00    -0.294 OA
BRANCH   9  11
ATOM     11  C   UNL     1      11.696 -16.963  31.628  1.00  0.00     0.234 C 
BRANCH  11  12
ATOM     12  O   UNL     1      10.922 -17.850  30.867  1.00  0.00    -0.388 OA
ATOM     13  H   UNL     1       9.999 -17.800  31.229  1.00  0.00     0.211 HD
ENDBRANCH  11  12
ENDBRANCH   9  11
ENDBRANCH   8   9
BRANCH   8  14
ATOM     14  O   UNL     1      10.851 -15.034  29.825  1.00  0.00    -0.382 OA
ATOM     15  H   UNL     1      10.513 -15.901  30.173  1.00  0.00     0.211 HD
ENDBRANCH   8  14
ENDBRANCH   1   8
BRANCH   1  16
ATOM     16  O   UNL     1      12.588 -16.347  27.847  1.00  0.00    -0.387 OA
ATOM     17  H   UNL     1      12.097 -16.897  28.514  1.00  0.00     0.211 HD
ENDBRANCH   1  16
TORSDOF 10
ENDMDL
MODEL 5
REMARK VINA RESULT:    -3.939      3.194      5.958
REMARK INTER + INTRA:          -6.869
REMARK INTER:                  -5.423
REMARK INTRA:                  -1.446
REMARK UNBOUND:                -1.202
REMARK SMILES O=C(CO)[C@H](O)[C@@H](O)[C@H](O)CO
REMARK SMILES IDX 7 1 9 2 11 3 12 4 10 6 5 8 2 9 1 10 3 11 4 12 6 14 8 16
REMARK H PARENT 12 5 10 7 4 13 6 15 8 17
REMARK Flexibility Score: inf
ROOT
ATOM      1  C   UNL     1      10.482 -19.503  31.729  1.00  0.00     0.181 C 
ENDROOT
BRANCH   1   2
ATOM      2  C   UNL     1      10.744 -18.069  32.276  1.00  0.00     0.171 C 
BRANCH   2   3
ATOM      3  C   UNL     1      11.898 -17.337  31.580  1.00  0.00     0.190 C 
BRANCH   3   4
ATOM      4  O   UNL     1      11.501 -16.875  30.316  1.00  0.00    -0.394 OA
ATOM      5  H   UNL     1      12.132 -16.146  30.080  1.00  0.00     0.210 HD
ENDBRANCH   3   4
ENDBRANCH   2   3
BRANCH   2   6
ATOM      6  O   UNL     1       9.582 -17.293  32.127  1.00  0.00    -0.388 OA
ATOM      7  H   UNL     1       9.057 -17.688  31.381  1.00  0.00     0.211 HD
ENDBRANCH   2   6
ENDBRANCH   1   2
BRANCH   1   8
ATOM      8  C   UNL     1       9.561 -20.373  32.641  1.00  0.00     0.214 C 
BRANCH   8   9
ATOM      9  C   UNL     1       8.306 -20.851  31.935  1.00  0.00     0.189 C 
ATOM     10  O   UNL     1       8.354 -21.834  31.212  1.00  0.00    -0.294 OA
BRANCH   9  11
ATOM     11  C   UNL     1       7.002 -20.108  32.068  1.00  0.00     0.234 C 
BRANCH  11  12
ATOM     12  O   UNL     1       7.127 -18.818  31.534  1.00  0.00    -0.388 OA
ATOM     13  H   UNL     1       6.668 -18.205  32.166  1.00  0.00     0.211 HD
ENDBRANCH  11  12
ENDBRANCH   9  11
ENDBRANCH   8   9
BRANCH   8  14
ATOM     14  O   UNL     1       9.188 -19.662  33.796  1.00  0.00    -0.382 OA
ATOM     15  H   UNL     1      10.008 -19.512  34.336  1.00  0.00     0.211 HD
ENDBRANCH   8  14
ENDBRANCH   1   8
BRANCH   1  16
ATOM     16  O   UNL     1       9.922 -19.412  30.441  1.00  0.00    -0.387 OA
ATOM     17  H   UNL     1       9.360 -18.592  30.418  1.00  0.00     0.211 HD
ENDBRANCH   1  16
TORSDOF 10
ENDMDL
MODEL 6
REMARK VINA RESULT:    -3.895      3.938      5.520
REMARK INTER + INTRA:          -6.805
REMARK INTER:                  -6.063
REMARK INTRA:                  -0.742
REMARK UNBOUND:                -1.202
REMARK SMILES O=C(CO)[C@H](O)[C@@H](O)[C@H](O)CO
REMARK SMILES IDX 7 1 9 2 11 3 12 4 10 6 5 8 2 9 1 10 3 11 4 12 6 14 8 16
REMARK H PARENT 12 5 10 7 4 13 6 15 8 17
REMARK Flexibility Score: inf
ROOT
ATOM      1  C   UNL     1       8.329 -20.031  32.041  1.00  0.00     0.181 C 
ENDROOT
BRANCH   1   2
ATOM      2  C   UNL     1       7.759 -21.414  31.610  1.00  0.00     0.171 C 
BRANCH   2   3
ATOM      3  C   UNL     1       6.323 -21.358  31.074  1.00  0.00     0.190 C 
BRANCH   3   4
ATOM      4  O   UNL     1       6.139 -22.299  30.051  1.00  0.00    -0.394 OA
ATOM      5  H   UNL     1       6.963 -22.852  30.034  1.00  0.00     0.210 HD
ENDBRANCH   3   4
ENDBRANCH   2   3
BRANCH   2   6
ATOM      6  O   UNL     1       8.577 -21.964  30.608  1.00  0.00    -0.388 OA
ATOM      7  H   UNL     1       8.437 -22.947  30.618  1.00  0.00     0.211 HD
ENDBRANCH   2   6
ENDBRANCH   1   2
BRANCH   1   8
ATOM      8  C   UNL     1       9.786 -19.762  31.551  1.00  0.00     0.214 C 
BRANCH   8   9
ATOM      9  C   UNL     1      10.424 -18.557  32.217  1.00  0.00     0.189 C 
ATOM     10  O   UNL     1       9.893 -18.053  33.196  1.00  0.00    -0.294 OA
BRANCH   9  11
ATOM     11  C   UNL     1      11.680 -17.933  31.668  1.00  0.00     0.234 C 
BRANCH  11  12
ATOM     12  O   UNL     1      11.371 -17.112  30.575  1.00  0.00    -0.388 OA
ATOM     13  H   UNL     1      12.088 -16.427  30.524  1.00  0.00     0.211 HD
ENDBRANCH  11  12
ENDBRANCH   9  11
ENDBRANCH   8   9
BRANCH   8  14
ATOM     14  O   UNL     1       9.817 -19.578  30.157  1.00  0.00    -0.382 OA
ATOM     15  H   UNL     1       9.009 -19.057  29.904  1.00  0.00     0.211 HD
ENDBRANCH   8  14
ENDBRANCH   1   8
BRANCH   1  16
ATOM     16  O   UNL     1       7.476 -19.013  31.572  1.00  0.00    -0.387 OA
ATOM     17  H   UNL     1       6.623 -19.084  32.076  1.00  0.00     0.211 HD
ENDBRANCH   1  16
TORSDOF 10
ENDMDL
MODEL 7
REMARK VINA RESULT:    -3.817      8.827      9.739
REMARK INTER + INTRA:          -6.692
REMARK INTER:                  -5.271
REMARK INTRA:                  -1.422
REMARK UNBOUND:                -1.202
REMARK SMILES O=C(CO)[C@H](O)[C@@H](O)[C@H](O)CO
REMARK SMILES IDX 7 1 9 2 11 3 12 4 10 6 5 8 2 9 1 10 3 11 4 12 6 14 8 16
REMARK H PARENT 12 5 10 7 4 13 6 15 8 17
REMARK Flexibility Score: inf
ROOT
ATOM      1  C   UNL     1       6.816 -17.605  23.319  1.00  0.00     0.181 C 
ENDROOT
BRANCH   1   2
ATOM      2  C   UNL     1       6.128 -18.192  24.587  1.00  0.00     0.171 C 
BRANCH   2   3
ATOM      3  C   UNL     1       7.109 -18.719  25.641  1.00  0.00     0.190 C 
BRANCH   3   4
ATOM      4  O   UNL     1       8.434 -18.546  25.216  1.00  0.00    -0.394 OA
ATOM      5  H   UNL     1       8.524 -19.066  24.375  1.00  0.00     0.210 HD
ENDBRANCH   3   4
ENDBRANCH   2   3
BRANCH   2   6
ATOM      6  O   UNL     1       5.333 -17.200  25.188  1.00  0.00    -0.388 OA
ATOM      7  H   UNL     1       5.363 -16.401  24.598  1.00  0.00     0.211 HD
ENDBRANCH   2   6
ENDBRANCH   1   2
BRANCH   1   8
ATOM      8  C   UNL     1       5.857 -17.424  22.101  1.00  0.00     0.214 C 
BRANCH   8   9
ATOM      9  C   UNL     1       5.655 -15.971  21.714  1.00  0.00     0.189 C 
ATOM     10  O   UNL     1       6.525 -15.383  21.089  1.00  0.00    -0.294 OA
BRANCH   9  11
ATOM     11  C   UNL     1       4.419 -15.216  22.126  1.00  0.00     0.234 C 
BRANCH  11  12
ATOM     12  O   UNL     1       4.379 -15.082  23.520  1.00  0.00    -0.388 OA
ATOM     13  H   UNL     1       4.200 -14.124  23.707  1.00  0.00     0.211 HD
ENDBRANCH  11  12
ENDBRANCH   9  11
ENDBRANCH   8   9
BRANCH   8  14
ATOM     14  O   UNL     1       4.602 -18.001  22.365  1.00  0.00    -0.382 OA
ATOM     15  H   UNL     1       4.453 -18.720  21.697  1.00  0.00     0.211 HD
ENDBRANCH   8  14
ENDBRANCH   1   8
BRANCH   1  16
ATOM     16  O   UNL     1       7.407 -16.369  23.644  1.00  0.00    -0.387 OA
ATOM     17  H   UNL     1       6.738 -15.659  23.450  1.00  0.00     0.211 HD
ENDBRANCH   1  16
TORSDOF 10
ENDMDL
MODEL 8
REMARK VINA RESULT:    -3.795      4.619      6.459
REMARK INTER + INTRA:          -6.661
REMARK INTER:                  -5.270
REMARK INTRA:                  -1.391
REMARK UNBOUND:                -1.202
REMARK SMILES O=C(CO)[C@H](O)[C@@H](O)[C@H](O)CO
REMARK SMILES IDX 7 1 9 2 11 3 12 4 10 6 5 8 2 9 1 10 3 11 4 12 6 14 8 16
REMARK H PARENT 12 5 10 7 4 13 6 15 8 17
REMARK Flexibility Score: inf
ROOT
ATOM      1  C   UNL     1       7.429 -20.735  30.463  1.00  0.00     0.181 C 
ENDROOT
BRANCH   1   2
ATOM      2  C   UNL     1       7.760 -20.812  28.944  1.00  0.00     0.171 C 
BRANCH   2   3
ATOM      3  C   UNL     1       6.620 -20.341  28.032  1.00  0.00     0.190 C 
BRANCH   3   4
ATOM      4  O   UNL     1       6.265 -19.017  28.326  1.00  0.00    -0.394 OA
ATOM      5  H   UNL     1       5.338 -18.900  27.991  1.00  0.00     0.210 HD
ENDBRANCH   3   4
ENDBRANCH   2   3
BRANCH   2   6
ATOM      6  O   UNL     1       8.890 -20.021  28.672  1.00  0.00    -0.388 OA
ATOM      7  H   UNL     1       9.692 -20.565  28.894  1.00  0.00     0.211 HD
ENDBRANCH   2   6
ENDBRANCH   1   2
BRANCH   1   8
ATOM      8  C   UNL     1       8.518 -21.368  31.385  1.00  0.00     0.214 C 
BRANCH   8   9
ATOM      9  C   UNL     1       9.145 -20.368  32.338  1.00  0.00     0.189 C 
ATOM     10  O   UNL     1       8.581 -20.094  33.387  1.00  0.00    -0.294 OA
BRANCH   9  11
ATOM     11  C   UNL     1      10.432 -19.664  31.998  1.00  0.00     0.234 C 
BRANCH  11  12
ATOM     12  O   UNL     1      10.281 -18.930  30.813  1.00  0.00    -0.388 OA
ATOM     13  H   UNL     1      10.266 -19.591  30.072  1.00  0.00     0.211 HD
ENDBRANCH  11  12
ENDBRANCH   9  11
ENDBRANCH   8   9
BRANCH   8  14
ATOM     14  O   UNL     1       9.536 -21.961  30.617  1.00  0.00    -0.382 OA
ATOM     15  H   UNL     1      10.396 -21.820  31.094  1.00  0.00     0.211 HD
ENDBRANCH   8  14
ENDBRANCH   1   8
BRANCH   1  16
ATOM     16  O   UNL     1       7.227 -19.389  30.825  1.00  0.00    -0.387 OA
ATOM     17  H   UNL     1       7.380 -18.836  30.014  1.00  0.00     0.211 HD
ENDBRANCH   1  16
TORSDOF 10
ENDMDL
MODEL 9
REMARK VINA RESULT:    -3.780      1.761      4.785
REMARK INTER + INTRA:          -6.640
REMARK INTER:                  -5.507
REMARK INTRA:                  -1.133
REMARK UNBOUND:                -1.202
REMARK SMILES O=C(CO)[C@H](O)[C@@H](O)[C@H](O)CO
REMARK SMILES IDX 7 1 9 2 11 3 12 4 10 6 5 8 2 9 1 10 3 11 4 12 6 14 8 16
REMARK H PARENT 12 5 10 7 4 13 6 15 8 17
REMARK Flexibility Score: inf
ROOT
ATOM      1  C   UNL     1      13.192 -15.001  27.925  1.00  0.00     0.181 C 
ENDROOT
BRANCH   1   2
ATOM      2  C   UNL     1      12.465 -14.397  26.687  1.00  0.00     0.171 C 
BRANCH   2   3
ATOM      3  C   UNL     1      13.307 -14.403  25.406  1.00  0.00     0.190 C 
BRANCH   3   4
ATOM      4  O   UNL     1      13.761 -15.698  25.117  1.00  0.00    -0.394 OA
ATOM      5  H   UNL     1      12.970 -16.201  24.790  1.00  0.00     0.210 HD
ENDBRANCH   3   4
ENDBRANCH   2   3
BRANCH   2   6
ATOM      6  O   UNL     1      11.287 -15.122  26.439  1.00  0.00    -0.388 OA
ATOM      7  H   UNL     1      10.610 -14.478  26.099  1.00  0.00     0.211 HD
ENDBRANCH   2   6
ENDBRANCH   1   2
BRANCH   1   8
ATOM      8  C   UNL     1      12.741 -14.389  29.289  1.00  0.00     0.214 C 
BRANCH   8   9
ATOM      9  C   UNL     1      13.048 -15.286  30.473  1.00  0.00     0.189 C 
ATOM     10  O   UNL     1      14.210 -15.521  30.770  1.00  0.00    -0.294 OA
BRANCH   9  11
ATOM     11  C   UNL     1      11.947 -15.937  31.268  1.00  0.00     0.234 C 
BRANCH  11  12
ATOM     12  O   UNL     1      11.347 -16.955  30.515  1.00  0.00    -0.388 OA
ATOM     13  H   UNL     1      11.963 -17.733  30.550  1.00  0.00     0.211 HD
ENDBRANCH  11  12
ENDBRANCH   9  11
ENDBRANCH   8   9
BRANCH   8  14
ATOM     14  O   UNL     1      11.362 -14.110  29.278  1.00  0.00    -0.382 OA
ATOM     15  H   UNL     1      11.243 -13.162  29.548  1.00  0.00     0.211 HD
ENDBRANCH   8  14
ENDBRANCH   1   8
BRANCH   1  16
ATOM     16  O   UNL     1      12.994 -16.394  27.943  1.00  0.00    -0.387 OA
ATOM     17  H   UNL     1      12.189 -16.588  27.395  1.00  0.00     0.211 HD
ENDBRANCH   1  16
TORSDOF 10
ENDMDL
