MODEL 1
REMARK VINA RESULT:    -4.480      0.000      0.000
REMARK INTER + INTRA:          -7.826
REMARK INTER:                  -6.838
REMARK INTRA:                  -0.988
REMARK UNBOUND:                -0.988
REMARK SMILES O=C([O-])CCCCCCCCC(=O)[O-]
REMARK SMILES IDX 7 1 6 2 5 3 4 4 2 5 1 6 3 7 8 8 9 9 10 10 11 11 12 12 13 13
REMARK SMILES IDX 14 14
REMARK H PARENT
REMARK Flexibility Score: inf
ROOT
ATOM      1  C   UNL     1      63.098  30.338  13.483  1.00  0.00     0.000 C 
ENDROOT
BRANCH   1   2
ATOM      2  C   UNL     1      62.423  31.460  12.680  1.00  0.00     0.000 C 
BRANCH   2   3
ATOM      3  C   UNL     1      62.254  32.723  13.537  1.00  0.00     0.006 C 
BRANCH   3   4
ATOM      4  C   UNL     1      60.787  33.158  13.649  1.00  0.00     0.053 C 
BRANCH   4   5
ATOM      5  C   UNL     1      59.981  32.188  14.457  1.00  0.00     0.041 C 
ATOM      6  O   UNL     1      58.887  31.748  14.015  1.00  0.00    -0.550 OA
ATOM      7  O   UNL     1      60.456  31.746  15.686  1.00  0.00    -0.550 OA
ENDBRANCH   4   5
ENDBRANCH   3   4
ENDBRANCH   2   3
ENDBRANCH   1   2
BRANCH   1   8
ATOM      8  C   UNL     1      62.491  28.950  13.205  1.00  0.00     0.000 C 
BRANCH   8   9
ATOM      9  C   UNL     1      61.018  28.791  13.625  1.00  0.00     0.000 C 
BRANCH   9  10
ATOM     10  C   UNL     1      60.135  28.215  12.506  1.00  0.00     0.006 C 
BRANCH  10  11
ATOM     11  C   UNL     1      59.630  29.302  11.548  1.00  0.00     0.053 C 
BRANCH  11  12
ATOM     12  C   UNL     1      60.181  29.122  10.166  1.00  0.00     0.041 C 
ATOM     13  O   UNL     1      61.330  29.550   9.881  1.00  0.00    -0.550 OA
ATOM     14  O   UNL     1      59.410  28.511   9.184  1.00  0.00    -0.550 OA
ENDBRANCH  11  12
ENDBRANCH  10  11
ENDBRANCH   9  10
ENDBRANCH   8   9
ENDBRANCH   1   8
TORSDOF 9
ENDMDL
MODEL 2
REMARK VINA RESULT:    -4.437     12.289     13.708
REMARK INTER + INTRA:          -7.759
REMARK INTER:                  -6.785
REMARK INTRA:                  -0.974
REMARK UNBOUND:                -0.988
REMARK SMILES O=C([O-])CCCCCCCCC(=O)[O-]
REMARK SMILES IDX 7 1 6 2 5 3 4 4 2 5 1 6 3 7 8 8 9 9 10 10 11 11 12 12 13 13
REMARK SMILES IDX 14 14
REMARK H PARENT
REMARK Flexibility Score: inf
ROOT
ATOM      1  C   UNL     1      62.203  29.691  24.918  1.00  0.00     0.000 C 
ENDROOT
BRANCH   1   2
ATOM      2  C   UNL     1      61.523  28.387  24.474  1.00  0.00     0.000 C 
BRANCH   2   3
ATOM      3  C   UNL     1      60.692  27.785  25.617  1.00  0.00     0.006 C 
BRANCH   3   4
ATOM      4  C   UNL     1      61.566  27.071  26.657  1.00  0.00     0.053 C 
BRANCH   4   5
ATOM      5  C   UNL     1      61.508  27.750  27.991  1.00  0.00     0.041 C 
ATOM      6  O   UNL     1      62.379  28.604  28.306  1.00  0.00    -0.550 OA
ATOM      7  O   UNL     1      60.473  27.464  28.872  1.00  0.00    -0.550 OA
ENDBRANCH   4   5
ENDBRANCH   3   4
ENDBRANCH   2   3
ENDBRANCH   1   2
BRANCH   1   8
ATOM      8  C   UNL     1      63.684  29.768  24.501  1.00  0.00     0.000 C 
BRANCH   8   9
ATOM      9  C   UNL     1      64.671  29.118  25.488  1.00  0.00     0.000 C 
BRANCH   9  10
ATOM     10  C   UNL     1      65.482  27.973  24.858  1.00  0.00     0.006 C 
BRANCH  10  11
ATOM     11  C   UNL     1      64.861  26.599  25.143  1.00  0.00     0.053 C 
BRANCH  11  12
ATOM     12  C   UNL     1      64.494  25.884  23.879  1.00  0.00     0.041 C 
ATOM     13  O   UNL     1      63.377  25.313  23.775  1.00  0.00    -0.550 OA
ATOM     14  O   UNL     1      65.400  25.820  22.828  1.00  0.00    -0.550 OA
ENDBRANCH  11  12
ENDBRANCH  10  11
ENDBRANCH   9  10
ENDBRANCH   8   9
ENDBRANCH   1   8
TORSDOF 9
ENDMDL
MODEL 3
REMARK VINA RESULT:    -4.399     12.872     13.936
REMARK INTER + INTRA:          -7.702
REMARK INTER:                  -6.795
REMARK INTRA:                  -0.907
REMARK UNBOUND:                -0.988
REMARK SMILES O=C([O-])CCCCCCCCC(=O)[O-]
REMARK SMILES IDX 7 1 6 2 5 3 4 4 2 5 1 6 3 7 8 8 9 9 10 10 11 11 12 12 13 13
REMARK SMILES IDX 14 14
REMARK H PARENT
REMARK Flexibility Score: inf
ROOT
ATOM      1  C   UNL     1      63.020  30.290  27.501  1.00  0.00     0.000 C 
ENDROOT
BRANCH   1   2
ATOM      2  C   UNL     1      62.614  28.958  28.149  1.00  0.00     0.000 C 
BRANCH   2   3
ATOM      3  C   UNL     1      61.198  28.548  27.721  1.00  0.00     0.006 C 
BRANCH   3   4
ATOM      4  C   UNL     1      61.178  27.197  26.994  1.00  0.00     0.053 C 
BRANCH   4   5
ATOM      5  C   UNL     1      60.564  27.308  25.632  1.00  0.00     0.041 C 
ATOM      6  O   UNL     1      59.597  26.569  25.310  1.00  0.00    -0.550 OA
ATOM      7  O   UNL     1      61.041  28.251  24.731  1.00  0.00    -0.550 OA
ENDBRANCH   4   5
ENDBRANCH   3   4
ENDBRANCH   2   3
ENDBRANCH   1   2
BRANCH   1   8
ATOM      8  C   UNL     1      63.739  30.107  26.151  1.00  0.00     0.000 C 
BRANCH   8   9
ATOM      9  C   UNL     1      65.033  29.275  26.214  1.00  0.00     0.000 C 
BRANCH   9  10
ATOM     10  C   UNL     1      65.143  28.251  25.072  1.00  0.00     0.006 C 
BRANCH  10  11
ATOM     11  C   UNL     1      64.425  26.936  25.403  1.00  0.00     0.053 C 
BRANCH  11  12
ATOM     12  C   UNL     1      64.428  25.995  24.237  1.00  0.00     0.041 C 
ATOM     13  O   UNL     1      63.363  25.430  23.876  1.00  0.00    -0.550 OA
ATOM     14  O   UNL     1      65.616  25.715  23.572  1.00  0.00    -0.550 OA
ENDBRANCH  11  12
ENDBRANCH  10  11
ENDBRANCH   9  10
ENDBRANCH   8   9
ENDBRANCH   1   8
TORSDOF 9
ENDMDL
MODEL 4
REMARK VINA RESULT:    -4.384      1.831      4.437
REMARK INTER + INTRA:          -7.678
REMARK INTER:                  -6.612
REMARK INTRA:                  -1.066
REMARK UNBOUND:                -0.988
REMARK SMILES O=C([O-])CCCCCCCCC(=O)[O-]
REMARK SMILES IDX 7 1 6 2 5 3 4 4 2 5 1 6 3 7 8 8 9 9 10 10 11 11 12 12 13 13
REMARK SMILES IDX 14 14
REMARK H PARENT
REMARK Flexibility Score: inf
ROOT
ATOM      1  C   UNL     1      63.292  29.073  11.094  1.00  0.00     0.000 C 
ENDROOT
BRANCH   1   2
ATOM      2  C   UNL     1      62.139  29.546  10.196  1.00  0.00     0.000 C 
BRANCH   2   3
ATOM      3  C   UNL     1      60.937  28.595  10.299  1.00  0.00     0.006 C 
BRANCH   3   4
ATOM      4  C   UNL     1      59.813  29.171  11.170  1.00  0.00     0.053 C 
BRANCH   4   5
ATOM      5  C   UNL     1      59.597  28.357  12.408  1.00  0.00     0.041 C 
ATOM      6  O   UNL     1      60.548  28.156  13.209  1.00  0.00    -0.550 OA
ATOM      7  O   UNL     1      58.336  27.848  12.694  1.00  0.00    -0.550 OA
ENDBRANCH   4   5
ENDBRANCH   3   4
ENDBRANCH   2   3
ENDBRANCH   1   2
BRANCH   1   8
ATOM      8  C   UNL     1      63.565  30.025  12.273  1.00  0.00     0.000 C 
BRANCH   8   9
ATOM      9  C   UNL     1      63.500  31.524  11.925  1.00  0.00     0.000 C 
BRANCH   9  10
ATOM     10  C   UNL     1      62.714  32.346  12.960  1.00  0.00     0.006 C 
BRANCH  10  11
ATOM     11  C   UNL     1      61.197  32.190  12.792  1.00  0.00     0.053 C 
BRANCH  11  12
ATOM     12  C   UNL     1      60.552  31.671  14.041  1.00  0.00     0.041 C 
ATOM     13  O   UNL     1      61.213  30.970  14.851  1.00  0.00    -0.550 OA
ATOM     14  O   UNL     1      59.210  31.932  14.291  1.00  0.00    -0.550 OA
ENDBRANCH  11  12
ENDBRANCH  10  11
ENDBRANCH   9  10
ENDBRANCH   8   9
ENDBRANCH   1   8
TORSDOF 9
ENDMDL
MODEL 5
REMARK VINA RESULT:    -4.366      0.990      5.183
REMARK INTER + INTRA:          -7.651
REMARK INTER:                  -6.769
REMARK INTRA:                  -0.882
REMARK UNBOUND:                -0.988
REMARK SMILES O=C([O-])CCCCCCCCC(=O)[O-]
REMARK SMILES IDX 7 1 6 2 5 3 4 4 2 5 1 6 3 7 8 8 9 9 10 10 11 11 12 12 13 13
REMARK SMILES IDX 14 14
REMARK H PARENT
REMARK Flexibility Score: inf
ROOT
ATOM      1  C   UNL     1      62.543  28.883  13.292  1.00  0.00     0.000 C 
ENDROOT
BRANCH   1   2
ATOM      2  C   UNL     1      61.074  28.802  13.730  1.00  0.00     0.000 C 
BRANCH   2   3
ATOM      3  C   UNL     1      60.207  28.174  12.628  1.00  0.00     0.006 C 
BRANCH   3   4
ATOM      4  C   UNL     1      59.657  29.222  11.653  1.00  0.00     0.053 C 
BRANCH   4   5
ATOM      5  C   UNL     1      60.182  29.018  10.265  1.00  0.00     0.041 C 
ATOM      6  O   UNL     1      59.659  29.624   9.293  1.00  0.00    -0.550 OA
ATOM      7  O   UNL     1      61.270  28.181  10.050  1.00  0.00    -0.550 OA
ENDBRANCH   4   5
ENDBRANCH   3   4
ENDBRANCH   2   3
ENDBRANCH   1   2
BRANCH   1   8
ATOM      8  C   UNL     1      63.139  30.295  13.444  1.00  0.00     0.000 C 
BRANCH   8   9
ATOM      9  C   UNL     1      62.725  31.295  12.349  1.00  0.00     0.000 C 
BRANCH   9  10
ATOM     10  C   UNL     1      61.966  32.512  12.904  1.00  0.00     0.006 C 
BRANCH  10  11
ATOM     11  C   UNL     1      62.334  32.808  14.364  1.00  0.00     0.053 C 
BRANCH  11  12
ATOM     12  C   UNL     1      61.118  32.904  15.233  1.00  0.00     0.041 C 
ATOM     13  O   UNL     1      60.475  31.866  15.540  1.00  0.00    -0.550 OA
ATOM     14  O   UNL     1      60.674  34.144  15.674  1.00  0.00    -0.550 OA
ENDBRANCH  11  12
ENDBRANCH  10  11
ENDBRANCH   9  10
ENDBRANCH   8   9
ENDBRANCH   1   8
TORSDOF 9
ENDMDL
MODEL 6
REMARK VINA RESULT:    -4.327     12.454     14.694
REMARK INTER + INTRA:          -7.592
REMARK INTER:                  -6.887
REMARK INTRA:                  -0.705
REMARK UNBOUND:                -0.988
REMARK SMILES O=C([O-])CCCCCCCCC(=O)[O-]
REMARK SMILES IDX 7 1 6 2 5 3 4 4 2 5 1 6 3 7 8 8 9 9 10 10 11 11 12 12 13 13
REMARK SMILES IDX 14 14
REMARK H PARENT
REMARK Flexibility Score: inf
ROOT
ATOM      1  C   UNL     1      62.353  27.140  24.994  1.00  0.00     0.000 C 
ENDROOT
BRANCH   1   2
ATOM      2  C   UNL     1      63.691  27.263  25.738  1.00  0.00     0.000 C 
BRANCH   2   3
ATOM      3  C   UNL     1      64.717  26.260  25.189  1.00  0.00     0.006 C 
BRANCH   3   4
ATOM      4  C   UNL     1      64.493  25.954  23.703  1.00  0.00     0.053 C 
BRANCH   4   5
ATOM      5  C   UNL     1      65.661  26.379  22.867  1.00  0.00     0.041 C 
ATOM      6  O   UNL     1      66.168  27.521  23.020  1.00  0.00    -0.550 OA
ATOM      7  O   UNL     1      66.210  25.500  21.942  1.00  0.00    -0.550 OA
ENDBRANCH   4   5
ENDBRANCH   3   4
ENDBRANCH   2   3
ENDBRANCH   1   2
BRANCH   1   8
ATOM      8  C   UNL     1      61.156  27.641  25.824  1.00  0.00     0.000 C 
BRANCH   8   9
ATOM      9  C   UNL     1      61.243  27.344  27.333  1.00  0.00     0.000 C 
BRANCH   9  10
ATOM     10  C   UNL     1      61.078  28.602  28.202  1.00  0.00     0.006 C 
BRANCH  10  11
ATOM     11  C   UNL     1      62.414  29.083  28.784  1.00  0.00     0.053 C 
BRANCH  11  12
ATOM     12  C   UNL     1      62.816  30.412  28.220  1.00  0.00     0.041 C 
ATOM     13  O   UNL     1      62.984  31.399  28.982  1.00  0.00    -0.550 OA
ATOM     14  O   UNL     1      62.971  30.567  26.848  1.00  0.00    -0.550 OA
ENDBRANCH  11  12
ENDBRANCH  10  11
ENDBRANCH   9  10
ENDBRANCH   8   9
ENDBRANCH   1   8
TORSDOF 9
ENDMDL
MODEL 7
REMARK VINA RESULT:    -4.325     12.217     14.089
REMARK INTER + INTRA:          -7.588
REMARK INTER:                  -6.657
REMARK INTRA:                  -0.931
REMARK UNBOUND:                -0.988
REMARK SMILES O=C([O-])CCCCCCCCC(=O)[O-]
REMARK SMILES IDX 7 1 6 2 5 3 4 4 2 5 1 6 3 7 8 8 9 9 10 10 11 11 12 12 13 13
REMARK SMILES IDX 14 14
REMARK H PARENT
REMARK Flexibility Score: inf
ROOT
ATOM      1  C   UNL     1      63.529  29.856  24.531  1.00  0.00     0.000 C 
ENDROOT
BRANCH   1   2
ATOM      2  C   UNL     1      64.380  29.566  25.777  1.00  0.00     0.000 C 
BRANCH   2   3
ATOM      3  C   UNL     1      65.537  28.613  25.440  1.00  0.00     0.006 C 
BRANCH   3   4
ATOM      4  C   UNL     1      65.042  27.252  24.935  1.00  0.00     0.053 C 
BRANCH   4   5
ATOM      5  C   UNL     1      65.646  26.898  23.611  1.00  0.00     0.041 C 
ATOM      6  O   UNL     1      66.217  27.780  22.918  1.00  0.00    -0.550 OA
ATOM      7  O   UNL     1      65.608  25.585  23.160  1.00  0.00    -0.550 OA
ENDBRANCH   4   5
ENDBRANCH   3   4
ENDBRANCH   2   3
ENDBRANCH   1   2
BRANCH   1   8
ATOM      8  C   UNL     1      62.024  29.634  24.767  1.00  0.00     0.000 C 
BRANCH   8   9
ATOM      9  C   UNL     1      61.510  28.229  24.401  1.00  0.00     0.000 C 
BRANCH   9  10
ATOM     10  C   UNL     1      60.743  27.553  25.550  1.00  0.00     0.006 C 
BRANCH  10  11
ATOM     11  C   UNL     1      61.664  27.177  26.719  1.00  0.00     0.053 C 
BRANCH  11  12
ATOM     12  C   UNL     1      61.237  27.839  27.994  1.00  0.00     0.041 C 
ATOM     13  O   UNL     1      60.559  27.202  28.842  1.00  0.00    -0.550 OA
ATOM     14  O   UNL     1      61.559  29.170  28.228  1.00  0.00    -0.550 OA
ENDBRANCH  11  12
ENDBRANCH  10  11
ENDBRANCH   9  10
ENDBRANCH   8   9
ENDBRANCH   1   8
TORSDOF 9
ENDMDL
MODEL 8
REMARK VINA RESULT:    -4.311      1.876      2.467
REMARK INTER + INTRA:          -7.568
REMARK INTER:                  -6.506
REMARK INTRA:                  -1.062
REMARK UNBOUND:                -0.988
REMARK SMILES O=C([O-])CCCCCCCCC(=O)[O-]
REMARK SMILES IDX 7 1 6 2 5 3 4 4 2 5 1 6 3 7 8 8 9 9 10 10 11 11 12 12 13 13
REMARK SMILES IDX 14 14
REMARK H PARENT
REMARK Flexibility Score: inf
ROOT
ATOM      1  C   UNL     1      63.641  29.477  11.808  1.00  0.00     0.000 C 
ENDROOT
BRANCH   1   2
ATOM      2  C   UNL     1      63.572  31.003  11.971  1.00  0.00     0.000 C 
BRANCH   2   3
ATOM      3  C   UNL     1      62.786  31.384  13.235  1.00  0.00     0.006 C 
BRANCH   3   4
ATOM      4  C   UNL     1      61.439  32.040  12.905  1.00  0.00     0.053 C 
BRANCH   4   5
ATOM      5  C   UNL     1      60.423  31.789  13.977  1.00  0.00     0.041 C 
ATOM      6  O   UNL     1      59.194  31.884  13.721  1.00  0.00    -0.550 OA
ATOM      7  O   UNL     1      60.835  31.417  15.251  1.00  0.00    -0.550 OA
ENDBRANCH   4   5
ENDBRANCH   3   4
ENDBRANCH   2   3
ENDBRANCH   1   2
BRANCH   1   8
ATOM      8  C   UNL     1      63.298  29.009  10.381  1.00  0.00     0.000 C 
BRANCH   8   9
ATOM      9  C   UNL     1      61.941  29.501   9.846  1.00  0.00     0.000 C 
BRANCH   9  10
ATOM     10  C   UNL     1      60.773  28.583  10.239  1.00  0.00     0.006 C 
BRANCH  10  11
ATOM     11  C   UNL     1      59.789  29.274  11.193  1.00  0.00     0.053 C 
BRANCH  11  12
ATOM     12  C   UNL     1      59.574  28.473  12.441  1.00  0.00     0.041 C 
ATOM     13  O   UNL     1      58.465  27.917  12.654  1.00  0.00    -0.550 OA
ATOM     14  O   UNL     1      60.588  28.371  13.386  1.00  0.00    -0.550 OA
ENDBRANCH  11  12
ENDBRANCH  10  11
ENDBRANCH   9  10
ENDBRANCH   8   9
ENDBRANCH   1   8
TORSDOF 9
ENDMDL
MODEL 9
REMARK VINA RESULT:    -4.296      1.718      4.430
REMARK INTER + INTRA:          -7.545
REMARK INTER:                  -6.642
REMARK INTRA:                  -0.903
REMARK UNBOUND:                -0.988
REMARK SMILES O=C([O-])CCCCCCCCC(=O)[O-]
REMARK SMILES IDX 7 1 6 2 5 3 4 4 2 5 1 6 3 7 8 8 9 9 10 10 11 11 12 12 13 13
REMARK SMILES IDX 14 14
REMARK H PARENT
REMARK Flexibility Score: inf
ROOT
ATOM      1  C   UNL     1      63.280  30.158  11.105  1.00  0.00     0.000 C 
ENDROOT
BRANCH   1   2
ATOM      2  C   UNL     1      63.451  29.001  10.109  1.00  0.00     0.000 C 
BRANCH   2   3
ATOM      3  C   UNL     1      62.352  29.034   9.036  1.00  0.00     0.006 C 
BRANCH   3   4
ATOM      4  C   UNL     1      61.149  28.158   9.408  1.00  0.00     0.053 C 
BRANCH   4   5
ATOM      5  C   UNL     1      59.981  28.981   9.859  1.00  0.00     0.041 C 
ATOM      6  O   UNL     1      59.594  29.962   9.173  1.00  0.00    -0.550 OA
ATOM      7  O   UNL     1      59.301  28.641  11.022  1.00  0.00    -0.550 OA
ENDBRANCH   4   5
ENDBRANCH   3   4
ENDBRANCH   2   3
ENDBRANCH   1   2
BRANCH   1   8
ATOM      8  C   UNL     1      63.347  29.701  12.574  1.00  0.00     0.000 C 
BRANCH   8   9
ATOM      9  C   UNL     1      62.366  28.574  12.948  1.00  0.00     0.000 C 
BRANCH   9  10
ATOM     10  C   UNL     1      61.196  29.061  13.818  1.00  0.00     0.006 C 
BRANCH  10  11
ATOM     11  C   UNL     1      61.370  30.520  14.259  1.00  0.00     0.053 C 
BRANCH  11  12
ATOM     12  C   UNL     1      60.304  31.403  13.686  1.00  0.00     0.041 C 
ATOM     13  O   UNL     1      59.458  31.947  14.442  1.00  0.00    -0.550 OA
ATOM     14  O   UNL     1      60.223  31.594  12.312  1.00  0.00    -0.550 OA
ENDBRANCH  11  12
ENDBRANCH  10  11
ENDBRANCH   9  10
ENDBRANCH   8   9
ENDBRANCH   1   8
TORSDOF 9
ENDMDL
