MODEL 1
REMARK VINA RESULT:    -3.192      0.000      0.000
REMARK INTER + INTRA:          -3.616
REMARK INTER:                  -3.379
REMARK INTRA:                  -0.237
REMARK UNBOUND:                -0.237
REMARK SMILES CC1=CC[C@@]23[C@H]([C@H](C(C)C)CC[C@H]2C)[C@H]13
REMARK SMILES IDX 14 1 13 2 12 3 11 4 7 5 6 6 5 7 15 8 2 9 3 10 4 11 1 12 8 13
REMARK SMILES IDX 9 14 10 15
REMARK H PARENT
REMARK Flexibility Score: inf
ROOT
ATOM      1  C   UNL     1       3.240   4.875  12.334  1.00  0.00     0.008 C 
ATOM      2  C   UNL     1       4.570   5.638  12.350  1.00  0.00    -0.007 C 
ATOM      3  C   UNL     1       5.379   5.324  13.646  1.00  0.00     0.004 C 
ATOM      4  C   UNL     1       6.655   6.204  13.837  1.00  0.00     0.004 C 
ATOM      5  C   UNL     1       6.490   7.704  13.421  1.00  0.00    -0.004 C 
ATOM      6  C   UNL     1       5.821   7.663  12.040  1.00  0.00     0.007 C 
ATOM      7  C   UNL     1       4.351   7.164  12.289  1.00  0.00    -0.013 C 
ATOM      8  C   UNL     1       4.670   8.316  11.340  1.00  0.00     0.025 C 
ATOM      9  C   UNL     1       4.120   9.534  11.994  1.00  0.00    -0.073 C 
ATOM     10  C   UNL     1       3.462   9.259  13.108  1.00  0.00    -0.027 C 
ATOM     11  C   UNL     1       3.463   7.800  13.397  1.00  0.00     0.035 C 
ATOM     12  C   UNL     1       4.281  10.917  11.447  1.00  0.00     0.039 C 
ENDROOT
BRANCH   5  13
ATOM     13  C   UNL     1       7.859   8.436  13.328  1.00  0.00    -0.014 C 
ATOM     14  C   UNL     1       8.899   7.604  12.558  1.00  0.00     0.007 C 
ATOM     15  C   UNL     1       8.409   8.757  14.730  1.00  0.00     0.007 C 
ENDBRANCH   5  13
TORSDOF 1
ENDMDL
MODEL 2
REMARK VINA RESULT:    -1.717      3.073      6.320
REMARK INTER + INTRA:          -2.054
REMARK INTER:                  -1.553
REMARK INTRA:                  -0.501
REMARK UNBOUND:                -0.237
REMARK SMILES CC1=CC[C@@]23[C@H]([C@H](C(C)C)CC[C@H]2C)[C@H]13
REMARK SMILES IDX 14 1 13 2 12 3 11 4 7 5 6 6 5 7 15 8 2 9 3 10 4 11 1 12 8 13
REMARK SMILES IDX 9 14 10 15
REMARK H PARENT
REMARK Flexibility Score: inf
ROOT
ATOM      1  C   UNL     1       5.388   9.325  11.796  1.00  0.00     0.008 C 
ATOM      2  C   UNL     1       3.968   9.852  12.029  1.00  0.00    -0.007 C 
ATOM      3  C   UNL     1       3.012   9.408  10.879  1.00  0.00     0.004 C 
ATOM      4  C   UNL     1       1.593  10.059  10.934  1.00  0.00     0.004 C 
ATOM      5  C   UNL     1       1.576  11.565  11.361  1.00  0.00    -0.004 C 
ATOM      6  C   UNL     1       2.469  11.636  12.607  1.00  0.00     0.007 C 
ATOM      7  C   UNL     1       3.937  11.393  12.098  1.00  0.00    -0.013 C 
ATOM      8  C   UNL     1       3.599  12.473  13.122  1.00  0.00     0.025 C 
ATOM      9  C   UNL     1       3.818  13.768  12.422  1.00  0.00    -0.073 C 
ATOM     10  C   UNL     1       4.310  13.610  11.204  1.00  0.00    -0.027 C 
ATOM     11  C   UNL     1       4.503  12.172  10.875  1.00  0.00     0.035 C 
ATOM     12  C   UNL     1       3.525  15.103  13.030  1.00  0.00     0.039 C 
ENDROOT
BRANCH   5  13
ATOM     13  C   UNL     1       0.140  12.055  11.706  1.00  0.00    -0.014 C 
ATOM     14  C   UNL     1      -0.118  13.479  11.186  1.00  0.00     0.007 C 
ATOM     15  C   UNL     1      -0.103  12.022  13.226  1.00  0.00     0.007 C 
ENDBRANCH   5  13
TORSDOF 1
ENDMDL
MODEL 3
REMARK VINA RESULT:    -1.672      1.272      3.825
REMARK INTER + INTRA:          -2.007
REMARK INTER:                  -1.602
REMARK INTRA:                  -0.405
REMARK UNBOUND:                -0.237
REMARK SMILES CC1=CC[C@@]23[C@H]([C@H](C(C)C)CC[C@H]2C)[C@H]13
REMARK SMILES IDX 14 1 13 2 12 3 11 4 7 5 6 6 5 7 15 8 2 9 3 10 4 11 1 12 8 13
REMARK SMILES IDX 9 14 10 15
REMARK H PARENT
REMARK Flexibility Score: inf
ROOT
ATOM      1  C   UNL     1       9.090   8.127  13.376  1.00  0.00     0.008 C 
ATOM      2  C   UNL     1       7.791   7.325  13.518  1.00  0.00    -0.007 C 
ATOM      3  C   UNL     1       7.944   5.900  12.903  1.00  0.00     0.004 C 
ATOM      4  C   UNL     1       6.614   5.084  12.830  1.00  0.00     0.004 C 
ATOM      5  C   UNL     1       5.349   5.919  12.439  1.00  0.00    -0.004 C 
ATOM      6  C   UNL     1       5.403   7.165  13.333  1.00  0.00     0.007 C 
ATOM      7  C   UNL     1       6.612   8.021  12.806  1.00  0.00    -0.013 C 
ATOM      8  C   UNL     1       5.274   8.649  13.185  1.00  0.00     0.025 C 
ATOM      9  C   UNL     1       4.681   9.124  11.905  1.00  0.00    -0.073 C 
ATOM     10  C   UNL     1       5.494   8.955  10.875  1.00  0.00    -0.027 C 
ATOM     11  C   UNL     1       6.778   8.329  11.290  1.00  0.00     0.035 C 
ATOM     12  C   UNL     1       3.320   9.736  11.794  1.00  0.00     0.039 C 
ENDROOT
BRANCH   5  13
ATOM     13  C   UNL     1       4.032   5.134  12.698  1.00  0.00    -0.014 C 
ATOM     14  C   UNL     1       3.256   4.875  11.394  1.00  0.00     0.007 C 
ATOM     15  C   UNL     1       3.123   5.890  13.683  1.00  0.00     0.007 C 
ENDBRANCH   5  13
TORSDOF 1
ENDMDL
MODEL 4
REMARK VINA RESULT:    -0.770      3.008      6.259
REMARK INTER + INTRA:          -1.052
REMARK INTER:                  -0.679
REMARK INTRA:                  -0.374
REMARK UNBOUND:                -0.237
REMARK SMILES CC1=CC[C@@]23[C@H]([C@H](C(C)C)CC[C@H]2C)[C@H]13
REMARK SMILES IDX 14 1 13 2 12 3 11 4 7 5 6 6 5 7 15 8 2 9 3 10 4 11 1 12 8 13
REMARK SMILES IDX 9 14 10 15
REMARK H PARENT
REMARK Flexibility Score: inf
ROOT
ATOM      1  C   UNL     1       3.968  15.354  12.072  1.00  0.00     0.008 C 
ATOM      2  C   UNL     1       4.118  13.836  12.214  1.00  0.00    -0.007 C 
ATOM      3  C   UNL     1       4.613  13.196  10.880  1.00  0.00     0.004 C 
ATOM      4  C   UNL     1       4.610  11.634  10.875  1.00  0.00     0.004 C 
ATOM      5  C   UNL     1       3.384  10.976  11.592  1.00  0.00    -0.004 C 
ATOM      6  C   UNL     1       3.267  11.710  12.935  1.00  0.00     0.007 C 
ATOM      7  C   UNL     1       2.780  13.164  12.589  1.00  0.00    -0.013 C 
ATOM      8  C   UNL     1       2.202  12.368  13.756  1.00  0.00     0.025 C 
ATOM      9  C   UNL     1       0.799  12.056  13.368  1.00  0.00    -0.073 C 
ATOM     10  C   UNL     1       0.453  12.617  12.222  1.00  0.00    -0.027 C 
ATOM     11  C   UNL     1       1.572  13.402  11.637  1.00  0.00     0.035 C 
ATOM     12  C   UNL     1      -0.123  11.212  14.190  1.00  0.00     0.039 C 
ENDROOT
BRANCH   5  13
ATOM     13  C   UNL     1       3.600   9.454  11.834  1.00  0.00    -0.014 C 
ATOM     14  C   UNL     1       3.292   9.058  13.288  1.00  0.00     0.007 C 
ATOM     15  C   UNL     1       5.043   9.042  11.494  1.00  0.00     0.007 C 
ENDBRANCH   5  13
TORSDOF 1
ENDMDL
MODEL 5
REMARK VINA RESULT:    -0.727      0.974      4.219
REMARK INTER + INTRA:          -1.007
REMARK INTER:                  -0.503
REMARK INTRA:                  -0.503
REMARK UNBOUND:                -0.237
REMARK SMILES CC1=CC[C@@]23[C@H]([C@H](C(C)C)CC[C@H]2C)[C@H]13
REMARK SMILES IDX 14 1 13 2 12 3 11 4 7 5 6 6 5 7 15 8 2 9 3 10 4 11 1 12 8 13
REMARK SMILES IDX 9 14 10 15
REMARK H PARENT
REMARK Flexibility Score: inf
ROOT
ATOM      1  C   UNL     1       4.355  10.950  11.023  1.00  0.00     0.008 C 
ATOM      2  C   UNL     1       4.262   9.460  11.371  1.00  0.00    -0.007 C 
ATOM      3  C   UNL     1       3.233   9.217  12.518  1.00  0.00     0.004 C 
ATOM      4  C   UNL     1       3.216   7.755  13.067  1.00  0.00     0.004 C 
ATOM      5  C   UNL     1       4.624   7.080  13.190  1.00  0.00    -0.004 C 
ATOM      6  C   UNL     1       5.315   7.356  11.848  1.00  0.00     0.007 C 
ATOM      7  C   UNL     1       5.623   8.898  11.832  1.00  0.00    -0.013 C 
ATOM      8  C   UNL     1       6.637   7.861  11.359  1.00  0.00     0.025 C 
ATOM      9  C   UNL     1       7.733   7.888  12.366  1.00  0.00    -0.073 C 
ATOM     10  C   UNL     1       7.559   8.827  13.280  1.00  0.00    -0.027 C 
ATOM     11  C   UNL     1       6.307   9.593  13.045  1.00  0.00     0.035 C 
ATOM     12  C   UNL     1       8.910   6.963  12.341  1.00  0.00     0.039 C 
ENDROOT
BRANCH   5  13
ATOM     13  C   UNL     1       4.514   5.546  13.427  1.00  0.00    -0.014 C 
ATOM     14  C   UNL     1       5.898   4.875  13.466  1.00  0.00     0.007 C 
ATOM     15  C   UNL     1       3.661   4.879  12.334  1.00  0.00     0.007 C 
ENDBRANCH   5  13
TORSDOF 1
ENDMDL
MODEL 6
REMARK VINA RESULT:    -0.417      2.442      4.863
REMARK INTER + INTRA:          -0.679
REMARK INTER:                  -0.441
REMARK INTRA:                  -0.238
REMARK UNBOUND:                -0.237
REMARK SMILES CC1=CC[C@@]23[C@H]([C@H](C(C)C)CC[C@H]2C)[C@H]13
REMARK SMILES IDX 14 1 13 2 12 3 11 4 7 5 6 6 5 7 15 8 2 9 3 10 4 11 1 12 8 13
REMARK SMILES IDX 9 14 10 15
REMARK H PARENT
REMARK Flexibility Score: inf
ROOT
ATOM      1  C   UNL     1      -0.125  11.592  13.695  1.00  0.00     0.008 C 
ATOM      2  C   UNL     1       1.022  10.929  12.925  1.00  0.00    -0.007 C 
ATOM      3  C   UNL     1       1.675   9.789  13.767  1.00  0.00     0.004 C 
ATOM      4  C   UNL     1       2.973   9.189  13.139  1.00  0.00     0.004 C 
ATOM      5  C   UNL     1       3.922  10.233  12.461  1.00  0.00    -0.004 C 
ATOM      6  C   UNL     1       3.004  11.090  11.579  1.00  0.00     0.007 C 
ATOM      7  C   UNL     1       2.129  11.943  12.568  1.00  0.00    -0.013 C 
ATOM      8  C   UNL     1       2.753  12.541  11.311  1.00  0.00     0.025 C 
ATOM      9  C   UNL     1       3.802  13.480  11.794  1.00  0.00    -0.073 C 
ATOM     10  C   UNL     1       3.819  13.587  13.113  1.00  0.00    -0.027 C 
ATOM     11  C   UNL     1       2.781  12.728  13.744  1.00  0.00     0.035 C 
ATOM     12  C   UNL     1       4.728  14.232  10.890  1.00  0.00     0.039 C 
ENDROOT
BRANCH   5  13
ATOM     13  C   UNL     1       5.012   9.548  11.589  1.00  0.00    -0.014 C 
ATOM     14  C   UNL     1       4.503   8.236  10.967  1.00  0.00     0.007 C 
ATOM     15  C   UNL     1       6.277   9.257  12.415  1.00  0.00     0.007 C 
ENDBRANCH   5  13
TORSDOF 1
ENDMDL
MODEL 7
REMARK VINA RESULT:    -0.380      2.824      5.862
REMARK INTER + INTRA:          -0.639
REMARK INTER:                  -0.379
REMARK INTRA:                  -0.260
REMARK UNBOUND:                -0.237
REMARK SMILES CC1=CC[C@@]23[C@H]([C@H](C(C)C)CC[C@H]2C)[C@H]13
REMARK SMILES IDX 14 1 13 2 12 3 11 4 7 5 6 6 5 7 15 8 2 9 3 10 4 11 1 12 8 13
REMARK SMILES IDX 9 14 10 15
REMARK H PARENT
REMARK Flexibility Score: inf
ROOT
ATOM      1  C   UNL     1      -0.125   9.774  12.124  1.00  0.00     0.008 C 
ATOM      2  C   UNL     1       0.892  10.891  12.383  1.00  0.00    -0.007 C 
ATOM      3  C   UNL     1       0.694  12.071  11.382  1.00  0.00     0.004 C 
ATOM      4  C   UNL     1       1.807  13.165  11.448  1.00  0.00     0.004 C 
ATOM      5  C   UNL     1       3.258  12.617  11.657  1.00  0.00    -0.004 C 
ATOM      6  C   UNL     1       3.141  11.611  12.811  1.00  0.00     0.007 C 
ATOM      7  C   UNL     1       2.342  10.386  12.235  1.00  0.00    -0.013 C 
ATOM      8  C   UNL     1       3.575  10.212  13.117  1.00  0.00     0.025 C 
ATOM      9  C   UNL     1       4.626   9.649  12.226  1.00  0.00    -0.073 C 
ATOM     10  C   UNL     1       4.174   9.388  11.011  1.00  0.00    -0.027 C 
ATOM     11  C   UNL     1       2.735   9.738  10.875  1.00  0.00     0.035 C 
ATOM     12  C   UNL     1       6.035   9.394  12.659  1.00  0.00     0.039 C 
ENDROOT
BRANCH   5  13
ATOM     13  C   UNL     1       4.257  13.747  12.035  1.00  0.00    -0.014 C 
ATOM     14  C   UNL     1       3.940  14.353  13.413  1.00  0.00     0.007 C 
ATOM     15  C   UNL     1       4.249  14.866  10.978  1.00  0.00     0.007 C 
ENDBRANCH   5  13
TORSDOF 1
ENDMDL
MODEL 8
REMARK VINA RESULT:    -0.238      2.924      5.664
REMARK INTER + INTRA:          -0.489
REMARK INTER:                  -0.111
REMARK INTRA:                  -0.378
REMARK UNBOUND:                -0.237
REMARK SMILES CC1=CC[C@@]23[C@H]([C@H](C(C)C)CC[C@H]2C)[C@H]13
REMARK SMILES IDX 14 1 13 2 12 3 11 4 7 5 6 6 5 7 15 8 2 9 3 10 4 11 1 12 8 13
REMARK SMILES IDX 9 14 10 15
REMARK H PARENT
REMARK Flexibility Score: inf
ROOT
ATOM      1  C   UNL     1      -0.108  13.327  11.073  1.00  0.00     0.008 C 
ATOM      2  C   UNL     1       1.146  12.467  10.883  1.00  0.00    -0.007 C 
ATOM      3  C   UNL     1       0.787  10.949  10.875  1.00  0.00     0.004 C 
ATOM      4  C   UNL     1       2.024   9.996  10.880  1.00  0.00     0.004 C 
ATOM      5  C   UNL     1       3.213  10.463  11.785  1.00  0.00    -0.004 C 
ATOM      6  C   UNL     1       3.423  11.942  11.434  1.00  0.00     0.007 C 
ATOM      7  C   UNL     1       2.174  12.703  12.010  1.00  0.00    -0.013 C 
ATOM      8  C   UNL     1       3.593  13.245  12.152  1.00  0.00     0.025 C 
ATOM      9  C   UNL     1       3.912  13.148  13.602  1.00  0.00    -0.073 C 
ATOM     10  C   UNL     1       2.884  12.730  14.322  1.00  0.00    -0.027 C 
ATOM     11  C   UNL     1       1.693  12.467  13.472  1.00  0.00     0.035 C 
ATOM     12  C   UNL     1       5.245  13.498  14.186  1.00  0.00     0.039 C 
ENDROOT
BRANCH   5  13
ATOM     13  C   UNL     1       4.513   9.658  11.499  1.00  0.00    -0.014 C 
ATOM     14  C   UNL     1       4.206   8.267  10.916  1.00  0.00     0.007 C 
ATOM     15  C   UNL     1       5.353   9.494  12.777  1.00  0.00     0.007 C 
ENDBRANCH   5  13
TORSDOF 1
ENDMDL
