MODEL 1
REMARK VINA RESULT:    -4.424      0.000      0.000
REMARK INTER + INTRA:          -5.241
REMARK INTER:                  -5.070
REMARK INTRA:                  -0.171
REMARK UNBOUND:                -0.171
REMARK SMILES COc1ccc(C(C)=O)c(O)c1
REMARK SMILES IDX 6 1 10 2 12 3 3 4 4 5 5 6 7 7 8 8 9 9 11 10 2 12 1 13
REMARK H PARENT 11 11
REMARK Flexibility Score: inf
ROOT
ATOM      1  C   UNL     1      27.209  40.717  19.676  1.00  0.00     0.059 A 
ATOM      2  C   UNL     1      27.324  39.621  18.788  1.00  0.00     0.130 A 
ATOM      3  C   UNL     1      26.652  38.420  19.068  1.00  0.00     0.093 A 
ATOM      4  C   UNL     1      25.879  38.281  20.224  1.00  0.00     0.122 A 
ATOM      5  C   UNL     1      25.780  39.362  21.115  1.00  0.00     0.047 A 
ATOM      6  C   UNL     1      26.440  40.563  20.844  1.00  0.00     0.019 A 
ENDROOT
BRANCH   1   7
ATOM      7  C   UNL     1      27.881  42.020  19.427  1.00  0.00     0.163 C 
ATOM      8  C   UNL     1      27.221  43.136  18.675  1.00  0.00     0.093 C 
ATOM      9  O   UNL     1      29.050  42.206  19.863  1.00  0.00    -0.294 OA
ENDBRANCH   1   7
BRANCH   2  10
ATOM     10  O   UNL     1      28.117  39.706  17.645  1.00  0.00    -0.507 OA
ATOM     11  H   UNL     1      27.830  40.244  16.836  1.00  0.00     0.293 HD
ENDBRANCH   2  10
BRANCH   4  12
ATOM     12  O   UNL     1      25.233  37.057  20.450  1.00  0.00    -0.497 OA
ATOM     13  C   UNL     1      23.985  36.919  21.121  1.00  0.00     0.278 C 
ENDBRANCH   4  12
TORSDOF 3
ENDMDL
MODEL 2
REMARK VINA RESULT:    -4.390      5.367      7.570
REMARK INTER + INTRA:          -5.202
REMARK INTER:                  -4.900
REMARK INTRA:                  -0.302
REMARK UNBOUND:                -0.171
REMARK SMILES COc1ccc(C(C)=O)c(O)c1
REMARK SMILES IDX 6 1 10 2 12 3 3 4 4 5 5 6 7 7 8 8 9 9 11 10 2 12 1 13
REMARK H PARENT 11 11
REMARK Flexibility Score: inf
ROOT
ATOM      1  C   UNL     1      28.341  33.479  23.019  1.00  0.00     0.059 A 
ATOM      2  C   UNL     1      28.551  33.810  21.660  1.00  0.00     0.130 A 
ATOM      3  C   UNL     1      28.160  35.069  21.178  1.00  0.00     0.093 A 
ATOM      4  C   UNL     1      27.548  36.003  22.020  1.00  0.00     0.122 A 
ATOM      5  C   UNL     1      27.322  35.668  23.364  1.00  0.00     0.047 A 
ATOM      6  C   UNL     1      27.711  34.420  23.855  1.00  0.00     0.019 A 
ENDROOT
BRANCH   1   7
ATOM      7  C   UNL     1      28.748  32.169  23.594  1.00  0.00     0.163 C 
ATOM      8  C   UNL     1      29.125  32.004  25.036  1.00  0.00     0.093 C 
ATOM      9  O   UNL     1      28.778  31.150  22.852  1.00  0.00    -0.294 OA
ENDBRANCH   1   7
BRANCH   2  10
ATOM     10  O   UNL     1      29.122  32.893  20.780  1.00  0.00    -0.507 OA
ATOM     11  H   UNL     1      29.552  32.036  21.107  1.00  0.00     0.293 HD
ENDBRANCH   2  10
BRANCH   4  12
ATOM     12  O   UNL     1      27.179  37.244  21.480  1.00  0.00    -0.497 OA
ATOM     13  C   UNL     1      25.887  37.541  20.959  1.00  0.00     0.278 C 
ENDBRANCH   4  12
TORSDOF 3
ENDMDL
MODEL 3
REMARK VINA RESULT:    -4.215      1.964      2.705
REMARK INTER + INTRA:          -5.002
REMARK INTER:                  -4.669
REMARK INTRA:                  -0.333
REMARK UNBOUND:                -0.171
REMARK SMILES COc1ccc(C(C)=O)c(O)c1
REMARK SMILES IDX 6 1 10 2 12 3 3 4 4 5 5 6 7 7 8 8 9 9 11 10 2 12 1 13
REMARK H PARENT 11 11
REMARK Flexibility Score: inf
ROOT
ATOM      1  C   UNL     1      26.890  41.599  20.075  1.00  0.00     0.059 A 
ATOM      2  C   UNL     1      26.259  40.719  20.985  1.00  0.00     0.130 A 
ATOM      3  C   UNL     1      26.437  39.332  20.856  1.00  0.00     0.093 A 
ATOM      4  C   UNL     1      27.221  38.801  19.827  1.00  0.00     0.122 A 
ATOM      5  C   UNL     1      27.832  39.673  18.912  1.00  0.00     0.047 A 
ATOM      6  C   UNL     1      27.665  41.054  19.034  1.00  0.00     0.019 A 
ENDROOT
BRANCH   1   7
ATOM      7  C   UNL     1      26.755  43.077  20.168  1.00  0.00     0.163 C 
ATOM      8  C   UNL     1      26.630  43.952  18.957  1.00  0.00     0.093 C 
ATOM      9  O   UNL     1      26.740  43.626  21.303  1.00  0.00    -0.294 OA
ENDBRANCH   1   7
BRANCH   2  10
ATOM     10  O   UNL     1      25.438  41.207  22.000  1.00  0.00    -0.507 OA
ATOM     11  H   UNL     1      24.662  41.828  21.806  1.00  0.00     0.293 HD
ENDBRANCH   2  10
BRANCH   4  12
ATOM     12  O   UNL     1      27.361  37.408  19.749  1.00  0.00    -0.497 OA
ATOM     13  C   UNL     1      27.440  36.543  20.877  1.00  0.00     0.278 C 
ENDBRANCH   4  12
TORSDOF 3
ENDMDL
MODEL 4
REMARK VINA RESULT:    -4.160      2.466      3.179
REMARK INTER + INTRA:          -4.938
REMARK INTER:                  -4.602
REMARK INTRA:                  -0.337
REMARK UNBOUND:                -0.171
REMARK SMILES COc1ccc(C(C)=O)c(O)c1
REMARK SMILES IDX 6 1 10 2 12 3 3 4 4 5 5 6 7 7 8 8 9 9 11 10 2 12 1 13
REMARK H PARENT 11 11
REMARK Flexibility Score: inf
ROOT
ATOM      1  C   UNL     1      26.814  39.408  20.814  1.00  0.00     0.059 A 
ATOM      2  C   UNL     1      25.791  38.433  20.863  1.00  0.00     0.130 A 
ATOM      3  C   UNL     1      26.124  37.069  20.882  1.00  0.00     0.093 A 
ATOM      4  C   UNL     1      27.458  36.655  20.839  1.00  0.00     0.122 A 
ATOM      5  C   UNL     1      28.474  37.622  20.771  1.00  0.00     0.047 A 
ATOM      6  C   UNL     1      28.154  38.981  20.757  1.00  0.00     0.019 A 
ENDROOT
BRANCH   1   7
ATOM      7  C   UNL     1      26.527  40.868  20.808  1.00  0.00     0.163 C 
ATOM      8  C   UNL     1      27.140  41.805  19.811  1.00  0.00     0.093 C 
ATOM      9  O   UNL     1      25.740  41.346  21.669  1.00  0.00    -0.294 OA
ENDBRANCH   1   7
BRANCH   2  10
ATOM     10  O   UNL     1      24.448  38.804  20.868  1.00  0.00    -0.507 OA
ATOM     11  H   UNL     1      23.995  39.159  21.702  1.00  0.00     0.293 HD
ENDBRANCH   2  10
BRANCH   4  12
ATOM     12  O   UNL     1      27.729  35.279  20.860  1.00  0.00    -0.497 OA
ATOM     13  C   UNL     1      28.468  34.620  21.884  1.00  0.00     0.278 C 
ENDBRANCH   4  12
TORSDOF 3
ENDMDL
MODEL 5
REMARK VINA RESULT:    -4.123      1.121      4.476
REMARK INTER + INTRA:          -4.896
REMARK INTER:                  -4.560
REMARK INTRA:                  -0.336
REMARK UNBOUND:                -0.171
REMARK SMILES COc1ccc(C(C)=O)c(O)c1
REMARK SMILES IDX 6 1 10 2 12 3 3 4 4 5 5 6 7 7 8 8 9 9 11 10 2 12 1 13
REMARK H PARENT 11 11
REMARK Flexibility Score: inf
ROOT
ATOM      1  C   UNL     1      26.524  39.025  20.211  1.00  0.00     0.059 A 
ATOM      2  C   UNL     1      27.255  39.351  19.044  1.00  0.00     0.130 A 
ATOM      3  C   UNL     1      27.597  40.688  18.784  1.00  0.00     0.093 A 
ATOM      4  C   UNL     1      27.213  41.711  19.655  1.00  0.00     0.122 A 
ATOM      5  C   UNL     1      26.471  41.390  20.803  1.00  0.00     0.047 A 
ATOM      6  C   UNL     1      26.130  40.063  21.074  1.00  0.00     0.019 A 
ENDROOT
BRANCH   1   7
ATOM      7  C   UNL     1      26.146  37.627  20.551  1.00  0.00     0.163 C 
ATOM      8  C   UNL     1      24.752  37.244  20.947  1.00  0.00     0.093 C 
ATOM      9  O   UNL     1      27.022  36.721  20.508  1.00  0.00    -0.294 OA
ENDBRANCH   1   7
BRANCH   2  10
ATOM     10  O   UNL     1      27.623  38.365  18.130  1.00  0.00    -0.507 OA
ATOM     11  H   UNL     1      28.299  38.542  17.397  1.00  0.00     0.293 HD
ENDBRANCH   2  10
BRANCH   4  12
ATOM     12  O   UNL     1      27.583  43.027  19.341  1.00  0.00    -0.497 OA
ATOM     13  C   UNL     1      26.679  44.029  18.885  1.00  0.00     0.278 C 
ENDBRANCH   4  12
TORSDOF 3
ENDMDL
MODEL 6
REMARK VINA RESULT:    -4.105      4.824      5.945
REMARK INTER + INTRA:          -4.876
REMARK INTER:                  -4.534
REMARK INTRA:                  -0.342
REMARK UNBOUND:                -0.171
REMARK SMILES COc1ccc(C(C)=O)c(O)c1
REMARK SMILES IDX 6 1 10 2 12 3 3 4 4 5 5 6 7 7 8 8 9 9 11 10 2 12 1 13
REMARK H PARENT 11 11
REMARK Flexibility Score: inf
ROOT
ATOM      1  C   UNL     1      27.606  35.718  21.538  1.00  0.00     0.059 A 
ATOM      2  C   UNL     1      28.324  34.582  21.093  1.00  0.00     0.130 A 
ATOM      3  C   UNL     1      28.626  33.549  21.994  1.00  0.00     0.093 A 
ATOM      4  C   UNL     1      28.242  33.629  23.335  1.00  0.00     0.122 A 
ATOM      5  C   UNL     1      27.546  34.764  23.782  1.00  0.00     0.047 A 
ATOM      6  C   UNL     1      27.236  35.796  22.893  1.00  0.00     0.019 A 
ENDROOT
BRANCH   1   7
ATOM      7  C   UNL     1      27.241  36.838  20.630  1.00  0.00     0.163 C 
ATOM      8  C   UNL     1      25.863  37.428  20.592  1.00  0.00     0.093 C 
ATOM      9  O   UNL     1      28.115  37.320  19.860  1.00  0.00    -0.294 OA
ENDBRANCH   1   7
BRANCH   2  10
ATOM     10  O   UNL     1      28.758  34.483  19.773  1.00  0.00    -0.507 OA
ATOM     11  H   UNL     1      28.160  34.121  19.040  1.00  0.00     0.293 HD
ENDBRANCH   2  10
BRANCH   4  12
ATOM     12  O   UNL     1      28.573  32.566  24.187  1.00  0.00    -0.497 OA
ATOM     13  C   UNL     1      28.827  31.234  23.751  1.00  0.00     0.278 C 
ENDBRANCH   4  12
TORSDOF 3
ENDMDL
MODEL 7
REMARK VINA RESULT:    -4.096      4.960      6.412
REMARK INTER + INTRA:          -4.865
REMARK INTER:                  -4.525
REMARK INTRA:                  -0.341
REMARK UNBOUND:                -0.171
REMARK SMILES COc1ccc(C(C)=O)c(O)c1
REMARK SMILES IDX 6 1 10 2 12 3 3 4 4 5 5 6 7 7 8 8 9 9 11 10 2 12 1 13
REMARK H PARENT 11 11
REMARK Flexibility Score: inf
ROOT
ATOM      1  C   UNL     1      27.868  35.492  21.489  1.00  0.00     0.059 A 
ATOM      2  C   UNL     1      27.689  35.303  22.880  1.00  0.00     0.130 A 
ATOM      3  C   UNL     1      28.077  34.095  23.478  1.00  0.00     0.093 A 
ATOM      4  C   UNL     1      28.628  33.060  22.717  1.00  0.00     0.122 A 
ATOM      5  C   UNL     1      28.789  33.239  21.333  1.00  0.00     0.047 A 
ATOM      6  C   UNL     1      28.410  34.439  20.729  1.00  0.00     0.019 A 
ENDROOT
BRANCH   1   7
ATOM      7  C   UNL     1      27.493  36.755  20.799  1.00  0.00     0.163 C 
ATOM      8  C   UNL     1      28.412  37.454  19.843  1.00  0.00     0.093 C 
ATOM      9  O   UNL     1      26.361  37.265  21.016  1.00  0.00    -0.294 OA
ENDBRANCH   1   7
BRANCH   2  10
ATOM     10  O   UNL     1      27.107  36.296  23.667  1.00  0.00    -0.507 OA
ATOM     11  H   UNL     1      27.348  37.274  23.556  1.00  0.00     0.293 HD
ENDBRANCH   2  10
BRANCH   4  12
ATOM     12  O   UNL     1      28.996  31.875  23.371  1.00  0.00    -0.497 OA
ATOM     13  C   UNL     1      28.314  31.334  24.498  1.00  0.00     0.278 C 
ENDBRANCH   4  12
TORSDOF 3
ENDMDL
MODEL 8
REMARK VINA RESULT:    -4.072      2.605      3.730
REMARK INTER + INTRA:          -4.838
REMARK INTER:                  -4.495
REMARK INTRA:                  -0.343
REMARK UNBOUND:                -0.171
REMARK SMILES COc1ccc(C(C)=O)c(O)c1
REMARK SMILES IDX 6 1 10 2 12 3 3 4 4 5 5 6 7 7 8 8 9 9 11 10 2 12 1 13
REMARK H PARENT 11 11
REMARK Flexibility Score: inf
ROOT
ATOM      1  C   UNL     1      27.714  37.872  19.675  1.00  0.00     0.059 A 
ATOM      2  C   UNL     1      26.561  37.760  20.487  1.00  0.00     0.130 A 
ATOM      3  C   UNL     1      26.546  36.854  21.559  1.00  0.00     0.093 A 
ATOM      4  C   UNL     1      27.652  36.044  21.832  1.00  0.00     0.122 A 
ATOM      5  C   UNL     1      28.790  36.141  21.015  1.00  0.00     0.047 A 
ATOM      6  C   UNL     1      28.818  37.043  19.948  1.00  0.00     0.019 A 
ENDROOT
BRANCH   1   7
ATOM      7  C   UNL     1      27.799  38.824  18.535  1.00  0.00     0.163 C 
ATOM      8  C   UNL     1      28.345  38.430  17.196  1.00  0.00     0.093 C 
ATOM      9  O   UNL     1      27.398  40.010  18.689  1.00  0.00    -0.294 OA
ENDBRANCH   1   7
BRANCH   2  10
ATOM     10  O   UNL     1      25.424  38.521  20.224  1.00  0.00    -0.507 OA
ATOM     11  H   UNL     1      24.877  38.939  20.968  1.00  0.00     0.293 HD
ENDBRANCH   2  10
BRANCH   4  12
ATOM     12  O   UNL     1      27.577  35.158  22.916  1.00  0.00    -0.497 OA
ATOM     13  C   UNL     1      26.630  35.260  23.975  1.00  0.00     0.278 C 
ENDBRANCH   4  12
TORSDOF 3
ENDMDL
MODEL 9
REMARK VINA RESULT:    -3.913      2.157      2.539
REMARK INTER + INTRA:          -4.655
REMARK INTER:                  -4.359
REMARK INTRA:                  -0.297
REMARK UNBOUND:                -0.171
REMARK SMILES COc1ccc(C(C)=O)c(O)c1
REMARK SMILES IDX 6 1 10 2 12 3 3 4 4 5 5 6 7 7 8 8 9 9 11 10 2 12 1 13
REMARK H PARENT 11 11
REMARK Flexibility Score: inf
ROOT
ATOM      1  C   UNL     1      27.386  39.950  20.275  1.00  0.00     0.059 A 
ATOM      2  C   UNL     1      27.751  39.458  19.000  1.00  0.00     0.130 A 
ATOM      3  C   UNL     1      28.194  38.133  18.861  1.00  0.00     0.093 A 
ATOM      4  C   UNL     1      28.296  37.289  19.970  1.00  0.00     0.122 A 
ATOM      5  C   UNL     1      27.952  37.782  21.239  1.00  0.00     0.047 A 
ATOM      6  C   UNL     1      27.505  39.097  21.388  1.00  0.00     0.019 A 
ENDROOT
BRANCH   1   7
ATOM      7  C   UNL     1      26.893  41.337  20.486  1.00  0.00     0.163 C 
ATOM      8  C   UNL     1      26.012  41.713  21.639  1.00  0.00     0.093 C 
ATOM      9  O   UNL     1      27.224  42.241  19.671  1.00  0.00    -0.294 OA
ENDBRANCH   1   7
BRANCH   2  10
ATOM     10  O   UNL     1      27.701  40.280  17.875  1.00  0.00    -0.507 OA
ATOM     11  H   UNL     1      27.005  41.010  17.778  1.00  0.00     0.293 HD
ENDBRANCH   2  10
BRANCH   4  12
ATOM     12  O   UNL     1      28.746  35.976  19.769  1.00  0.00    -0.497 OA
ATOM     13  C   UNL     1      28.287  34.848  20.506  1.00  0.00     0.278 C 
ENDBRANCH   4  12
TORSDOF 3
ENDMDL
