MODEL 1
REMARK VINA RESULT:    -7.908      0.000      0.000
REMARK INTER + INTRA:         -10.487
REMARK INTER:                  -9.988
REMARK INTRA:                  -0.499
REMARK UNBOUND:                -0.499
REMARK SMILES O=C(C=Cc1ccc(O)cc1)c1ccc(O)cc1O
REMARK SMILES IDX 4 1 3 2 5 3 6 4 7 5 8 6 11 7 10 8 9 9 2 11 1 12 12 13 18 14
REMARK SMILES IDX 13 15 17 16 14 17 15 18 19 19 16 21
REMARK H PARENT 9 10 19 20 16 22
REMARK Flexibility Score: inf
ROOT
ATOM      1  C   UNL     1     -12.048  -0.358 -10.032  1.00  0.00     0.012 C 
ATOM      2  C   UNL     1     -10.862  -0.751  -9.542  1.00  0.00     0.053 C 
ENDROOT
BRANCH   1   3
ATOM      3  C   UNL     1     -12.720   0.906  -9.644  1.00  0.00    -0.025 A 
ATOM      4  C   UNL     1     -11.927   1.995  -9.247  1.00  0.00     0.012 A 
ATOM      5  C   UNL     1     -12.517   3.203  -8.864  1.00  0.00     0.047 A 
ATOM      6  C   UNL     1     -13.911   3.337  -8.863  1.00  0.00     0.115 A 
ATOM      7  C   UNL     1     -14.124   1.044  -9.626  1.00  0.00     0.012 A 
ATOM      8  C   UNL     1     -14.710   2.254  -9.241  1.00  0.00     0.047 A 
BRANCH   6   9
ATOM      9  O   UNL     1     -14.510   4.536  -8.484  1.00  0.00    -0.508 OA
ATOM     10  H   UNL     1     -14.422   5.373  -9.047  1.00  0.00     0.293 HD
ENDBRANCH   6   9
ENDBRANCH   1   3
BRANCH   2  11
ATOM     11  C   UNL     1     -10.226  -2.025  -9.942  1.00  0.00     0.189 C 
ATOM     12  O   UNL     1      -9.486  -2.071 -10.963  1.00  0.00    -0.289 OA
BRANCH  11  13
ATOM     13  C   UNL     1     -10.427  -3.247  -9.132  1.00  0.00     0.064 A 
ATOM     14  C   UNL     1      -9.774  -3.438  -7.890  1.00  0.00     0.130 A 
ATOM     15  C   UNL     1     -11.324  -4.229  -9.589  1.00  0.00     0.020 A 
ATOM     16  C   UNL     1     -10.054  -4.577  -7.125  1.00  0.00     0.093 A 
ATOM     17  C   UNL     1     -11.583  -5.368  -8.824  1.00  0.00     0.047 A 
ATOM     18  C   UNL     1     -10.954  -5.544  -7.590  1.00  0.00     0.119 A 
BRANCH  14  19
ATOM     19  O   UNL     1      -8.825  -2.538  -7.399  1.00  0.00    -0.507 OA
ATOM     20  H   UNL     1      -7.828  -2.690  -7.468  1.00  0.00     0.293 HD
ENDBRANCH  14  19
BRANCH  18  21
ATOM     21  O   UNL     1     -11.229  -6.681  -6.833  1.00  0.00    -0.508 OA
ATOM     22  H   UNL     1     -12.154  -7.094  -6.814  1.00  0.00     0.293 HD
ENDBRANCH  18  21
ENDBRANCH  11  13
ENDBRANCH   2  11
TORSDOF 6
ENDMDL
MODEL 2
REMARK VINA RESULT:    -6.650      1.123      1.996
REMARK INTER + INTRA:          -8.898
REMARK INTER:                  -8.488
REMARK INTRA:                  -0.411
REMARK UNBOUND:                -0.499
REMARK SMILES O=C(C=Cc1ccc(O)cc1)c1ccc(O)cc1O
REMARK SMILES IDX 4 1 3 2 5 3 6 4 7 5 8 6 11 7 10 8 9 9 2 11 1 12 12 13 18 14
REMARK SMILES IDX 13 15 17 16 14 17 15 18 19 19 16 21
REMARK H PARENT 9 10 19 20 16 22
REMARK Flexibility Score: inf
ROOT
ATOM      1  C   UNL     1     -11.765  -0.602 -10.181  1.00  0.00     0.012 C 
ATOM      2  C   UNL     1     -10.985  -1.316  -9.356  1.00  0.00     0.053 C 
ENDROOT
BRANCH   1   3
ATOM      3  C   UNL     1     -12.508   0.613  -9.766  1.00  0.00    -0.025 A 
ATOM      4  C   UNL     1     -13.912   0.596  -9.826  1.00  0.00     0.012 A 
ATOM      5  C   UNL     1     -14.653   1.722  -9.454  1.00  0.00     0.047 A 
ATOM      6  C   UNL     1     -14.001   2.884  -9.026  1.00  0.00     0.115 A 
ATOM      7  C   UNL     1     -11.859   1.793  -9.348  1.00  0.00     0.012 A 
ATOM      8  C   UNL     1     -12.605   2.917  -8.977  1.00  0.00     0.047 A 
BRANCH   6   9
ATOM      9  O   UNL     1     -14.730   4.011  -8.652  1.00  0.00    -0.508 OA
ATOM     10  H   UNL     1     -15.743   4.014  -8.660  1.00  0.00     0.293 HD
ENDBRANCH   6   9
ENDBRANCH   1   3
BRANCH   2  11
ATOM     11  C   UNL     1     -10.269  -2.531  -9.801  1.00  0.00     0.189 C 
ATOM     12  O   UNL     1      -9.482  -2.477 -10.787  1.00  0.00    -0.289 OA
BRANCH  11  13
ATOM     13  C   UNL     1     -10.445  -3.810  -9.079  1.00  0.00     0.064 A 
ATOM     14  C   UNL     1     -11.641  -4.564  -9.171  1.00  0.00     0.130 A 
ATOM     15  C   UNL     1      -9.380  -4.312  -8.310  1.00  0.00     0.020 A 
ATOM     16  C   UNL     1     -11.731  -5.804  -8.528  1.00  0.00     0.093 A 
ATOM     17  C   UNL     1      -9.489  -5.544  -7.662  1.00  0.00     0.047 A 
ATOM     18  C   UNL     1     -10.660  -6.295  -7.772  1.00  0.00     0.119 A 
BRANCH  14  19
ATOM     19  O   UNL     1     -12.762  -4.102  -9.864  1.00  0.00    -0.507 OA
ATOM     20  H   UNL     1     -12.727  -3.766 -10.817  1.00  0.00     0.293 HD
ENDBRANCH  14  19
BRANCH  18  21
ATOM     21  O   UNL     1     -10.751  -7.526  -7.127  1.00  0.00    -0.508 OA
ATOM     22  H   UNL     1     -11.635  -8.012  -7.033  1.00  0.00     0.293 HD
ENDBRANCH  18  21
ENDBRANCH  11  13
ENDBRANCH   2  11
TORSDOF 6
ENDMDL
MODEL 3
REMARK VINA RESULT:    -6.029     15.634     17.543
REMARK INTER + INTRA:          -8.114
REMARK INTER:                  -7.746
REMARK INTRA:                  -0.369
REMARK UNBOUND:                -0.499
REMARK SMILES O=C(C=Cc1ccc(O)cc1)c1ccc(O)cc1O
REMARK SMILES IDX 4 1 3 2 5 3 6 4 7 5 8 6 11 7 10 8 9 9 2 11 1 12 12 13 18 14
REMARK SMILES IDX 13 15 17 16 14 17 15 18 19 19 16 21
REMARK H PARENT 9 10 19 20 16 22
REMARK Flexibility Score: inf
ROOT
ATOM      1  C   UNL     1      -9.568   7.874   6.245  1.00  0.00     0.012 C 
ATOM      2  C   UNL     1      -9.299   6.583   6.488  1.00  0.00     0.053 C 
ENDROOT
BRANCH   1   3
ATOM      3  C   UNL     1      -8.524   8.913   6.068  1.00  0.00    -0.025 A 
ATOM      4  C   UNL     1      -7.240   8.672   6.586  1.00  0.00     0.012 A 
ATOM      5  C   UNL     1      -6.228   9.626   6.451  1.00  0.00     0.047 A 
ATOM      6  C   UNL     1      -6.487  10.841   5.804  1.00  0.00     0.115 A 
ATOM      7  C   UNL     1      -8.780  10.146   5.432  1.00  0.00     0.012 A 
ATOM      8  C   UNL     1      -7.765  11.098   5.300  1.00  0.00     0.047 A 
BRANCH   6   9
ATOM      9  O   UNL     1      -5.485  11.799   5.663  1.00  0.00    -0.508 OA
ATOM     10  H   UNL     1      -5.663  12.689   5.214  1.00  0.00     0.293 HD
ENDBRANCH   6   9
ENDBRANCH   1   3
BRANCH   2  11
ATOM     11  C   UNL     1     -10.366   5.576   6.673  1.00  0.00     0.189 C 
ATOM     12  O   UNL     1     -10.290   4.737   7.613  1.00  0.00    -0.289 OA
BRANCH  11  13
ATOM     13  C   UNL     1     -11.544   5.561   5.778  1.00  0.00     0.064 A 
ATOM     14  C   UNL     1     -11.784   4.497   4.874  1.00  0.00     0.130 A 
ATOM     15  C   UNL     1     -12.472   6.615   5.854  1.00  0.00     0.020 A 
ATOM     16  C   UNL     1     -12.952   4.493   4.101  1.00  0.00     0.093 A 
ATOM     17  C   UNL     1     -13.625   6.605   5.067  1.00  0.00     0.047 A 
ATOM     18  C   UNL     1     -13.871   5.546   4.193  1.00  0.00     0.119 A 
BRANCH  14  19
ATOM     19  O   UNL     1     -10.879   3.449   4.698  1.00  0.00    -0.507 OA
ATOM     20  H   UNL     1     -10.155   3.222   5.367  1.00  0.00     0.293 HD
ENDBRANCH  14  19
BRANCH  18  21
ATOM     21  O   UNL     1     -15.030   5.546   3.420  1.00  0.00    -0.508 OA
ATOM     22  H   UNL     1     -15.945   5.673   3.836  1.00  0.00     0.293 HD
ENDBRANCH  18  21
ENDBRANCH  11  13
ENDBRANCH   2  11
TORSDOF 6
ENDMDL
MODEL 4
REMARK VINA RESULT:    -5.964     17.536     19.815
REMARK INTER + INTRA:          -8.031
REMARK INTER:                  -7.688
REMARK INTRA:                  -0.343
REMARK UNBOUND:                -0.499
REMARK SMILES O=C(C=Cc1ccc(O)cc1)c1ccc(O)cc1O
REMARK SMILES IDX 4 1 3 2 5 3 6 4 7 5 8 6 11 7 10 8 9 9 2 11 1 12 12 13 18 14
REMARK SMILES IDX 13 15 17 16 14 17 15 18 19 19 16 21
REMARK H PARENT 9 10 19 20 16 22
REMARK Flexibility Score: inf
ROOT
ATOM      1  C   UNL     1      -9.247   6.492   6.199  1.00  0.00     0.012 C 
ATOM      2  C   UNL     1      -9.159   7.780   6.562  1.00  0.00     0.053 C 
ENDROOT
BRANCH   1   3
ATOM      3  C   UNL     1      -9.997   5.469   6.969  1.00  0.00    -0.025 A 
ATOM      4  C   UNL     1     -10.878   4.620   6.278  1.00  0.00     0.012 A 
ATOM      5  C   UNL     1     -11.613   3.648   6.964  1.00  0.00     0.047 A 
ATOM      6  C   UNL     1     -11.484   3.517   8.352  1.00  0.00     0.115 A 
ATOM      7  C   UNL     1      -9.884   5.340   8.369  1.00  0.00     0.012 A 
ATOM      8  C   UNL     1     -10.622   4.367   9.050  1.00  0.00     0.047 A 
BRANCH   6   9
ATOM      9  O   UNL     1     -12.210   2.551   9.045  1.00  0.00    -0.508 OA
ATOM     10  H   UNL     1     -13.185   2.690   9.282  1.00  0.00     0.293 HD
ENDBRANCH   6   9
ENDBRANCH   1   3
BRANCH   2  11
ATOM     11  C   UNL     1      -8.391   8.770   5.776  1.00  0.00     0.189 C 
ATOM     12  O   UNL     1      -8.556   8.853   4.528  1.00  0.00    -0.289 OA
BRANCH  11  13
ATOM     13  C   UNL     1      -7.449   9.691   6.450  1.00  0.00     0.064 A 
ATOM     14  C   UNL     1      -7.887  10.656   7.389  1.00  0.00     0.130 A 
ATOM     15  C   UNL     1      -6.074   9.578   6.179  1.00  0.00     0.020 A 
ATOM     16  C   UNL     1      -6.948  11.453   8.055  1.00  0.00     0.093 A 
ATOM     17  C   UNL     1      -5.149  10.390   6.839  1.00  0.00     0.047 A 
ATOM     18  C   UNL     1      -5.582  11.325   7.781  1.00  0.00     0.119 A 
BRANCH  14  19
ATOM     19  O   UNL     1      -9.240  10.868   7.665  1.00  0.00    -0.507 OA
ATOM     20  H   UNL     1      -9.843  11.433   7.082  1.00  0.00     0.293 HD
ENDBRANCH  14  19
BRANCH  18  21
ATOM     21  O   UNL     1      -4.647  12.123   8.438  1.00  0.00    -0.508 OA
ATOM     22  H   UNL     1      -4.932  12.876   9.053  1.00  0.00     0.293 HD
ENDBRANCH  18  21
ENDBRANCH  11  13
ENDBRANCH   2  11
TORSDOF 6
ENDMDL
MODEL 5
REMARK VINA RESULT:    -5.949     17.105     19.548
REMARK INTER + INTRA:          -8.013
REMARK INTER:                  -7.510
REMARK INTRA:                  -0.502
REMARK UNBOUND:                -0.499
REMARK SMILES O=C(C=Cc1ccc(O)cc1)c1ccc(O)cc1O
REMARK SMILES IDX 4 1 3 2 5 3 6 4 7 5 8 6 11 7 10 8 9 9 2 11 1 12 12 13 18 14
REMARK SMILES IDX 13 15 17 16 14 17 15 18 19 19 16 21
REMARK H PARENT 9 10 19 20 16 22
REMARK Flexibility Score: inf
ROOT
ATOM      1  C   UNL     1     -10.613   8.365   6.525  1.00  0.00     0.012 C 
ATOM      2  C   UNL     1     -11.074   9.608   6.318  1.00  0.00     0.053 C 
ENDROOT
BRANCH   1   3
ATOM      3  C   UNL     1     -11.490   7.192   6.762  1.00  0.00    -0.025 A 
ATOM      4  C   UNL     1     -11.142   5.964   6.173  1.00  0.00     0.012 A 
ATOM      5  C   UNL     1     -11.943   4.834   6.361  1.00  0.00     0.047 A 
ATOM      6  C   UNL     1     -13.110   4.917   7.131  1.00  0.00     0.115 A 
ATOM      7  C   UNL     1     -12.674   7.270   7.523  1.00  0.00     0.012 A 
ATOM      8  C   UNL     1     -13.473   6.137   7.708  1.00  0.00     0.047 A 
BRANCH   6   9
ATOM      9  O   UNL     1     -13.915   3.797   7.325  1.00  0.00    -0.508 OA
ATOM     10  H   UNL     1     -13.701   2.909   6.888  1.00  0.00     0.293 HD
ENDBRANCH   6   9
ENDBRANCH   1   3
BRANCH   2  11
ATOM     11  C   UNL     1     -10.170  10.758   6.098  1.00  0.00     0.189 C 
ATOM     12  O   UNL     1     -10.638  11.871   5.732  1.00  0.00    -0.289 OA
BRANCH  11  13
ATOM     13  C   UNL     1      -8.715  10.621   6.333  1.00  0.00     0.064 A 
ATOM     14  C   UNL     1      -8.094  11.132   7.499  1.00  0.00     0.130 A 
ATOM     15  C   UNL     1      -7.933   9.929   5.391  1.00  0.00     0.020 A 
ATOM     16  C   UNL     1      -6.728  10.912   7.712  1.00  0.00     0.093 A 
ATOM     17  C   UNL     1      -6.569   9.730   5.608  1.00  0.00     0.047 A 
ATOM     18  C   UNL     1      -5.963  10.215   6.768  1.00  0.00     0.119 A 
BRANCH  14  19
ATOM     19  O   UNL     1      -8.792  11.882   8.449  1.00  0.00    -0.507 OA
ATOM     20  H   UNL     1      -9.801  11.877   8.529  1.00  0.00     0.293 HD
ENDBRANCH  14  19
BRANCH  18  21
ATOM     21  O   UNL     1      -4.602  10.002   6.976  1.00  0.00    -0.508 OA
ATOM     22  H   UNL     1      -4.189   9.081   6.880  1.00  0.00     0.293 HD
ENDBRANCH  18  21
ENDBRANCH  11  13
ENDBRANCH   2  11
TORSDOF 6
ENDMDL
MODEL 6
REMARK VINA RESULT:    -5.918     16.910     19.332
REMARK INTER + INTRA:          -7.973
REMARK INTER:                  -7.513
REMARK INTRA:                  -0.461
REMARK UNBOUND:                -0.499
REMARK SMILES O=C(C=Cc1ccc(O)cc1)c1ccc(O)cc1O
REMARK SMILES IDX 4 1 3 2 5 3 6 4 7 5 8 6 11 7 10 8 9 9 2 11 1 12 12 13 18 14
REMARK SMILES IDX 13 15 17 16 14 17 15 18 19 19 16 21
REMARK H PARENT 9 10 19 20 16 22
REMARK Flexibility Score: inf
ROOT
ATOM      1  C   UNL     1     -10.468   8.257   6.533  1.00  0.00     0.012 C 
ATOM      2  C   UNL     1     -10.898   9.480   6.189  1.00  0.00     0.053 C 
ENDROOT
BRANCH   1   3
ATOM      3  C   UNL     1     -11.371   7.107   6.781  1.00  0.00    -0.025 A 
ATOM      4  C   UNL     1     -11.108   5.891   6.126  1.00  0.00     0.012 A 
ATOM      5  C   UNL     1     -11.938   4.784   6.322  1.00  0.00     0.047 A 
ATOM      6  C   UNL     1     -13.050   4.877   7.167  1.00  0.00     0.115 A 
ATOM      7  C   UNL     1     -12.502   7.197   7.619  1.00  0.00     0.012 A 
ATOM      8  C   UNL     1     -13.330   6.086   7.811  1.00  0.00     0.047 A 
BRANCH   6   9
ATOM      9  O   UNL     1     -13.883   3.779   7.370  1.00  0.00    -0.508 OA
ATOM     10  H   UNL     1     -14.888   3.884   7.445  1.00  0.00     0.293 HD
ENDBRANCH   6   9
ENDBRANCH   1   3
BRANCH   2  11
ATOM     11  C   UNL     1      -9.968  10.608   5.962  1.00  0.00     0.189 C 
ATOM     12  O   UNL     1     -10.401  11.705   5.515  1.00  0.00    -0.289 OA
BRANCH  11  13
ATOM     13  C   UNL     1      -8.531  10.469   6.285  1.00  0.00     0.064 A 
ATOM     14  C   UNL     1      -7.628   9.809   5.416  1.00  0.00     0.130 A 
ATOM     15  C   UNL     1      -8.039  11.044   7.471  1.00  0.00     0.020 A 
ATOM     16  C   UNL     1      -6.264   9.769   5.731  1.00  0.00     0.093 A 
ATOM     17  C   UNL     1      -6.679  10.983   7.780  1.00  0.00     0.047 A 
ATOM     18  C   UNL     1      -5.788  10.352   6.912  1.00  0.00     0.119 A 
BRANCH  14  19
ATOM     19  O   UNL     1      -8.051   9.162   4.253  1.00  0.00    -0.507 OA
ATOM     20  H   UNL     1      -7.713   8.251   3.970  1.00  0.00     0.293 HD
ENDBRANCH  14  19
BRANCH  18  21
ATOM     21  O   UNL     1      -4.432  10.307   7.229  1.00  0.00    -0.508 OA
ATOM     22  H   UNL     1      -3.922  11.141   7.494  1.00  0.00     0.293 HD
ENDBRANCH  18  21
ENDBRANCH  11  13
ENDBRANCH   2  11
TORSDOF 6
ENDMDL
MODEL 7
REMARK VINA RESULT:    -5.660     16.553     18.461
REMARK INTER + INTRA:          -7.648
REMARK INTER:                  -6.933
REMARK INTRA:                  -0.715
REMARK UNBOUND:                -0.499
REMARK SMILES O=C(C=Cc1ccc(O)cc1)c1ccc(O)cc1O
REMARK SMILES IDX 4 1 3 2 5 3 6 4 7 5 8 6 11 7 10 8 9 9 2 11 1 12 12 13 18 14
REMARK SMILES IDX 13 15 17 16 14 17 15 18 19 19 16 21
REMARK H PARENT 9 10 19 20 16 22
REMARK Flexibility Score: inf
ROOT
ATOM      1  C   UNL     1     -10.180   8.566   6.115  1.00  0.00     0.012 C 
ATOM      2  C   UNL     1     -11.364   9.063   6.499  1.00  0.00     0.053 C 
ENDROOT
BRANCH   1   3
ATOM      3  C   UNL     1      -8.930   9.363   6.061  1.00  0.00    -0.025 A 
ATOM      4  C   UNL     1      -8.984  10.662   5.526  1.00  0.00     0.012 A 
ATOM      5  C   UNL     1      -7.830  11.447   5.447  1.00  0.00     0.047 A 
ATOM      6  C   UNL     1      -6.602  10.941   5.891  1.00  0.00     0.115 A 
ATOM      7  C   UNL     1      -7.687   8.856   6.492  1.00  0.00     0.012 A 
ATOM      8  C   UNL     1      -6.535   9.644   6.409  1.00  0.00     0.047 A 
BRANCH   6   9
ATOM      9  O   UNL     1      -5.446  11.714   5.817  1.00  0.00    -0.508 OA
ATOM     10  H   UNL     1      -4.606  11.460   6.323  1.00  0.00     0.293 HD
ENDBRANCH   6   9
ENDBRANCH   1   3
BRANCH   2  11
ATOM     11  C   UNL     1     -12.594   8.241   6.529  1.00  0.00     0.189 C 
ATOM     12  O   UNL     1     -13.704   8.750   6.210  1.00  0.00    -0.289 OA
BRANCH  11  13
ATOM     13  C   UNL     1     -12.528   6.811   6.901  1.00  0.00     0.064 A 
ATOM     14  C   UNL     1     -12.780   5.780   5.963  1.00  0.00     0.130 A 
ATOM     15  C   UNL     1     -12.166   6.464   8.215  1.00  0.00     0.020 A 
ATOM     16  C   UNL     1     -12.632   4.441   6.345  1.00  0.00     0.093 A 
ATOM     17  C   UNL     1     -12.037   5.124   8.587  1.00  0.00     0.047 A 
ATOM     18  C   UNL     1     -12.265   4.111   7.655  1.00  0.00     0.119 A 
BRANCH  14  19
ATOM     19  O   UNL     1     -13.203   6.046   4.659  1.00  0.00    -0.507 OA
ATOM     20  H   UNL     1     -12.625   5.886   3.844  1.00  0.00     0.293 HD
ENDBRANCH  14  19
BRANCH  18  21
ATOM     21  O   UNL     1     -12.124   2.779   8.038  1.00  0.00    -0.508 OA
ATOM     22  H   UNL     1     -12.924   2.214   8.299  1.00  0.00     0.293 HD
ENDBRANCH  18  21
ENDBRANCH  11  13
ENDBRANCH   2  11
TORSDOF 6
ENDMDL
MODEL 8
REMARK VINA RESULT:    -5.654     15.494     18.177
REMARK INTER + INTRA:          -7.640
REMARK INTER:                  -6.914
REMARK INTRA:                  -0.726
REMARK UNBOUND:                -0.499
REMARK SMILES O=C(C=Cc1ccc(O)cc1)c1ccc(O)cc1O
REMARK SMILES IDX 4 1 3 2 5 3 6 4 7 5 8 6 11 7 10 8 9 9 2 11 1 12 12 13 18 14
REMARK SMILES IDX 13 15 17 16 14 17 15 18 19 19 16 21
REMARK H PARENT 9 10 19 20 16 22
REMARK Flexibility Score: inf
ROOT
ATOM      1  C   UNL     1     -13.036   7.968   5.912  1.00  0.00     0.012 C 
ATOM      2  C   UNL     1     -14.208   8.407   5.431  1.00  0.00     0.053 C 
ENDROOT
BRANCH   1   3
ATOM      3  C   UNL     1     -12.836   6.612   6.480  1.00  0.00    -0.025 A 
ATOM      4  C   UNL     1     -11.980   6.465   7.584  1.00  0.00     0.012 A 
ATOM      5  C   UNL     1     -11.753   5.205   8.146  1.00  0.00     0.047 A 
ATOM      6  C   UNL     1     -12.372   4.071   7.606  1.00  0.00     0.115 A 
ATOM      7  C   UNL     1     -13.444   5.463   5.933  1.00  0.00     0.012 A 
ATOM      8  C   UNL     1     -13.214   4.204   6.498  1.00  0.00     0.047 A 
BRANCH   6   9
ATOM      9  O   UNL     1     -12.155   2.811   8.159  1.00  0.00    -0.508 OA
ATOM     10  H   UNL     1     -12.903   2.134   8.242  1.00  0.00     0.293 HD
ENDBRANCH   6   9
ENDBRANCH   1   3
BRANCH   2  11
ATOM     11  C   UNL     1     -14.375   9.771   4.883  1.00  0.00     0.189 C 
ATOM     12  O   UNL     1     -15.125  10.601   5.468  1.00  0.00    -0.289 OA
BRANCH  11  13
ATOM     13  C   UNL     1     -13.641  10.183   3.666  1.00  0.00     0.064 A 
ATOM     14  C   UNL     1     -12.639  11.183   3.698  1.00  0.00     0.130 A 
ATOM     15  C   UNL     1     -13.920   9.535   2.449  1.00  0.00     0.020 A 
ATOM     16  C   UNL     1     -11.921  11.485   2.535  1.00  0.00     0.093 A 
ATOM     17  C   UNL     1     -13.207   9.856   1.293  1.00  0.00     0.047 A 
ATOM     18  C   UNL     1     -12.204  10.827   1.332  1.00  0.00     0.119 A 
BRANCH  14  19
ATOM     19  O   UNL     1     -12.349  11.912   4.854  1.00  0.00    -0.507 OA
ATOM     20  H   UNL     1     -12.605  12.883   4.976  1.00  0.00     0.293 HD
ENDBRANCH  14  19
BRANCH  18  21
ATOM     21  O   UNL     1     -11.495  11.131   0.172  1.00  0.00    -0.508 OA
ATOM     22  H   UNL     1     -11.727  10.706  -0.718  1.00  0.00     0.293 HD
ENDBRANCH  18  21
ENDBRANCH  11  13
ENDBRANCH   2  11
TORSDOF 6
ENDMDL
