MODEL 1
REMARK VINA RESULT:    -3.070      0.000      0.000
REMARK INTER + INTRA:          -3.070
REMARK INTER:                  -3.070
REMARK INTRA:                   0.000
REMARK UNBOUND:                 0.000
REMARK SMILES CC1(C)O[C@]2(C)CC[C@H]1CC2
REMARK SMILES IDX 1 1 2 2 9 3 10 4 11 5 5 6 4 7 7 8 8 9 6 10 3 11
REMARK H PARENT
REMARK Flexibility Score: inf
ROOT
ATOM      1  C   UNL     1     164.131 172.673 171.890  1.00  0.00     0.042 C 
ATOM      2  C   UNL     1     163.158 173.585 171.112  1.00  0.00     0.066 C 
ATOM      3  C   UNL     1     161.831 172.808 170.755  1.00  0.00     0.021 C 
ATOM      4  C   UNL     1     160.918 173.750 169.933  1.00  0.00     0.009 C 
ATOM      5  C   UNL     1     161.726 174.335 168.750  1.00  0.00     0.035 C 
ATOM      6  C   UNL     1     163.153 173.715 168.727  1.00  0.00     0.066 C 
ATOM      7  O   UNL     1     163.832 174.056 169.936  1.00  0.00    -0.369 OA
ATOM      8  C   UNL     1     163.029 172.168 168.628  1.00  0.00     0.035 C 
ATOM      9  C   UNL     1     162.191 171.632 169.815  1.00  0.00     0.009 C 
ATOM     10  C   UNL     1     163.952 174.263 167.539  1.00  0.00     0.042 C 
ATOM     11  C   UNL     1     162.851 174.803 172.010  1.00  0.00     0.042 C 
ENDROOT
TORSDOF 0
ENDMDL
MODEL 2
REMARK VINA RESULT:    -3.042     15.269     16.622
REMARK INTER + INTRA:          -3.042
REMARK INTER:                  -3.042
REMARK INTRA:                   0.000
REMARK UNBOUND:                 0.000
REMARK SMILES CC1(C)O[C@]2(C)CC[C@H]1CC2
REMARK SMILES IDX 1 1 2 2 9 3 10 4 11 5 5 6 4 7 7 8 8 9 6 10 3 11
REMARK H PARENT
REMARK Flexibility Score: inf
ROOT
ATOM      1  C   UNL     1     167.082 158.866 171.955  1.00  0.00     0.042 C 
ATOM      2  C   UNL     1     168.100 157.952 171.238  1.00  0.00     0.066 C 
ATOM      3  C   UNL     1     169.400 158.759 170.853  1.00  0.00     0.021 C 
ATOM      4  C   UNL     1     170.359 157.810 170.094  1.00  0.00     0.009 C 
ATOM      5  C   UNL     1     169.590 157.129 168.938  1.00  0.00     0.035 C 
ATOM      6  C   UNL     1     168.140 157.690 168.864  1.00  0.00     0.066 C 
ATOM      7  O   UNL     1     167.459 157.391 170.083  1.00  0.00    -0.369 OA
ATOM      8  C   UNL     1     168.206 159.234 168.682  1.00  0.00     0.035 C 
ATOM      9  C   UNL     1     169.007 159.867 169.846  1.00  0.00     0.009 C 
ATOM     10  C   UNL     1     167.378 157.048 167.701  1.00  0.00     0.042 C 
ATOM     11  C   UNL     1     168.442 156.798 172.206  1.00  0.00     0.042 C 
ENDROOT
TORSDOF 0
ENDMDL
MODEL 3
REMARK VINA RESULT:    -3.019     15.903     17.173
REMARK INTER + INTRA:          -3.019
REMARK INTER:                  -3.019
REMARK INTRA:                   0.000
REMARK UNBOUND:                 0.000
REMARK SMILES CC1(C)O[C@]2(C)CC[C@H]1CC2
REMARK SMILES IDX 1 1 2 2 9 3 10 4 11 5 5 6 4 7 7 8 8 9 6 10 3 11
REMARK H PARENT
REMARK Flexibility Score: inf
ROOT
ATOM      1  C   UNL     1     170.663 155.875 170.694  1.00  0.00     0.042 C 
ATOM      2  C   UNL     1     170.309 157.205 169.992  1.00  0.00     0.066 C 
ATOM      3  C   UNL     1     169.623 158.204 171.003  1.00  0.00     0.021 C 
ATOM      4  C   UNL     1     169.245 159.494 170.236  1.00  0.00     0.009 C 
ATOM      5  C   UNL     1     168.439 159.115 168.970  1.00  0.00     0.035 C 
ATOM      6  C   UNL     1     168.199 157.578 168.938  1.00  0.00     0.066 C 
ATOM      7  O   UNL     1     169.458 156.907 168.876  1.00  0.00    -0.369 OA
ATOM      8  C   UNL     1     167.459 157.156 170.240  1.00  0.00     0.035 C 
ATOM      9  C   UNL     1     168.288 157.579 171.476  1.00  0.00     0.009 C 
ATOM     10  C   UNL     1     167.373 157.194 167.706  1.00  0.00     0.042 C 
ATOM     11  C   UNL     1     171.626 157.800 169.447  1.00  0.00     0.042 C 
ENDROOT
TORSDOF 0
ENDMDL
MODEL 4
REMARK VINA RESULT:    -3.015      1.126      2.705
REMARK INTER + INTRA:          -3.015
REMARK INTER:                  -3.015
REMARK INTRA:                   0.000
REMARK UNBOUND:                 0.000
REMARK SMILES CC1(C)O[C@]2(C)CC[C@H]1CC2
REMARK SMILES IDX 1 1 2 2 9 3 10 4 11 5 5 6 4 7 7 8 8 9 6 10 3 11
REMARK H PARENT
REMARK Flexibility Score: inf
ROOT
ATOM      1  C   UNL     1     160.450 175.327 170.630  1.00  0.00     0.042 C 
ATOM      2  C   UNL     1     160.812 173.992 169.944  1.00  0.00     0.066 C 
ATOM      3  C   UNL     1     161.467 172.994 170.977  1.00  0.00     0.021 C 
ATOM      4  C   UNL     1     161.855 171.698 170.226  1.00  0.00     0.009 C 
ATOM      5  C   UNL     1     162.694 172.065 168.978  1.00  0.00     0.035 C 
ATOM      6  C   UNL     1     162.945 173.600 168.944  1.00  0.00     0.066 C 
ATOM      7  O   UNL     1     161.692 174.278 168.848  1.00  0.00    -0.369 OA
ATOM      8  C   UNL     1     163.656 174.025 170.261  1.00  0.00     0.035 C 
ATOM      9  C   UNL     1     162.794 173.613 171.479  1.00  0.00     0.009 C 
ATOM     10  C   UNL     1     163.803 173.973 167.731  1.00  0.00     0.042 C 
ATOM     11  C   UNL     1     159.505 173.401 169.371  1.00  0.00     0.042 C 
ENDROOT
TORSDOF 0
ENDMDL
MODEL 5
REMARK VINA RESULT:    -2.969     15.068     16.367
REMARK INTER + INTRA:          -2.969
REMARK INTER:                  -2.969
REMARK INTRA:                   0.000
REMARK UNBOUND:                 0.000
REMARK SMILES CC1(C)O[C@]2(C)CC[C@H]1CC2
REMARK SMILES IDX 1 1 2 2 9 3 10 4 11 5 5 6 4 7 7 8 8 9 6 10 3 11
REMARK H PARENT
REMARK Flexibility Score: inf
ROOT
ATOM      1  C   UNL     1     169.772 160.346 169.770  1.00  0.00     0.042 C 
ATOM      2  C   UNL     1     168.569 159.443 170.122  1.00  0.00     0.066 C 
ATOM      3  C   UNL     1     169.000 158.307 171.129  1.00  0.00     0.021 C 
ATOM      4  C   UNL     1     167.773 157.406 171.404  1.00  0.00     0.009 C 
ATOM      5  C   UNL     1     167.164 156.951 170.057  1.00  0.00     0.035 C 
ATOM      6  C   UNL     1     168.038 157.473 168.880  1.00  0.00     0.066 C 
ATOM      7  O   UNL     1     168.047 158.901 168.900  1.00  0.00    -0.369 OA
ATOM      8  C   UNL     1     169.492 156.950 169.061  1.00  0.00     0.035 C 
ATOM      9  C   UNL     1     170.047 157.406 170.432  1.00  0.00     0.009 C 
ATOM     10  C   UNL     1     167.464 157.001 167.540  1.00  0.00     0.042 C 
ATOM     11  C   UNL     1     167.485 160.346 170.749  1.00  0.00     0.042 C 
ENDROOT
TORSDOF 0
ENDMDL
MODEL 6
REMARK VINA RESULT:    -2.886     10.081     11.393
REMARK INTER + INTRA:          -2.886
REMARK INTER:                  -2.886
REMARK INTRA:                   0.000
REMARK UNBOUND:                 0.000
REMARK SMILES CC1(C)O[C@]2(C)CC[C@H]1CC2
REMARK SMILES IDX 1 1 2 2 9 3 10 4 11 5 5 6 4 7 7 8 8 9 6 10 3 11
REMARK H PARENT
REMARK Flexibility Score: inf
ROOT
ATOM      1  C   UNL     1     172.121 166.488 172.187  1.00  0.00     0.042 C 
ATOM      2  C   UNL     1     172.934 167.635 171.546  1.00  0.00     0.066 C 
ATOM      3  C   UNL     1     172.057 168.942 171.427  1.00  0.00     0.021 C 
ATOM      4  C   UNL     1     172.903 170.036 170.733  1.00  0.00     0.009 C 
ATOM      5  C   UNL     1     173.492 169.467 169.420  1.00  0.00     0.035 C 
ATOM      6  C   UNL     1     172.967 168.021 169.189  1.00  0.00     0.066 C 
ATOM      7  O   UNL     1     173.400 167.187 170.265  1.00  0.00    -0.369 OA
ATOM      8  C   UNL     1     171.412 168.048 169.158  1.00  0.00     0.035 C 
ATOM      9  C   UNL     1     170.870 168.649 170.477  1.00  0.00     0.009 C 
ATOM     10  C   UNL     1     173.517 167.458 167.875  1.00  0.00     0.042 C 
ATOM     11  C   UNL     1     174.164 167.884 172.446  1.00  0.00     0.042 C 
ENDROOT
TORSDOF 0
ENDMDL
MODEL 7
REMARK VINA RESULT:    -2.860      9.696     11.286
REMARK INTER + INTRA:          -2.860
REMARK INTER:                  -2.860
REMARK INTRA:                   0.000
REMARK UNBOUND:                 0.000
REMARK SMILES CC1(C)O[C@]2(C)CC[C@H]1CC2
REMARK SMILES IDX 1 1 2 2 9 3 10 4 11 5 5 6 4 7 7 8 8 9 6 10 3 11
REMARK H PARENT
REMARK Flexibility Score: inf
ROOT
ATOM      1  C   UNL     1     159.071 165.110 172.033  1.00  0.00     0.042 C 
ATOM      2  C   UNL     1     158.361 163.823 171.560  1.00  0.00     0.066 C 
ATOM      3  C   UNL     1     159.365 162.605 171.545  1.00  0.00     0.021 C 
ATOM      4  C   UNL     1     158.615 161.359 171.016  1.00  0.00     0.009 C 
ATOM      5  C   UNL     1     157.924 161.712 169.678  1.00  0.00     0.035 C 
ATOM      6  C   UNL     1     158.287 163.168 169.264  1.00  0.00     0.066 C 
ATOM      7  O   UNL     1     157.806 164.072 170.260  1.00  0.00    -0.369 OA
ATOM      8  C   UNL     1     159.834 163.293 169.164  1.00  0.00     0.035 C 
ATOM      9  C   UNL     1     160.481 162.904 170.516  1.00  0.00     0.009 C 
ATOM     10  C   UNL     1     157.635 163.518 167.923  1.00  0.00     0.042 C 
ATOM     11  C   UNL     1     157.195 163.556 172.538  1.00  0.00     0.042 C 
ENDROOT
TORSDOF 0
ENDMDL
MODEL 8
REMARK VINA RESULT:    -2.788     15.344     16.632
REMARK INTER + INTRA:          -2.788
REMARK INTER:                  -2.788
REMARK INTRA:                   0.000
REMARK UNBOUND:                 0.000
REMARK SMILES CC1(C)O[C@]2(C)CC[C@H]1CC2
REMARK SMILES IDX 1 1 2 2 9 3 10 4 11 5 5 6 4 7 7 8 8 9 6 10 3 11
REMARK H PARENT
REMARK Flexibility Score: inf
ROOT
ATOM      1  C   UNL     1     168.994 156.222 171.858  1.00  0.00     0.042 C 
ATOM      2  C   UNL     1     168.264 157.172 170.884  1.00  0.00     0.066 C 
ATOM      3  C   UNL     1     168.734 156.919 169.399  1.00  0.00     0.021 C 
ATOM      4  C   UNL     1     168.011 157.930 168.478  1.00  0.00     0.009 C 
ATOM      5  C   UNL     1     168.206 159.359 169.039  1.00  0.00     0.035 C 
ATOM      6  C   UNL     1     169.136 159.314 170.286  1.00  0.00     0.066 C 
ATOM      7  O   UNL     1     168.520 158.521 171.302  1.00  0.00    -0.369 OA
ATOM      8  C   UNL     1     170.491 158.664 169.882  1.00  0.00     0.035 C 
ATOM      9  C   UNL     1     170.243 157.251 169.301  1.00  0.00     0.009 C 
ATOM     10  C   UNL     1     169.364 160.727 170.832  1.00  0.00     0.042 C 
ATOM     11  C   UNL     1     166.750 156.904 171.030  1.00  0.00     0.042 C 
ENDROOT
TORSDOF 0
ENDMDL
MODEL 9
REMARK VINA RESULT:    -2.787      1.173      2.844
REMARK INTER + INTRA:          -2.787
REMARK INTER:                  -2.787
REMARK INTRA:                   0.000
REMARK UNBOUND:                 0.000
REMARK SMILES CC1(C)O[C@]2(C)CC[C@H]1CC2
REMARK SMILES IDX 1 1 2 2 9 3 10 4 11 5 5 6 4 7 7 8 8 9 6 10 3 11
REMARK H PARENT
REMARK Flexibility Score: inf
ROOT
ATOM      1  C   UNL     1     162.282 175.003 171.884  1.00  0.00     0.042 C 
ATOM      2  C   UNL     1     162.984 174.043 170.898  1.00  0.00     0.066 C 
ATOM      3  C   UNL     1     162.474 174.285 169.425  1.00  0.00     0.021 C 
ATOM      4  C   UNL     1     163.170 173.266 168.492  1.00  0.00     0.009 C 
ATOM      5  C   UNL     1     162.989 171.842 169.070  1.00  0.00     0.035 C 
ATOM      6  C   UNL     1     162.093 171.898 170.341  1.00  0.00     0.066 C 
ATOM      7  O   UNL     1     162.737 172.698 171.334  1.00  0.00    -0.369 OA
ATOM      8  C   UNL     1     160.729 172.547 169.969  1.00  0.00     0.035 C 
ATOM      9  C   UNL     1     160.963 173.955 169.371  1.00  0.00     0.009 C 
ATOM     10  C   UNL     1     161.878 170.490 170.904  1.00  0.00     0.042 C 
ATOM     11  C   UNL     1     164.502 174.311 171.000  1.00  0.00     0.042 C 
ENDROOT
TORSDOF 0
ENDMDL
