MODEL 1
REMARK VINA RESULT:    -4.389      0.000      0.000
REMARK INTER + INTRA:          -9.874
REMARK INTER:                  -7.981
REMARK INTRA:                  -1.893
REMARK UNBOUND:                -1.893
REMARK SMILES CCCCCCCCCCCCCC[C@H](C)C(=O)[O-]
REMARK SMILES IDX 9 1 10 2 11 3 12 4 13 5 14 6 15 7 16 8 17 9 18 10 19 11 8 12
REMARK SMILES IDX 7 13 6 14 5 15 4 16 3 17 2 18 1 19
REMARK H PARENT
REMARK Flexibility Score: inf
ROOT
ATOM      1  C   UNL     1      52.776  29.503  36.253  1.00  0.00     0.000 C 
ENDROOT
BRANCH   1   2
ATOM      2  C   UNL     1      53.484  30.721  36.874  1.00  0.00     0.000 C 
BRANCH   2   3
ATOM      3  C   UNL     1      54.592  30.330  37.866  1.00  0.00     0.000 C 
BRANCH   3   4
ATOM      4  C   UNL     1      54.737  28.806  38.018  1.00  0.00     0.000 C 
BRANCH   4   5
ATOM      5  C   UNL     1      56.181  28.324  37.812  1.00  0.00     0.001 C 
BRANCH   5   6
ATOM      6  C   UNL     1      56.798  28.960  36.556  1.00  0.00     0.009 C 
BRANCH   6   7
ATOM      7  C   UNL     1      58.224  29.492  36.812  1.00  0.00     0.032 C 
ATOM      8  C   UNL     1      58.967  28.592  37.806  1.00  0.00     0.014 C 
BRANCH   7   9
ATOM      9  C   UNL     1      58.202  30.908  37.320  1.00  0.00     0.044 C 
ATOM     10  O   UNL     1      58.344  31.877  36.525  1.00  0.00    -0.550 OA
ATOM     11  O   UNL     1      58.027  31.156  38.676  1.00  0.00    -0.550 OA
ENDBRANCH   7   9
ENDBRANCH   6   7
ENDBRANCH   5   6
ENDBRANCH   4   5
ENDBRANCH   3   4
ENDBRANCH   2   3
ENDBRANCH   1   2
BRANCH   1  12
ATOM     12  C   UNL     1      52.977  29.328  34.736  1.00  0.00     0.000 C 
BRANCH  12  13
ATOM     13  C   UNL     1      53.906  28.153  34.386  1.00  0.00    -0.000 C 
BRANCH  13  14
ATOM     14  C   UNL     1      53.246  26.787  34.635  1.00  0.00    -0.000 C 
BRANCH  14  15
ATOM     15  C   UNL     1      52.133  26.470  33.620  1.00  0.00    -0.000 C 
BRANCH  15  16
ATOM     16  C   UNL     1      50.727  26.496  34.247  1.00  0.00    -0.000 C 
BRANCH  16  17
ATOM     17  C   UNL     1      50.692  26.249  35.766  1.00  0.00    -0.000 C 
BRANCH  17  18
ATOM     18  C   UNL     1      50.455  24.776  36.126  1.00  0.00    -0.003 C 
ATOM     19  C   UNL     1      51.725  24.134  36.679  1.00  0.00     0.004 C 
ENDBRANCH  17  18
ENDBRANCH  16  17
ENDBRANCH  15  16
ENDBRANCH  14  15
ENDBRANCH  13  14
ENDBRANCH  12  13
ENDBRANCH   1  12
TORSDOF 14
ENDMDL
MODEL 2
REMARK VINA RESULT:    -4.381      4.432      7.817
REMARK INTER + INTRA:          -9.860
REMARK INTER:                  -7.856
REMARK INTRA:                  -2.004
REMARK UNBOUND:                -1.893
REMARK SMILES CCCCCCCCCCCCCC[C@H](C)C(=O)[O-]
REMARK SMILES IDX 9 1 10 2 11 3 12 4 13 5 14 6 15 7 16 8 17 9 18 10 19 11 8 12
REMARK SMILES IDX 7 13 6 14 5 15 4 16 3 17 2 18 1 19
REMARK H PARENT
REMARK Flexibility Score: inf
ROOT
ATOM      1  C   UNL     1      54.450  24.870  34.653  1.00  0.00     0.000 C 
ENDROOT
BRANCH   1   2
ATOM      2  C   UNL     1      53.792  24.645  33.278  1.00  0.00     0.000 C 
BRANCH   2   3
ATOM      3  C   UNL     1      52.414  23.970  33.374  1.00  0.00     0.000 C 
BRANCH   3   4
ATOM      4  C   UNL     1      51.342  24.697  32.545  1.00  0.00     0.000 C 
BRANCH   4   5
ATOM      5  C   UNL     1      51.071  26.124  33.046  1.00  0.00     0.001 C 
BRANCH   5   6
ATOM      6  C   UNL     1      49.561  26.396  33.137  1.00  0.00     0.009 C 
BRANCH   6   7
ATOM      7  C   UNL     1      48.974  25.976  34.501  1.00  0.00     0.032 C 
ATOM      8  C   UNL     1      49.960  26.284  35.633  1.00  0.00     0.014 C 
BRANCH   7   9
ATOM      9  C   UNL     1      48.613  24.515  34.519  1.00  0.00     0.044 C 
ATOM     10  O   UNL     1      49.088  23.748  35.400  1.00  0.00    -0.550 OA
ATOM     11  O   UNL     1      47.750  24.002  33.559  1.00  0.00    -0.550 OA
ENDBRANCH   7   9
ENDBRANCH   6   7
ENDBRANCH   5   6
ENDBRANCH   4   5
ENDBRANCH   3   4
ENDBRANCH   2   3
ENDBRANCH   1   2
BRANCH   1  12
ATOM     12  C   UNL     1      54.253  26.273  35.254  1.00  0.00     0.000 C 
BRANCH  12  13
ATOM     13  C   UNL     1      54.944  27.378  34.437  1.00  0.00    -0.000 C 
BRANCH  13  14
ATOM     14  C   UNL     1      53.961  28.460  33.962  1.00  0.00    -0.000 C 
BRANCH  14  15
ATOM     15  C   UNL     1      52.788  28.667  34.936  1.00  0.00    -0.000 C 
BRANCH  15  16
ATOM     16  C   UNL     1      52.809  30.051  35.611  1.00  0.00    -0.000 C 
BRANCH  16  17
ATOM     17  C   UNL     1      53.250  30.045  37.086  1.00  0.00    -0.000 C 
BRANCH  17  18
ATOM     18  C   UNL     1      54.637  30.666  37.299  1.00  0.00    -0.003 C 
ATOM     19  C   UNL     1      55.716  29.589  37.376  1.00  0.00     0.004 C 
ENDBRANCH  17  18
ENDBRANCH  16  17
ENDBRANCH  15  16
ENDBRANCH  14  15
ENDBRANCH  13  14
ENDBRANCH  12  13
ENDBRANCH   1  12
TORSDOF 14
ENDMDL
MODEL 3
REMARK VINA RESULT:    -4.365      4.104      7.560
REMARK INTER + INTRA:          -9.830
REMARK INTER:                  -7.238
REMARK INTRA:                  -2.591
REMARK UNBOUND:                -1.893
REMARK SMILES CCCCCCCCCCCCCC[C@H](C)C(=O)[O-]
REMARK SMILES IDX 9 1 10 2 11 3 12 4 13 5 14 6 15 7 16 8 17 9 18 10 19 11 8 12
REMARK SMILES IDX 7 13 6 14 5 15 4 16 3 17 2 18 1 19
REMARK H PARENT
REMARK Flexibility Score: inf
ROOT
ATOM      1  C   UNL     1      53.026  25.656  34.610  1.00  0.00     0.000 C 
ENDROOT
BRANCH   1   2
ATOM      2  C   UNL     1      52.908  25.460  36.133  1.00  0.00     0.000 C 
BRANCH   2   3
ATOM      3  C   UNL     1      51.719  24.572  36.535  1.00  0.00     0.000 C 
BRANCH   3   4
ATOM      4  C   UNL     1      51.940  23.093  36.175  1.00  0.00     0.000 C 
BRANCH   4   5
ATOM      5  C   UNL     1      50.894  22.561  35.182  1.00  0.00     0.001 C 
BRANCH   5   6
ATOM      6  C   UNL     1      49.638  23.445  35.184  1.00  0.00     0.009 C 
BRANCH   6   7
ATOM      7  C   UNL     1      49.323  24.014  33.784  1.00  0.00     0.032 C 
ATOM      8  C   UNL     1      50.483  23.748  32.819  1.00  0.00     0.014 C 
BRANCH   7   9
ATOM      9  C   UNL     1      49.030  25.488  33.840  1.00  0.00     0.044 C 
ATOM     10  O   UNL     1      49.018  26.181  32.786  1.00  0.00    -0.550 OA
ATOM     11  O   UNL     1      48.771  26.098  35.062  1.00  0.00    -0.550 OA
ENDBRANCH   7   9
ENDBRANCH   6   7
ENDBRANCH   5   6
ENDBRANCH   4   5
ENDBRANCH   3   4
ENDBRANCH   2   3
ENDBRANCH   1   2
BRANCH   1  12
ATOM     12  C   UNL     1      52.385  26.944  34.061  1.00  0.00     0.000 C 
BRANCH  12  13
ATOM     13  C   UNL     1      51.907  27.896  35.170  1.00  0.00    -0.000 C 
BRANCH  13  14
ATOM     14  C   UNL     1      52.753  29.177  35.250  1.00  0.00    -0.000 C 
BRANCH  14  15
ATOM     15  C   UNL     1      53.601  29.250  36.532  1.00  0.00    -0.000 C 
BRANCH  15  16
ATOM     16  C   UNL     1      55.113  29.157  36.254  1.00  0.00    -0.000 C 
BRANCH  16  17
ATOM     17  C   UNL     1      55.681  27.726  36.243  1.00  0.00    -0.000 C 
BRANCH  17  18
ATOM     18  C   UNL     1      56.573  27.446  35.025  1.00  0.00    -0.003 C 
ATOM     19  C   UNL     1      55.879  27.853  33.729  1.00  0.00     0.004 C 
ENDBRANCH  17  18
ENDBRANCH  16  17
ENDBRANCH  15  16
ENDBRANCH  14  15
ENDBRANCH  13  14
ENDBRANCH  12  13
ENDBRANCH   1  12
TORSDOF 14
ENDMDL
MODEL 4
REMARK VINA RESULT:    -4.363      2.388      4.320
REMARK INTER + INTRA:          -9.827
REMARK INTER:                  -7.530
REMARK INTRA:                  -2.297
REMARK UNBOUND:                -1.893
REMARK SMILES CCCCCCCCCCCCCC[C@H](C)C(=O)[O-]
REMARK SMILES IDX 9 1 10 2 11 3 12 4 13 5 14 6 15 7 16 8 17 9 18 10 19 11 8 12
REMARK SMILES IDX 7 13 6 14 5 15 4 16 3 17 2 18 1 19
REMARK H PARENT
REMARK Flexibility Score: inf
ROOT
ATOM      1  C   UNL     1      52.228  25.448  35.635  1.00  0.00     0.000 C 
ENDROOT
BRANCH   1   2
ATOM      2  C   UNL     1      53.076  25.264  34.362  1.00  0.00     0.000 C 
BRANCH   2   3
ATOM      3  C   UNL     1      54.572  25.535  34.592  1.00  0.00     0.000 C 
BRANCH   3   4
ATOM      4  C   UNL     1      55.117  26.648  33.681  1.00  0.00     0.000 C 
BRANCH   4   5
ATOM      5  C   UNL     1      54.509  28.023  33.996  1.00  0.00     0.001 C 
BRANCH   5   6
ATOM      6  C   UNL     1      54.845  28.455  35.432  1.00  0.00     0.009 C 
BRANCH   6   7
ATOM      7  C   UNL     1      53.631  29.079  36.153  1.00  0.00     0.032 C 
ATOM      8  C   UNL     1      52.747  29.843  35.162  1.00  0.00     0.014 C 
BRANCH   7   9
ATOM      9  C   UNL     1      54.061  29.994  37.267  1.00  0.00     0.044 C 
ATOM     10  O   UNL     1      55.279  30.272  37.434  1.00  0.00    -0.550 OA
ATOM     11  O   UNL     1      53.112  30.537  38.124  1.00  0.00    -0.550 OA
ENDBRANCH   7   9
ENDBRANCH   6   7
ENDBRANCH   5   6
ENDBRANCH   4   5
ENDBRANCH   3   4
ENDBRANCH   2   3
ENDBRANCH   1   2
BRANCH   1  12
ATOM     12  C   UNL     1      51.074  26.460  35.515  1.00  0.00     0.000 C 
BRANCH  12  13
ATOM     13  C   UNL     1      50.862  26.961  34.076  1.00  0.00    -0.000 C 
BRANCH  13  14
ATOM     14  C   UNL     1      49.525  26.489  33.481  1.00  0.00    -0.000 C 
BRANCH  14  15
ATOM     15  C   UNL     1      48.620  25.804  34.520  1.00  0.00    -0.000 C 
BRANCH  15  16
ATOM     16  C   UNL     1      48.238  24.366  34.124  1.00  0.00    -0.000 C 
BRANCH  16  17
ATOM     17  C   UNL     1      49.428  23.408  33.938  1.00  0.00    -0.000 C 
BRANCH  17  18
ATOM     18  C   UNL     1      49.837  22.701  35.238  1.00  0.00    -0.003 C 
ATOM     19  C   UNL     1      49.726  21.185  35.098  1.00  0.00     0.004 C 
ENDBRANCH  17  18
ENDBRANCH  16  17
ENDBRANCH  15  16
ENDBRANCH  14  15
ENDBRANCH  13  14
ENDBRANCH  12  13
ENDBRANCH   1  12
TORSDOF 14
ENDMDL
MODEL 5
REMARK VINA RESULT:    -4.313      3.138      5.785
REMARK INTER + INTRA:          -9.737
REMARK INTER:                  -7.116
REMARK INTRA:                  -2.621
REMARK UNBOUND:                -1.893
REMARK SMILES CCCCCCCCCCCCCC[C@H](C)C(=O)[O-]
REMARK SMILES IDX 9 1 10 2 11 3 12 4 13 5 14 6 15 7 16 8 17 9 18 10 19 11 8 12
REMARK SMILES IDX 7 13 6 14 5 15 4 16 3 17 2 18 1 19
REMARK H PARENT
REMARK Flexibility Score: inf
ROOT
ATOM      1  C   UNL     1      49.522  23.833  34.065  1.00  0.00     0.000 C 
ENDROOT
BRANCH   1   2
ATOM      2  C   UNL     1      48.666  25.039  34.497  1.00  0.00     0.000 C 
BRANCH   2   3
ATOM      3  C   UNL     1      49.393  26.384  34.324  1.00  0.00     0.000 C 
BRANCH   3   4
ATOM      4  C   UNL     1      50.453  26.342  33.211  1.00  0.00     0.000 C 
BRANCH   4   5
ATOM      5  C   UNL     1      51.856  26.719  33.713  1.00  0.00     0.001 C 
BRANCH   5   6
ATOM      6  C   UNL     1      51.772  27.739  34.859  1.00  0.00     0.009 C 
BRANCH   6   7
ATOM      7  C   UNL     1      52.929  28.760  34.816  1.00  0.00     0.032 C 
ATOM      8  C   UNL     1      54.073  28.245  33.936  1.00  0.00     0.014 C 
BRANCH   7   9
ATOM      9  C   UNL     1      53.443  29.070  36.196  1.00  0.00     0.044 C 
ATOM     10  O   UNL     1      53.101  30.132  36.784  1.00  0.00    -0.550 OA
ATOM     11  O   UNL     1      54.302  28.182  36.831  1.00  0.00    -0.550 OA
ENDBRANCH   7   9
ENDBRANCH   6   7
ENDBRANCH   5   6
ENDBRANCH   4   5
ENDBRANCH   3   4
ENDBRANCH   2   3
ENDBRANCH   1   2
BRANCH   1  12
ATOM     12  C   UNL     1      49.760  22.772  35.155  1.00  0.00     0.000 C 
BRANCH  12  13
ATOM     13  C   UNL     1      51.187  22.812  35.729  1.00  0.00    -0.000 C 
BRANCH  13  14
ATOM     14  C   UNL     1      51.479  24.117  36.488  1.00  0.00    -0.000 C 
BRANCH  14  15
ATOM     15  C   UNL     1      52.943  24.569  36.352  1.00  0.00    -0.000 C 
BRANCH  15  16
ATOM     16  C   UNL     1      53.738  23.725  35.338  1.00  0.00    -0.000 C 
BRANCH  16  17
ATOM     17  C   UNL     1      54.733  24.521  34.474  1.00  0.00    -0.000 C 
BRANCH  17  18
ATOM     18  C   UNL     1      54.549  24.277  32.970  1.00  0.00    -0.003 C 
ATOM     19  C   UNL     1      53.281  23.473  32.695  1.00  0.00     0.004 C 
ENDBRANCH  17  18
ENDBRANCH  16  17
ENDBRANCH  15  16
ENDBRANCH  14  15
ENDBRANCH  13  14
ENDBRANCH  12  13
ENDBRANCH   1  12
TORSDOF 14
ENDMDL
MODEL 6
REMARK VINA RESULT:    -4.305      4.287      6.888
REMARK INTER + INTRA:          -9.722
REMARK INTER:                  -7.170
REMARK INTRA:                  -2.553
REMARK UNBOUND:                -1.893
REMARK SMILES CCCCCCCCCCCCCC[C@H](C)C(=O)[O-]
REMARK SMILES IDX 9 1 10 2 11 3 12 4 13 5 14 6 15 7 16 8 17 9 18 10 19 11 8 12
REMARK SMILES IDX 7 13 6 14 5 15 4 16 3 17 2 18 1 19
REMARK H PARENT
REMARK Flexibility Score: inf
ROOT
ATOM      1  C   UNL     1      53.938  28.132  33.962  1.00  0.00     0.000 C 
ENDROOT
BRANCH   1   2
ATOM      2  C   UNL     1      53.287  29.129  34.940  1.00  0.00     0.000 C 
BRANCH   2   3
ATOM      3  C   UNL     1      52.063  28.546  35.665  1.00  0.00     0.000 C 
BRANCH   3   4
ATOM      4  C   UNL     1      51.433  27.367  34.905  1.00  0.00     0.000 C 
BRANCH   4   5
ATOM      5  C   UNL     1      50.224  26.766  35.638  1.00  0.00     0.001 C 
BRANCH   5   6
ATOM      6  C   UNL     1      50.399  25.252  35.834  1.00  0.00     0.009 C 
BRANCH   6   7
ATOM      7  C   UNL     1      49.403  24.435  34.983  1.00  0.00     0.032 C 
ATOM      8  C   UNL     1      49.646  22.932  35.158  1.00  0.00     0.014 C 
BRANCH   7   9
ATOM      9  C   UNL     1      49.491  24.802  33.526  1.00  0.00     0.044 C 
ATOM     10  O   UNL     1      48.609  25.529  32.993  1.00  0.00    -0.550 OA
ATOM     11  O   UNL     1      50.550  24.337  32.757  1.00  0.00    -0.550 OA
ENDBRANCH   7   9
ENDBRANCH   6   7
ENDBRANCH   5   6
ENDBRANCH   4   5
ENDBRANCH   3   4
ENDBRANCH   2   3
ENDBRANCH   1   2
BRANCH   1  12
ATOM     12  C   UNL     1      55.465  27.986  34.092  1.00  0.00     0.000 C 
BRANCH  12  13
ATOM     13  C   UNL     1      55.974  28.247  35.520  1.00  0.00    -0.000 C 
BRANCH  13  14
ATOM     14  C   UNL     1      56.223  26.947  36.302  1.00  0.00    -0.000 C 
BRANCH  14  15
ATOM     15  C   UNL     1      55.103  26.635  37.309  1.00  0.00    -0.000 C 
BRANCH  15  16
ATOM     16  C   UNL     1      54.065  25.639  36.759  1.00  0.00    -0.000 C 
BRANCH  16  17
ATOM     17  C   UNL     1      54.613  24.640  35.724  1.00  0.00    -0.000 C 
BRANCH  17  18
ATOM     18  C   UNL     1      53.650  24.404  34.552  1.00  0.00    -0.003 C 
ATOM     19  C   UNL     1      53.362  22.916  34.369  1.00  0.00     0.004 C 
ENDBRANCH  17  18
ENDBRANCH  16  17
ENDBRANCH  15  16
ENDBRANCH  14  15
ENDBRANCH  13  14
ENDBRANCH  12  13
ENDBRANCH   1  12
TORSDOF 14
ENDMDL
MODEL 7
REMARK VINA RESULT:    -4.301      1.784      2.369
REMARK INTER + INTRA:          -9.713
REMARK INTER:                  -8.195
REMARK INTRA:                  -1.518
REMARK UNBOUND:                -1.893
REMARK SMILES CCCCCCCCCCCCCC[C@H](C)C(=O)[O-]
REMARK SMILES IDX 9 1 10 2 11 3 12 4 13 5 14 6 15 7 16 8 17 9 18 10 19 11 8 12
REMARK SMILES IDX 7 13 6 14 5 15 4 16 3 17 2 18 1 19
REMARK H PARENT
REMARK Flexibility Score: inf
ROOT
ATOM      1  C   UNL     1      52.934  28.624  34.481  1.00  0.00     0.000 C 
ENDROOT
BRANCH   1   2
ATOM      2  C   UNL     1      52.516  29.027  35.908  1.00  0.00     0.000 C 
BRANCH   2   3
ATOM      3  C   UNL     1      53.139  30.358  36.363  1.00  0.00     0.000 C 
BRANCH   3   4
ATOM      4  C   UNL     1      53.458  30.375  37.867  1.00  0.00     0.000 C 
BRANCH   4   5
ATOM      5  C   UNL     1      54.870  29.858  38.180  1.00  0.00     0.001 C 
BRANCH   5   6
ATOM      6  C   UNL     1      55.867  30.296  37.096  1.00  0.00     0.009 C 
BRANCH   6   7
ATOM      7  C   UNL     1      56.901  31.310  37.629  1.00  0.00     0.032 C 
ATOM      8  C   UNL     1      57.632  30.745  38.852  1.00  0.00     0.014 C 
BRANCH   7   9
ATOM      9  C   UNL     1      56.255  32.624  37.979  1.00  0.00     0.044 C 
ATOM     10  O   UNL     1      56.463  33.162  39.100  1.00  0.00    -0.550 OA
ATOM     11  O   UNL     1      55.421  33.252  37.063  1.00  0.00    -0.550 OA
ENDBRANCH   7   9
ENDBRANCH   6   7
ENDBRANCH   5   6
ENDBRANCH   4   5
ENDBRANCH   3   4
ENDBRANCH   2   3
ENDBRANCH   1   2
BRANCH   1  12
ATOM     12  C   UNL     1      54.298  27.919  34.369  1.00  0.00     0.000 C 
BRANCH  12  13
ATOM     13  C   UNL     1      54.202  26.395  34.553  1.00  0.00    -0.000 C 
BRANCH  13  14
ATOM     14  C   UNL     1      52.748  25.895  34.569  1.00  0.00    -0.000 C 
BRANCH  14  15
ATOM     15  C   UNL     1      52.375  25.110  33.298  1.00  0.00    -0.000 C 
BRANCH  15  16
ATOM     16  C   UNL     1      50.890  25.259  32.919  1.00  0.00    -0.000 C 
BRANCH  16  17
ATOM     17  C   UNL     1      50.187  26.487  33.525  1.00  0.00    -0.000 C 
BRANCH  17  18
ATOM     18  C   UNL     1      49.037  26.112  34.470  1.00  0.00    -0.003 C 
ATOM     19  C   UNL     1      49.408  26.388  35.925  1.00  0.00     0.004 C 
ENDBRANCH  17  18
ENDBRANCH  16  17
ENDBRANCH  15  16
ENDBRANCH  14  15
ENDBRANCH  13  14
ENDBRANCH  12  13
ENDBRANCH   1  12
TORSDOF 14
ENDMDL
MODEL 8
REMARK VINA RESULT:    -4.286      1.713      2.765
REMARK INTER + INTRA:          -9.687
REMARK INTER:                  -7.387
REMARK INTRA:                  -2.300
REMARK UNBOUND:                -1.893
REMARK SMILES CCCCCCCCCCCCCC[C@H](C)C(=O)[O-]
REMARK SMILES IDX 9 1 10 2 11 3 12 4 13 5 14 6 15 7 16 8 17 9 18 10 19 11 8 12
REMARK SMILES IDX 7 13 6 14 5 15 4 16 3 17 2 18 1 19
REMARK H PARENT
REMARK Flexibility Score: inf
ROOT
ATOM      1  C   UNL     1      52.116  28.128  34.975  1.00  0.00     0.000 C 
ENDROOT
BRANCH   1   2
ATOM      2  C   UNL     1      52.752  29.521  35.137  1.00  0.00     0.000 C 
BRANCH   2   3
ATOM      3  C   UNL     1      52.849  29.971  36.605  1.00  0.00     0.000 C 
BRANCH   3   4
ATOM      4  C   UNL     1      54.301  30.031  37.109  1.00  0.00     0.000 C 
BRANCH   4   5
ATOM      5  C   UNL     1      54.989  28.657  37.100  1.00  0.00     0.001 C 
BRANCH   5   6
ATOM      6  C   UNL     1      56.182  28.648  36.133  1.00  0.00     0.009 C 
BRANCH   6   7
ATOM      7  C   UNL     1      57.069  27.397  36.313  1.00  0.00     0.032 C 
ATOM      8  C   UNL     1      56.284  26.271  36.996  1.00  0.00     0.014 C 
BRANCH   7   9
ATOM      9  C   UNL     1      58.310  27.709  37.103  1.00  0.00     0.044 C 
ATOM     10  O   UNL     1      58.642  26.994  38.086  1.00  0.00    -0.550 OA
ATOM     11  O   UNL     1      59.101  28.797  36.752  1.00  0.00    -0.550 OA
ENDBRANCH   7   9
ENDBRANCH   6   7
ENDBRANCH   5   6
ENDBRANCH   4   5
ENDBRANCH   3   4
ENDBRANCH   2   3
ENDBRANCH   1   2
BRANCH   1  12
ATOM     12  C   UNL     1      52.906  27.142  34.096  1.00  0.00     0.000 C 
BRANCH  12  13
ATOM     13  C   UNL     1      53.250  25.832  34.824  1.00  0.00    -0.000 C 
BRANCH  13  14
ATOM     14  C   UNL     1      52.449  25.654  36.124  1.00  0.00    -0.000 C 
BRANCH  14  15
ATOM     15  C   UNL     1      51.734  24.293  36.201  1.00  0.00    -0.000 C 
BRANCH  15  16
ATOM     16  C   UNL     1      50.312  24.330  35.612  1.00  0.00    -0.000 C 
BRANCH  16  17
ATOM     17  C   UNL     1      49.549  25.646  35.848  1.00  0.00    -0.000 C 
BRANCH  17  18
ATOM     18  C   UNL     1      49.002  26.261  34.552  1.00  0.00    -0.003 C 
ATOM     19  C   UNL     1      49.559  25.544  33.325  1.00  0.00     0.004 C 
ENDBRANCH  17  18
ENDBRANCH  16  17
ENDBRANCH  15  16
ENDBRANCH  14  15
ENDBRANCH  13  14
ENDBRANCH  12  13
ENDBRANCH   1  12
TORSDOF 14
ENDMDL
MODEL 9
REMARK VINA RESULT:    -4.277      2.181      4.135
REMARK INTER + INTRA:          -9.671
REMARK INTER:                  -7.437
REMARK INTRA:                  -2.234
REMARK UNBOUND:                -1.893
REMARK SMILES CCCCCCCCCCCCCC[C@H](C)C(=O)[O-]
REMARK SMILES IDX 9 1 10 2 11 3 12 4 13 5 14 6 15 7 16 8 17 9 18 10 19 11 8 12
REMARK SMILES IDX 7 13 6 14 5 15 4 16 3 17 2 18 1 19
REMARK H PARENT
REMARK Flexibility Score: inf
ROOT
ATOM      1  C   UNL     1      53.573  25.043  34.051  1.00  0.00     0.000 C 
ENDROOT
BRANCH   1   2
ATOM      2  C   UNL     1      53.484  26.314  34.916  1.00  0.00     0.000 C 
BRANCH   2   3
ATOM      3  C   UNL     1      52.424  27.310  34.413  1.00  0.00     0.000 C 
BRANCH   3   4
ATOM      4  C   UNL     1      52.093  28.393  35.453  1.00  0.00     0.000 C 
BRANCH   4   5
ATOM      5  C   UNL     1      53.135  29.522  35.486  1.00  0.00     0.001 C 
BRANCH   5   6
ATOM      6  C   UNL     1      53.310  30.065  36.913  1.00  0.00     0.009 C 
BRANCH   6   7
ATOM      7  C   UNL     1      54.778  29.998  37.386  1.00  0.00     0.032 C 
ATOM      8  C   UNL     1      55.618  29.150  36.425  1.00  0.00     0.014 C 
BRANCH   7   9
ATOM      9  C   UNL     1      54.883  29.448  38.782  1.00  0.00     0.044 C 
ATOM     10  O   UNL     1      55.020  28.209  38.974  1.00  0.00    -0.550 OA
ATOM     11  O   UNL     1      54.827  30.307  39.873  1.00  0.00    -0.550 OA
ENDBRANCH   7   9
ENDBRANCH   6   7
ENDBRANCH   5   6
ENDBRANCH   4   5
ENDBRANCH   3   4
ENDBRANCH   2   3
ENDBRANCH   1   2
BRANCH   1  12
ATOM     12  C   UNL     1      52.420  24.847  33.048  1.00  0.00     0.000 C 
BRANCH  12  13
ATOM     13  C   UNL     1      51.620  23.558  33.299  1.00  0.00    -0.000 C 
BRANCH  13  14
ATOM     14  C   UNL     1      51.584  23.168  34.785  1.00  0.00    -0.000 C 
BRANCH  14  15
ATOM     15  C   UNL     1      50.227  23.469  35.446  1.00  0.00    -0.000 C 
BRANCH  15  16
ATOM     16  C   UNL     1      50.214  24.811  36.200  1.00  0.00    -0.000 C 
BRANCH  16  17
ATOM     17  C   UNL     1      49.331  25.901  35.565  1.00  0.00    -0.000 C 
BRANCH  17  18
ATOM     18  C   UNL     1      48.637  25.433  34.277  1.00  0.00    -0.003 C 
ATOM     19  C   UNL     1      49.107  26.245  33.073  1.00  0.00     0.004 C 
ENDBRANCH  17  18
ENDBRANCH  16  17
ENDBRANCH  15  16
ENDBRANCH  14  15
ENDBRANCH  13  14
ENDBRANCH  12  13
ENDBRANCH   1  12
TORSDOF 14
ENDMDL
