MODEL 1
REMARK VINA RESULT:    -2.195      0.000      0.000
REMARK INTER + INTRA:          -2.195
REMARK INTER:                  -2.195
REMARK INTRA:                   0.000
REMARK UNBOUND:                 0.000
REMARK SMILES CC(=O)[O-]
REMARK SMILES IDX 1 1 2 2 3 3 4 4
REMARK H PARENT
REMARK Flexibility Score: inf
ROOT
ATOM      1  C   UNL     1     -11.683   6.292   0.855  1.00  0.00     0.063 C 
ATOM      2  C   UNL     1     -10.874   5.551   1.864  1.00  0.00     0.038 C 
ATOM      3  O   UNL     1      -9.805   6.048   2.305  1.00  0.00    -0.550 OA
ATOM      4  O   UNL     1     -11.268   4.286   2.279  1.00  0.00    -0.550 OA
ENDROOT
TORSDOF 0
ENDMDL
MODEL 2
REMARK VINA RESULT:    -2.136      0.160      1.627
REMARK INTER + INTRA:          -2.136
REMARK INTER:                  -2.136
REMARK INTRA:                   0.000
REMARK UNBOUND:                 0.000
REMARK SMILES CC(=O)[O-]
REMARK SMILES IDX 1 1 2 2 3 3 4 4
REMARK H PARENT
REMARK Flexibility Score: inf
ROOT
ATOM      1  C   UNL     1     -11.887   6.124   0.881  1.00  0.00     0.063 C 
ATOM      2  C   UNL     1     -10.948   5.438   1.814  1.00  0.00     0.038 C 
ATOM      3  O   UNL     1     -11.240   4.309   2.286  1.00  0.00    -0.550 OA
ATOM      4  O   UNL     1      -9.776   6.068   2.209  1.00  0.00    -0.550 OA
ENDROOT
TORSDOF 0
ENDMDL
MODEL 3
REMARK VINA RESULT:    -2.016     20.997     21.361
REMARK INTER + INTRA:          -2.016
REMARK INTER:                  -2.016
REMARK INTRA:                   0.000
REMARK UNBOUND:                 0.000
REMARK SMILES CC(=O)[O-]
REMARK SMILES IDX 1 1 2 2 3 3 4 4
REMARK H PARENT
REMARK Flexibility Score: inf
ROOT
ATOM      1  C   UNL     1       5.926  -6.748   8.812  1.00  0.00     0.063 C 
ATOM      2  C   UNL     1       5.434  -6.913   7.415  1.00  0.00     0.038 C 
ATOM      3  O   UNL     1       6.242  -6.865   6.451  1.00  0.00    -0.550 OA
ATOM      4  O   UNL     1       4.076  -7.064   7.168  1.00  0.00    -0.550 OA
ENDROOT
TORSDOF 0
ENDMDL
MODEL 4
REMARK VINA RESULT:    -1.983     20.266     20.648
REMARK INTER + INTRA:          -1.983
REMARK INTER:                  -1.983
REMARK INTRA:                   0.000
REMARK UNBOUND:                 0.000
REMARK SMILES CC(=O)[O-]
REMARK SMILES IDX 1 1 2 2 3 3 4 4
REMARK H PARENT
REMARK Flexibility Score: inf
ROOT
ATOM      1  C   UNL     1       4.923  -7.483   9.491  1.00  0.00     0.063 C 
ATOM      2  C   UNL     1       4.049  -6.775   8.512  1.00  0.00     0.038 C 
ATOM      3  O   UNL     1       3.214  -5.923   8.911  1.00  0.00    -0.550 OA
ATOM      4  O   UNL     1       4.116  -7.095   7.163  1.00  0.00    -0.550 OA
ENDROOT
TORSDOF 0
ENDMDL
MODEL 5
REMARK VINA RESULT:    -1.946      9.132      9.693
REMARK INTER + INTRA:          -1.946
REMARK INTER:                  -1.946
REMARK INTRA:                   0.000
REMARK UNBOUND:                 0.000
REMARK SMILES CC(=O)[O-]
REMARK SMILES IDX 1 1 2 2 3 3 4 4
REMARK H PARENT
REMARK Flexibility Score: inf
ROOT
ATOM      1  C   UNL     1      -9.749   9.970  10.591  1.00  0.00     0.063 C 
ATOM      2  C   UNL     1      -8.417   9.802   9.942  1.00  0.00     0.038 C 
ATOM      3  O   UNL     1      -8.342   9.413   8.748  1.00  0.00    -0.550 OA
ATOM      4  O   UNL     1      -7.256  10.020  10.671  1.00  0.00    -0.550 OA
ENDROOT
TORSDOF 0
ENDMDL
MODEL 6
REMARK VINA RESULT:    -1.920      2.472      2.672
REMARK INTER + INTRA:          -1.920
REMARK INTER:                  -1.920
REMARK INTRA:                   0.000
REMARK UNBOUND:                 0.000
REMARK SMILES CC(=O)[O-]
REMARK SMILES IDX 1 1 2 2 3 3 4 4
REMARK H PARENT
REMARK Flexibility Score: inf
ROOT
ATOM      1  C   UNL     1     -10.447   6.454   1.775  1.00  0.00     0.063 C 
ATOM      2  C   UNL     1     -10.778   7.113   0.480  1.00  0.00     0.038 C 
ATOM      3  O   UNL     1     -10.357   8.273   0.236  1.00  0.00    -0.550 OA
ATOM      4  O   UNL     1     -11.599   6.471  -0.437  1.00  0.00    -0.550 OA
ENDROOT
TORSDOF 0
ENDMDL
MODEL 7
REMARK VINA RESULT:    -1.911      1.853      2.160
REMARK INTER + INTRA:          -1.911
REMARK INTER:                  -1.911
REMARK INTRA:                   0.000
REMARK UNBOUND:                 0.000
REMARK SMILES CC(=O)[O-]
REMARK SMILES IDX 1 1 2 2 3 3 4 4
REMARK H PARENT
REMARK Flexibility Score: inf
ROOT
ATOM      1  C   UNL     1     -11.259   8.319   2.132  1.00  0.00     0.063 C 
ATOM      2  C   UNL     1     -10.754   7.048   1.539  1.00  0.00     0.038 C 
ATOM      3  O   UNL     1     -10.929   6.808   0.317  1.00  0.00    -0.550 OA
ATOM      4  O   UNL     1     -10.138   6.101   2.346  1.00  0.00    -0.550 OA
ENDROOT
TORSDOF 0
ENDMDL
MODEL 8
REMARK VINA RESULT:    -1.878      5.980      6.472
REMARK INTER + INTRA:          -1.878
REMARK INTER:                  -1.878
REMARK INTRA:                   0.000
REMARK UNBOUND:                 0.000
REMARK SMILES CC(=O)[O-]
REMARK SMILES IDX 1 1 2 2 3 3 4 4
REMARK H PARENT
REMARK Flexibility Score: inf
ROOT
ATOM      1  C   UNL     1     -12.187  -0.933   0.166  1.00  0.00     0.063 C 
ATOM      2  C   UNL     1     -12.017   0.123  -0.871  1.00  0.00     0.038 C 
ATOM      3  O   UNL     1     -12.101   1.338  -0.555  1.00  0.00    -0.550 OA
ATOM      4  O   UNL     1     -11.821  -0.231  -2.199  1.00  0.00    -0.550 OA
ENDROOT
TORSDOF 0
ENDMDL
