MODEL 1
REMARK VINA RESULT:    -4.504      0.000      0.000
REMARK INTER + INTRA:          -6.829
REMARK INTER:                  -6.873
REMARK INTRA:                   0.044
REMARK UNBOUND:                 0.044
REMARK SMILES CC1=CCC[C@@H](C)C(=O)C[C@@H](C(C)C)C(=O)C1
REMARK SMILES IDX 8 1 9 2 6 3 7 4 5 5 4 6 3 7 2 8 1 9 10 11 11 12 15 13 16 14
REMARK SMILES IDX 17 15 12 17 13 18 14 19
REMARK H PARENT
REMARK Flexibility Score: 70.00
ROOT
ATOM      1  C   UNL     1      30.442  17.129  25.934  1.00  0.00     0.136 C 
ATOM      2  O   UNL     1      29.554  16.291  25.997  1.00  0.00    -0.299 OA
ENDROOT
BRANCH   1   3
ATOM      3  C   UNL     1      31.543  17.145  26.982  1.00  0.00     0.053 C 
ATOM      4  C   UNL     1      31.705  15.782  27.674  1.00  0.00     0.016 C 
BRANCH   3   5
ATOM      5  C   UNL     1      31.403  18.299  28.004  1.00  0.00     0.015 C 
BRANCH   5   6
ATOM      6  C   UNL     1      32.569  19.305  28.137  1.00  0.00     0.028 C 
BRANCH   6   7
ATOM      7  C   UNL     1      32.341  20.709  27.624  1.00  0.00    -0.028 C 
ATOM      8  C   UNL     1      32.743  21.211  26.431  1.00  0.00    -0.070 CG0
ATOM      9  C   UNL     1      32.572  22.692  26.201  1.00  0.00     0.039 C 
ATOM     10  G   UNL     1      33.283  20.366  25.294  1.00  0.00     0.000 G0
ENDBRANCH   6   7
ENDBRANCH   5   6
ENDBRANCH   3   5
ENDBRANCH   1   3
BRANCH   1  11
ATOM     11  C   UNL     1      30.424  18.116  24.785  1.00  0.00     0.087 C 
BRANCH  11  12
ATOM     12  C   UNL     1      31.836  18.441  24.229  1.00  0.00     0.066 C 
BRANCH  12  13
ATOM     13  C   UNL     1      32.171  19.914  24.395  1.00  0.00     0.140 C 
ATOM     14  O   UNL     1      31.494  20.756  23.823  1.00  0.00    -0.299 OA
BRANCH  13  15
ATOM     15  C   UNL     1      33.297  20.371  25.298  1.00  0.00     0.106 CG0
ATOM     16  G   UNL     1      32.745  21.207  26.436  1.00  0.00     0.000 G0
ENDBRANCH  13  15
ENDBRANCH  12  13
BRANCH  12  17
ATOM     17  C   UNL     1      32.070  17.951  22.763  1.00  0.00    -0.006 C 
ATOM     18  C   UNL     1      32.141  16.421  22.601  1.00  0.00     0.008 C 
ATOM     19  C   UNL     1      33.328  18.589  22.151  1.00  0.00     0.008 C 
ENDBRANCH  12  17
ENDBRANCH  11  12
ENDBRANCH   1  11
TORSDOF 1
ENDMDL
MODEL 2
REMARK VINA RESULT:    -4.327      1.578      3.881
REMARK INTER + INTRA:          -6.560
REMARK INTER:                  -6.684
REMARK INTRA:                   0.124
REMARK UNBOUND:                 0.044
REMARK SMILES CC1=CCC[C@@H](C)C(=O)C[C@@H](C(C)C)C(=O)C1
REMARK SMILES IDX 8 1 9 2 6 3 7 4 5 5 4 6 3 7 2 8 1 9 10 11 11 12 15 13 16 14
REMARK SMILES IDX 17 15 12 17 13 18 14 19
REMARK H PARENT
REMARK Flexibility Score: 70.00
ROOT
ATOM      1  C   UNL     1      30.992  17.492  24.894  1.00  0.00     0.136 C 
ATOM      2  O   UNL     1      29.851  17.131  25.140  1.00  0.00    -0.299 OA
ENDROOT
BRANCH   1   3
ATOM      3  C   UNL     1      31.334  18.042  23.519  1.00  0.00     0.053 C 
ATOM      4  C   UNL     1      32.114  17.029  22.667  1.00  0.00     0.016 C 
BRANCH   3   5
ATOM      5  C   UNL     1      32.034  19.422  23.563  1.00  0.00     0.015 C 
BRANCH   5   6
ATOM      6  C   UNL     1      31.563  20.450  24.617  1.00  0.00     0.028 C 
BRANCH   6   7
ATOM      7  C   UNL     1      32.620  21.088  25.490  1.00  0.00    -0.028 C 
ATOM      8  C   UNL     1      32.622  21.154  26.843  1.00  0.00    -0.070 CG0
ATOM      9  C   UNL     1      33.683  22.000  27.502  1.00  0.00     0.039 C 
ATOM     10  G   UNL     1      31.673  20.372  27.732  1.00  0.00     0.000 G0
ENDBRANCH   6   7
ENDBRANCH   5   6
ENDBRANCH   3   5
ENDBRANCH   1   3
BRANCH   1  11
ATOM     11  C   UNL     1      32.031  17.398  25.994  1.00  0.00     0.087 C 
BRANCH  11  12
ATOM     12  C   UNL     1      31.475  17.757  27.398  1.00  0.00     0.066 C 
BRANCH  12  13
ATOM     13  C   UNL     1      32.183  18.970  27.980  1.00  0.00     0.140 C 
ATOM     14  O   UNL     1      33.215  18.819  28.617  1.00  0.00    -0.299 OA
BRANCH  13  15
ATOM     15  C   UNL     1      31.665  20.373  27.746  1.00  0.00     0.106 CG0
ATOM     16  G   UNL     1      32.620  21.137  26.850  1.00  0.00     0.000 G0
ENDBRANCH  13  15
ENDBRANCH  12  13
BRANCH  12  17
ATOM     17  C   UNL     1      31.456  16.556  28.399  1.00  0.00    -0.006 C 
ATOM     18  C   UNL     1      32.675  15.621  28.303  1.00  0.00     0.008 C 
ATOM     19  C   UNL     1      30.166  15.730  28.260  1.00  0.00     0.008 C 
ENDBRANCH  12  17
ENDBRANCH  11  12
ENDBRANCH   1  11
TORSDOF 1
ENDMDL
MODEL 3
REMARK VINA RESULT:    -3.833     12.938     14.324
REMARK INTER + INTRA:          -5.805
REMARK INTER:                  -5.475
REMARK INTRA:                  -0.331
REMARK UNBOUND:                 0.044
REMARK SMILES CC1=CCC[C@@H](C)C(=O)C[C@@H](C(C)C)C(=O)C1
REMARK SMILES IDX 8 1 9 2 6 3 7 4 5 5 4 6 3 7 2 8 1 9 10 11 11 12 15 13 16 14
REMARK SMILES IDX 17 15 12 17 13 18 14 19
REMARK H PARENT
REMARK Flexibility Score: 70.00
ROOT
ATOM      1  C   UNL     1      18.270  25.366  28.775  1.00  0.00     0.136 C 
ATOM      2  O   UNL     1      17.466  25.019  29.629  1.00  0.00    -0.299 OA
ENDROOT
BRANCH   1   3
ATOM      3  C   UNL     1      17.853  25.409  27.314  1.00  0.00     0.053 C 
ATOM      4  C   UNL     1      16.420  25.936  27.136  1.00  0.00     0.016 C 
BRANCH   3   5
ATOM      5  C   UNL     1      18.073  24.070  26.571  1.00  0.00     0.015 C 
BRANCH   5   6
ATOM      6  C   UNL     1      19.252  23.173  27.011  1.00  0.00     0.028 C 
BRANCH   6   7
ATOM      7  C   UNL     1      20.517  23.227  26.184  1.00  0.00    -0.028 C 
ATOM      8  C   UNL     1      21.650  23.907  26.481  1.00  0.00    -0.070 CG0
ATOM      9  C   UNL     1      22.725  23.973  25.424  1.00  0.00     0.039 C 
ATOM     10  G   UNL     1      21.933  24.539  27.830  1.00  0.00     0.000 G0
ENDBRANCH   6   7
ENDBRANCH   5   6
ENDBRANCH   3   5
ENDBRANCH   1   3
BRANCH   1  11
ATOM     11  C   UNL     1      19.663  25.768  29.217  1.00  0.00     0.087 C 
BRANCH  11  12
ATOM     12  C   UNL     1      20.408  26.648  28.178  1.00  0.00     0.066 C 
BRANCH  12  13
ATOM     13  C   UNL     1      21.744  26.035  27.791  1.00  0.00     0.140 C 
ATOM     14  O   UNL     1      22.676  26.762  27.478  1.00  0.00    -0.299 OA
BRANCH  13  15
ATOM     15  C   UNL     1      21.966  24.538  27.832  1.00  0.00     0.106 CG0
ATOM     16  G   UNL     1      21.658  23.929  26.478  1.00  0.00     0.000 G0
ENDBRANCH  13  15
ENDBRANCH  12  13
BRANCH  12  17
ATOM     17  C   UNL     1      20.554  28.146  28.603  1.00  0.00    -0.006 C 
ATOM     18  C   UNL     1      21.186  28.360  29.991  1.00  0.00     0.008 C 
ATOM     19  C   UNL     1      19.207  28.882  28.535  1.00  0.00     0.008 C 
ENDBRANCH  12  17
ENDBRANCH  11  12
ENDBRANCH   1  11
TORSDOF 1
ENDMDL
MODEL 4
REMARK VINA RESULT:    -3.741     13.811     15.179
REMARK INTER + INTRA:          -5.665
REMARK INTER:                  -5.579
REMARK INTRA:                  -0.086
REMARK UNBOUND:                 0.044
REMARK SMILES CC1=CCC[C@@H](C)C(=O)C[C@@H](C(C)C)C(=O)C1
REMARK SMILES IDX 8 1 9 2 6 3 7 4 5 5 4 6 3 7 2 8 1 9 10 11 11 12 15 13 16 14
REMARK SMILES IDX 17 15 12 17 13 18 14 19
REMARK H PARENT
REMARK Flexibility Score: 70.00
ROOT
ATOM      1  C   UNL     1      19.231  26.688  29.214  1.00  0.00     0.136 C 
ATOM      2  O   UNL     1      18.723  26.933  30.299  1.00  0.00    -0.299 OA
ENDROOT
BRANCH   1   3
ATOM      3  C   UNL     1      20.741  26.762  29.050  1.00  0.00     0.053 C 
ATOM      4  C   UNL     1      21.275  28.191  29.236  1.00  0.00     0.016 C 
BRANCH   3   5
ATOM      5  C   UNL     1      21.250  26.121  27.737  1.00  0.00     0.015 C 
BRANCH   5   6
ATOM      6  C   UNL     1      21.463  24.591  27.703  1.00  0.00     0.028 C 
BRANCH   6   7
ATOM      7  C   UNL     1      21.161  23.873  26.406  1.00  0.00    -0.028 C 
ATOM      8  C   UNL     1      20.133  23.024  26.170  1.00  0.00    -0.070 CG0
ATOM      9  C   UNL     1      20.129  22.276  24.860  1.00  0.00     0.039 C 
ATOM     10  G   UNL     1      18.954  22.837  27.106  1.00  0.00     0.000 G0
ENDBRANCH   6   7
ENDBRANCH   5   6
ENDBRANCH   3   5
ENDBRANCH   1   3
BRANCH   1  11
ATOM     11  C   UNL     1      18.325  26.291  28.066  1.00  0.00     0.087 C 
BRANCH  11  12
ATOM     12  C   UNL     1      17.705  24.877  28.232  1.00  0.00     0.066 C 
BRANCH  12  13
ATOM     13  C   UNL     1      17.990  24.003  27.023  1.00  0.00     0.140 C 
ATOM     14  O   UNL     1      17.482  24.276  25.945  1.00  0.00    -0.299 OA
BRANCH  13  15
ATOM     15  C   UNL     1      18.934  22.822  27.108  1.00  0.00     0.106 CG0
ATOM     16  G   UNL     1      20.102  23.021  26.162  1.00  0.00     0.000 G0
ENDBRANCH  13  15
ENDBRANCH  12  13
BRANCH  12  17
ATOM     17  C   UNL     1      16.184  24.891  28.597  1.00  0.00    -0.006 C 
ATOM     18  C   UNL     1      15.551  26.293  28.656  1.00  0.00     0.008 C 
ATOM     19  C   UNL     1      15.918  24.153  29.920  1.00  0.00     0.008 C 
ENDBRANCH  12  17
ENDBRANCH  11  12
ENDBRANCH   1  11
TORSDOF 1
ENDMDL
MODEL 5
REMARK VINA RESULT:    -3.671     14.797     15.801
REMARK INTER + INTRA:          -5.559
REMARK INTER:                  -5.536
REMARK INTRA:                  -0.023
REMARK UNBOUND:                 0.044
REMARK SMILES CC1=CCC[C@@H](C)C(=O)C[C@@H](C(C)C)C(=O)C1
REMARK SMILES IDX 8 1 9 2 6 3 7 4 5 5 4 6 3 7 2 8 1 9 10 11 11 12 15 13 16 14
REMARK SMILES IDX 17 15 12 17 13 18 14 19
REMARK H PARENT
REMARK Flexibility Score: 70.00
ROOT
ATOM      1  C   UNL     1      18.456  22.778  26.999  1.00  0.00     0.136 C 
ATOM      2  O   UNL     1      19.531  22.196  27.041  1.00  0.00    -0.299 OA
ENDROOT
BRANCH   1   3
ATOM      3  C   UNL     1      17.167  22.008  27.233  1.00  0.00     0.053 C 
ATOM      4  C   UNL     1      15.981  22.615  26.467  1.00  0.00     0.016 C 
BRANCH   3   5
ATOM      5  C   UNL     1      16.841  21.794  28.731  1.00  0.00     0.015 C 
BRANCH   5   6
ATOM      6  C   UNL     1      15.769  22.696  29.383  1.00  0.00     0.028 C 
BRANCH   6   7
ATOM      7  C   UNL     1      16.234  23.691  30.423  1.00  0.00    -0.028 C 
ATOM      8  C   UNL     1      16.636  24.966  30.203  1.00  0.00    -0.070 CG0
ATOM      9  C   UNL     1      17.234  25.722  31.363  1.00  0.00     0.039 C 
ATOM     10  G   UNL     1      16.452  25.698  28.888  1.00  0.00     0.000 G0
ENDBRANCH   6   7
ENDBRANCH   5   6
ENDBRANCH   3   5
ENDBRANCH   1   3
BRANCH   1  11
ATOM     11  C   UNL     1      18.454  24.270  26.733  1.00  0.00     0.087 C 
BRANCH  11  12
ATOM     12  C   UNL     1      18.876  25.116  27.965  1.00  0.00     0.066 C 
BRANCH  12  13
ATOM     13  C   UNL     1      17.810  26.138  28.325  1.00  0.00     0.140 C 
ATOM     14  O   UNL     1      18.022  27.326  28.131  1.00  0.00    -0.299 OA
BRANCH  13  15
ATOM     15  C   UNL     1      16.465  25.714  28.875  1.00  0.00     0.106 CG0
ATOM     16  G   UNL     1      16.650  24.966  30.181  1.00  0.00     0.000 G0
ENDBRANCH  13  15
ENDBRANCH  12  13
BRANCH  12  17
ATOM     17  C   UNL     1      20.291  25.769  27.832  1.00  0.00    -0.006 C 
ATOM     18  C   UNL     1      21.336  24.894  27.115  1.00  0.00     0.008 C 
ATOM     19  C   UNL     1      20.839  26.203  29.201  1.00  0.00     0.008 C 
ENDBRANCH  12  17
ENDBRANCH  11  12
ENDBRANCH   1  11
TORSDOF 1
ENDMDL
MODEL 6
REMARK VINA RESULT:    -3.656     15.033     16.421
REMARK INTER + INTRA:          -5.535
REMARK INTER:                  -5.842
REMARK INTRA:                   0.307
REMARK UNBOUND:                 0.044
REMARK SMILES CC1=CCC[C@@H](C)C(=O)C[C@@H](C(C)C)C(=O)C1
REMARK SMILES IDX 8 1 9 2 6 3 7 4 5 5 4 6 3 7 2 8 1 9 10 11 11 12 15 13 16 14
REMARK SMILES IDX 17 15 12 17 13 18 14 19
REMARK H PARENT
REMARK Flexibility Score: 70.00
ROOT
ATOM      1  C   UNL     1      19.297  24.777  27.539  1.00  0.00     0.136 C 
ATOM      2  O   UNL     1      20.333  25.368  27.810  1.00  0.00    -0.299 OA
ENDROOT
BRANCH   1   3
ATOM      3  C   UNL     1      19.356  23.401  26.898  1.00  0.00     0.053 C 
ATOM      4  C   UNL     1      20.725  23.117  26.258  1.00  0.00     0.016 C 
BRANCH   3   5
ATOM      5  C   UNL     1      18.191  23.128  25.915  1.00  0.00     0.015 C 
BRANCH   5   6
ATOM      6  C   UNL     1      16.814  22.743  26.500  1.00  0.00     0.028 C 
BRANCH   6   7
ATOM      7  C   UNL     1      16.796  22.042  27.840  1.00  0.00    -0.028 C 
ATOM      8  C   UNL     1      16.493  22.593  29.039  1.00  0.00    -0.070 CG0
ATOM      9  C   UNL     1      16.718  21.754  30.273  1.00  0.00     0.039 C 
ATOM     10  G   UNL     1      15.874  23.967  29.210  1.00  0.00     0.000 G0
ENDBRANCH   6   7
ENDBRANCH   5   6
ENDBRANCH   3   5
ENDBRANCH   1   3
BRANCH   1  11
ATOM     11  C   UNL     1      17.978  25.441  27.881  1.00  0.00     0.087 C 
BRANCH  11  12
ATOM     12  C   UNL     1      17.823  25.761  29.392  1.00  0.00     0.066 C 
BRANCH  12  13
ATOM     13  C   UNL     1      16.771  24.876  30.040  1.00  0.00     0.140 C 
ATOM     14  O   UNL     1      16.613  24.912  31.251  1.00  0.00    -0.299 OA
BRANCH  13  15
ATOM     15  C   UNL     1      15.872  23.983  29.211  1.00  0.00     0.106 CG0
ATOM     16  G   UNL     1      16.506  22.615  29.048  1.00  0.00     0.000 G0
ENDBRANCH  13  15
ENDBRANCH  12  13
BRANCH  12  17
ATOM     17  C   UNL     1      17.582  27.276  29.697  1.00  0.00    -0.006 C 
ATOM     18  C   UNL     1      16.117  27.732  29.561  1.00  0.00     0.008 C 
ATOM     19  C   UNL     1      18.480  28.173  28.831  1.00  0.00     0.008 C 
ENDBRANCH  12  17
ENDBRANCH  11  12
ENDBRANCH   1  11
TORSDOF 1
ENDMDL
MODEL 7
REMARK VINA RESULT:    -3.631     15.059     16.367
REMARK INTER + INTRA:          -5.497
REMARK INTER:                  -5.472
REMARK INTRA:                  -0.026
REMARK UNBOUND:                 0.044
REMARK SMILES CC1=CCC[C@@H](C)C(=O)C[C@@H](C(C)C)C(=O)C1
REMARK SMILES IDX 8 1 9 2 6 3 7 4 5 5 4 6 3 7 2 8 1 9 10 11 11 12 15 13 16 14
REMARK SMILES IDX 17 15 12 17 13 18 14 19
REMARK H PARENT
REMARK Flexibility Score: 70.00
ROOT
ATOM      1  C   UNL     1      19.092  24.589  27.254  1.00  0.00     0.136 C 
ATOM      2  O   UNL     1      20.308  24.508  27.352  1.00  0.00    -0.299 OA
ENDROOT
BRANCH   1   3
ATOM      3  C   UNL     1      18.312  23.484  26.561  1.00  0.00     0.053 C 
ATOM      4  C   UNL     1      17.118  24.030  25.762  1.00  0.00     0.016 C 
BRANCH   3   5
ATOM      5  C   UNL     1      17.896  22.335  27.511  1.00  0.00     0.015 C 
BRANCH   5   6
ATOM      6  C   UNL     1      16.453  22.328  28.065  1.00  0.00     0.028 C 
BRANCH   6   7
ATOM      7  C   UNL     1      16.280  22.430  29.563  1.00  0.00    -0.028 C 
ATOM      8  C   UNL     1      16.323  23.560  30.309  1.00  0.00    -0.070 CG0
ATOM      9  C   UNL     1      16.310  23.410  31.810  1.00  0.00     0.039 C 
ATOM     10  G   UNL     1      16.309  24.961  29.729  1.00  0.00     0.000 G0
ENDBRANCH   6   7
ENDBRANCH   5   6
ENDBRANCH   3   5
ENDBRANCH   1   3
BRANCH   1  11
ATOM     11  C   UNL     1      18.400  25.795  27.856  1.00  0.00     0.087 C 
BRANCH  11  12
ATOM     12  C   UNL     1      18.728  26.007  29.358  1.00  0.00     0.066 C 
BRANCH  12  13
ATOM     13  C   UNL     1      17.509  25.757  30.232  1.00  0.00     0.140 C 
ATOM     14  O   UNL     1      17.463  26.234  31.356  1.00  0.00    -0.299 OA
BRANCH  13  15
ATOM     15  C   UNL     1      16.322  24.969  29.722  1.00  0.00     0.106 CG0
ATOM     16  G   UNL     1      16.343  23.566  30.297  1.00  0.00     0.000 G0
ENDBRANCH  13  15
ENDBRANCH  12  13
BRANCH  12  17
ATOM     17  C   UNL     1      19.399  27.384  29.673  1.00  0.00    -0.006 C 
ATOM     18  C   UNL     1      18.779  28.584  28.934  1.00  0.00     0.008 C 
ATOM     19  C   UNL     1      20.913  27.344  29.405  1.00  0.00     0.008 C 
ENDBRANCH  12  17
ENDBRANCH  11  12
ENDBRANCH   1  11
TORSDOF 1
ENDMDL
MODEL 8
REMARK VINA RESULT:    -3.603     13.819     15.315
REMARK INTER + INTRA:          -5.455
REMARK INTER:                  -4.951
REMARK INTRA:                  -0.504
REMARK UNBOUND:                 0.044
REMARK SMILES CC1=CCC[C@@H](C)C(=O)C[C@@H](C(C)C)C(=O)C1
REMARK SMILES IDX 8 1 9 2 6 3 7 4 5 5 4 6 3 7 2 8 1 9 10 11 11 12 15 13 16 14
REMARK SMILES IDX 17 15 12 17 13 18 14 19
REMARK H PARENT
REMARK Flexibility Score: 70.00
ROOT
ATOM      1  C   UNL     1      19.089  29.196  29.537  1.00  0.00     0.136 C 
ATOM      2  O   UNL     1      18.510  30.261  29.380  1.00  0.00    -0.299 OA
ENDROOT
BRANCH   1   3
ATOM      3  C   UNL     1      19.777  28.896  30.859  1.00  0.00     0.053 C 
ATOM      4  C   UNL     1      18.911  29.291  32.066  1.00  0.00     0.016 C 
BRANCH   3   5
ATOM      5  C   UNL     1      21.206  29.480  30.957  1.00  0.00     0.015 C 
BRANCH   5   6
ATOM      6  C   UNL     1      22.177  29.244  29.779  1.00  0.00     0.028 C 
BRANCH   6   7
ATOM      7  C   UNL     1      22.938  27.937  29.753  1.00  0.00    -0.028 C 
ATOM      8  C   UNL     1      22.695  26.873  28.950  1.00  0.00    -0.070 CG0
ATOM      9  C   UNL     1      23.461  25.602  29.221  1.00  0.00     0.039 C 
ATOM     10  G   UNL     1      21.762  26.907  27.756  1.00  0.00     0.000 G0
ENDBRANCH   6   7
ENDBRANCH   5   6
ENDBRANCH   3   5
ENDBRANCH   1   3
BRANCH   1  11
ATOM     11  C   UNL     1      19.079  28.194  28.400  1.00  0.00     0.087 C 
BRANCH  11  12
ATOM     12  C   UNL     1      19.371  26.740  28.859  1.00  0.00     0.066 C 
BRANCH  12  13
ATOM     13  C   UNL     1      20.499  26.121  28.049  1.00  0.00     0.140 C 
ATOM     14  O   UNL     1      20.366  24.996  27.589  1.00  0.00    -0.299 OA
BRANCH  13  15
ATOM     15  C   UNL     1      21.770  26.887  27.753  1.00  0.00     0.106 CG0
ATOM     16  G   UNL     1      22.683  26.867  28.964  1.00  0.00     0.000 G0
ENDBRANCH  13  15
ENDBRANCH  12  13
BRANCH  12  17
ATOM     17  C   UNL     1      18.107  25.820  28.897  1.00  0.00    -0.006 C 
ATOM     18  C   UNL     1      17.015  26.188  27.876  1.00  0.00     0.008 C 
ATOM     19  C   UNL     1      17.493  25.769  30.306  1.00  0.00     0.008 C 
ENDBRANCH  12  17
ENDBRANCH  11  12
ENDBRANCH   1  11
TORSDOF 1
ENDMDL
MODEL 9
REMARK VINA RESULT:    -3.479     11.530     13.302
REMARK INTER + INTRA:          -5.266
REMARK INTER:                  -5.017
REMARK INTRA:                  -0.249
REMARK UNBOUND:                 0.044
REMARK SMILES CC1=CCC[C@@H](C)C(=O)C[C@@H](C(C)C)C(=O)C1
REMARK SMILES IDX 8 1 9 2 6 3 7 4 5 5 4 6 3 7 2 8 1 9 10 11 11 12 15 13 16 14
REMARK SMILES IDX 17 15 12 17 13 18 14 19
REMARK H PARENT
REMARK Flexibility Score: 70.00
ROOT
ATOM      1  C   UNL     1      28.598  29.152  27.554  1.00  0.00     0.136 C 
ATOM      2  O   UNL     1      29.342  28.260  27.172  1.00  0.00    -0.299 OA
ENDROOT
BRANCH   1   3
ATOM      3  C   UNL     1      27.177  28.822  27.979  1.00  0.00     0.053 C 
ATOM      4  C   UNL     1      26.171  29.890  27.520  1.00  0.00     0.016 C 
BRANCH   3   5
ATOM      5  C   UNL     1      27.042  28.512  29.490  1.00  0.00     0.015 C 
BRANCH   5   6
ATOM      6  C   UNL     1      26.098  29.394  30.338  1.00  0.00     0.028 C 
BRANCH   6   7
ATOM      7  C   UNL     1      26.720  30.231  31.433  1.00  0.00    -0.028 C 
ATOM      8  C   UNL     1      27.353  31.419  31.284  1.00  0.00    -0.070 CG0
ATOM      9  C   UNL     1      28.061  31.991  32.487  1.00  0.00     0.039 C 
ATOM     10  G   UNL     1      27.329  32.240  30.009  1.00  0.00     0.000 G0
ENDBRANCH   6   7
ENDBRANCH   5   6
ENDBRANCH   3   5
ENDBRANCH   1   3
BRANCH   1  11
ATOM     11  C   UNL     1      29.138  30.567  27.610  1.00  0.00     0.087 C 
BRANCH  11  12
ATOM     12  C   UNL     1      29.484  31.037  29.048  1.00  0.00     0.066 C 
BRANCH  12  13
ATOM     13  C   UNL     1      28.731  32.305  29.413  1.00  0.00     0.140 C 
ATOM     14  O   UNL     1      29.235  33.395  29.183  1.00  0.00    -0.299 OA
BRANCH  13  15
ATOM     15  C   UNL     1      27.341  32.253  30.011  1.00  0.00     0.106 CG0
ATOM     16  G   UNL     1      27.349  31.410  31.271  1.00  0.00     0.000 G0
ENDBRANCH  13  15
ENDBRANCH  12  13
BRANCH  12  17
ATOM     17  C   UNL     1      31.019  31.170  29.319  1.00  0.00    -0.006 C 
ATOM     18  C   UNL     1      31.905  30.255  28.455  1.00  0.00     0.008 C 
ATOM     19  C   UNL     1      31.348  30.947  30.805  1.00  0.00     0.008 C 
ENDBRANCH  12  17
ENDBRANCH  11  12
ENDBRANCH   1  11
TORSDOF 1
ENDMDL
