MODEL 1
REMARK VINA RESULT:    36.977      0.000      0.000
REMARK INTER + INTRA:          39.139
REMARK INTER:                  39.139
REMARK INTRA:                   0.000
REMARK UNBOUND:                 0.000
REMARK SMILES CC1(C)[C@@H](O)CC[C@]2(C)[C@H]3C=CC4=C(O)C(=O)C(=O)[C@@]4(C)[C@]3(C)CC[C@@H]12
REMARK SMILES IDX 1 1 2 2 26 3 25 4 24 5 22 6 10 7 8 8 7 9 6 10 4 11 9 12
REMARK SMILES IDX 11 13 12 14 13 15 14 16 16 17 17 18 18 19 19 20 20 21 21 22
REMARK SMILES IDX 23 23 3 24 5 25 15 27
REMARK H PARENT 5 26 15 28
REMARK Flexibility Score: inf
ROOT
ATOM      1  C   UNL     1       5.278  14.614  16.505  1.00  0.00     0.014 C 
ATOM      2  C   UNL     1       4.274  15.144  15.441  1.00  0.00    -0.006 C 
ATOM      3  C   UNL     1       4.194  16.723  15.519  1.00  0.00     0.004 C 
ATOM      4  C   UNL     1       3.801  17.294  16.908  1.00  0.00     0.005 C 
ATOM      5  C   UNL     1       4.111  18.799  16.995  1.00  0.00     0.009 C 
ATOM      6  C   UNL     1       3.407  19.640  15.894  1.00  0.00    -0.009 C 
ATOM      7  C   UNL     1       3.688  18.992  14.473  1.00  0.00     0.025 C 
ATOM      8  C   UNL     1       3.416  17.435  14.342  1.00  0.00    -0.022 C 
ATOM      9  C   UNL     1       4.035  16.923  12.999  1.00  0.00     0.010 C 
ATOM     10  C   UNL     1       4.083  15.393  12.877  1.00  0.00     0.033 C 
ATOM     11  C   UNL     1       4.842  14.742  14.042  1.00  0.00     0.120 C 
ATOM     12  C   UNL     1       1.881  17.148  14.329  1.00  0.00     0.012 C 
ATOM     13  C   UNL     1       3.109  19.842  13.340  1.00  0.00    -0.022 C 
ATOM     14  C   UNL     1       3.012  21.176  13.428  1.00  0.00     0.005 C 
ATOM     15  C   UNL     1       3.287  21.855  14.705  1.00  0.00     0.012 C 
ATOM     16  C   UNL     1       2.696  22.988  15.081  1.00  0.00     0.171 C 
ATOM     17  C   UNL     1       2.840  23.166  16.510  1.00  0.00     0.264 C 
ATOM     18  O   UNL     1       2.393  24.124  17.193  1.00  0.00    -0.282 OA
ATOM     19  C   UNL     1       3.548  22.009  17.017  1.00  0.00     0.217 C 
ATOM     20  O   UNL     1       3.826  21.807  18.228  1.00  0.00    -0.289 OA
ATOM     21  C   UNL     1       3.963  21.135  15.859  1.00  0.00     0.069 C 
ATOM     22  C   UNL     1       5.499  21.290  15.697  1.00  0.00     0.026 C 
ATOM     23  C   UNL     1       1.876  19.688  16.221  1.00  0.00     0.013 C 
ATOM     24  C   UNL     1       2.917  14.448  15.712  1.00  0.00     0.014 C 
ENDROOT
BRANCH  11  25
ATOM     25  O   UNL     1       4.818  13.343  13.886  1.00  0.00    -0.393 OA
ATOM     26  H   UNL     1       4.378  13.156  13.016  1.00  0.00     0.210 HD
ENDBRANCH  11  25
BRANCH  16  27
ATOM     27  O   UNL     1       1.963  23.819  14.238  1.00  0.00    -0.504 OA
ATOM     28  H   UNL     1       2.232  23.944  13.271  1.00  0.00     0.293 HD
ENDBRANCH  16  27
TORSDOF 2
ENDMDL
