MODEL 1
REMARK VINA RESULT:    -4.042      0.000      0.000
REMARK INTER + INTRA:          -8.622
REMARK INTER:                  -6.995
REMARK INTRA:                  -1.626
REMARK UNBOUND:                -1.626
REMARK SMILES CCCCCCCCCCCCCCO
REMARK SMILES IDX 8 1 7 2 6 3 5 4 4 5 3 6 2 7 1 8 9 9 10 10 11 11 12 12 13 13
REMARK SMILES IDX 14 14 15 15
REMARK H PARENT 15 16
REMARK Flexibility Score: inf
ROOT
ATOM      1  C   UNL     1     175.215 174.103 182.397  1.00  0.00     0.000 C 
ENDROOT
BRANCH   1   2
ATOM      2  C   UNL     1     173.889 174.857 182.605  1.00  0.00    -0.000 C 
BRANCH   2   3
ATOM      3  C   UNL     1     173.220 175.265 181.281  1.00  0.00    -0.000 C 
BRANCH   3   4
ATOM      4  C   UNL     1     172.929 176.772 181.206  1.00  0.00    -0.000 C 
BRANCH   4   5
ATOM      5  C   UNL     1     172.866 177.437 182.592  1.00  0.00    -0.000 C 
BRANCH   5   6
ATOM      6  C   UNL     1     171.483 178.063 182.875  1.00  0.00    -0.000 C 
BRANCH   6   7
ATOM      7  C   UNL     1     170.418 177.036 183.293  1.00  0.00    -0.003 C 
ATOM      8  C   UNL     1     169.223 176.993 182.343  1.00  0.00     0.004 C 
ENDBRANCH   6   7
ENDBRANCH   5   6
ENDBRANCH   4   5
ENDBRANCH   3   4
ENDBRANCH   2   3
ENDBRANCH   1   2
BRANCH   1   9
ATOM      9  C   UNL     1     176.489 174.896 182.758  1.00  0.00     0.000 C 
BRANCH   9  10
ATOM     10  C   UNL     1     176.260 176.363 183.165  1.00  0.00     0.000 C 
BRANCH  10  11
ATOM     11  C   UNL     1     176.798 177.362 182.128  1.00  0.00     0.000 C 
BRANCH  11  12
ATOM     12  C   UNL     1     177.150 176.697 180.787  1.00  0.00     0.002 C 
BRANCH  12  13
ATOM     13  C   UNL     1     176.178 177.056 179.643  1.00  0.00     0.028 C 
BRANCH  13  14
ATOM     14  C   UNL     1     176.315 176.112 178.447  1.00  0.00     0.156 C 
BRANCH  14  15
ATOM     15  O   UNL     1     177.185 175.065 178.775  1.00  0.00    -0.396 OA
ATOM     16  H   UNL     1     178.080 175.477 178.894  1.00  0.00     0.210 HD
ENDBRANCH  14  15
ENDBRANCH  13  14
ENDBRANCH  12  13
ENDBRANCH  11  12
ENDBRANCH  10  11
ENDBRANCH   9  10
ENDBRANCH   1   9
TORSDOF 13
ENDMDL
MODEL 2
REMARK VINA RESULT:    -3.914      2.546      5.800
REMARK INTER + INTRA:          -8.400
REMARK INTER:                  -6.839
REMARK INTRA:                  -1.561
REMARK UNBOUND:                -1.626
REMARK SMILES CCCCCCCCCCCCCCO
REMARK SMILES IDX 8 1 7 2 6 3 5 4 4 5 3 6 2 7 1 8 9 9 10 10 11 11 12 12 13 13
REMARK SMILES IDX 14 14 15 15
REMARK H PARENT 15 16
REMARK Flexibility Score: inf
ROOT
ATOM      1  C   UNL     1     173.444 176.962 179.959  1.00  0.00     0.000 C 
ENDROOT
BRANCH   1   2
ATOM      2  C   UNL     1     174.819 176.635 179.349  1.00  0.00    -0.000 C 
BRANCH   2   3
ATOM      3  C   UNL     1     175.918 177.614 179.795  1.00  0.00    -0.000 C 
BRANCH   3   4
ATOM      4  C   UNL     1     176.998 176.940 180.655  1.00  0.00    -0.000 C 
BRANCH   4   5
ATOM      5  C   UNL     1     176.885 177.302 182.146  1.00  0.00    -0.000 C 
BRANCH   5   6
ATOM      6  C   UNL     1     176.530 176.078 183.017  1.00  0.00    -0.000 C 
BRANCH   6   7
ATOM      7  C   UNL     1     176.867 174.733 182.352  1.00  0.00    -0.003 C 
ATOM      8  C   UNL     1     175.664 173.799 182.244  1.00  0.00     0.004 C 
ENDBRANCH   6   7
ENDBRANCH   5   6
ENDBRANCH   4   5
ENDBRANCH   3   4
ENDBRANCH   2   3
ENDBRANCH   1   2
BRANCH   1   9
ATOM      9  C   UNL     1     173.158 176.313 181.330  1.00  0.00     0.000 C 
BRANCH   9  10
ATOM     10  C   UNL     1     173.089 177.287 182.520  1.00  0.00     0.000 C 
BRANCH  10  11
ATOM     11  C   UNL     1     171.695 177.908 182.705  1.00  0.00     0.000 C 
BRANCH  11  12
ATOM     12  C   UNL     1     170.642 176.883 183.159  1.00  0.00     0.002 C 
BRANCH  12  13
ATOM     13  C   UNL     1     169.310 176.979 182.385  1.00  0.00     0.028 C 
BRANCH  13  14
ATOM     14  C   UNL     1     169.524 177.140 180.878  1.00  0.00     0.156 C 
BRANCH  14  15
ATOM     15  O   UNL     1     168.418 177.789 180.317  1.00  0.00    -0.396 OA
ATOM     16  H   UNL     1     167.841 178.061 181.077  1.00  0.00     0.210 HD
ENDBRANCH  14  15
ENDBRANCH  13  14
ENDBRANCH  12  13
ENDBRANCH  11  12
ENDBRANCH  10  11
ENDBRANCH   9  10
ENDBRANCH   1   9
TORSDOF 13
ENDMDL
MODEL 3
REMARK VINA RESULT:    -3.884      2.659      5.747
REMARK INTER + INTRA:          -8.348
REMARK INTER:                  -6.488
REMARK INTRA:                  -1.860
REMARK UNBOUND:                -1.626
REMARK SMILES CCCCCCCCCCCCCCO
REMARK SMILES IDX 8 1 7 2 6 3 5 4 4 5 3 6 2 7 1 8 9 9 10 10 11 11 12 12 13 13
REMARK SMILES IDX 14 14 15 15
REMARK H PARENT 15 16
REMARK Flexibility Score: inf
ROOT
ATOM      1  C   UNL     1     175.536 177.361 179.875  1.00  0.00     0.000 C 
ENDROOT
BRANCH   1   2
ATOM      2  C   UNL     1     177.009 177.314 180.324  1.00  0.00    -0.000 C 
BRANCH   2   3
ATOM      3  C   UNL     1     177.191 177.669 181.809  1.00  0.00    -0.000 C 
BRANCH   3   4
ATOM      4  C   UNL     1     176.105 177.052 182.704  1.00  0.00    -0.000 C 
BRANCH   4   5
ATOM      5  C   UNL     1     176.484 175.653 183.223  1.00  0.00    -0.000 C 
BRANCH   5   6
ATOM      6  C   UNL     1     175.414 174.595 182.877  1.00  0.00    -0.000 C 
BRANCH   6   7
ATOM      7  C   UNL     1     175.931 173.477 181.956  1.00  0.00    -0.003 C 
ATOM      8  C   UNL     1     177.422 173.597 181.647  1.00  0.00     0.004 C 
ENDBRANCH   6   7
ENDBRANCH   5   6
ENDBRANCH   4   5
ENDBRANCH   3   4
ENDBRANCH   2   3
ENDBRANCH   1   2
BRANCH   1   9
ATOM      9  C   UNL     1     174.942 176.013 179.415  1.00  0.00     0.000 C 
BRANCH   9  10
ATOM     10  C   UNL     1     173.485 175.755 179.841  1.00  0.00     0.000 C 
BRANCH  10  11
ATOM     11  C   UNL     1     172.858 176.948 180.580  1.00  0.00     0.000 C 
BRANCH  11  12
ATOM     12  C   UNL     1     172.568 176.645 182.060  1.00  0.00     0.002 C 
BRANCH  12  13
ATOM     13  C   UNL     1     171.717 177.726 182.759  1.00  0.00     0.028 C 
BRANCH  13  14
ATOM     14  C   UNL     1     170.310 177.229 183.098  1.00  0.00     0.156 C 
BRANCH  14  15
ATOM     15  O   UNL     1     169.898 177.788 184.313  1.00  0.00    -0.396 OA
ATOM     16  H   UNL     1     170.704 177.816 184.892  1.00  0.00     0.210 HD
ENDBRANCH  14  15
ENDBRANCH  13  14
ENDBRANCH  12  13
ENDBRANCH  11  12
ENDBRANCH  10  11
ENDBRANCH   9  10
ENDBRANCH   1   9
TORSDOF 13
ENDMDL
MODEL 4
REMARK VINA RESULT:    -3.878      1.032      1.546
REMARK INTER + INTRA:          -8.338
REMARK INTER:                  -6.821
REMARK INTRA:                  -1.518
REMARK UNBOUND:                -1.626
REMARK SMILES CCCCCCCCCCCCCCO
REMARK SMILES IDX 8 1 7 2 6 3 5 4 4 5 3 6 2 7 1 8 9 9 10 10 11 11 12 12 13 13
REMARK SMILES IDX 14 14 15 15
REMARK H PARENT 15 16
REMARK Flexibility Score: inf
ROOT
ATOM      1  C   UNL     1     173.585 174.968 182.714  1.00  0.00     0.000 C 
ENDROOT
BRANCH   1   2
ATOM      2  C   UNL     1     173.266 175.567 181.331  1.00  0.00    -0.000 C 
BRANCH   2   3
ATOM      3  C   UNL     1     173.192 177.103 181.349  1.00  0.00    -0.000 C 
BRANCH   3   4
ATOM      4  C   UNL     1     172.302 177.639 182.481  1.00  0.00    -0.000 C 
BRANCH   4   5
ATOM      5  C   UNL     1     170.806 177.363 182.246  1.00  0.00    -0.000 C 
BRANCH   5   6
ATOM      6  C   UNL     1     170.101 176.856 183.522  1.00  0.00    -0.000 C 
BRANCH   6   7
ATOM      7  C   UNL     1     170.015 175.323 183.609  1.00  0.00    -0.003 C 
ATOM      8  C   UNL     1     169.815 174.657 182.250  1.00  0.00     0.004 C 
ENDBRANCH   6   7
ENDBRANCH   5   6
ENDBRANCH   4   5
ENDBRANCH   3   4
ENDBRANCH   2   3
ENDBRANCH   1   2
BRANCH   1   9
ATOM      9  C   UNL     1     175.067 174.609 182.951  1.00  0.00     0.000 C 
BRANCH   9  10
ATOM     10  C   UNL     1     175.992 175.800 183.262  1.00  0.00     0.000 C 
BRANCH  10  11
ATOM     11  C   UNL     1     177.019 176.065 182.149  1.00  0.00     0.000 C 
BRANCH  11  12
ATOM     12  C   UNL     1     176.695 177.324 181.328  1.00  0.00     0.002 C 
BRANCH  12  13
ATOM     13  C   UNL     1     177.008 177.179 179.823  1.00  0.00     0.028 C 
BRANCH  13  14
ATOM     14  C   UNL     1     176.292 175.981 179.194  1.00  0.00     0.156 C 
BRANCH  14  15
ATOM     15  O   UNL     1     177.239 175.084 178.687  1.00  0.00    -0.396 OA
ATOM     16  H   UNL     1     176.752 174.496 178.053  1.00  0.00     0.210 HD
ENDBRANCH  14  15
ENDBRANCH  13  14
ENDBRANCH  12  13
ENDBRANCH  11  12
ENDBRANCH  10  11
ENDBRANCH   9  10
ENDBRANCH   1   9
TORSDOF 13
ENDMDL
MODEL 5
REMARK VINA RESULT:    -3.857      1.703      3.531
REMARK INTER + INTRA:          -8.302
REMARK INTER:                  -6.501
REMARK INTRA:                  -1.801
REMARK UNBOUND:                -1.626
REMARK SMILES CCCCCCCCCCCCCCO
REMARK SMILES IDX 8 1 7 2 6 3 5 4 4 5 3 6 2 7 1 8 9 9 10 10 11 11 12 12 13 13
REMARK SMILES IDX 14 14 15 15
REMARK H PARENT 15 16
REMARK Flexibility Score: inf
ROOT
ATOM      1  C   UNL     1     176.856 177.535 181.918  1.00  0.00     0.000 C 
ENDROOT
BRANCH   1   2
ATOM      2  C   UNL     1     177.035 176.727 180.620  1.00  0.00    -0.000 C 
BRANCH   2   3
ATOM      3  C   UNL     1     176.095 177.191 179.494  1.00  0.00    -0.000 C 
BRANCH   3   4
ATOM      4  C   UNL     1     174.899 176.246 179.295  1.00  0.00    -0.000 C 
BRANCH   4   5
ATOM      5  C   UNL     1     173.546 176.938 179.538  1.00  0.00    -0.000 C 
BRANCH   5   6
ATOM      6  C   UNL     1     172.884 176.473 180.853  1.00  0.00    -0.000 C 
BRANCH   6   7
ATOM      7  C   UNL     1     173.093 177.448 182.025  1.00  0.00    -0.003 C 
ATOM      8  C   UNL     1     171.812 177.728 182.807  1.00  0.00     0.004 C 
ENDBRANCH   6   7
ENDBRANCH   5   6
ENDBRANCH   4   5
ENDBRANCH   3   4
ENDBRANCH   2   3
ENDBRANCH   1   2
BRANCH   1   9
ATOM      9  C   UNL     1     176.527 176.701 183.175  1.00  0.00     0.000 C 
BRANCH   9  10
ATOM     10  C   UNL     1     176.576 175.174 182.984  1.00  0.00     0.000 C 
BRANCH  10  11
ATOM     11  C   UNL     1     175.180 174.533 182.931  1.00  0.00     0.000 C 
BRANCH  11  12
ATOM     12  C   UNL     1     175.100 173.365 181.933  1.00  0.00     0.002 C 
BRANCH  12  13
ATOM     13  C   UNL     1     176.479 172.860 181.458  1.00  0.00     0.028 C 
BRANCH  13  14
ATOM     14  C   UNL     1     176.363 171.774 180.387  1.00  0.00     0.156 C 
BRANCH  14  15
ATOM     15  O   UNL     1     177.436 170.883 180.506  1.00  0.00    -0.396 OA
ATOM     16  H   UNL     1     177.353 170.468 181.405  1.00  0.00     0.210 HD
ENDBRANCH  14  15
ENDBRANCH  13  14
ENDBRANCH  12  13
ENDBRANCH  11  12
ENDBRANCH  10  11
ENDBRANCH   9  10
ENDBRANCH   1   9
TORSDOF 13
ENDMDL
MODEL 6
REMARK VINA RESULT:    -3.833      2.369      5.808
REMARK INTER + INTRA:          -8.261
REMARK INTER:                  -7.033
REMARK INTRA:                  -1.227
REMARK UNBOUND:                -1.626
REMARK SMILES CCCCCCCCCCCCCCO
REMARK SMILES IDX 8 1 7 2 6 3 5 4 4 5 3 6 2 7 1 8 9 9 10 10 11 11 12 12 13 13
REMARK SMILES IDX 14 14 15 15
REMARK H PARENT 15 16
REMARK Flexibility Score: inf
ROOT
ATOM      1  C   UNL     1     173.516 175.798 182.444  1.00  0.00     0.000 C 
ENDROOT
BRANCH   1   2
ATOM      2  C   UNL     1     174.868 175.208 182.887  1.00  0.00    -0.000 C 
BRANCH   2   3
ATOM      3  C   UNL     1     175.929 176.287 183.162  1.00  0.00    -0.000 C 
BRANCH   3   4
ATOM      4  C   UNL     1     176.996 176.363 182.060  1.00  0.00    -0.000 C 
BRANCH   4   5
ATOM      5  C   UNL     1     177.347 177.810 181.668  1.00  0.00    -0.000 C 
BRANCH   5   6
ATOM      6  C   UNL     1     176.970 178.123 180.204  1.00  0.00    -0.000 C 
BRANCH   6   7
ATOM      7  C   UNL     1     176.245 176.967 179.495  1.00  0.00    -0.003 C 
ATOM      8  C   UNL     1     174.818 177.319 179.081  1.00  0.00     0.004 C 
ENDBRANCH   6   7
ENDBRANCH   5   6
ENDBRANCH   4   5
ENDBRANCH   3   4
ENDBRANCH   2   3
ENDBRANCH   1   2
BRANCH   1   9
ATOM      9  C   UNL     1     173.399 177.333 182.553  1.00  0.00     0.000 C 
BRANCH   9  10
ATOM     10  C   UNL     1     171.980 177.868 182.818  1.00  0.00     0.000 C 
BRANCH  10  11
ATOM     11  C   UNL     1     170.934 176.749 182.957  1.00  0.00     0.000 C 
BRANCH  11  12
ATOM     12  C   UNL     1     169.503 177.289 183.112  1.00  0.00     0.002 C 
BRANCH  12  13
ATOM     13  C   UNL     1     168.589 176.977 181.908  1.00  0.00     0.028 C 
BRANCH  13  14
ATOM     14  C   UNL     1     169.375 176.841 180.602  1.00  0.00     0.156 C 
BRANCH  14  15
ATOM     15  O   UNL     1     169.558 178.107 180.033  1.00  0.00    -0.396 OA
ATOM     16  H   UNL     1     168.650 178.457 179.839  1.00  0.00     0.210 HD
ENDBRANCH  14  15
ENDBRANCH  13  14
ENDBRANCH  12  13
ENDBRANCH  11  12
ENDBRANCH  10  11
ENDBRANCH   9  10
ENDBRANCH   1   9
TORSDOF 13
ENDMDL
MODEL 7
REMARK VINA RESULT:    -3.833      2.535      5.041
REMARK INTER + INTRA:          -8.260
REMARK INTER:                  -6.587
REMARK INTRA:                  -1.673
REMARK UNBOUND:                -1.626
REMARK SMILES CCCCCCCCCCCCCCO
REMARK SMILES IDX 8 1 7 2 6 3 5 4 4 5 3 6 2 7 1 8 9 9 10 10 11 11 12 12 13 13
REMARK SMILES IDX 14 14 15 15
REMARK H PARENT 15 16
REMARK Flexibility Score: inf
ROOT
ATOM      1  C   UNL     1     175.402 174.111 182.076  1.00  0.00     0.000 C 
ENDROOT
BRANCH   1   2
ATOM      2  C   UNL     1     176.747 174.846 182.228  1.00  0.00    -0.000 C 
BRANCH   2   3
ATOM      3  C   UNL     1     176.626 176.151 183.033  1.00  0.00    -0.000 C 
BRANCH   3   4
ATOM      4  C   UNL     1     176.916 177.399 182.184  1.00  0.00    -0.000 C 
BRANCH   4   5
ATOM      5  C   UNL     1     177.067 177.079 180.686  1.00  0.00    -0.000 C 
BRANCH   5   6
ATOM      6  C   UNL     1     175.937 177.707 179.841  1.00  0.00    -0.000 C 
BRANCH   6   7
ATOM      7  C   UNL     1     175.038 176.669 179.148  1.00  0.00    -0.003 C 
ATOM      8  C   UNL     1     173.786 177.282 178.525  1.00  0.00     0.004 C 
ENDBRANCH   6   7
ENDBRANCH   5   6
ENDBRANCH   4   5
ENDBRANCH   3   4
ENDBRANCH   2   3
ENDBRANCH   1   2
BRANCH   1   9
ATOM      9  C   UNL     1     174.259 174.634 182.972  1.00  0.00     0.000 C 
BRANCH   9  10
ATOM     10  C   UNL     1     173.115 175.349 182.231  1.00  0.00     0.000 C 
BRANCH  10  11
ATOM     11  C   UNL     1     173.204 176.881 182.328  1.00  0.00     0.000 C 
BRANCH  11  12
ATOM     12  C   UNL     1     171.824 177.553 182.411  1.00  0.00     0.002 C 
BRANCH  12  13
ATOM     13  C   UNL     1     171.187 177.834 181.033  1.00  0.00     0.028 C 
BRANCH  13  14
ATOM     14  C   UNL     1     169.863 177.092 180.842  1.00  0.00     0.156 C 
BRANCH  14  15
ATOM     15  O   UNL     1     168.956 177.919 180.169  1.00  0.00    -0.396 OA
ATOM     16  H   UNL     1     168.704 178.633 180.810  1.00  0.00     0.210 HD
ENDBRANCH  14  15
ENDBRANCH  13  14
ENDBRANCH  12  13
ENDBRANCH  11  12
ENDBRANCH  10  11
ENDBRANCH   9  10
ENDBRANCH   1   9
TORSDOF 13
ENDMDL
MODEL 8
REMARK VINA RESULT:    -3.761      1.997      4.439
REMARK INTER + INTRA:          -8.135
REMARK INTER:                  -6.665
REMARK INTRA:                  -1.471
REMARK UNBOUND:                -1.626
REMARK SMILES CCCCCCCCCCCCCCO
REMARK SMILES IDX 8 1 7 2 6 3 5 4 4 5 3 6 2 7 1 8 9 9 10 10 11 11 12 12 13 13
REMARK SMILES IDX 14 14 15 15
REMARK H PARENT 15 16
REMARK Flexibility Score: inf
ROOT
ATOM      1  C   UNL     1     174.375 176.714 182.645  1.00  0.00     0.000 C 
ENDROOT
BRANCH   1   2
ATOM      2  C   UNL     1     173.588 175.567 181.985  1.00  0.00    -0.000 C 
BRANCH   2   3
ATOM      3  C   UNL     1     173.501 174.315 182.873  1.00  0.00    -0.000 C 
BRANCH   3   4
ATOM      4  C   UNL     1     173.936 173.037 182.139  1.00  0.00    -0.000 C 
BRANCH   4   5
ATOM      5  C   UNL     1     175.039 173.294 181.097  1.00  0.00    -0.000 C 
BRANCH   5   6
ATOM      6  C   UNL     1     176.397 172.699 181.530  1.00  0.00    -0.000 C 
BRANCH   6   7
ATOM      7  C   UNL     1     176.689 171.321 180.912  1.00  0.00    -0.003 C 
ATOM      8  C   UNL     1     176.862 170.222 181.958  1.00  0.00     0.004 C 
ENDBRANCH   6   7
ENDBRANCH   5   6
ENDBRANCH   4   5
ENDBRANCH   3   4
ENDBRANCH   2   3
ENDBRANCH   1   2
BRANCH   1   9
ATOM      9  C   UNL     1     175.765 176.331 183.194  1.00  0.00     0.000 C 
BRANCH   9  10
ATOM     10  C   UNL     1     176.910 176.356 182.165  1.00  0.00     0.000 C 
BRANCH  10  11
ATOM     11  C   UNL     1     177.219 177.769 181.647  1.00  0.00     0.000 C 
BRANCH  11  12
ATOM     12  C   UNL     1     177.206 177.856 180.111  1.00  0.00     0.002 C 
BRANCH  12  13
ATOM     13  C   UNL     1     176.121 176.979 179.450  1.00  0.00     0.028 C 
BRANCH  13  14
ATOM     14  C   UNL     1     176.685 176.104 178.329  1.00  0.00     0.156 C 
BRANCH  14  15
ATOM     15  O   UNL     1     177.309 174.980 178.882  1.00  0.00    -0.396 OA
ATOM     16  H   UNL     1     176.988 174.200 178.359  1.00  0.00     0.210 HD
ENDBRANCH  14  15
ENDBRANCH  13  14
ENDBRANCH  12  13
ENDBRANCH  11  12
ENDBRANCH  10  11
ENDBRANCH   9  10
ENDBRANCH   1   9
TORSDOF 13
ENDMDL
MODEL 9
REMARK VINA RESULT:    -3.712      1.995      2.790
REMARK INTER + INTRA:          -8.051
REMARK INTER:                  -6.476
REMARK INTRA:                  -1.575
REMARK UNBOUND:                -1.626
REMARK SMILES CCCCCCCCCCCCCCO
REMARK SMILES IDX 8 1 7 2 6 3 5 4 4 5 3 6 2 7 1 8 9 9 10 10 11 11 12 12 13 13
REMARK SMILES IDX 14 14 15 15
REMARK H PARENT 15 16
REMARK Flexibility Score: inf
ROOT
ATOM      1  C   UNL     1     177.004 176.346 182.213  1.00  0.00     0.000 C 
ENDROOT
BRANCH   1   2
ATOM      2  C   UNL     1     175.856 176.230 183.233  1.00  0.00    -0.000 C 
BRANCH   2   3
ATOM      3  C   UNL     1     174.827 175.152 182.852  1.00  0.00    -0.000 C 
BRANCH   3   4
ATOM      4  C   UNL     1     173.542 175.745 182.253  1.00  0.00    -0.000 C 
BRANCH   4   5
ATOM      5  C   UNL     1     173.424 177.263 182.479  1.00  0.00    -0.000 C 
BRANCH   5   6
ATOM      6  C   UNL     1     171.956 177.716 182.628  1.00  0.00    -0.000 C 
BRANCH   6   7
ATOM      7  C   UNL     1     170.967 176.550 182.794  1.00  0.00    -0.003 C 
ATOM      8  C   UNL     1     169.508 177.001 182.822  1.00  0.00     0.004 C 
ENDBRANCH   6   7
ENDBRANCH   5   6
ENDBRANCH   4   5
ENDBRANCH   3   4
ENDBRANCH   2   3
ENDBRANCH   1   2
BRANCH   1   9
ATOM      9  C   UNL     1     177.130 177.716 181.514  1.00  0.00     0.000 C 
BRANCH   9  10
ATOM     10  C   UNL     1     177.016 177.685 179.978  1.00  0.00     0.000 C 
BRANCH  10  11
ATOM     11  C   UNL     1     175.561 177.612 179.488  1.00  0.00     0.000 C 
BRANCH  11  12
ATOM     12  C   UNL     1     175.193 176.231 178.919  1.00  0.00     0.002 C 
BRANCH  12  13
ATOM     13  C   UNL     1     173.689 176.068 178.614  1.00  0.00     0.028 C 
BRANCH  13  14
ATOM     14  C   UNL     1     173.047 177.374 178.142  1.00  0.00     0.156 C 
BRANCH  14  15
ATOM     15  O   UNL     1     172.029 177.742 179.030  1.00  0.00    -0.396 OA
ATOM     16  H   UNL     1     172.469 177.900 179.905  1.00  0.00     0.210 HD
ENDBRANCH  14  15
ENDBRANCH  13  14
ENDBRANCH  12  13
ENDBRANCH  11  12
ENDBRANCH  10  11
ENDBRANCH   9  10
ENDBRANCH   1   9
TORSDOF 13
ENDMDL
