MODEL 1
REMARK VINA RESULT:    -3.441      0.000      0.000
REMARK INTER + INTRA:          -4.083
REMARK INTER:                  -4.044
REMARK INTRA:                  -0.038
REMARK UNBOUND:                -0.038
REMARK SMILES O=C([O-])CCC(=O)[O-]
REMARK SMILES IDX 4 1 2 2 1 3 3 4 5 5 6 6 7 7 8 8
REMARK H PARENT
REMARK Flexibility Score: inf
ROOT
ATOM      1  C   UNL     1      -2.928   9.827  -0.568  1.00  0.00     0.059 C 
ENDROOT
BRANCH   1   2
ATOM      2  C   UNL     1      -2.653   9.998  -2.032  1.00  0.00     0.042 C 
ATOM      3  O   UNL     1      -3.098   9.160  -2.861  1.00  0.00    -0.550 OA
ATOM      4  O   UNL     1      -1.872  11.057  -2.475  1.00  0.00    -0.550 OA
ENDBRANCH   1   2
BRANCH   1   5
ATOM      5  C   UNL     1      -1.843  10.488   0.291  1.00  0.00     0.059 C 
BRANCH   5   6
ATOM      6  C   UNL     1      -1.593   9.717   1.551  1.00  0.00     0.042 C 
ATOM      7  O   UNL     1      -1.822  10.243   2.672  1.00  0.00    -0.550 OA
ATOM      8  O   UNL     1      -1.145   8.403   1.485  1.00  0.00    -0.550 OA
ENDBRANCH   5   6
ENDBRANCH   1   5
TORSDOF 3
ENDMDL
MODEL 2
REMARK VINA RESULT:    -2.891      4.588      6.174
REMARK INTER + INTRA:          -3.436
REMARK INTER:                  -3.316
REMARK INTRA:                  -0.121
REMARK UNBOUND:                -0.038
REMARK SMILES O=C([O-])CCC(=O)[O-]
REMARK SMILES IDX 4 1 2 2 1 3 3 4 5 5 6 6 7 7 8 8
REMARK H PARENT
REMARK Flexibility Score: inf
ROOT
ATOM      1  C   UNL     1       2.404   7.159   3.174  1.00  0.00     0.059 C 
ENDROOT
BRANCH   1   2
ATOM      2  C   UNL     1       3.309   8.074   2.407  1.00  0.00     0.042 C 
ATOM      3  O   UNL     1       2.826   8.919   1.608  1.00  0.00    -0.550 OA
ATOM      4  O   UNL     1       4.687   7.966   2.544  1.00  0.00    -0.550 OA
ENDBRANCH   1   2
BRANCH   1   5
ATOM      5  C   UNL     1       1.479   6.369   2.241  1.00  0.00     0.059 C 
BRANCH   5   6
ATOM      6  C   UNL     1       0.047   6.774   2.412  1.00  0.00     0.042 C 
ATOM      7  O   UNL     1      -0.735   6.066   3.100  1.00  0.00    -0.550 OA
ATOM      8  O   UNL     1      -0.414   7.957   1.846  1.00  0.00    -0.550 OA
ENDBRANCH   5   6
ENDBRANCH   1   5
TORSDOF 3
ENDMDL
MODEL 3
REMARK VINA RESULT:    -2.874      7.109      8.417
REMARK INTER + INTRA:          -3.416
REMARK INTER:                  -3.307
REMARK INTRA:                  -0.109
REMARK UNBOUND:                -0.038
REMARK SMILES O=C([O-])CCC(=O)[O-]
REMARK SMILES IDX 4 1 2 2 1 3 3 4 5 5 6 6 7 7 8 8
REMARK H PARENT
REMARK Flexibility Score: inf
ROOT
ATOM      1  C   UNL     1       4.288   9.802   3.566  1.00  0.00     0.059 C 
ENDROOT
BRANCH   1   2
ATOM      2  C   UNL     1       3.994   8.645   2.659  1.00  0.00     0.042 C 
ATOM      3  O   UNL     1       4.727   7.621   2.681  1.00  0.00    -0.550 OA
ATOM      4  O   UNL     1       2.936   8.715   1.762  1.00  0.00    -0.550 OA
ENDBRANCH   1   2
BRANCH   1   5
ATOM      5  C   UNL     1       5.200  10.832   2.889  1.00  0.00     0.059 C 
BRANCH   5   6
ATOM      6  C   UNL     1       6.648  10.523   3.121  1.00  0.00     0.042 C 
ATOM      7  O   UNL     1       7.069  10.297   4.285  1.00  0.00    -0.550 OA
ATOM      8  O   UNL     1       7.523  10.445   2.044  1.00  0.00    -0.550 OA
ENDBRANCH   5   6
ENDBRANCH   1   5
TORSDOF 3
ENDMDL
MODEL 4
REMARK VINA RESULT:    -2.844      4.739      6.086
REMARK INTER + INTRA:          -3.381
REMARK INTER:                  -3.265
REMARK INTRA:                  -0.116
REMARK UNBOUND:                -0.038
REMARK SMILES O=C([O-])CCC(=O)[O-]
REMARK SMILES IDX 4 1 2 2 1 3 3 4 5 5 6 6 7 7 8 8
REMARK H PARENT
REMARK Flexibility Score: inf
ROOT
ATOM      1  C   UNL     1       1.686   6.285   2.345  1.00  0.00     0.059 C 
ENDROOT
BRANCH   1   2
ATOM      2  C   UNL     1       0.235   6.656   2.410  1.00  0.00     0.042 C 
ATOM      3  O   UNL     1      -0.598   5.866   2.929  1.00  0.00    -0.550 OA
ATOM      4  O   UNL     1      -0.203   7.854   1.861  1.00  0.00    -0.550 OA
ENDBRANCH   1   2
BRANCH   1   5
ATOM      5  C   UNL     1       2.536   7.169   3.265  1.00  0.00     0.059 C 
BRANCH   5   6
ATOM      6  C   UNL     1       3.438   8.072   2.482  1.00  0.00     0.042 C 
ATOM      7  O   UNL     1       4.688   7.950   2.567  1.00  0.00    -0.550 OA
ATOM      8  O   UNL     1       2.896   9.024   1.625  1.00  0.00    -0.550 OA
ENDBRANCH   5   6
ENDBRANCH   1   5
TORSDOF 3
ENDMDL
MODEL 5
REMARK VINA RESULT:    -2.823      4.316      5.714
REMARK INTER + INTRA:          -3.357
REMARK INTER:                  -3.276
REMARK INTRA:                  -0.081
REMARK UNBOUND:                -0.038
REMARK SMILES O=C([O-])CCC(=O)[O-]
REMARK SMILES IDX 4 1 2 2 1 3 3 4 5 5 6 6 7 7 8 8
REMARK H PARENT
REMARK Flexibility Score: inf
ROOT
ATOM      1  C   UNL     1       0.220   6.816   3.430  1.00  0.00     0.059 C 
ENDROOT
BRANCH   1   2
ATOM      2  C   UNL     1       0.507   7.583   2.174  1.00  0.00     0.042 C 
ATOM      3  O   UNL     1      -0.289   8.478   1.783  1.00  0.00    -0.550 OA
ATOM      4  O   UNL     1       1.631   7.283   1.416  1.00  0.00    -0.550 OA
ENDBRANCH   1   2
BRANCH   1   5
ATOM      5  C   UNL     1       0.179   5.306   3.171  1.00  0.00     0.059 C 
BRANCH   5   6
ATOM      6  C   UNL     1      -1.228   4.799   3.080  1.00  0.00     0.042 C 
ATOM      7  O   UNL     1      -1.481   3.586   3.299  1.00  0.00    -0.550 OA
ATOM      8  O   UNL     1      -2.266   5.678   2.794  1.00  0.00    -0.550 OA
ENDBRANCH   5   6
ENDBRANCH   1   5
TORSDOF 3
ENDMDL
MODEL 6
REMARK VINA RESULT:    -2.794      3.425      5.340
REMARK INTER + INTRA:          -3.323
REMARK INTER:                  -3.201
REMARK INTRA:                  -0.122
REMARK UNBOUND:                -0.038
REMARK SMILES O=C([O-])CCC(=O)[O-]
REMARK SMILES IDX 4 1 2 2 1 3 3 4 5 5 6 6 7 7 8 8
REMARK H PARENT
REMARK Flexibility Score: inf
ROOT
ATOM      1  C   UNL     1       0.195   6.902   3.224  1.00  0.00     0.059 C 
ENDROOT
BRANCH   1   2
ATOM      2  C   UNL     1       1.258   6.437   2.276  1.00  0.00     0.042 C 
ATOM      3  O   UNL     1       1.654   7.192   1.349  1.00  0.00    -0.550 OA
ATOM      4  O   UNL     1       1.782   5.156   2.392  1.00  0.00    -0.550 OA
ENDBRANCH   1   2
BRANCH   1   5
ATOM      5  C   UNL     1      -1.207   6.738   2.625  1.00  0.00     0.059 C 
BRANCH   5   6
ATOM      6  C   UNL     1      -1.813   8.061   2.269  1.00  0.00     0.042 C 
ATOM      7  O   UNL     1      -1.333   8.746   1.327  1.00  0.00    -0.550 OA
ATOM      8  O   UNL     1      -2.934   8.519   2.951  1.00  0.00    -0.550 OA
ENDBRANCH   5   6
ENDBRANCH   1   5
TORSDOF 3
ENDMDL
MODEL 7
REMARK VINA RESULT:    -2.780      2.691      4.591
REMARK INTER + INTRA:          -3.306
REMARK INTER:                  -3.223
REMARK INTRA:                  -0.083
REMARK UNBOUND:                -0.038
REMARK SMILES O=C([O-])CCC(=O)[O-]
REMARK SMILES IDX 4 1 2 2 1 3 3 4 5 5 6 6 7 7 8 8
REMARK H PARENT
REMARK Flexibility Score: inf
ROOT
ATOM      1  C   UNL     1       0.552   9.025   2.639  1.00  0.00     0.059 C 
ENDROOT
BRANCH   1   2
ATOM      2  C   UNL     1       1.669   8.353   1.899  1.00  0.00     0.042 C 
ATOM      3  O   UNL     1       2.747   8.969   1.684  1.00  0.00    -0.550 OA
ATOM      4  O   UNL     1       1.505   7.063   1.412  1.00  0.00    -0.550 OA
ENDBRANCH   1   2
BRANCH   1   5
ATOM      5  C   UNL     1       0.161  10.355   1.984  1.00  0.00     0.059 C 
BRANCH   5   6
ATOM      6  C   UNL     1      -1.225  10.304   1.418  1.00  0.00     0.042 C 
ATOM      7  O   UNL     1      -1.946  11.336   1.414  1.00  0.00    -0.550 OA
ATOM      8  O   UNL     1      -1.705   9.126   0.857  1.00  0.00    -0.550 OA
ENDBRANCH   5   6
ENDBRANCH   1   5
TORSDOF 3
ENDMDL
MODEL 8
REMARK VINA RESULT:    -2.768      3.270      4.873
REMARK INTER + INTRA:          -3.292
REMARK INTER:                  -3.175
REMARK INTRA:                  -0.117
REMARK UNBOUND:                -0.038
REMARK SMILES O=C([O-])CCC(=O)[O-]
REMARK SMILES IDX 4 1 2 2 1 3 3 4 5 5 6 6 7 7 8 8
REMARK H PARENT
REMARK Flexibility Score: inf
ROOT
ATOM      1  C   UNL     1      -0.670   7.792   3.111  1.00  0.00     0.059 C 
ENDROOT
BRANCH   1   2
ATOM      2  C   UNL     1      -1.757   8.336   2.235  1.00  0.00     0.042 C 
ATOM      3  O   UNL     1      -1.479   8.811   1.102  1.00  0.00    -0.550 OA
ATOM      4  O   UNL     1      -3.070   8.356   2.685  1.00  0.00    -0.550 OA
ENDBRANCH   1   2
BRANCH   1   5
ATOM      5  C   UNL     1      -0.260   6.377   2.690  1.00  0.00     0.059 C 
BRANCH   5   6
ATOM      6  C   UNL     1       1.168   6.327   2.240  1.00  0.00     0.042 C 
ATOM      7  O   UNL     1       1.902   5.358   2.567  1.00  0.00    -0.550 OA
ATOM      8  O   UNL     1       1.676   7.331   1.425  1.00  0.00    -0.550 OA
ENDBRANCH   5   6
ENDBRANCH   1   5
TORSDOF 3
ENDMDL
MODEL 9
REMARK VINA RESULT:    -2.712      3.024      4.388
REMARK INTER + INTRA:          -3.227
REMARK INTER:                  -3.108
REMARK INTRA:                  -0.119
REMARK UNBOUND:                -0.038
REMARK SMILES O=C([O-])CCC(=O)[O-]
REMARK SMILES IDX 4 1 2 2 1 3 3 4 5 5 6 6 7 7 8 8
REMARK H PARENT
REMARK Flexibility Score: inf
ROOT
ATOM      1  C   UNL     1       0.447   9.745   2.682  1.00  0.00     0.059 C 
ENDROOT
BRANCH   1   2
ATOM      2  C   UNL     1      -0.768   9.898   1.818  1.00  0.00     0.042 C 
ATOM      3  O   UNL     1      -1.275   8.891   1.255  1.00  0.00    -0.550 OA
ATOM      4  O   UNL     1      -1.315  11.155   1.600  1.00  0.00    -0.550 OA
ENDBRANCH   1   2
BRANCH   1   5
ATOM      5  C   UNL     1       1.738   9.820   1.860  1.00  0.00     0.059 C 
BRANCH   5   6
ATOM      6  C   UNL     1       2.429   8.492   1.796  1.00  0.00     0.042 C 
ATOM      7  O   UNL     1       3.653   8.399   2.075  1.00  0.00    -0.550 OA
ATOM      8  O   UNL     1       1.708   7.349   1.469  1.00  0.00    -0.550 OA
ENDBRANCH   5   6
ENDBRANCH   1   5
TORSDOF 3
ENDMDL
