MODEL 1
REMARK VINA RESULT:    -4.752      0.000      0.000
REMARK INTER + INTRA:         -10.586
REMARK INTER:                  -8.641
REMARK INTRA:                  -1.946
REMARK UNBOUND:                -1.946
REMARK SMILES CCCCCCCCCCCCCCCC(=O)[O-]
REMARK SMILES IDX 9 1 10 2 11 3 12 4 13 5 14 6 15 7 16 8 17 9 18 10 8 11 7 12
REMARK SMILES IDX 6 13 5 14 4 15 3 16 2 17 1 18
REMARK H PARENT
REMARK Flexibility Score: inf
ROOT
ATOM      1  C   UNL     1       0.368  46.786   7.356  1.00  0.00     0.000 C 
ENDROOT
BRANCH   1   2
ATOM      2  C   UNL     1      -0.341  48.002   7.988  1.00  0.00     0.000 C 
BRANCH   2   3
ATOM      3  C   UNL     1       0.436  49.326   7.899  1.00  0.00     0.000 C 
BRANCH   3   4
ATOM      4  C   UNL     1       1.740  49.309   8.716  1.00  0.00     0.000 C 
BRANCH   4   5
ATOM      5  C   UNL     1       2.969  49.676   7.872  1.00  0.00     0.000 C 
BRANCH   5   6
ATOM      6  C   UNL     1       3.870  48.463   7.582  1.00  0.00     0.006 C 
BRANCH   6   7
ATOM      7  C   UNL     1       3.759  47.385   8.668  1.00  0.00     0.053 C 
BRANCH   7   8
ATOM      8  C   UNL     1       5.019  47.278   9.472  1.00  0.00     0.041 C 
ATOM      9  O   UNL     1       4.999  46.754  10.616  1.00  0.00    -0.550 OA
ATOM     10  O   UNL     1       6.209  47.789   8.970  1.00  0.00    -0.550 OA
ENDBRANCH   7   8
ENDBRANCH   6   7
ENDBRANCH   5   6
ENDBRANCH   4   5
ENDBRANCH   3   4
ENDBRANCH   2   3
ENDBRANCH   1   2
BRANCH   1  11
ATOM     11  C   UNL     1       0.402  45.520   8.231  1.00  0.00     0.000 C 
BRANCH  11  12
ATOM     12  C   UNL     1       0.189  45.820   9.725  1.00  0.00    -0.000 C 
BRANCH  12  13
ATOM     13  C   UNL     1       1.410  45.450  10.580  1.00  0.00    -0.000 C 
BRANCH  13  14
ATOM     14  C   UNL     1       1.080  44.398  11.655  1.00  0.00    -0.000 C 
BRANCH  14  15
ATOM     15  C   UNL     1       2.076  43.225  11.667  1.00  0.00    -0.000 C 
BRANCH  15  16
ATOM     16  C   UNL     1       3.560  43.620  11.526  1.00  0.00    -0.000 C 
BRANCH  16  17
ATOM     17  C   UNL     1       4.299  42.962  10.349  1.00  0.00    -0.003 C 
ATOM     18  C   UNL     1       3.856  43.504   8.990  1.00  0.00     0.004 C 
ENDBRANCH  16  17
ENDBRANCH  15  16
ENDBRANCH  14  15
ENDBRANCH  13  14
ENDBRANCH  12  13
ENDBRANCH  11  12
ENDBRANCH   1  11
TORSDOF 14
ENDMDL
MODEL 2
REMARK VINA RESULT:    -4.749      2.092      4.576
REMARK INTER + INTRA:         -10.581
REMARK INTER:                  -8.881
REMARK INTRA:                  -1.700
REMARK UNBOUND:                -1.946
REMARK SMILES CCCCCCCCCCCCCCCC(=O)[O-]
REMARK SMILES IDX 9 1 10 2 11 3 12 4 13 5 14 6 15 7 16 8 17 9 18 10 8 11 7 12
REMARK SMILES IDX 6 13 5 14 4 15 3 16 2 17 1 18
REMARK H PARENT
REMARK Flexibility Score: inf
ROOT
ATOM      1  C   UNL     1       2.819  43.003  10.324  1.00  0.00     0.000 C 
ENDROOT
BRANCH   1   2
ATOM      2  C   UNL     1       2.085  43.534   9.075  1.00  0.00     0.000 C 
BRANCH   2   3
ATOM      3  C   UNL     1       1.144  44.724   9.331  1.00  0.00     0.000 C 
BRANCH   3   4
ATOM      4  C   UNL     1       0.388  45.169   8.067  1.00  0.00     0.000 C 
BRANCH   4   5
ATOM      5  C   UNL     1      -0.026  46.647   8.118  1.00  0.00     0.000 C 
BRANCH   5   6
ATOM      6  C   UNL     1       1.070  47.548   8.713  1.00  0.00     0.006 C 
BRANCH   6   7
ATOM      7  C   UNL     1       2.059  48.040   7.649  1.00  0.00     0.053 C 
BRANCH   7   8
ATOM      8  C   UNL     1       2.409  49.484   7.845  1.00  0.00     0.041 C 
ATOM      9  O   UNL     1       3.427  49.971   7.286  1.00  0.00    -0.550 OA
ATOM     10  O   UNL     1       1.631  50.282   8.672  1.00  0.00    -0.550 OA
ENDBRANCH   7   8
ENDBRANCH   6   7
ENDBRANCH   5   6
ENDBRANCH   4   5
ENDBRANCH   3   4
ENDBRANCH   2   3
ENDBRANCH   1   2
BRANCH   1  11
ATOM     11  C   UNL     1       2.279  43.518  11.670  1.00  0.00     0.000 C 
BRANCH  11  12
ATOM     12  C   UNL     1       3.294  44.394  12.425  1.00  0.00    -0.000 C 
BRANCH  12  13
ATOM     13  C   UNL     1       4.456  44.852  11.529  1.00  0.00    -0.000 C 
BRANCH  13  14
ATOM     14  C   UNL     1       4.234  46.260  10.949  1.00  0.00    -0.000 C 
BRANCH  14  15
ATOM     15  C   UNL     1       4.555  46.345   9.446  1.00  0.00    -0.000 C 
BRANCH  15  16
ATOM     16  C   UNL     1       5.459  47.523   9.032  1.00  0.00    -0.000 C 
BRANCH  16  17
ATOM     17  C   UNL     1       6.820  47.581   9.746  1.00  0.00    -0.003 C 
ATOM     18  C   UNL     1       7.597  48.862   9.443  1.00  0.00     0.004 C 
ENDBRANCH  16  17
ENDBRANCH  15  16
ENDBRANCH  14  15
ENDBRANCH  13  14
ENDBRANCH  12  13
ENDBRANCH  11  12
ENDBRANCH   1  11
TORSDOF 14
ENDMDL
MODEL 3
REMARK VINA RESULT:    -4.705      1.875      5.532
REMARK INTER + INTRA:         -10.501
REMARK INTER:                  -8.630
REMARK INTRA:                  -1.871
REMARK UNBOUND:                -1.946
REMARK SMILES CCCCCCCCCCCCCCCC(=O)[O-]
REMARK SMILES IDX 9 1 10 2 11 3 12 4 13 5 14 6 15 7 16 8 17 9 18 10 8 11 7 12
REMARK SMILES IDX 6 13 5 14 4 15 3 16 2 17 1 18
REMARK H PARENT
REMARK Flexibility Score: inf
ROOT
ATOM      1  C   UNL     1       4.537  47.958   8.651  1.00  0.00     0.000 C 
ENDROOT
BRANCH   1   2
ATOM      2  C   UNL     1       4.103  46.558   9.133  1.00  0.00     0.000 C 
BRANCH   2   3
ATOM      3  C   UNL     1       3.665  46.484  10.606  1.00  0.00     0.000 C 
BRANCH   3   4
ATOM      4  C   UNL     1       4.580  45.585  11.455  1.00  0.00     0.000 C 
BRANCH   4   5
ATOM      5  C   UNL     1       3.792  44.588  12.317  1.00  0.00     0.000 C 
BRANCH   5   6
ATOM      6  C   UNL     1       2.450  44.188  11.679  1.00  0.00     0.006 C 
BRANCH   6   7
ATOM      7  C   UNL     1       2.549  42.869  10.902  1.00  0.00     0.053 C 
BRANCH   7   8
ATOM      8  C   UNL     1       2.781  43.104   9.440  1.00  0.00     0.041 C 
ATOM      9  O   UNL     1       1.805  43.230   8.655  1.00  0.00    -0.550 OA
ATOM     10  O   UNL     1       4.076  43.151   8.941  1.00  0.00    -0.550 OA
ENDBRANCH   7   8
ENDBRANCH   6   7
ENDBRANCH   5   6
ENDBRANCH   4   5
ENDBRANCH   3   4
ENDBRANCH   2   3
ENDBRANCH   1   2
BRANCH   1  11
ATOM     11  C   UNL     1       3.768  48.500   7.433  1.00  0.00     0.000 C 
BRANCH  11  12
ATOM     12  C   UNL     1       3.450  50.001   7.547  1.00  0.00    -0.000 C 
BRANCH  12  13
ATOM     13  C   UNL     1       1.941  50.279   7.629  1.00  0.00    -0.000 C 
BRANCH  13  14
ATOM     14  C   UNL     1       1.208  49.284   8.547  1.00  0.00    -0.000 C 
BRANCH  14  15
ATOM     15  C   UNL     1      -0.152  48.840   7.980  1.00  0.00    -0.000 C 
BRANCH  15  16
ATOM     16  C   UNL     1      -0.188  47.411   7.401  1.00  0.00    -0.000 C 
BRANCH  16  17
ATOM     17  C   UNL     1       0.609  46.366   8.199  1.00  0.00    -0.003 C 
ATOM     18  C   UNL     1       0.001  46.073   9.570  1.00  0.00     0.004 C 
ENDBRANCH  16  17
ENDBRANCH  15  16
ENDBRANCH  14  15
ENDBRANCH  13  14
ENDBRANCH  12  13
ENDBRANCH  11  12
ENDBRANCH   1  11
TORSDOF 14
ENDMDL
MODEL 4
REMARK VINA RESULT:    -4.703      2.179      3.867
REMARK INTER + INTRA:         -10.498
REMARK INTER:                  -8.710
REMARK INTRA:                  -1.788
REMARK UNBOUND:                -1.946
REMARK SMILES CCCCCCCCCCCCCCCC(=O)[O-]
REMARK SMILES IDX 9 1 10 2 11 3 12 4 13 5 14 6 15 7 16 8 17 9 18 10 8 11 7 12
REMARK SMILES IDX 6 13 5 14 4 15 3 16 2 17 1 18
REMARK H PARENT
REMARK Flexibility Score: inf
ROOT
ATOM      1  C   UNL     1       3.879  48.462   7.635  1.00  0.00     0.000 C 
ENDROOT
BRANCH   1   2
ATOM      2  C   UNL     1       3.385  49.881   7.284  1.00  0.00     0.000 C 
BRANCH   2   3
ATOM      3  C   UNL     1       2.121  50.335   8.035  1.00  0.00     0.000 C 
BRANCH   3   4
ATOM      4  C   UNL     1       1.305  49.156   8.594  1.00  0.00     0.000 C 
BRANCH   4   5
ATOM      5  C   UNL     1      -0.099  49.067   7.979  1.00  0.00     0.000 C 
BRANCH   5   6
ATOM      6  C   UNL     1      -0.497  47.624   7.622  1.00  0.00     0.006 C 
BRANCH   6   7
ATOM      7  C   UNL     1       0.706  46.672   7.629  1.00  0.00     0.053 C 
BRANCH   7   8
ATOM      8  C   UNL     1       0.500  45.528   8.575  1.00  0.00     0.041 C 
ATOM      9  O   UNL     1       0.646  44.342   8.178  1.00  0.00    -0.550 OA
ATOM     10  O   UNL     1       0.115  45.772   9.887  1.00  0.00    -0.550 OA
ENDBRANCH   7   8
ENDBRANCH   6   7
ENDBRANCH   5   6
ENDBRANCH   4   5
ENDBRANCH   3   4
ENDBRANCH   2   3
ENDBRANCH   1   2
BRANCH   1  11
ATOM     11  C   UNL     1       5.220  48.403   8.388  1.00  0.00     0.000 C 
BRANCH  11  12
ATOM     12  C   UNL     1       5.242  47.320   9.482  1.00  0.00    -0.000 C 
BRANCH  12  13
ATOM     13  C   UNL     1       3.953  46.484   9.509  1.00  0.00    -0.000 C 
BRANCH  13  14
ATOM     14  C   UNL     1       3.435  46.247  10.939  1.00  0.00    -0.000 C 
BRANCH  14  15
ATOM     15  C   UNL     1       4.186  45.117  11.666  1.00  0.00    -0.000 C 
BRANCH  15  16
ATOM     16  C   UNL     1       3.290  44.029  12.292  1.00  0.00    -0.000 C 
BRANCH  16  17
ATOM     17  C   UNL     1       2.291  43.373  11.324  1.00  0.00    -0.003 C 
ATOM     18  C   UNL     1       2.973  42.676  10.147  1.00  0.00     0.004 C 
ENDBRANCH  16  17
ENDBRANCH  15  16
ENDBRANCH  14  15
ENDBRANCH  13  14
ENDBRANCH  12  13
ENDBRANCH  11  12
ENDBRANCH   1  11
TORSDOF 14
ENDMDL
MODEL 5
REMARK VINA RESULT:    -4.687      2.028      3.779
REMARK INTER + INTRA:         -10.468
REMARK INTER:                  -8.449
REMARK INTRA:                  -2.019
REMARK UNBOUND:                -1.946
REMARK SMILES CCCCCCCCCCCCCCCC(=O)[O-]
REMARK SMILES IDX 9 1 10 2 11 3 12 4 13 5 14 6 15 7 16 8 17 9 18 10 8 11 7 12
REMARK SMILES IDX 6 13 5 14 4 15 3 16 2 17 1 18
REMARK H PARENT
REMARK Flexibility Score: inf
ROOT
ATOM      1  C   UNL     1       1.682  43.608   9.146  1.00  0.00     0.000 C 
ENDROOT
BRANCH   1   2
ATOM      2  C   UNL     1       1.411  45.074   8.748  1.00  0.00     0.000 C 
BRANCH   2   3
ATOM      3  C   UNL     1       0.546  45.868   9.743  1.00  0.00     0.000 C 
BRANCH   3   4
ATOM      4  C   UNL     1      -0.438  46.824   9.046  1.00  0.00     0.000 C 
BRANCH   4   5
ATOM      5  C   UNL     1       0.255  47.750   8.036  1.00  0.00     0.000 C 
BRANCH   5   6
ATOM      6  C   UNL     1       1.175  48.780   8.714  1.00  0.00     0.006 C 
BRANCH   6   7
ATOM      7  C   UNL     1       2.487  48.982   7.943  1.00  0.00     0.053 C 
BRANCH   7   8
ATOM      8  C   UNL     1       2.682  50.415   7.551  1.00  0.00     0.041 C 
ATOM      9  O   UNL     1       1.722  51.080   7.080  1.00  0.00    -0.550 OA
ATOM     10  O   UNL     1       3.933  51.005   7.673  1.00  0.00    -0.550 OA
ENDBRANCH   7   8
ENDBRANCH   6   7
ENDBRANCH   5   6
ENDBRANCH   4   5
ENDBRANCH   3   4
ENDBRANCH   2   3
ENDBRANCH   1   2
BRANCH   1  11
ATOM     11  C   UNL     1       3.157  43.174   9.087  1.00  0.00     0.000 C 
BRANCH  11  12
ATOM     12  C   UNL     1       3.754  42.896  10.478  1.00  0.00    -0.000 C 
BRANCH  12  13
ATOM     13  C   UNL     1       2.807  43.305  11.617  1.00  0.00    -0.000 C 
BRANCH  13  14
ATOM     14  C   UNL     1       3.359  44.475  12.451  1.00  0.00    -0.000 C 
BRANCH  14  15
ATOM     15  C   UNL     1       4.528  45.201  11.761  1.00  0.00    -0.000 C 
BRANCH  15  16
ATOM     16  C   UNL     1       4.133  46.434  10.924  1.00  0.00    -0.000 C 
BRANCH  16  17
ATOM     17  C   UNL     1       4.691  46.454   9.491  1.00  0.00    -0.003 C 
ATOM     18  C   UNL     1       5.708  47.572   9.263  1.00  0.00     0.004 C 
ENDBRANCH  16  17
ENDBRANCH  15  16
ENDBRANCH  14  15
ENDBRANCH  13  14
ENDBRANCH  12  13
ENDBRANCH  11  12
ENDBRANCH   1  11
TORSDOF 14
ENDMDL
MODEL 6
REMARK VINA RESULT:    -4.680      1.485      4.592
REMARK INTER + INTRA:         -10.455
REMARK INTER:                  -8.733
REMARK INTRA:                  -1.722
REMARK UNBOUND:                -1.946
REMARK SMILES CCCCCCCCCCCCCCCC(=O)[O-]
REMARK SMILES IDX 9 1 10 2 11 3 12 4 13 5 14 6 15 7 16 8 17 9 18 10 8 11 7 12
REMARK SMILES IDX 6 13 5 14 4 15 3 16 2 17 1 18
REMARK H PARENT
REMARK Flexibility Score: inf
ROOT
ATOM      1  C   UNL     1      -0.472  47.742   7.735  1.00  0.00     0.000 C 
ENDROOT
BRANCH   1   2
ATOM      2  C   UNL     1       0.436  46.570   7.309  1.00  0.00     0.000 C 
BRANCH   2   3
ATOM      3  C   UNL     1      -0.028  45.181   7.782  1.00  0.00     0.000 C 
BRANCH   3   4
ATOM      4  C   UNL     1       0.949  44.532   8.777  1.00  0.00     0.000 C 
BRANCH   4   5
ATOM      5  C   UNL     1       1.140  45.372  10.048  1.00  0.00     0.000 C 
BRANCH   5   6
ATOM      6  C   UNL     1       1.154  44.514  11.326  1.00  0.00     0.006 C 
BRANCH   6   7
ATOM      7  C   UNL     1       2.189  43.384  11.255  1.00  0.00     0.053 C 
BRANCH   7   8
ATOM      8  C   UNL     1       3.584  43.919  11.136  1.00  0.00     0.041 C 
ATOM      9  O   UNL     1       4.043  44.695  12.015  1.00  0.00    -0.550 OA
ATOM     10  O   UNL     1       4.364  43.586  10.037  1.00  0.00    -0.550 OA
ENDBRANCH   7   8
ENDBRANCH   6   7
ENDBRANCH   5   6
ENDBRANCH   4   5
ENDBRANCH   3   4
ENDBRANCH   2   3
ENDBRANCH   1   2
BRANCH   1  11
ATOM     11  C   UNL     1       0.246  49.088   7.939  1.00  0.00     0.000 C 
BRANCH  11  12
ATOM     12  C   UNL     1       1.526  48.960   8.783  1.00  0.00    -0.000 C 
BRANCH  12  13
ATOM     13  C   UNL     1       2.784  49.391   8.013  1.00  0.00    -0.000 C 
BRANCH  13  14
ATOM     14  C   UNL     1       3.703  48.204   7.672  1.00  0.00    -0.000 C 
BRANCH  14  15
ATOM     15  C   UNL     1       3.833  47.199   8.830  1.00  0.00    -0.000 C 
BRANCH  15  16
ATOM     16  C   UNL     1       5.176  47.238   9.586  1.00  0.00    -0.000 C 
BRANCH  16  17
ATOM     17  C   UNL     1       6.288  48.046   8.896  1.00  0.00    -0.003 C 
ATOM     18  C   UNL     1       7.616  47.997   9.650  1.00  0.00     0.004 C 
ENDBRANCH  16  17
ENDBRANCH  15  16
ENDBRANCH  14  15
ENDBRANCH  13  14
ENDBRANCH  12  13
ENDBRANCH  11  12
ENDBRANCH   1  11
TORSDOF 14
ENDMDL
MODEL 7
REMARK VINA RESULT:    -4.596      0.677      1.366
REMARK INTER + INTRA:         -10.303
REMARK INTER:                  -8.688
REMARK INTRA:                  -1.615
REMARK UNBOUND:                -1.946
REMARK SMILES CCCCCCCCCCCCCCCC(=O)[O-]
REMARK SMILES IDX 9 1 10 2 11 3 12 4 13 5 14 6 15 7 16 8 17 9 18 10 8 11 7 12
REMARK SMILES IDX 6 13 5 14 4 15 3 16 2 17 1 18
REMARK H PARENT
REMARK Flexibility Score: inf
ROOT
ATOM      1  C   UNL     1       0.115  47.152   7.266  1.00  0.00     0.000 C 
ENDROOT
BRANCH   1   2
ATOM      2  C   UNL     1      -0.283  48.384   8.105  1.00  0.00     0.000 C 
BRANCH   2   3
ATOM      3  C   UNL     1       0.527  49.659   7.813  1.00  0.00     0.000 C 
BRANCH   3   4
ATOM      4  C   UNL     1       1.884  49.683   8.538  1.00  0.00     0.000 C 
BRANCH   4   5
ATOM      5  C   UNL     1       3.065  49.864   7.572  1.00  0.00     0.000 C 
BRANCH   5   6
ATOM      6  C   UNL     1       3.901  48.582   7.415  1.00  0.00     0.006 C 
BRANCH   6   7
ATOM      7  C   UNL     1       3.710  47.617   8.592  1.00  0.00     0.053 C 
BRANCH   7   8
ATOM      8  C   UNL     1       4.992  47.392   9.336  1.00  0.00     0.041 C 
ATOM      9  O   UNL     1       4.990  46.765  10.427  1.00  0.00    -0.550 OA
ATOM     10  O   UNL     1       6.182  47.906   8.839  1.00  0.00    -0.550 OA
ENDBRANCH   7   8
ENDBRANCH   6   7
ENDBRANCH   5   6
ENDBRANCH   4   5
ENDBRANCH   3   4
ENDBRANCH   2   3
ENDBRANCH   1   2
BRANCH   1  11
ATOM     11  C   UNL     1       0.017  45.801   7.998  1.00  0.00     0.000 C 
BRANCH  11  12
ATOM     12  C   UNL     1       0.149  45.939   9.525  1.00  0.00    -0.000 C 
BRANCH  12  13
ATOM     13  C   UNL     1       1.492  45.408  10.049  1.00  0.00    -0.000 C 
BRANCH  13  14
ATOM     14  C   UNL     1       1.771  43.962   9.600  1.00  0.00    -0.000 C 
BRANCH  14  15
ATOM     15  C   UNL     1       3.261  43.702   9.318  1.00  0.00    -0.000 C 
BRANCH  15  16
ATOM     16  C   UNL     1       4.077  43.187  10.521  1.00  0.00    -0.000 C 
BRANCH  16  17
ATOM     17  C   UNL     1       3.402  43.370  11.891  1.00  0.00    -0.003 C 
ATOM     18  C   UNL     1       4.091  44.422  12.759  1.00  0.00     0.004 C 
ENDBRANCH  16  17
ENDBRANCH  15  16
ENDBRANCH  14  15
ENDBRANCH  13  14
ENDBRANCH  12  13
ENDBRANCH  11  12
ENDBRANCH   1  11
TORSDOF 14
ENDMDL
MODEL 8
REMARK VINA RESULT:    -4.590      2.598      4.043
REMARK INTER + INTRA:         -10.292
REMARK INTER:                  -8.381
REMARK INTRA:                  -1.910
REMARK UNBOUND:                -1.946
REMARK SMILES CCCCCCCCCCCCCCCC(=O)[O-]
REMARK SMILES IDX 9 1 10 2 11 3 12 4 13 5 14 6 15 7 16 8 17 9 18 10 8 11 7 12
REMARK SMILES IDX 6 13 5 14 4 15 3 16 2 17 1 18
REMARK H PARENT
REMARK Flexibility Score: inf
ROOT
ATOM      1  C   UNL     1       4.377  46.550   9.259  1.00  0.00     0.000 C 
ENDROOT
BRANCH   1   2
ATOM      2  C   UNL     1       5.373  47.711   9.055  1.00  0.00     0.000 C 
BRANCH   2   3
ATOM      3  C   UNL     1       4.884  48.831   8.120  1.00  0.00     0.000 C 
BRANCH   3   4
ATOM      4  C   UNL     1       3.594  48.459   7.369  1.00  0.00     0.000 C 
BRANCH   4   5
ATOM      5  C   UNL     1       2.442  49.433   7.658  1.00  0.00     0.000 C 
BRANCH   5   6
ATOM      6  C   UNL     1       1.501  48.922   8.763  1.00  0.00     0.006 C 
BRANCH   6   7
ATOM      7  C   UNL     1       1.011  47.494   8.494  1.00  0.00     0.053 C 
BRANCH   7   8
ATOM      8  C   UNL     1      -0.220  47.484   7.639  1.00  0.00     0.041 C 
ATOM      9  O   UNL     1      -0.474  46.494   6.903  1.00  0.00    -0.550 OA
ATOM     10  O   UNL     1      -1.068  48.583   7.629  1.00  0.00    -0.550 OA
ENDBRANCH   7   8
ENDBRANCH   6   7
ENDBRANCH   5   6
ENDBRANCH   4   5
ENDBRANCH   3   4
ENDBRANCH   2   3
ENDBRANCH   1   2
BRANCH   1  11
ATOM     11  C   UNL     1       3.865  46.372  10.700  1.00  0.00     0.000 C 
BRANCH  11  12
ATOM     12  C   UNL     1       4.785  45.482  11.554  1.00  0.00    -0.000 C 
BRANCH  12  13
ATOM     13  C   UNL     1       3.999  44.485  12.420  1.00  0.00    -0.000 C 
BRANCH  13  14
ATOM     14  C   UNL     1       2.493  44.485  12.100  1.00  0.00    -0.000 C 
BRANCH  14  15
ATOM     15  C   UNL     1       1.997  43.130  11.563  1.00  0.00    -0.000 C 
BRANCH  15  16
ATOM     16  C   UNL     1       2.863  42.508  10.449  1.00  0.00    -0.000 C 
BRANCH  16  17
ATOM     17  C   UNL     1       2.826  43.254   9.104  1.00  0.00    -0.003 C 
ATOM     18  C   UNL     1       1.436  43.786   8.756  1.00  0.00     0.004 C 
ENDBRANCH  16  17
ENDBRANCH  15  16
ENDBRANCH  14  15
ENDBRANCH  13  14
ENDBRANCH  12  13
ENDBRANCH  11  12
ENDBRANCH   1  11
TORSDOF 14
ENDMDL
MODEL 9
REMARK VINA RESULT:    -4.500      2.262      4.992
REMARK INTER + INTRA:         -10.129
REMARK INTER:                  -8.386
REMARK INTRA:                  -1.743
REMARK UNBOUND:                -1.946
REMARK SMILES CCCCCCCCCCCCCCCC(=O)[O-]
REMARK SMILES IDX 9 1 10 2 11 3 12 4 13 5 14 6 15 7 16 8 17 9 18 10 8 11 7 12
REMARK SMILES IDX 6 13 5 14 4 15 3 16 2 17 1 18
REMARK H PARENT
REMARK Flexibility Score: inf
ROOT
ATOM      1  C   UNL     1       3.758  48.379   7.861  1.00  0.00     0.000 C 
ENDROOT
BRANCH   1   2
ATOM      2  C   UNL     1       5.208  48.407   8.389  1.00  0.00     0.000 C 
BRANCH   2   3
ATOM      3  C   UNL     1       5.535  47.342   9.449  1.00  0.00     0.000 C 
BRANCH   3   4
ATOM      4  C   UNL     1       4.424  46.288   9.598  1.00  0.00     0.000 C 
BRANCH   4   5
ATOM      5  C   UNL     1       3.743  46.340  10.973  1.00  0.00     0.000 C 
BRANCH   5   6
ATOM      6  C   UNL     1       3.928  45.039  11.774  1.00  0.00     0.006 C 
BRANCH   6   7
ATOM      7  C   UNL     1       4.086  43.814  10.863  1.00  0.00     0.053 C 
BRANCH   7   8
ATOM      8  C   UNL     1       2.800  43.058  10.726  1.00  0.00     0.041 C 
ATOM      9  O   UNL     1       1.841  43.289  11.509  1.00  0.00    -0.550 OA
ATOM     10  O   UNL     1       2.673  42.074   9.755  1.00  0.00    -0.550 OA
ENDBRANCH   7   8
ENDBRANCH   6   7
ENDBRANCH   5   6
ENDBRANCH   4   5
ENDBRANCH   3   4
ENDBRANCH   2   3
ENDBRANCH   1   2
BRANCH   1  11
ATOM     11  C   UNL     1       3.219  49.728   7.354  1.00  0.00     0.000 C 
BRANCH  11  12
ATOM     12  C   UNL     1       1.908  50.145   8.044  1.00  0.00    -0.000 C 
BRANCH  12  13
ATOM     13  C   UNL     1       1.237  48.979   8.785  1.00  0.00    -0.000 C 
BRANCH  13  14
ATOM     14  C   UNL     1      -0.012  48.456   8.053  1.00  0.00    -0.000 C 
BRANCH  14  15
ATOM     15  C   UNL     1      -0.535  47.131   8.636  1.00  0.00    -0.000 C 
BRANCH  15  16
ATOM     16  C   UNL     1       0.553  46.153   9.125  1.00  0.00    -0.000 C 
BRANCH  16  17
ATOM     17  C   UNL     1       0.666  44.850   8.316  1.00  0.00    -0.003 C 
ATOM     18  C   UNL     1      -0.165  44.871   7.034  1.00  0.00     0.004 C 
ENDBRANCH  16  17
ENDBRANCH  15  16
ENDBRANCH  14  15
ENDBRANCH  13  14
ENDBRANCH  12  13
ENDBRANCH  11  12
ENDBRANCH   1  11
TORSDOF 14
ENDMDL
