MODEL 1
REMARK VINA RESULT:    -5.831      0.000      0.000
REMARK INTER + INTRA:          -5.831
REMARK INTER:                  -5.831
REMARK INTRA:                   0.000
REMARK UNBOUND:                 0.000
REMARK SMILES CC1=CC(=O)[C@@H]2C[C@H]1C2(C)C
REMARK SMILES IDX 1 1 2 2 3 3 4 4 5 5 6 6 7 7 8 8 9 9 10 10 11 11
REMARK H PARENT
REMARK Flexibility Score: inf
ROOT
ATOM      1  C   UNL     1     -13.519 -39.651  38.014  1.00  0.00     0.040 C 
ATOM      2  C   UNL     1     -12.996 -40.397  39.200  1.00  0.00    -0.066 C 
ATOM      3  C   UNL     1     -12.203 -41.494  39.054  1.00  0.00     0.047 C 
ATOM      4  C   UNL     1     -11.717 -42.136  40.318  1.00  0.00     0.159 C 
ATOM      5  O   UNL     1     -10.946 -43.131  40.314  1.00  0.00    -0.295 OA
ATOM      6  C   UNL     1     -12.222 -41.496  41.611  1.00  0.00     0.067 C 
ATOM      7  C   UNL     1     -13.732 -41.285  41.364  1.00  0.00     0.021 C 
ATOM      8  C   UNL     1     -13.342 -39.974  40.644  1.00  0.00     0.022 C 
ATOM      9  C   UNL     1     -12.045 -39.954  41.503  1.00  0.00    -0.019 C 
ATOM     10  C   UNL     1     -12.249 -39.240  42.863  1.00  0.00     0.012 C 
ATOM     11  C   UNL     1     -10.743 -39.403  40.855  1.00  0.00     0.012 C 
ENDROOT
TORSDOF 0
ENDMDL
MODEL 2
REMARK VINA RESULT:    -5.698      4.320      5.517
REMARK INTER + INTRA:          -5.698
REMARK INTER:                  -5.698
REMARK INTRA:                   0.000
REMARK UNBOUND:                 0.000
REMARK SMILES CC1=CC(=O)[C@@H]2C[C@H]1C2(C)C
REMARK SMILES IDX 1 1 2 2 3 3 4 4 5 5 6 6 7 7 8 8 9 9 10 10 11 11
REMARK H PARENT
REMARK Flexibility Score: inf
ROOT
ATOM      1  C   UNL     1     -12.761 -33.828  37.981  1.00  0.00     0.040 C 
ATOM      2  C   UNL     1     -12.436 -35.239  37.607  1.00  0.00    -0.066 C 
ATOM      3  C   UNL     1     -12.182 -35.590  36.316  1.00  0.00     0.047 C 
ATOM      4  C   UNL     1     -11.838 -37.028  36.074  1.00  0.00     0.159 C 
ATOM      5  O   UNL     1     -11.544 -37.466  34.931  1.00  0.00    -0.295 OA
ATOM      6  C   UNL     1     -11.869 -37.925  37.311  1.00  0.00     0.067 C 
ATOM      7  C   UNL     1     -13.183 -37.538  38.026  1.00  0.00     0.021 C 
ATOM      8  C   UNL     1     -12.392 -36.369  38.657  1.00  0.00     0.022 C 
ATOM      9  C   UNL     1     -11.099 -37.212  38.459  1.00  0.00    -0.019 C 
ATOM     10  C   UNL     1     -10.819 -38.154  39.657  1.00  0.00     0.012 C 
ATOM     11  C   UNL     1      -9.781 -36.463  38.111  1.00  0.00     0.012 C 
ENDROOT
TORSDOF 0
ENDMDL
MODEL 3
REMARK VINA RESULT:    -5.664      4.222      5.784
REMARK INTER + INTRA:          -5.664
REMARK INTER:                  -5.664
REMARK INTRA:                   0.000
REMARK UNBOUND:                 0.000
REMARK SMILES CC1=CC(=O)[C@@H]2C[C@H]1C2(C)C
REMARK SMILES IDX 1 1 2 2 3 3 4 4 5 5 6 6 7 7 8 8 9 9 10 10 11 11
REMARK H PARENT
REMARK Flexibility Score: inf
ROOT
ATOM      1  C   UNL     1     -13.130 -39.055  39.154  1.00  0.00     0.040 C 
ATOM      2  C   UNL     1     -12.583 -38.047  38.195  1.00  0.00    -0.066 C 
ATOM      3  C   UNL     1     -12.297 -38.378  36.905  1.00  0.00     0.047 C 
ATOM      4  C   UNL     1     -11.783 -37.273  36.033  1.00  0.00     0.159 C 
ATOM      5  O   UNL     1     -11.521 -37.444  34.815  1.00  0.00    -0.295 OA
ATOM      6  C   UNL     1     -11.600 -35.923  36.729  1.00  0.00     0.067 C 
ATOM      7  C   UNL     1     -10.893 -36.275  38.056  1.00  0.00     0.021 C 
ATOM      8  C   UNL     1     -12.297 -36.591  38.620  1.00  0.00     0.022 C 
ATOM      9  C   UNL     1     -12.881 -35.616  37.556  1.00  0.00    -0.019 C 
ATOM     10  C   UNL     1     -12.921 -34.151  38.059  1.00  0.00     0.012 C 
ATOM     11  C   UNL     1     -14.264 -35.954  36.931  1.00  0.00     0.012 C 
ENDROOT
TORSDOF 0
ENDMDL
MODEL 4
REMARK VINA RESULT:    -5.651      2.041      3.293
REMARK INTER + INTRA:          -5.651
REMARK INTER:                  -5.651
REMARK INTRA:                   0.000
REMARK UNBOUND:                 0.000
REMARK SMILES CC1=CC(=O)[C@@H]2C[C@H]1C2(C)C
REMARK SMILES IDX 1 1 2 2 3 3 4 4 5 5 6 6 7 7 8 8 9 9 10 10 11 11
REMARK H PARENT
REMARK Flexibility Score: inf
ROOT
ATOM      1  C   UNL     1     -13.799 -37.811  38.841  1.00  0.00     0.040 C 
ATOM      2  C   UNL     1     -13.116 -38.546  39.950  1.00  0.00    -0.066 C 
ATOM      3  C   UNL     1     -13.356 -38.242  41.255  1.00  0.00     0.047 C 
ATOM      4  C   UNL     1     -12.634 -39.071  42.274  1.00  0.00     0.159 C 
ATOM      5  O   UNL     1     -12.803 -38.913  43.511  1.00  0.00    -0.295 OA
ATOM      6  C   UNL     1     -11.679 -40.120  41.704  1.00  0.00     0.067 C 
ATOM      7  C   UNL     1     -10.899 -39.366  40.606  1.00  0.00     0.021 C 
ATOM      8  C   UNL     1     -12.094 -39.669  39.672  1.00  0.00     0.022 C 
ATOM      9  C   UNL     1     -12.414 -40.896  40.574  1.00  0.00    -0.019 C 
ATOM     10  C   UNL     1     -11.645 -42.167  40.135  1.00  0.00     0.012 C 
ATOM     11  C   UNL     1     -13.906 -41.280  40.789  1.00  0.00     0.012 C 
ENDROOT
TORSDOF 0
ENDMDL
MODEL 5
REMARK VINA RESULT:    -5.623      2.009      3.568
REMARK INTER + INTRA:          -5.623
REMARK INTER:                  -5.623
REMARK INTRA:                   0.000
REMARK UNBOUND:                 0.000
REMARK SMILES CC1=CC(=O)[C@@H]2C[C@H]1C2(C)C
REMARK SMILES IDX 1 1 2 2 3 3 4 4 5 5 6 6 7 7 8 8 9 9 10 10 11 11
REMARK H PARENT
REMARK Flexibility Score: inf
ROOT
ATOM      1  C   UNL     1     -10.118 -38.385  42.933  1.00  0.00     0.040 C 
ATOM      2  C   UNL     1     -11.003 -38.638  41.754  1.00  0.00    -0.066 C 
ATOM      3  C   UNL     1     -10.602 -38.334  40.489  1.00  0.00     0.047 C 
ATOM      4  C   UNL     1     -11.565 -38.663  39.389  1.00  0.00     0.159 C 
ATOM      5  O   UNL     1     -11.294 -38.467  38.176  1.00  0.00    -0.295 OA
ATOM      6  C   UNL     1     -12.899 -39.256  39.845  1.00  0.00     0.067 C 
ATOM      7  C   UNL     1     -13.328 -38.357  41.026  1.00  0.00     0.021 C 
ATOM      8  C   UNL     1     -12.417 -39.237  41.912  1.00  0.00     0.022 C 
ATOM      9  C   UNL     1     -12.613 -40.383  40.878  1.00  0.00    -0.019 C 
ATOM     10  C   UNL     1     -13.868 -41.240  41.178  1.00  0.00     0.012 C 
ATOM     11  C   UNL     1     -11.420 -41.344  40.612  1.00  0.00     0.012 C 
ENDROOT
TORSDOF 0
ENDMDL
MODEL 6
REMARK VINA RESULT:    -5.610      4.437      6.041
REMARK INTER + INTRA:          -5.610
REMARK INTER:                  -5.610
REMARK INTRA:                   0.000
REMARK UNBOUND:                 0.000
REMARK SMILES CC1=CC(=O)[C@@H]2C[C@H]1C2(C)C
REMARK SMILES IDX 1 1 2 2 3 3 4 4 5 5 6 6 7 7 8 8 9 9 10 10 11 11
REMARK H PARENT
REMARK Flexibility Score: inf
ROOT
ATOM      1  C   UNL     1      -9.672 -36.783  39.125  1.00  0.00     0.040 C 
ATOM      2  C   UNL     1     -10.700 -36.643  38.048  1.00  0.00    -0.066 C 
ATOM      3  C   UNL     1     -10.488 -37.137  36.797  1.00  0.00     0.047 C 
ATOM      4  C   UNL     1     -11.606 -36.961  35.815  1.00  0.00     0.159 C 
ATOM      5  O   UNL     1     -11.547 -37.409  34.640  1.00  0.00    -0.295 OA
ATOM      6  C   UNL     1     -12.825 -36.202  36.341  1.00  0.00     0.067 C 
ATOM      7  C   UNL     1     -12.223 -34.984  37.076  1.00  0.00     0.021 C 
ATOM      8  C   UNL     1     -12.041 -35.919  38.294  1.00  0.00     0.022 C 
ATOM      9  C   UNL     1     -13.207 -36.783  37.732  1.00  0.00    -0.019 C 
ATOM     10  C   UNL     1     -14.594 -36.289  38.217  1.00  0.00     0.012 C 
ATOM     11  C   UNL     1     -13.142 -38.324  37.933  1.00  0.00     0.012 C 
ENDROOT
TORSDOF 0
ENDMDL
MODEL 7
REMARK VINA RESULT:    -5.580      2.184      3.643
REMARK INTER + INTRA:          -5.580
REMARK INTER:                  -5.580
REMARK INTRA:                   0.000
REMARK UNBOUND:                 0.000
REMARK SMILES CC1=CC(=O)[C@@H]2C[C@H]1C2(C)C
REMARK SMILES IDX 1 1 2 2 3 3 4 4 5 5 6 6 7 7 8 8 9 9 10 10 11 11
REMARK H PARENT
REMARK Flexibility Score: inf
ROOT
ATOM      1  C   UNL     1     -13.285 -41.251  41.318  1.00  0.00     0.040 C 
ATOM      2  C   UNL     1     -12.651 -39.977  40.857  1.00  0.00    -0.066 C 
ATOM      3  C   UNL     1     -11.297 -39.825  40.839  1.00  0.00     0.047 C 
ATOM      4  C   UNL     1     -10.783 -38.515  40.326  1.00  0.00     0.159 C 
ATOM      5  O   UNL     1      -9.553 -38.269  40.223  1.00  0.00    -0.295 OA
ATOM      6  C   UNL     1     -11.857 -37.499  39.936  1.00  0.00     0.067 C 
ATOM      7  C   UNL     1     -12.865 -37.547  41.105  1.00  0.00     0.021 C 
ATOM      8  C   UNL     1     -13.494 -38.769  40.398  1.00  0.00     0.022 C 
ATOM      9  C   UNL     1     -12.923 -38.217  39.060  1.00  0.00    -0.019 C 
ATOM     10  C   UNL     1     -13.890 -37.220  38.372  1.00  0.00     0.012 C 
ATOM     11  C   UNL     1     -12.436 -39.238  37.992  1.00  0.00     0.012 C 
ENDROOT
TORSDOF 0
ENDMDL
MODEL 8
REMARK VINA RESULT:    -5.578      3.091      4.152
REMARK INTER + INTRA:          -5.578
REMARK INTER:                  -5.578
REMARK INTRA:                   0.000
REMARK UNBOUND:                 0.000
REMARK SMILES CC1=CC(=O)[C@@H]2C[C@H]1C2(C)C
REMARK SMILES IDX 1 1 2 2 3 3 4 4 5 5 6 6 7 7 8 8 9 9 10 10 11 11
REMARK H PARENT
REMARK Flexibility Score: inf
ROOT
ATOM      1  C   UNL     1     -14.603 -35.997  37.709  1.00  0.00     0.040 C 
ATOM      2  C   UNL     1     -13.454 -36.796  38.237  1.00  0.00    -0.066 C 
ATOM      3  C   UNL     1     -12.228 -36.234  38.428  1.00  0.00     0.047 C 
ATOM      4  C   UNL     1     -11.167 -37.130  38.991  1.00  0.00     0.159 C 
ATOM      5  O   UNL     1     -10.007 -36.719  39.249  1.00  0.00    -0.295 OA
ATOM      6  C   UNL     1     -11.595 -38.579  39.232  1.00  0.00     0.067 C 
ATOM      7  C   UNL     1     -12.353 -38.968  37.943  1.00  0.00     0.021 C 
ATOM      8  C   UNL     1     -13.594 -38.295  38.574  1.00  0.00     0.022 C 
ATOM      9  C   UNL     1     -12.964 -38.574  39.970  1.00  0.00    -0.019 C 
ATOM     10  C   UNL     1     -13.343 -39.972  40.520  1.00  0.00     0.012 C 
ATOM     11  C   UNL     1     -13.192 -37.529  41.100  1.00  0.00     0.012 C 
ENDROOT
TORSDOF 0
ENDMDL
MODEL 9
REMARK VINA RESULT:    -5.533      3.870      4.974
REMARK INTER + INTRA:          -5.533
REMARK INTER:                  -5.533
REMARK INTRA:                   0.000
REMARK UNBOUND:                 0.000
REMARK SMILES CC1=CC(=O)[C@@H]2C[C@H]1C2(C)C
REMARK SMILES IDX 1 1 2 2 3 3 4 4 5 5 6 6 7 7 8 8 9 9 10 10 11 11
REMARK H PARENT
REMARK Flexibility Score: inf
ROOT
ATOM      1  C   UNL     1     -13.012 -39.982  36.791  1.00  0.00     0.040 C 
ATOM      2  C   UNL     1     -12.563 -38.715  37.447  1.00  0.00    -0.066 C 
ATOM      3  C   UNL     1     -11.297 -38.242  37.282  1.00  0.00     0.047 C 
ATOM      4  C   UNL     1     -10.978 -36.947  37.965  1.00  0.00     0.159 C 
ATOM      5  O   UNL     1      -9.856 -36.387  37.857  1.00  0.00    -0.295 OA
ATOM      6  C   UNL     1     -12.112 -36.353  38.802  1.00  0.00     0.067 C 
ATOM      7  C   UNL     1     -12.658 -37.554  39.605  1.00  0.00     0.021 C 
ATOM      8  C   UNL     1     -13.502 -37.893  38.355  1.00  0.00     0.022 C 
ATOM      9  C   UNL     1     -13.419 -36.390  37.961  1.00  0.00    -0.019 C 
ATOM     10  C   UNL     1     -14.555 -35.550  38.598  1.00  0.00     0.012 C 
ATOM     11  C   UNL     1     -13.337 -36.030  36.450  1.00  0.00     0.012 C 
ENDROOT
TORSDOF 0
ENDMDL
