MODEL 1
REMARK VINA RESULT:    -3.492      0.000      0.000
REMARK INTER + INTRA:          -4.475
REMARK INTER:                  -4.207
REMARK INTRA:                  -0.269
REMARK UNBOUND:                -0.269
REMARK SMILES NC(=O)C[C@@H]([NH3+])C(=O)[O-]
REMARK SMILES IDX 4 1 5 2 6 3 7 7 8 8 9 9 2 10 3 11 1 12
REMARK H PARENT 6 4 6 5 6 6 1 13 1 14
REMARK Flexibility Score: inf
ROOT
ATOM      1  C   UNL     1      16.645  -0.843 -20.960  1.00  0.00     0.171 C 
ENDROOT
BRANCH   1   2
ATOM      2  C   UNL     1      17.215  -0.266 -22.272  1.00  0.00     0.237 C 
BRANCH   2   3
ATOM      3  N   UNL     1      18.510   0.381 -22.028  1.00  0.00    -0.350 N 
ATOM      4  H   UNL     1      19.180  -0.310 -21.618  1.00  0.00     0.345 HD
ATOM      5  H   UNL     1      18.910   0.756 -22.919  1.00  0.00     0.345 HD
ATOM      6  H   UNL     1      18.392   1.165 -21.346  1.00  0.00     0.345 HD
ENDBRANCH   2   3
BRANCH   2   7
ATOM      7  C   UNL     1      17.360  -1.341 -23.319  1.00  0.00     0.100 C 
ATOM      8  O   UNL     1      16.650  -2.381 -23.270  1.00  0.00    -0.544 OA
ATOM      9  O   UNL     1      18.269  -1.180 -24.357  1.00  0.00    -0.544 OA
ENDBRANCH   2   7
ENDBRANCH   1   2
BRANCH   1  10
ATOM     10  C   UNL     1      15.970   0.218 -20.139  1.00  0.00     0.223 C 
ATOM     11  O   UNL     1      16.099   1.432 -20.453  1.00  0.00    -0.275 OA
ATOM     12  N   UNL     1      15.209  -0.137 -18.984  1.00  0.00    -0.369 N 
ATOM     13  H   UNL     1      14.751   0.603 -18.406  1.00  0.00     0.159 HD
ATOM     14  H   UNL     1      15.106  -1.137 -18.702  1.00  0.00     0.159 HD
ENDBRANCH   1  10
TORSDOF 4
ENDMDL
MODEL 2
REMARK VINA RESULT:    -3.393      6.069      6.892
REMARK INTER + INTRA:          -4.357
REMARK INTER:                  -3.922
REMARK INTRA:                  -0.435
REMARK UNBOUND:                -0.269
REMARK SMILES NC(=O)C[C@@H]([NH3+])C(=O)[O-]
REMARK SMILES IDX 4 1 5 2 6 3 7 7 8 8 9 9 2 10 3 11 1 12
REMARK H PARENT 6 4 6 5 6 6 1 13 1 14
REMARK Flexibility Score: inf
ROOT
ATOM      1  C   UNL     1      11.155   3.986 -19.516  1.00  0.00     0.171 C 
ENDROOT
BRANCH   1   2
ATOM      2  C   UNL     1      12.185   3.181 -20.335  1.00  0.00     0.237 C 
BRANCH   2   3
ATOM      3  N   UNL     1      12.913   2.246 -19.469  1.00  0.00    -0.350 N 
ATOM      4  H   UNL     1      12.849   2.563 -18.474  1.00  0.00     0.345 HD
ATOM      5  H   UNL     1      12.514   1.282 -19.546  1.00  0.00     0.345 HD
ATOM      6  H   UNL     1      13.923   2.224 -19.740  1.00  0.00     0.345 HD
ENDBRANCH   2   3
BRANCH   2   7
ATOM      7  C   UNL     1      11.517   2.434 -21.462  1.00  0.00     0.100 C 
ATOM      8  O   UNL     1      11.941   2.546 -22.643  1.00  0.00    -0.544 OA
ATOM      9  O   UNL     1      10.437   1.602 -21.197  1.00  0.00    -0.544 OA
ENDBRANCH   2   7
ENDBRANCH   1   2
BRANCH   1  10
ATOM     10  C   UNL     1      10.834   3.308 -18.215  1.00  0.00     0.223 C 
ATOM     11  O   UNL     1      11.407   3.682 -17.156  1.00  0.00    -0.275 OA
ATOM     12  N   UNL     1       9.910   2.221 -18.175  1.00  0.00    -0.369 N 
ATOM     13  H   UNL     1       9.699   1.742 -17.271  1.00  0.00     0.159 HD
ATOM     14  H   UNL     1       9.441   1.890 -19.046  1.00  0.00     0.159 HD
ENDBRANCH   1  10
TORSDOF 4
ENDMDL
MODEL 3
REMARK VINA RESULT:    -3.348      7.012      8.244
REMARK INTER + INTRA:          -4.302
REMARK INTER:                  -4.007
REMARK INTRA:                  -0.295
REMARK UNBOUND:                -0.269
REMARK SMILES NC(=O)C[C@@H]([NH3+])C(=O)[O-]
REMARK SMILES IDX 4 1 5 2 6 3 7 7 8 8 9 9 2 10 3 11 1 12
REMARK H PARENT 6 4 6 5 6 6 1 13 1 14
REMARK Flexibility Score: inf
ROOT
ATOM      1  C   UNL     1      11.769   2.815 -20.044  1.00  0.00     0.171 C 
ENDROOT
BRANCH   1   2
ATOM      2  C   UNL     1      11.190   3.647 -18.881  1.00  0.00     0.237 C 
BRANCH   2   3
ATOM      3  N   UNL     1      11.635   3.107 -17.591  1.00  0.00    -0.350 N 
ATOM      4  H   UNL     1      12.617   2.757 -17.674  1.00  0.00     0.345 HD
ATOM      5  H   UNL     1      11.596   3.842 -16.848  1.00  0.00     0.345 HD
ATOM      6  H   UNL     1      11.025   2.304 -17.314  1.00  0.00     0.345 HD
ENDBRANCH   2   3
BRANCH   2   7
ATOM      7  C   UNL     1      11.585   5.097 -19.003  1.00  0.00     0.100 C 
ATOM      8  O   UNL     1      12.358   5.622 -18.157  1.00  0.00    -0.544 OA
ATOM      9  O   UNL     1      11.108   5.859 -20.061  1.00  0.00    -0.544 OA
ENDBRANCH   2   7
ENDBRANCH   1   2
BRANCH   1  10
ATOM     10  C   UNL     1      10.719   2.490 -21.067  1.00  0.00     0.223 C 
ATOM     11  O   UNL     1      10.207   1.338 -21.095  1.00  0.00    -0.275 OA
ATOM     12  N   UNL     1      10.320   3.466 -22.029  1.00  0.00    -0.369 N 
ATOM     13  H   UNL     1       9.599   3.234 -22.748  1.00  0.00     0.159 HD
ATOM     14  H   UNL     1      10.747   4.419 -22.027  1.00  0.00     0.159 HD
ENDBRANCH   1  10
TORSDOF 4
ENDMDL
MODEL 4
REMARK VINA RESULT:    -3.330      2.598      3.949
REMARK INTER + INTRA:          -4.280
REMARK INTER:                  -4.051
REMARK INTRA:                  -0.229
REMARK UNBOUND:                -0.269
REMARK SMILES NC(=O)C[C@@H]([NH3+])C(=O)[O-]
REMARK SMILES IDX 4 1 5 2 6 3 7 7 8 8 9 9 2 10 3 11 1 12
REMARK H PARENT 6 4 6 5 6 6 1 13 1 14
REMARK Flexibility Score: inf
ROOT
ATOM      1  C   UNL     1      16.186   0.687 -21.286  1.00  0.00     0.171 C 
ENDROOT
BRANCH   1   2
ATOM      2  C   UNL     1      15.932   2.122 -20.782  1.00  0.00     0.237 C 
BRANCH   2   3
ATOM      3  N   UNL     1      16.883   3.058 -21.396  1.00  0.00    -0.350 N 
ATOM      4  H   UNL     1      17.361   2.597 -22.204  1.00  0.00     0.345 HD
ATOM      5  H   UNL     1      16.390   3.916 -21.736  1.00  0.00     0.345 HD
ATOM      6  H   UNL     1      17.611   3.332 -20.698  1.00  0.00     0.345 HD
ENDBRANCH   2   3
BRANCH   2   7
ATOM      7  C   UNL     1      14.517   2.555 -21.069  1.00  0.00     0.100 C 
ATOM      8  O   UNL     1      13.594   2.307 -20.247  1.00  0.00    -0.544 OA
ATOM      9  O   UNL     1      14.226   3.247 -22.238  1.00  0.00    -0.544 OA
ENDBRANCH   2   7
ENDBRANCH   1   2
BRANCH   1  10
ATOM     10  C   UNL     1      16.128  -0.310 -20.165  1.00  0.00     0.223 C 
ATOM     11  O   UNL     1      16.798  -1.375 -20.237  1.00  0.00    -0.275 OA
ATOM     12  N   UNL     1      15.293  -0.075 -19.031  1.00  0.00    -0.369 N 
ATOM     13  H   UNL     1      15.243  -0.776 -18.258  1.00  0.00     0.159 HD
ATOM     14  H   UNL     1      14.720   0.795 -18.965  1.00  0.00     0.159 HD
ENDBRANCH   1  10
TORSDOF 4
ENDMDL
MODEL 5
REMARK VINA RESULT:    -3.283      7.239      9.162
REMARK INTER + INTRA:          -4.223
REMARK INTER:                  -3.933
REMARK INTRA:                  -0.290
REMARK UNBOUND:                -0.269
REMARK SMILES NC(=O)C[C@@H]([NH3+])C(=O)[O-]
REMARK SMILES IDX 4 1 5 2 6 3 7 7 8 8 9 9 2 10 3 11 1 12
REMARK H PARENT 6 4 6 5 6 6 1 13 1 14
REMARK Flexibility Score: inf
ROOT
ATOM      1  C   UNL     1      11.718   4.482 -18.546  1.00  0.00     0.171 C 
ENDROOT
BRANCH   1   2
ATOM      2  C   UNL     1      11.255   4.676 -17.088  1.00  0.00     0.237 C 
BRANCH   2   3
ATOM      3  N   UNL     1      11.485   3.453 -16.309  1.00  0.00    -0.350 N 
ATOM      4  H   UNL     1      12.245   2.888 -16.753  1.00  0.00     0.345 HD
ATOM      5  H   UNL     1      11.763   3.686 -15.328  1.00  0.00     0.345 HD
ATOM      6  H   UNL     1      10.614   2.875 -16.293  1.00  0.00     0.345 HD
ENDBRANCH   2   3
BRANCH   2   7
ATOM      7  C   UNL     1      11.961   5.843 -16.446  1.00  0.00     0.100 C 
ATOM      8  O   UNL     1      13.023   6.302 -16.946  1.00  0.00    -0.544 OA
ATOM      9  O   UNL     1      11.433   6.430 -15.303  1.00  0.00    -0.544 OA
ENDBRANCH   2   7
ENDBRANCH   1   2
BRANCH   1  10
ATOM     10  C   UNL     1      11.609   3.046 -18.973  1.00  0.00     0.223 C 
ATOM     11  O   UNL     1      10.499   2.453 -18.903  1.00  0.00    -0.275 OA
ATOM     12  N   UNL     1      12.763   2.338 -19.426  1.00  0.00    -0.369 N 
ATOM     13  H   UNL     1      12.689   1.336 -19.709  1.00  0.00     0.159 HD
ATOM     14  H   UNL     1      13.692   2.811 -19.474  1.00  0.00     0.159 HD
ENDBRANCH   1  10
TORSDOF 4
ENDMDL
MODEL 6
REMARK VINA RESULT:    -3.276      6.498      6.828
REMARK INTER + INTRA:          -4.216
REMARK INTER:                  -3.874
REMARK INTRA:                  -0.342
REMARK UNBOUND:                -0.269
REMARK SMILES NC(=O)C[C@@H]([NH3+])C(=O)[O-]
REMARK SMILES IDX 4 1 5 2 6 3 7 7 8 8 9 9 2 10 3 11 1 12
REMARK H PARENT 6 4 6 5 6 6 1 13 1 14
REMARK Flexibility Score: inf
ROOT
ATOM      1  C   UNL     1      10.579   2.180 -20.983  1.00  0.00     0.171 C 
ENDROOT
BRANCH   1   2
ATOM      2  C   UNL     1      10.722   3.466 -21.823  1.00  0.00     0.237 C 
BRANCH   2   3
ATOM      3  N   UNL     1      11.009   4.616 -20.957  1.00  0.00    -0.350 N 
ATOM      4  H   UNL     1      10.120   4.971 -20.535  1.00  0.00     0.345 HD
ATOM      5  H   UNL     1      11.668   4.347 -20.191  1.00  0.00     0.345 HD
ATOM      6  H   UNL     1      11.433   5.388 -21.522  1.00  0.00     0.345 HD
ENDBRANCH   2   3
BRANCH   2   7
ATOM      7  C   UNL     1      11.801   3.316 -22.865  1.00  0.00     0.100 C 
ATOM      8  O   UNL     1      12.778   2.546 -22.667  1.00  0.00    -0.544 OA
ATOM      9  O   UNL     1      11.714   4.019 -24.060  1.00  0.00    -0.544 OA
ENDBRANCH   2   7
ENDBRANCH   1   2
BRANCH   1  10
ATOM     10  C   UNL     1      11.022   2.397 -19.564  1.00  0.00     0.223 C 
ATOM     11  O   UNL     1      12.225   2.680 -19.319  1.00  0.00    -0.275 OA
ATOM     12  N   UNL     1      10.095   2.250 -18.488  1.00  0.00    -0.369 N 
ATOM     13  H   UNL     1      10.407   2.387 -17.501  1.00  0.00     0.159 HD
ATOM     14  H   UNL     1       9.099   1.999 -18.675  1.00  0.00     0.159 HD
ENDBRANCH   1  10
TORSDOF 4
ENDMDL
MODEL 7
REMARK VINA RESULT:    -3.266      2.095      2.839
REMARK INTER + INTRA:          -4.203
REMARK INTER:                  -3.940
REMARK INTRA:                  -0.264
REMARK UNBOUND:                -0.269
REMARK SMILES NC(=O)C[C@@H]([NH3+])C(=O)[O-]
REMARK SMILES IDX 4 1 5 2 6 3 7 7 8 8 9 9 2 10 3 11 1 12
REMARK H PARENT 6 4 6 5 6 6 1 13 1 14
REMARK Flexibility Score: inf
ROOT
ATOM      1  C   UNL     1      16.242   0.905 -21.113  1.00  0.00     0.171 C 
ENDROOT
BRANCH   1   2
ATOM      2  C   UNL     1      17.245   0.588 -22.241  1.00  0.00     0.237 C 
BRANCH   2   3
ATOM      3  N   UNL     1      16.606  -0.230 -23.281  1.00  0.00    -0.350 N 
ATOM      4  H   UNL     1      15.570  -0.239 -23.136  1.00  0.00     0.345 HD
ATOM      5  H   UNL     1      16.815   0.152 -24.232  1.00  0.00     0.345 HD
ATOM      6  H   UNL     1      16.953  -1.214 -23.220  1.00  0.00     0.345 HD
ENDBRANCH   2   3
BRANCH   2   7
ATOM      7  C   UNL     1      17.803   1.852 -22.843  1.00  0.00     0.100 C 
ATOM      8  O   UNL     1      18.334   1.836 -23.986  1.00  0.00    -0.544 OA
ATOM      9  O   UNL     1      17.719   3.049 -22.142  1.00  0.00    -0.544 OA
ENDBRANCH   2   7
ENDBRANCH   1   2
BRANCH   1  10
ATOM     10  C   UNL     1      16.113  -0.240 -20.150  1.00  0.00     0.223 C 
ATOM     11  O   UNL     1      16.742  -1.312 -20.363  1.00  0.00    -0.275 OA
ATOM     12  N   UNL     1      15.256  -0.136 -19.014  1.00  0.00    -0.369 N 
ATOM     13  H   UNL     1      15.157  -0.938 -18.353  1.00  0.00     0.159 HD
ATOM     14  H   UNL     1      14.716   0.739 -18.834  1.00  0.00     0.159 HD
ENDBRANCH   1  10
TORSDOF 4
ENDMDL
MODEL 8
REMARK VINA RESULT:    -3.193      1.742      3.880
REMARK INTER + INTRA:          -4.115
REMARK INTER:                  -3.630
REMARK INTRA:                  -0.485
REMARK UNBOUND:                -0.269
REMARK SMILES NC(=O)C[C@@H]([NH3+])C(=O)[O-]
REMARK SMILES IDX 4 1 5 2 6 3 7 7 8 8 9 9 2 10 3 11 1 12
REMARK H PARENT 6 4 6 5 6 6 1 13 1 14
REMARK Flexibility Score: inf
ROOT
ATOM      1  C   UNL     1      16.969  -1.249 -22.215  1.00  0.00     0.171 C 
ENDROOT
BRANCH   1   2
ATOM      2  C   UNL     1      16.306  -0.842 -20.884  1.00  0.00     0.237 C 
BRANCH   2   3
ATOM      3  N   UNL     1      17.039  -1.417 -19.748  1.00  0.00    -0.350 N 
ATOM      4  H   UNL     1      16.554  -2.282 -19.416  1.00  0.00     0.345 HD
ATOM      5  H   UNL     1      18.018  -1.659 -20.025  1.00  0.00     0.345 HD
ATOM      6  H   UNL     1      17.062  -0.731 -18.959  1.00  0.00     0.345 HD
ENDBRANCH   2   3
BRANCH   2   7
ATOM      7  C   UNL     1      16.233   0.658 -20.751  1.00  0.00     0.100 C 
ATOM      8  O   UNL     1      15.572   1.185 -19.816  1.00  0.00    -0.544 OA
ATOM      9  O   UNL     1      16.910   1.468 -21.653  1.00  0.00    -0.544 OA
ENDBRANCH   2   7
ENDBRANCH   1   2
BRANCH   1  10
ATOM     10  C   UNL     1      18.444  -1.477 -22.051  1.00  0.00     0.223 C 
ATOM     11  O   UNL     1      18.873  -2.625 -21.757  1.00  0.00    -0.275 OA
ATOM     12  N   UNL     1      19.362  -0.393 -22.191  1.00  0.00    -0.369 N 
ATOM     13  H   UNL     1      20.387  -0.550 -22.063  1.00  0.00     0.159 HD
ATOM     14  H   UNL     1      19.021   0.567 -22.418  1.00  0.00     0.159 HD
ENDBRANCH   1  10
TORSDOF 4
ENDMDL
MODEL 9
REMARK VINA RESULT:    -3.161      2.054      3.906
REMARK INTER + INTRA:          -4.076
REMARK INTER:                  -3.567
REMARK INTRA:                  -0.509
REMARK UNBOUND:                -0.269
REMARK SMILES NC(=O)C[C@@H]([NH3+])C(=O)[O-]
REMARK SMILES IDX 4 1 5 2 6 3 7 7 8 8 9 9 2 10 3 11 1 12
REMARK H PARENT 6 4 6 5 6 6 1 13 1 14
REMARK Flexibility Score: inf
ROOT
ATOM      1  C   UNL     1      18.286   0.718 -22.371  1.00  0.00     0.171 C 
ENDROOT
BRANCH   1   2
ATOM      2  C   UNL     1      16.754   0.866 -22.271  1.00  0.00     0.237 C 
BRANCH   2   3
ATOM      3  N   UNL     1      16.088  -0.041 -23.214  1.00  0.00    -0.350 N 
ATOM      4  H   UNL     1      15.967  -0.982 -22.773  1.00  0.00     0.345 HD
ATOM      5  H   UNL     1      15.150   0.332 -23.486  1.00  0.00     0.345 HD
ATOM      6  H   UNL     1      16.676  -0.155 -24.072  1.00  0.00     0.345 HD
ENDBRANCH   2   3
BRANCH   2   7
ATOM      7  C   UNL     1      16.275   0.602 -20.867  1.00  0.00     0.100 C 
ATOM      8  O   UNL     1      15.850   1.545 -20.148  1.00  0.00    -0.544 OA
ATOM      9  O   UNL     1      16.284  -0.693 -20.363  1.00  0.00    -0.544 OA
ENDBRANCH   2   7
ENDBRANCH   1   2
BRANCH   1  10
ATOM     10  C   UNL     1      18.682  -0.674 -22.770  1.00  0.00     0.223 C 
ATOM     11  O   UNL     1      18.816  -0.963 -23.990  1.00  0.00    -0.275 OA
ATOM     12  N   UNL     1      18.874  -1.683 -21.778  1.00  0.00    -0.369 N 
ATOM     13  H   UNL     1      19.135  -2.654 -22.058  1.00  0.00     0.159 HD
ATOM     14  H   UNL     1      18.750  -1.463 -20.766  1.00  0.00     0.159 HD
ENDBRANCH   1  10
TORSDOF 4
ENDMDL
