MODEL 1
REMARK VINA RESULT:    -4.900      0.000      0.000
REMARK INTER + INTRA:          -8.269
REMARK INTER:                  -7.192
REMARK INTRA:                  -1.077
REMARK UNBOUND:                -1.077
REMARK SMILES CCCOC(=O)c1ccccc1C(=O)OCCC
REMARK SMILES IDX 7 1 8 2 9 3 10 4 11 5 12 6 5 7 6 8 4 9 3 10 2 11 1 12 13 13
REMARK SMILES IDX 14 14 15 15 16 16 17 17 18 18
REMARK H PARENT
REMARK Flexibility Score: inf
ROOT
ATOM      1  C   UNL     1     185.338 199.107 169.860  1.00  0.00     0.074 A 
ATOM      2  C   UNL     1     185.644 199.114 168.487  1.00  0.00     0.016 A 
ATOM      3  C   UNL     1     184.908 199.895 167.596  1.00  0.00     0.001 A 
ATOM      4  C   UNL     1     183.857 200.682 168.059  1.00  0.00     0.001 A 
ATOM      5  C   UNL     1     183.550 200.709 169.421  1.00  0.00     0.016 A 
ATOM      6  C   UNL     1     184.294 199.947 170.339  1.00  0.00     0.074 A 
ENDROOT
BRANCH   1   7
ATOM      7  C   UNL     1     186.083 198.170 170.730  1.00  0.00     0.339 C 
ATOM      8  O   UNL     1     185.976 196.924 170.564  1.00  0.00    -0.246 OA
BRANCH   7   9
ATOM      9  O   UNL     1     186.953 198.676 171.703  1.00  0.00    -0.462 OA
BRANCH   9  10
ATOM     10  C   UNL     1     188.128 199.409 171.377  1.00  0.00     0.233 C 
BRANCH  10  11
ATOM     11  C   UNL     1     189.058 198.530 170.543  1.00  0.00     0.038 C 
ATOM     12  C   UNL     1     189.360 199.171 169.191  1.00  0.00     0.007 C 
ENDBRANCH  10  11
ENDBRANCH   9  10
ENDBRANCH   7   9
ENDBRANCH   1   7
BRANCH   6  13
ATOM     13  C   UNL     1     183.989 200.109 171.779  1.00  0.00     0.339 C 
ATOM     14  O   UNL     1     184.616 200.959 172.470  1.00  0.00    -0.246 OA
BRANCH  13  15
ATOM     15  O   UNL     1     182.958 199.356 172.353  1.00  0.00    -0.462 OA
BRANCH  15  16
ATOM     16  C   UNL     1     183.086 197.975 172.687  1.00  0.00     0.233 C 
BRANCH  16  17
ATOM     17  C   UNL     1     183.835 197.812 174.012  1.00  0.00     0.038 C 
ATOM     18  C   UNL     1     183.032 198.385 175.175  1.00  0.00     0.007 C 
ENDBRANCH  16  17
ENDBRANCH  15  16
ENDBRANCH  13  15
ENDBRANCH   6  13
TORSDOF 8
ENDMDL
MODEL 2
REMARK VINA RESULT:    -4.873      0.118      4.765
REMARK INTER + INTRA:          -8.229
REMARK INTER:                  -7.143
REMARK INTRA:                  -1.086
REMARK UNBOUND:                -1.077
REMARK SMILES CCCOC(=O)c1ccccc1C(=O)OCCC
REMARK SMILES IDX 7 1 8 2 9 3 10 4 11 5 12 6 5 7 6 8 4 9 3 10 2 11 1 12 13 13
REMARK SMILES IDX 14 14 15 15 16 16 17 17 18 18
REMARK H PARENT
REMARK Flexibility Score: inf
ROOT
ATOM      1  C   UNL     1     184.341 200.023 170.367  1.00  0.00     0.074 A 
ATOM      2  C   UNL     1     183.601 200.770 169.432  1.00  0.00     0.016 A 
ATOM      3  C   UNL     1     183.899 200.707 168.071  1.00  0.00     0.001 A 
ATOM      4  C   UNL     1     184.940 199.898 167.620  1.00  0.00     0.001 A 
ATOM      5  C   UNL     1     185.673 199.131 168.527  1.00  0.00     0.016 A 
ATOM      6  C   UNL     1     185.374 199.161 169.900  1.00  0.00     0.074 A 
ENDROOT
BRANCH   1   7
ATOM      7  C   UNL     1     184.047 200.224 171.803  1.00  0.00     0.339 C 
ATOM      8  O   UNL     1     184.701 201.067 172.476  1.00  0.00    -0.246 OA
BRANCH   7   9
ATOM      9  O   UNL     1     182.997 199.514 172.398  1.00  0.00    -0.462 OA
BRANCH   9  10
ATOM     10  C   UNL     1     183.048 198.109 172.620  1.00  0.00     0.233 C 
BRANCH  10  11
ATOM     11  C   UNL     1     183.891 197.823 173.861  1.00  0.00     0.038 C 
ATOM     12  C   UNL     1     183.131 198.172 175.138  1.00  0.00     0.007 C 
ENDBRANCH  10  11
ENDBRANCH   9  10
ENDBRANCH   7   9
ENDBRANCH   1   7
BRANCH   6  13
ATOM     13  C   UNL     1     186.115 198.239 170.790  1.00  0.00     0.339 C 
ATOM     14  O   UNL     1     185.998 196.990 170.651  1.00  0.00    -0.246 OA
BRANCH  13  15
ATOM     15  O   UNL     1     186.993 198.762 171.747  1.00  0.00    -0.462 OA
BRANCH  15  16
ATOM     16  C   UNL     1     188.210 199.428 171.416  1.00  0.00     0.233 C 
BRANCH  16  17
ATOM     17  C   UNL     1     189.067 198.552 170.498  1.00  0.00     0.038 C 
ATOM     18  C   UNL     1     189.355 199.256 169.176  1.00  0.00     0.007 C 
ENDBRANCH  16  17
ENDBRANCH  15  16
ENDBRANCH  13  15
ENDBRANCH   6  13
TORSDOF 8
ENDMDL
MODEL 3
REMARK VINA RESULT:    -4.693      1.434      4.448
REMARK INTER + INTRA:          -7.965
REMARK INTER:                  -7.157
REMARK INTRA:                  -0.808
REMARK UNBOUND:                -1.077
REMARK SMILES CCCOC(=O)c1ccccc1C(=O)OCCC
REMARK SMILES IDX 7 1 8 2 9 3 10 4 11 5 12 6 5 7 6 8 4 9 3 10 2 11 1 12 13 13
REMARK SMILES IDX 14 14 15 15 16 16 17 17 18 18
REMARK H PARENT
REMARK Flexibility Score: inf
ROOT
ATOM      1  C   UNL     1     185.315 198.940 172.924  1.00  0.00     0.074 A 
ATOM      2  C   UNL     1     185.139 198.200 174.108  1.00  0.00     0.016 A 
ATOM      3  C   UNL     1     183.923 197.574 174.384  1.00  0.00     0.001 A 
ATOM      4  C   UNL     1     182.864 197.675 173.485  1.00  0.00     0.001 A 
ATOM      5  C   UNL     1     183.023 198.385 172.294  1.00  0.00     0.016 A 
ATOM      6  C   UNL     1     184.247 199.003 171.984  1.00  0.00     0.074 A 
ENDROOT
BRANCH   1   7
ATOM      7  C   UNL     1     186.589 199.672 172.748  1.00  0.00     0.339 C 
ATOM      8  O   UNL     1     186.640 200.918 172.939  1.00  0.00    -0.246 OA
BRANCH   7   9
ATOM      9  O   UNL     1     187.751 198.963 172.424  1.00  0.00    -0.462 OA
BRANCH   9  10
ATOM     10  C   UNL     1     187.830 198.084 171.307  1.00  0.00     0.233 C 
BRANCH  10  11
ATOM     11  C   UNL     1     188.969 198.529 170.392  1.00  0.00     0.038 C 
ATOM     12  C   UNL     1     188.986 200.046 170.227  1.00  0.00     0.007 C 
ENDBRANCH  10  11
ENDBRANCH   9  10
ENDBRANCH   7   9
ENDBRANCH   1   7
BRANCH   6  13
ATOM     13  C   UNL     1     184.383 199.642 170.656  1.00  0.00     0.339 C 
ATOM     14  O   UNL     1     183.918 200.798 170.456  1.00  0.00    -0.246 OA
BRANCH  13  15
ATOM     15  O   UNL     1     185.083 198.980 169.641  1.00  0.00    -0.462 OA
BRANCH  15  16
ATOM     16  C   UNL     1     185.676 199.649 168.529  1.00  0.00     0.233 C 
BRANCH  16  17
ATOM     17  C   UNL     1     184.880 199.374 167.251  1.00  0.00     0.038 C 
ATOM     18  C   UNL     1     184.132 200.620 166.789  1.00  0.00     0.007 C 
ENDBRANCH  16  17
ENDBRANCH  15  16
ENDBRANCH  13  15
ENDBRANCH   6  13
TORSDOF 8
ENDMDL
MODEL 4
REMARK VINA RESULT:    -4.628      1.450      4.877
REMARK INTER + INTRA:          -7.869
REMARK INTER:                  -7.066
REMARK INTRA:                  -0.803
REMARK UNBOUND:                -1.077
REMARK SMILES CCCOC(=O)c1ccccc1C(=O)OCCC
REMARK SMILES IDX 7 1 8 2 9 3 10 4 11 5 12 6 5 7 6 8 4 9 3 10 2 11 1 12 13 13
REMARK SMILES IDX 14 14 15 15 16 16 17 17 18 18
REMARK H PARENT
REMARK Flexibility Score: inf
ROOT
ATOM      1  C   UNL     1     184.257 199.081 171.927  1.00  0.00     0.074 A 
ATOM      2  C   UNL     1     183.048 198.424 172.218  1.00  0.00     0.016 A 
ATOM      3  C   UNL     1     182.894 197.703 173.402  1.00  0.00     0.001 A 
ATOM      4  C   UNL     1     183.943 197.624 174.314  1.00  0.00     0.001 A 
ATOM      5  C   UNL     1     185.144 198.287 174.058  1.00  0.00     0.016 A 
ATOM      6  C   UNL     1     185.312 199.040 172.882  1.00  0.00     0.074 A 
ENDROOT
BRANCH   1   7
ATOM      7  C   UNL     1     184.392 199.732 170.605  1.00  0.00     0.339 C 
ATOM      8  O   UNL     1     183.828 200.838 170.377  1.00  0.00    -0.246 OA
BRANCH   7   9
ATOM      9  O   UNL     1     185.197 199.140 169.625  1.00  0.00    -0.462 OA
BRANCH   9  10
ATOM     10  C   UNL     1     185.674 199.853 168.488  1.00  0.00     0.233 C 
BRANCH  10  11
ATOM     11  C   UNL     1     184.866 199.443 167.259  1.00  0.00     0.038 C 
ATOM     12  C   UNL     1     184.122 200.636 166.664  1.00  0.00     0.007 C 
ENDBRANCH  10  11
ENDBRANCH   9  10
ENDBRANCH   7   9
ENDBRANCH   1   7
BRANCH   6  13
ATOM     13  C   UNL     1     186.568 199.808 172.727  1.00  0.00     0.339 C 
ATOM     14  O   UNL     1     186.579 201.055 172.920  1.00  0.00    -0.246 OA
BRANCH  13  15
ATOM     15  O   UNL     1     187.756 199.132 172.424  1.00  0.00    -0.462 OA
BRANCH  15  16
ATOM     16  C   UNL     1     187.852 198.122 171.421  1.00  0.00     0.233 C 
BRANCH  16  17
ATOM     17  C   UNL     1     188.769 198.581 170.284  1.00  0.00     0.038 C 
ATOM     18  C   UNL     1     188.950 200.096 170.300  1.00  0.00     0.007 C 
ENDBRANCH  16  17
ENDBRANCH  15  16
ENDBRANCH  13  15
ENDBRANCH   6  13
TORSDOF 8
ENDMDL
MODEL 5
REMARK VINA RESULT:    -4.547      1.595      4.229
REMARK INTER + INTRA:          -7.750
REMARK INTER:                  -7.113
REMARK INTRA:                  -0.637
REMARK UNBOUND:                -1.077
REMARK SMILES CCCOC(=O)c1ccccc1C(=O)OCCC
REMARK SMILES IDX 7 1 8 2 9 3 10 4 11 5 12 6 5 7 6 8 4 9 3 10 2 11 1 12 13 13
REMARK SMILES IDX 14 14 15 15 16 16 17 17 18 18
REMARK H PARENT
REMARK Flexibility Score: inf
ROOT
ATOM      1  C   UNL     1     185.920 198.851 169.658  1.00  0.00     0.074 A 
ATOM      2  C   UNL     1     184.939 199.190 168.707  1.00  0.00     0.016 A 
ATOM      3  C   UNL     1     185.127 200.267 167.840  1.00  0.00     0.001 A 
ATOM      4  C   UNL     1     186.294 201.023 167.908  1.00  0.00     0.001 A 
ATOM      5  C   UNL     1     187.290 200.692 168.828  1.00  0.00     0.016 A 
ATOM      6  C   UNL     1     187.132 199.596 169.694  1.00  0.00     0.074 A 
ENDROOT
BRANCH   1   7
ATOM      7  C   UNL     1     185.607 197.771 170.620  1.00  0.00     0.339 C 
ATOM      8  O   UNL     1     186.003 196.592 170.406  1.00  0.00    -0.246 OA
BRANCH   7   9
ATOM      9  O   UNL     1     184.918 198.077 171.799  1.00  0.00    -0.462 OA
BRANCH   9  10
ATOM     10  C   UNL     1     183.500 198.185 171.856  1.00  0.00     0.233 C 
BRANCH  10  11
ATOM     11  C   UNL     1     183.038 198.032 173.303  1.00  0.00     0.038 C 
ATOM     12  C   UNL     1     184.157 197.484 174.186  1.00  0.00     0.007 C 
ENDBRANCH  10  11
ENDBRANCH   9  10
ENDBRANCH   7   9
ENDBRANCH   1   7
BRANCH   6  13
ATOM     13  C   UNL     1     188.273 199.233 170.565  1.00  0.00     0.339 C 
ATOM     14  O   UNL     1     188.646 198.030 170.656  1.00  0.00    -0.246 OA
BRANCH  13  15
ATOM     15  O   UNL     1     188.973 200.240 171.240  1.00  0.00    -0.462 OA
BRANCH  15  16
ATOM     16  C   UNL     1     188.368 201.116 172.190  1.00  0.00     0.233 C 
BRANCH  16  17
ATOM     17  C   UNL     1     187.476 200.328 173.152  1.00  0.00     0.038 C 
ATOM     18  C   UNL     1     186.041 200.843 173.121  1.00  0.00     0.007 C 
ENDBRANCH  16  17
ENDBRANCH  15  16
ENDBRANCH  13  15
ENDBRANCH   6  13
TORSDOF 8
ENDMDL
MODEL 6
REMARK VINA RESULT:    -4.494      1.502      3.443
REMARK INTER + INTRA:          -7.672
REMARK INTER:                  -6.753
REMARK INTRA:                  -0.919
REMARK UNBOUND:                -1.077
REMARK SMILES CCCOC(=O)c1ccccc1C(=O)OCCC
REMARK SMILES IDX 7 1 8 2 9 3 10 4 11 5 12 6 5 7 6 8 4 9 3 10 2 11 1 12 13 13
REMARK SMILES IDX 14 14 15 15 16 16 17 17 18 18
REMARK H PARENT
REMARK Flexibility Score: inf
ROOT
ATOM      1  C   UNL     1     186.231 199.361 171.242  1.00  0.00     0.074 A 
ATOM      2  C   UNL     1     187.532 199.367 171.778  1.00  0.00     0.016 A 
ATOM      3  C   UNL     1     187.876 200.242 172.809  1.00  0.00     0.001 A 
ATOM      4  C   UNL     1     186.929 201.125 173.321  1.00  0.00     0.001 A 
ATOM      5  C   UNL     1     185.626 201.121 172.821  1.00  0.00     0.016 A 
ATOM      6  C   UNL     1     185.251 200.231 171.799  1.00  0.00     0.074 A 
ENDROOT
BRANCH   1   7
ATOM      7  C   UNL     1     185.967 198.490 170.076  1.00  0.00     0.339 C 
ATOM      8  O   UNL     1     185.334 197.407 170.219  1.00  0.00    -0.246 OA
BRANCH   7   9
ATOM      9  O   UNL     1     186.373 198.901 168.802  1.00  0.00    -0.462 OA
BRANCH   9  10
ATOM     10  C   UNL     1     185.879 200.084 168.182  1.00  0.00     0.233 C 
BRANCH  10  11
ATOM     11  C   UNL     1     184.727 199.722 167.247  1.00  0.00     0.038 C 
ATOM     12  C   UNL     1     184.154 200.964 166.570  1.00  0.00     0.007 C 
ENDBRANCH  10  11
ENDBRANCH   9  10
ENDBRANCH   7   9
ENDBRANCH   1   7
BRANCH   6  13
ATOM     13  C   UNL     1     183.828 200.202 171.394  1.00  0.00     0.339 C 
ATOM     14  O   UNL     1     183.460 200.756 170.322  1.00  0.00    -0.246 OA
BRANCH  13  15
ATOM     15  O   UNL     1     182.902 199.503 172.179  1.00  0.00    -0.462 OA
BRANCH  15  16
ATOM     16  C   UNL     1     183.035 198.121 172.507  1.00  0.00     0.233 C 
BRANCH  16  17
ATOM     17  C   UNL     1     182.847 197.907 174.011  1.00  0.00     0.038 C 
ATOM     18  C   UNL     1     184.177 197.606 174.695  1.00  0.00     0.007 C 
ENDBRANCH  16  17
ENDBRANCH  15  16
ENDBRANCH  13  15
ENDBRANCH   6  13
TORSDOF 8
ENDMDL
MODEL 7
REMARK VINA RESULT:    -4.411      1.739      4.227
REMARK INTER + INTRA:          -7.550
REMARK INTER:                  -7.213
REMARK INTRA:                  -0.337
REMARK UNBOUND:                -1.077
REMARK SMILES CCCOC(=O)c1ccccc1C(=O)OCCC
REMARK SMILES IDX 7 1 8 2 9 3 10 4 11 5 12 6 5 7 6 8 4 9 3 10 2 11 1 12 13 13
REMARK SMILES IDX 14 14 15 15 16 16 17 17 18 18
REMARK H PARENT
REMARK Flexibility Score: inf
ROOT
ATOM      1  C   UNL     1     186.861 199.795 169.739  1.00  0.00     0.074 A 
ATOM      2  C   UNL     1     188.086 200.137 169.137  1.00  0.00     0.016 A 
ATOM      3  C   UNL     1     189.259 199.457 169.469  1.00  0.00     0.001 A 
ATOM      4  C   UNL     1     189.228 198.428 170.407  1.00  0.00     0.001 A 
ATOM      5  C   UNL     1     188.021 198.057 171.000  1.00  0.00     0.016 A 
ATOM      6  C   UNL     1     186.823 198.713 170.662  1.00  0.00     0.074 A 
ENDROOT
BRANCH   1   7
ATOM      7  C   UNL     1     185.680 200.630 169.426  1.00  0.00     0.339 C 
ATOM      8  O   UNL     1     184.975 201.112 170.356  1.00  0.00    -0.246 OA
BRANCH   7   9
ATOM      9  O   UNL     1     185.381 200.930 168.092  1.00  0.00    -0.462 OA
BRANCH   9  10
ATOM     10  C   UNL     1     184.636 200.053 167.255  1.00  0.00     0.233 C 
BRANCH  10  11
ATOM     11  C   UNL     1     183.707 200.873 166.363  1.00  0.00     0.038 C 
ATOM     12  C   UNL     1     183.409 200.144 165.055  1.00  0.00     0.007 C 
ENDBRANCH  10  11
ENDBRANCH   9  10
ENDBRANCH   7   9
ENDBRANCH   1   7
BRANCH   6  13
ATOM     13  C   UNL     1     185.564 198.195 171.243  1.00  0.00     0.339 C 
ATOM     14  O   UNL     1     184.773 197.509 170.538  1.00  0.00    -0.246 OA
BRANCH  13  15
ATOM     15  O   UNL     1     185.286 198.420 172.597  1.00  0.00    -0.462 OA
BRANCH  15  16
ATOM     16  C   UNL     1     183.971 198.637 173.103  1.00  0.00     0.233 C 
BRANCH  16  17
ATOM     17  C   UNL     1     183.729 197.779 174.349  1.00  0.00     0.038 C 
ATOM     18  C   UNL     1     182.748 198.455 175.302  1.00  0.00     0.007 C 
ENDBRANCH  16  17
ENDBRANCH  15  16
ENDBRANCH  13  15
ENDBRANCH   6  13
TORSDOF 8
ENDMDL
