MODEL 1
REMARK VINA RESULT:    -4.941      0.000      0.000
REMARK INTER + INTRA:          -8.226
REMARK INTER:                  -7.252
REMARK INTRA:                  -0.974
REMARK UNBOUND:                -0.974
REMARK SMILES CCCOC(=O)c1ccccc1C(=O)OCCC
REMARK SMILES IDX 7 1 8 2 9 3 10 4 11 5 12 6 5 7 6 8 4 9 3 10 2 11 1 12 13 13
REMARK SMILES IDX 14 14 15 15 16 16 17 17 18 18
REMARK H PARENT
REMARK Flexibility Score: inf
ROOT
ATOM      1  C   UNL     1      86.294  95.100  79.095  1.00  0.00     0.074 A 
ATOM      2  C   UNL     1      85.366  95.381  78.079  1.00  0.00     0.016 A 
ATOM      3  C   UNL     1      84.671  94.349  77.447  1.00  0.00     0.001 A 
ATOM      4  C   UNL     1      84.891  93.026  77.823  1.00  0.00     0.001 A 
ATOM      5  C   UNL     1      85.791  92.729  78.850  1.00  0.00     0.016 A 
ATOM      6  C   UNL     1      86.489  93.756  79.514  1.00  0.00     0.074 A 
ENDROOT
BRANCH   1   7
ATOM      7  C   UNL     1      87.066  96.223  79.657  1.00  0.00     0.339 C 
ATOM      8  O   UNL     1      86.484  97.110  80.339  1.00  0.00    -0.246 OA
BRANCH   7   9
ATOM      9  O   UNL     1      88.448  96.281  79.444  1.00  0.00    -0.462 OA
BRANCH   9  10
ATOM     10  C   UNL     1      89.347  96.979  80.307  1.00  0.00     0.233 C 
BRANCH  10  11
ATOM     11  C   UNL     1      90.040  96.023  81.287  1.00  0.00     0.038 C 
ATOM     12  C   UNL     1      89.312  95.950  82.628  1.00  0.00     0.007 C 
ENDBRANCH  10  11
ENDBRANCH   9  10
ENDBRANCH   7   9
ENDBRANCH   1   7
BRANCH   6  13
ATOM     13  C   UNL     1      87.335  93.401  80.680  1.00  0.00     0.339 C 
ATOM     14  O   UNL     1      88.484  92.912  80.494  1.00  0.00    -0.246 OA
BRANCH  13  15
ATOM     15  O   UNL     1      86.842  93.565  81.980  1.00  0.00    -0.462 OA
BRANCH  15  16
ATOM     16  C   UNL     1      86.525  92.484  82.858  1.00  0.00     0.233 C 
BRANCH  16  17
ATOM     17  C   UNL     1      86.772  92.878  84.317  1.00  0.00     0.038 C 
ATOM     18  C   UNL     1      86.472  94.350  84.584  1.00  0.00     0.007 C 
ENDBRANCH  16  17
ENDBRANCH  15  16
ENDBRANCH  13  15
ENDBRANCH   6  13
TORSDOF 8
ENDMDL
MODEL 2
REMARK VINA RESULT:    -4.932      1.389      4.331
REMARK INTER + INTRA:          -8.212
REMARK INTER:                  -7.409
REMARK INTRA:                  -0.803
REMARK UNBOUND:                -0.974
REMARK SMILES CCCOC(=O)c1ccccc1C(=O)OCCC
REMARK SMILES IDX 7 1 8 2 9 3 10 4 11 5 12 6 5 7 6 8 4 9 3 10 2 11 1 12 13 13
REMARK SMILES IDX 14 14 15 15 16 16 17 17 18 18
REMARK H PARENT
REMARK Flexibility Score: inf
ROOT
ATOM      1  C   UNL     1      88.332  96.187  80.597  1.00  0.00     0.074 A 
ATOM      2  C   UNL     1      89.332  96.916  79.932  1.00  0.00     0.016 A 
ATOM      3  C   UNL     1      90.635  96.951  80.428  1.00  0.00     0.001 A 
ATOM      4  C   UNL     1      90.959  96.257  81.592  1.00  0.00     0.001 A 
ATOM      5  C   UNL     1      89.985  95.506  82.253  1.00  0.00     0.016 A 
ATOM      6  C   UNL     1      88.668  95.441  81.759  1.00  0.00     0.074 A 
ENDROOT
BRANCH   1   7
ATOM      7  C   UNL     1      86.955  96.267  80.078  1.00  0.00     0.339 C 
ATOM      8  O   UNL     1      86.279  97.320  80.245  1.00  0.00    -0.246 OA
BRANCH   7   9
ATOM      9  O   UNL     1      86.418  95.178  79.384  1.00  0.00    -0.462 OA
BRANCH   9  10
ATOM     10  C   UNL     1      86.216  95.170  77.970  1.00  0.00     0.233 C 
BRANCH  10  11
ATOM     11  C   UNL     1      84.762  94.833  77.614  1.00  0.00     0.038 C 
ATOM     12  C   UNL     1      84.266  93.588  78.346  1.00  0.00     0.007 C 
ENDBRANCH  10  11
ENDBRANCH   9  10
ENDBRANCH   7   9
ENDBRANCH   1   7
BRANCH   6  13
ATOM     13  C   UNL     1      87.703  94.529  82.424  1.00  0.00     0.339 C 
ATOM     14  O   UNL     1      87.547  93.356  81.986  1.00  0.00    -0.246 OA
BRANCH  13  15
ATOM     15  O   UNL     1      86.936  94.986  83.502  1.00  0.00    -0.462 OA
BRANCH  15  16
ATOM     16  C   UNL     1      86.690  94.230  84.688  1.00  0.00     0.233 C 
BRANCH  16  17
ATOM     17  C   UNL     1      87.984  94.019  85.477  1.00  0.00     0.038 C 
ATOM     18  C   UNL     1      88.622  95.334  85.917  1.00  0.00     0.007 C 
ENDBRANCH  16  17
ENDBRANCH  15  16
ENDBRANCH  13  15
ENDBRANCH   6  13
TORSDOF 8
ENDMDL
MODEL 3
REMARK VINA RESULT:    -4.931      8.435     10.118
REMARK INTER + INTRA:          -8.210
REMARK INTER:                  -7.316
REMARK INTRA:                  -0.894
REMARK UNBOUND:                -0.974
REMARK SMILES CCCOC(=O)c1ccccc1C(=O)OCCC
REMARK SMILES IDX 7 1 8 2 9 3 10 4 11 5 12 6 5 7 6 8 4 9 3 10 2 11 1 12 13 13
REMARK SMILES IDX 14 14 15 15 16 16 17 17 18 18
REMARK H PARENT
REMARK Flexibility Score: inf
ROOT
ATOM      1  C   UNL     1      95.686  90.291  84.270  1.00  0.00     0.074 A 
ATOM      2  C   UNL     1      96.426  89.118  84.047  1.00  0.00     0.016 A 
ATOM      3  C   UNL     1      95.990  87.895  84.558  1.00  0.00     0.001 A 
ATOM      4  C   UNL     1      94.808  87.826  85.293  1.00  0.00     0.001 A 
ATOM      5  C   UNL     1      94.045  88.977  85.502  1.00  0.00     0.016 A 
ATOM      6  C   UNL     1      94.458  90.218  84.980  1.00  0.00     0.074 A 
ENDROOT
BRANCH   1   7
ATOM      7  C   UNL     1      96.249  91.565  83.789  1.00  0.00     0.339 C 
ATOM      8  O   UNL     1      96.897  92.306  84.578  1.00  0.00    -0.246 OA
BRANCH   7   9
ATOM      9  O   UNL     1      96.076  91.930  82.449  1.00  0.00    -0.462 OA
BRANCH   9  10
ATOM     10  C   UNL     1      95.222  92.994  82.028  1.00  0.00     0.233 C 
BRANCH  10  11
ATOM     11  C   UNL     1      95.999  94.307  81.862  1.00  0.00     0.038 C 
ATOM     12  C   UNL     1      97.207  94.145  80.942  1.00  0.00     0.007 C 
ENDBRANCH  10  11
ENDBRANCH   9  10
ENDBRANCH   7   9
ENDBRANCH   1   7
BRANCH   6  13
ATOM     13  C   UNL     1      93.551  91.385  85.119  1.00  0.00     0.339 C 
ATOM     14  O   UNL     1      92.554  91.498  84.353  1.00  0.00    -0.246 OA
BRANCH  13  15
ATOM     15  O   UNL     1      93.829  92.379  86.065  1.00  0.00    -0.462 OA
BRANCH  15  16
ATOM     16  C   UNL     1      93.492  93.757  85.901  1.00  0.00     0.233 C 
BRANCH  16  17
ATOM     17  C   UNL     1      94.722  94.573  85.496  1.00  0.00     0.038 C 
ATOM     18  C   UNL     1      94.354  95.868  84.777  1.00  0.00     0.007 C 
ENDBRANCH  16  17
ENDBRANCH  15  16
ENDBRANCH  13  15
ENDBRANCH   6  13
TORSDOF 8
ENDMDL
MODEL 4
REMARK VINA RESULT:    -4.877      8.458     10.353
REMARK INTER + INTRA:          -8.132
REMARK INTER:                  -7.221
REMARK INTRA:                  -0.911
REMARK UNBOUND:                -0.974
REMARK SMILES CCCOC(=O)c1ccccc1C(=O)OCCC
REMARK SMILES IDX 7 1 8 2 9 3 10 4 11 5 12 6 5 7 6 8 4 9 3 10 2 11 1 12 13 13
REMARK SMILES IDX 14 14 15 15 16 16 17 17 18 18
REMARK H PARENT
REMARK Flexibility Score: inf
ROOT
ATOM      1  C   UNL     1      94.286  90.154  84.970  1.00  0.00     0.074 A 
ATOM      2  C   UNL     1      93.777  88.961  85.509  1.00  0.00     0.016 A 
ATOM      3  C   UNL     1      94.494  87.769  85.398  1.00  0.00     0.001 A 
ATOM      4  C   UNL     1      95.729  87.754  84.753  1.00  0.00     0.001 A 
ATOM      5  C   UNL     1      96.263  88.936  84.234  1.00  0.00     0.016 A 
ATOM      6  C   UNL     1      95.565  90.153  84.351  1.00  0.00     0.074 A 
ENDROOT
BRANCH   1   7
ATOM      7  C   UNL     1      93.439  91.359  85.033  1.00  0.00     0.339 C 
ATOM      8  O   UNL     1      92.524  91.532  84.181  1.00  0.00    -0.246 OA
BRANCH   7   9
ATOM      9  O   UNL     1      93.644  92.290  86.057  1.00  0.00    -0.462 OA
BRANCH   9  10
ATOM     10  C   UNL     1      93.410  93.690  85.904  1.00  0.00     0.233 C 
BRANCH  10  11
ATOM     11  C   UNL     1      94.708  94.445  85.587  1.00  0.00     0.038 C 
ATOM     12  C   UNL     1      94.445  95.746  84.831  1.00  0.00     0.007 C 
ENDBRANCH  10  11
ENDBRANCH   9  10
ENDBRANCH   7   9
ENDBRANCH   1   7
BRANCH   6  13
ATOM     13  C   UNL     1      96.230  91.400  83.898  1.00  0.00     0.339 C 
ATOM     14  O   UNL     1      96.850  92.117  84.731  1.00  0.00    -0.246 OA
BRANCH  13  15
ATOM     15  O   UNL     1      96.127  91.803  82.561  1.00  0.00    -0.462 OA
BRANCH  15  16
ATOM     16  C   UNL     1      95.342  92.910  82.117  1.00  0.00     0.233 C 
BRANCH  16  17
ATOM     17  C   UNL     1      96.208  94.161  81.951  1.00  0.00     0.038 C 
ATOM     18  C   UNL     1      97.226  94.022  80.822  1.00  0.00     0.007 C 
ENDBRANCH  16  17
ENDBRANCH  15  16
ENDBRANCH  13  15
ENDBRANCH   6  13
TORSDOF 8
ENDMDL
MODEL 5
REMARK VINA RESULT:    -4.857      0.312      3.960
REMARK INTER + INTRA:          -8.103
REMARK INTER:                  -7.116
REMARK INTRA:                  -0.986
REMARK UNBOUND:                -0.974
REMARK SMILES CCCOC(=O)c1ccccc1C(=O)OCCC
REMARK SMILES IDX 7 1 8 2 9 3 10 4 11 5 12 6 5 7 6 8 4 9 3 10 2 11 1 12 13 13
REMARK SMILES IDX 14 14 15 15 16 16 17 17 18 18
REMARK H PARENT
REMARK Flexibility Score: inf
ROOT
ATOM      1  C   UNL     1      86.655  93.929  79.567  1.00  0.00     0.074 A 
ATOM      2  C   UNL     1      85.925  92.968  78.848  1.00  0.00     0.016 A 
ATOM      3  C   UNL     1      85.033  93.356  77.847  1.00  0.00     0.001 A 
ATOM      4  C   UNL     1      84.862  94.706  77.549  1.00  0.00     0.001 A 
ATOM      5  C   UNL     1      85.598  95.674  78.235  1.00  0.00     0.016 A 
ATOM      6  C   UNL     1      86.517  95.304  79.235  1.00  0.00     0.074 A 
ENDROOT
BRANCH   1   7
ATOM      7  C   UNL     1      87.507  93.463  80.675  1.00  0.00     0.339 C 
ATOM      8  O   UNL     1      88.644  92.971  80.433  1.00  0.00    -0.246 OA
BRANCH   7   9
ATOM      9  O   UNL     1      87.053  93.593  81.992  1.00  0.00    -0.462 OA
BRANCH   9  10
ATOM     10  C   UNL     1      86.529  92.505  82.754  1.00  0.00     0.233 C 
BRANCH  10  11
ATOM     11  C   UNL     1      86.541  92.815  84.257  1.00  0.00     0.038 C 
ATOM     12  C   UNL     1      86.552  94.317  84.532  1.00  0.00     0.007 C 
ENDBRANCH  10  11
ENDBRANCH   9  10
ENDBRANCH   7   9
ENDBRANCH   1   7
BRANCH   6  13
ATOM     13  C   UNL     1      87.367  96.357  79.846  1.00  0.00     0.339 C 
ATOM     14  O   UNL     1      86.852  97.199  80.632  1.00  0.00    -0.246 OA
BRANCH  13  15
ATOM     15  O   UNL     1      88.724  96.443  79.511  1.00  0.00    -0.462 OA
BRANCH  15  16
ATOM     16  C   UNL     1      89.725  96.998  80.365  1.00  0.00     0.233 C 
BRANCH  16  17
ATOM     17  C   UNL     1      90.326  95.921  81.272  1.00  0.00     0.038 C 
ATOM     18  C   UNL     1      89.657  95.871  82.643  1.00  0.00     0.007 C 
ENDBRANCH  16  17
ENDBRANCH  15  16
ENDBRANCH  13  15
ENDBRANCH   6  13
TORSDOF 8
ENDMDL
MODEL 6
REMARK VINA RESULT:    -4.846      5.633      7.775
REMARK INTER + INTRA:          -8.087
REMARK INTER:                  -7.237
REMARK INTRA:                  -0.850
REMARK UNBOUND:                -0.974
REMARK SMILES CCCOC(=O)c1ccccc1C(=O)OCCC
REMARK SMILES IDX 7 1 8 2 9 3 10 4 11 5 12 6 5 7 6 8 4 9 3 10 2 11 1 12 13 13
REMARK SMILES IDX 14 14 15 15 16 16 17 17 18 18
REMARK H PARENT
REMARK Flexibility Score: inf
ROOT
ATOM      1  C   UNL     1      86.323  88.632  80.575  1.00  0.00     0.074 A 
ATOM      2  C   UNL     1      85.623  89.730  80.050  1.00  0.00     0.016 A 
ATOM      3  C   UNL     1      85.634  90.961  80.707  1.00  0.00     0.001 A 
ATOM      4  C   UNL     1      86.348  91.111  81.895  1.00  0.00     0.001 A 
ATOM      5  C   UNL     1      87.071  90.038  82.418  1.00  0.00     0.016 A 
ATOM      6  C   UNL     1      87.089  88.793  81.761  1.00  0.00     0.074 A 
ENDROOT
BRANCH   1   7
ATOM      7  C   UNL     1      86.193  87.335  79.887  1.00  0.00     0.339 C 
ATOM      8  O   UNL     1      85.351  86.487  80.293  1.00  0.00    -0.246 OA
BRANCH   7   9
ATOM      9  O   UNL     1      86.994  87.065  78.772  1.00  0.00    -0.462 OA
BRANCH   9  10
ATOM     10  C   UNL     1      87.322  85.744  78.340  1.00  0.00     0.233 C 
BRANCH  10  11
ATOM     11  C   UNL     1      88.840  85.552  78.228  1.00  0.00     0.038 C 
ATOM     12  C   UNL     1      89.236  84.078  78.278  1.00  0.00     0.007 C 
ENDBRANCH  10  11
ENDBRANCH   9  10
ENDBRANCH   7   9
ENDBRANCH   1   7
BRANCH   6  13
ATOM     13  C   UNL     1      87.973  87.723  82.287  1.00  0.00     0.339 C 
ATOM     14  O   UNL     1      89.060  87.464  81.700  1.00  0.00    -0.246 OA
BRANCH  13  15
ATOM     15  O   UNL     1      87.579  86.974  83.402  1.00  0.00    -0.462 OA
BRANCH  15  16
ATOM     16  C   UNL     1      88.401  86.750  84.548  1.00  0.00     0.233 C 
BRANCH  16  17
ATOM     17  C   UNL     1      88.587  88.043  85.346  1.00  0.00     0.038 C 
ATOM     18  C   UNL     1      87.270  88.591  85.888  1.00  0.00     0.007 C 
ENDBRANCH  16  17
ENDBRANCH  15  16
ENDBRANCH  13  15
ENDBRANCH   6  13
TORSDOF 8
ENDMDL
MODEL 7
REMARK VINA RESULT:    -4.829      9.919     11.775
REMARK INTER + INTRA:          -8.061
REMARK INTER:                  -7.082
REMARK INTRA:                  -0.979
REMARK UNBOUND:                -0.974
REMARK SMILES CCCOC(=O)c1ccccc1C(=O)OCCC
REMARK SMILES IDX 7 1 8 2 9 3 10 4 11 5 12 6 5 7 6 8 4 9 3 10 2 11 1 12 13 13
REMARK SMILES IDX 14 14 15 15 16 16 17 17 18 18
REMARK H PARENT
REMARK Flexibility Score: inf
ROOT
ATOM      1  C   UNL     1      96.401  87.284  79.002  1.00  0.00     0.074 A 
ATOM      2  C   UNL     1      97.321  86.972  77.987  1.00  0.00     0.016 A 
ATOM      3  C   UNL     1      97.995  87.984  77.303  1.00  0.00     0.001 A 
ATOM      4  C   UNL     1      97.763  89.320  77.627  1.00  0.00     0.001 A 
ATOM      5  C   UNL     1      96.873  89.648  78.651  1.00  0.00     0.016 A 
ATOM      6  C   UNL     1      96.196  88.642  79.366  1.00  0.00     0.074 A 
ENDROOT
BRANCH   1   7
ATOM      7  C   UNL     1      95.650  86.176  79.619  1.00  0.00     0.339 C 
ATOM      8  O   UNL     1      96.243  85.354  80.371  1.00  0.00    -0.246 OA
BRANCH   7   9
ATOM      9  O   UNL     1      94.276  86.062  79.382  1.00  0.00    -0.462 OA
BRANCH   9  10
ATOM     10  C   UNL     1      93.380  85.386  80.265  1.00  0.00     0.233 C 
BRANCH  10  11
ATOM     11  C   UNL     1      92.726  86.361  81.254  1.00  0.00     0.038 C 
ATOM     12  C   UNL     1      93.522  86.480  82.552  1.00  0.00     0.007 C 
ENDBRANCH  10  11
ENDBRANCH   9  10
ENDBRANCH   7   9
ENDBRANCH   1   7
BRANCH   6  13
ATOM     13  C   UNL     1      95.359  89.035  80.527  1.00  0.00     0.339 C 
ATOM     14  O   UNL     1      94.192  89.478  80.336  1.00  0.00    -0.246 OA
BRANCH  13  15
ATOM     15  O   UNL     1      95.880  88.960  81.824  1.00  0.00    -0.462 OA
BRANCH  15  16
ATOM     16  C   UNL     1      96.250  90.096  82.606  1.00  0.00     0.233 C 
BRANCH  16  17
ATOM     17  C   UNL     1      96.214  89.765  84.100  1.00  0.00     0.038 C 
ATOM     18  C   UNL     1      96.294  88.265  84.368  1.00  0.00     0.007 C 
ENDBRANCH  16  17
ENDBRANCH  15  16
ENDBRANCH  13  15
ENDBRANCH   6  13
TORSDOF 8
ENDMDL
MODEL 8
REMARK VINA RESULT:    -4.817      5.578      8.146
REMARK INTER + INTRA:          -8.043
REMARK INTER:                  -7.221
REMARK INTRA:                  -0.822
REMARK UNBOUND:                -0.974
REMARK SMILES CCCOC(=O)c1ccccc1C(=O)OCCC
REMARK SMILES IDX 7 1 8 2 9 3 10 4 11 5 12 6 5 7 6 8 4 9 3 10 2 11 1 12 13 13
REMARK SMILES IDX 14 14 15 15 16 16 17 17 18 18
REMARK H PARENT
REMARK Flexibility Score: inf
ROOT
ATOM      1  C   UNL     1      87.094  88.883  81.726  1.00  0.00     0.074 A 
ATOM      2  C   UNL     1      86.995  90.132  82.360  1.00  0.00     0.016 A 
ATOM      3  C   UNL     1      86.219  91.151  81.806  1.00  0.00     0.001 A 
ATOM      4  C   UNL     1      85.529  90.934  80.615  1.00  0.00     0.001 A 
ATOM      5  C   UNL     1      85.594  89.690  79.985  1.00  0.00     0.016 A 
ATOM      6  C   UNL     1      86.356  88.642  80.536  1.00  0.00     0.074 A 
ENDROOT
BRANCH   1   7
ATOM      7  C   UNL     1      88.005  87.882  82.309  1.00  0.00     0.339 C 
ATOM      8  O   UNL     1      89.160  87.724  81.825  1.00  0.00    -0.246 OA
BRANCH   7   9
ATOM      9  O   UNL     1      87.586  87.130  83.412  1.00  0.00    -0.462 OA
BRANCH   9  10
ATOM     10  C   UNL     1      88.417  86.861  84.541  1.00  0.00     0.233 C 
BRANCH  10  11
ATOM     11  C   UNL     1      88.588  88.107  85.421  1.00  0.00     0.038 C 
ATOM     12  C   UNL     1      87.245  88.687  85.860  1.00  0.00     0.007 C 
ENDBRANCH  10  11
ENDBRANCH   9  10
ENDBRANCH   7   9
ENDBRANCH   1   7
BRANCH   6  13
ATOM     13  C   UNL     1      86.291  87.304  79.898  1.00  0.00     0.339 C 
ATOM     14  O   UNL     1      85.391  86.489  80.243  1.00  0.00    -0.246 OA
BRANCH  13  15
ATOM     15  O   UNL     1      87.255  86.930  78.953  1.00  0.00    -0.462 OA
BRANCH  15  16
ATOM     16  C   UNL     1      87.173  85.754  78.148  1.00  0.00     0.233 C 
BRANCH  16  17
ATOM     17  C   UNL     1      88.475  84.952  78.221  1.00  0.00     0.038 C 
ATOM     18  C   UNL     1      89.140  84.792  76.857  1.00  0.00     0.007 C 
ENDBRANCH  16  17
ENDBRANCH  15  16
ENDBRANCH  13  15
ENDBRANCH   6  13
TORSDOF 8
ENDMDL
MODEL 9
REMARK VINA RESULT:    -4.807     10.044     11.367
REMARK INTER + INTRA:          -8.029
REMARK INTER:                  -7.051
REMARK INTRA:                  -0.979
REMARK UNBOUND:                -0.974
REMARK SMILES CCCOC(=O)c1ccccc1C(=O)OCCC
REMARK SMILES IDX 7 1 8 2 9 3 10 4 11 5 12 6 5 7 6 8 4 9 3 10 2 11 1 12 13 13
REMARK SMILES IDX 14 14 15 15 16 16 17 17 18 18
REMARK H PARENT
REMARK Flexibility Score: inf
ROOT
ATOM      1  C   UNL     1      94.150  86.097  80.577  1.00  0.00     0.074 A 
ATOM      2  C   UNL     1      93.033  85.438  80.037  1.00  0.00     0.016 A 
ATOM      3  C   UNL     1      91.789  85.517  80.665  1.00  0.00     0.001 A 
ATOM      4  C   UNL     1      91.644  86.257  81.836  1.00  0.00     0.001 A 
ATOM      5  C   UNL     1      92.737  86.940  82.374  1.00  0.00     0.016 A 
ATOM      6  C   UNL     1      93.996  86.889  81.747  1.00  0.00     0.074 A 
ENDROOT
BRANCH   1   7
ATOM      7  C   UNL     1      95.455  85.896  79.922  1.00  0.00     0.339 C 
ATOM      8  O   UNL     1      96.299  85.106  80.429  1.00  0.00    -0.246 OA
BRANCH   7   9
ATOM      9  O   UNL     1      95.736  86.569  78.729  1.00  0.00    -0.462 OA
BRANCH   9  10
ATOM     10  C   UNL     1      97.056  86.729  78.208  1.00  0.00     0.233 C 
BRANCH  10  11
ATOM     11  C   UNL     1      97.524  88.187  78.304  1.00  0.00     0.038 C 
ATOM     12  C   UNL     1      96.360  89.171  78.207  1.00  0.00     0.007 C 
ENDBRANCH  10  11
ENDBRANCH   9  10
ENDBRANCH   7   9
ENDBRANCH   1   7
BRANCH   6  13
ATOM     13  C   UNL     1      95.093  87.732  82.284  1.00  0.00     0.339 C 
ATOM     14  O   UNL     1      95.351  88.843  81.743  1.00  0.00    -0.246 OA
BRANCH  13  15
ATOM     15  O   UNL     1      95.867  87.275  83.357  1.00  0.00    -0.462 OA
BRANCH  15  16
ATOM     16  C   UNL     1      96.090  88.016  84.557  1.00  0.00     0.233 C 
BRANCH  16  17
ATOM     17  C   UNL     1      94.763  88.374  85.230  1.00  0.00     0.038 C 
ATOM     18  C   UNL     1      94.116  87.177  85.921  1.00  0.00     0.007 C 
ENDBRANCH  16  17
ENDBRANCH  15  16
ENDBRANCH  13  15
ENDBRANCH   6  13
TORSDOF 8
ENDMDL
