MODEL 1
REMARK VINA RESULT:    -4.488      0.000      0.000
REMARK INTER + INTRA:          -4.106
REMARK INTER:                  -4.882
REMARK INTRA:                   0.776
REMARK UNBOUND:                 0.776
REMARK SMILES CC(=O)[C@@H]1CC[C@H]2[C@@H]3CC=C4C[C@H](O)CC[C@@]4(C)[C@H]3CC[C@@]12C
REMARK SMILES IDX 4 1 5 2 6 3 7 4 22 5 21 6 20 7 19 8 8 9 9 10 10 11 11 12
REMARK SMILES IDX 17 13 16 14 15 15 13 16 12 17 18 18 23 19 2 20 1 21 3 22
REMARK SMILES IDX 14 23
REMARK H PARENT 14 24
REMARK Flexibility Score: inf
ROOT
ATOM      1  C   UNL     1      81.080  -4.799  28.850  1.00  0.00     0.062 C 
ATOM      2  C   UNL     1      81.791  -4.483  27.529  1.00  0.00     0.012 C 
ATOM      3  C   UNL     1      80.795  -4.784  26.408  1.00  0.00     0.005 C 
ATOM      4  C   UNL     1      79.513  -5.328  27.069  1.00  0.00    -0.001 C 
ATOM      5  C   UNL     1      79.966  -5.822  28.469  1.00  0.00    -0.020 C 
ATOM      6  C   UNL     1      80.588  -7.272  28.427  1.00  0.00     0.008 C 
ATOM      7  C   UNL     1      80.272  -8.096  27.166  1.00  0.00     0.005 C 
ATOM      8  C   UNL     1      78.847  -7.817  26.668  1.00  0.00     0.003 C 
ATOM      9  C   UNL     1      78.760  -6.362  26.165  1.00  0.00     0.000 C 
ATOM     10  C   UNL     1      77.273  -6.021  26.001  1.00  0.00     0.031 C 
ATOM     11  C   UNL     1      76.621  -6.987  25.050  1.00  0.00    -0.027 C 
ATOM     12  C   UNL     1      77.062  -8.255  24.862  1.00  0.00    -0.065 C 
ATOM     13  C   UNL     1      78.288  -8.835  25.598  1.00  0.00    -0.008 C 
ATOM     14  C   UNL     1      79.365  -9.186  24.522  1.00  0.00     0.014 C 
ATOM     15  C   UNL     1      78.816 -10.012  23.342  1.00  0.00     0.033 C 
ATOM     16  C   UNL     1      77.592  -9.339  22.690  1.00  0.00     0.118 C 
ATOM     17  C   UNL     1      76.485  -9.064  23.721  1.00  0.00     0.063 C 
ATOM     18  C   UNL     1      77.853 -10.125  26.345  1.00  0.00     0.016 C 
ATOM     19  C   UNL     1      78.792  -5.793  29.486  1.00  0.00     0.012 C 
ENDROOT
BRANCH   1  20
ATOM     20  C   UNL     1      80.573  -3.515  29.493  1.00  0.00     0.133 C 
ATOM     21  C   UNL     1      81.364  -2.248  29.368  1.00  0.00     0.088 C 
ATOM     22  O   UNL     1      79.509  -3.501  30.096  1.00  0.00    -0.300 OA
ENDBRANCH   1  20
BRANCH  16  23
ATOM     23  O   UNL     1      77.100 -10.123  21.632  1.00  0.00    -0.393 OA
ATOM     24  H   UNL     1      76.435  -9.577  21.136  1.00  0.00     0.210 HD
ENDBRANCH  16  23
TORSDOF 2
ENDMDL
MODEL 2
REMARK VINA RESULT:    -3.967      3.397      4.942
REMARK INTER + INTRA:          -3.539
REMARK INTER:                  -3.958
REMARK INTRA:                   0.419
REMARK UNBOUND:                 0.776
REMARK SMILES CC(=O)[C@@H]1CC[C@H]2[C@@H]3CC=C4C[C@H](O)CC[C@@]4(C)[C@H]3CC[C@@]12C
REMARK SMILES IDX 4 1 5 2 6 3 7 4 22 5 21 6 20 7 19 8 8 9 9 10 10 11 11 12
REMARK SMILES IDX 17 13 16 14 15 15 13 16 12 17 18 18 23 19 2 20 1 21 3 22
REMARK SMILES IDX 14 23
REMARK H PARENT 14 24
REMARK Flexibility Score: inf
ROOT
ATOM      1  C   UNL     1      83.450  -8.477  27.074  1.00  0.00     0.062 C 
ATOM      2  C   UNL     1      83.164  -9.980  26.972  1.00  0.00     0.012 C 
ATOM      3  C   UNL     1      81.687 -10.125  26.602  1.00  0.00     0.005 C 
ATOM      4  C   UNL     1      81.091  -8.706  26.535  1.00  0.00    -0.001 C 
ATOM      5  C   UNL     1      82.063  -7.826  27.366  1.00  0.00    -0.020 C 
ATOM      6  C   UNL     1      81.773  -7.902  28.917  1.00  0.00     0.008 C 
ATOM      7  C   UNL     1      80.389  -8.451  29.309  1.00  0.00     0.005 C 
ATOM      8  C   UNL     1      79.314  -8.001  28.310  1.00  0.00     0.003 C 
ATOM      9  C   UNL     1      79.579  -8.666  26.944  1.00  0.00     0.000 C 
ATOM     10  C   UNL     1      78.712  -7.944  25.906  1.00  0.00     0.031 C 
ATOM     11  C   UNL     1      77.261  -8.019  26.298  1.00  0.00    -0.027 C 
ATOM     12  C   UNL     1      76.846  -8.134  27.583  1.00  0.00    -0.065 C 
ATOM     13  C   UNL     1      77.821  -8.210  28.777  1.00  0.00    -0.008 C 
ATOM     14  C   UNL     1      77.623  -9.600  29.463  1.00  0.00     0.014 C 
ATOM     15  C   UNL     1      76.149  -9.944  29.754  1.00  0.00     0.033 C 
ATOM     16  C   UNL     1      75.271  -9.827  28.492  1.00  0.00     0.118 C 
ATOM     17  C   UNL     1      75.387  -8.434  27.852  1.00  0.00     0.063 C 
ATOM     18  C   UNL     1      77.468  -7.077  29.778  1.00  0.00     0.016 C 
ATOM     19  C   UNL     1      82.020  -6.344  26.904  1.00  0.00     0.012 C 
ENDROOT
BRANCH   1  20
ATOM     20  C   UNL     1      84.129  -7.986  25.802  1.00  0.00     0.133 C 
ATOM     21  C   UNL     1      84.464  -8.952  24.707  1.00  0.00     0.088 C 
ATOM     22  O   UNL     1      84.386  -6.800  25.655  1.00  0.00    -0.300 OA
ENDBRANCH   1  20
BRANCH  16  23
ATOM     23  O   UNL     1      73.930 -10.125  28.792  1.00  0.00    -0.393 OA
ATOM     24  H   UNL     1      73.928 -10.815  29.507  1.00  0.00     0.210 HD
ENDBRANCH  16  23
TORSDOF 2
ENDMDL
MODEL 3
REMARK VINA RESULT:    -3.340      1.115      6.870
REMARK INTER + INTRA:          -2.857
REMARK INTER:                  -3.666
REMARK INTRA:                   0.809
REMARK UNBOUND:                 0.776
REMARK SMILES CC(=O)[C@@H]1CC[C@H]2[C@@H]3CC=C4C[C@H](O)CC[C@@]4(C)[C@H]3CC[C@@]12C
REMARK SMILES IDX 4 1 5 2 6 3 7 4 22 5 21 6 20 7 19 8 8 9 9 10 10 11 11 12
REMARK SMILES IDX 17 13 16 14 15 15 13 16 12 17 18 18 23 19 2 20 1 21 3 22
REMARK SMILES IDX 14 23
REMARK H PARENT 14 24
REMARK Flexibility Score: inf
ROOT
ATOM      1  C   UNL     1      77.468  -9.854  24.279  1.00  0.00     0.062 C 
ATOM      2  C   UNL     1      76.329  -8.829  24.353  1.00  0.00     0.012 C 
ATOM      3  C   UNL     1      76.957  -7.502  24.779  1.00  0.00     0.005 C 
ATOM      4  C   UNL     1      78.459  -7.758  25.008  1.00  0.00    -0.001 C 
ATOM      5  C   UNL     1      78.573  -9.290  25.225  1.00  0.00    -0.020 C 
ATOM      6  C   UNL     1      78.249  -9.718  26.710  1.00  0.00     0.008 C 
ATOM      7  C   UNL     1      78.297  -8.587  27.753  1.00  0.00     0.005 C 
ATOM      8  C   UNL     1      79.413  -7.584  27.429  1.00  0.00     0.003 C 
ATOM      9  C   UNL     1      79.065  -6.841  26.123  1.00  0.00     0.000 C 
ATOM     10  C   UNL     1      80.333  -6.114  25.658  1.00  0.00     0.031 C 
ATOM     11  C   UNL     1      80.817  -5.176  26.730  1.00  0.00    -0.027 C 
ATOM     12  C   UNL     1      80.583  -5.374  28.049  1.00  0.00    -0.065 C 
ATOM     13  C   UNL     1      79.783  -6.579  28.588  1.00  0.00    -0.008 C 
ATOM     14  C   UNL     1      78.505  -6.022  29.295  1.00  0.00     0.014 C 
ATOM     15  C   UNL     1      78.795  -4.885  30.295  1.00  0.00     0.033 C 
ATOM     16  C   UNL     1      79.603  -3.743  29.647  1.00  0.00     0.118 C 
ATOM     17  C   UNL     1      80.908  -4.260  29.021  1.00  0.00     0.063 C 
ATOM     18  C   UNL     1      80.664  -7.337  29.619  1.00  0.00     0.016 C 
ATOM     19  C   UNL     1      79.981  -9.815  24.832  1.00  0.00     0.012 C 
ENDROOT
BRANCH   1  20
ATOM     20  C   UNL     1      77.905 -10.050  22.834  1.00  0.00     0.133 C 
ATOM     21  C   UNL     1      76.881 -10.125  21.742  1.00  0.00     0.088 C 
ATOM     22  O   UNL     1      79.092 -10.125  22.549  1.00  0.00    -0.300 OA
ENDBRANCH   1  20
BRANCH  16  23
ATOM     23  O   UNL     1      79.871  -2.731  30.586  1.00  0.00    -0.393 OA
ATOM     24  H   UNL     1      79.588  -3.066  31.478  1.00  0.00     0.210 HD
ENDBRANCH  16  23
TORSDOF 2
ENDMDL
MODEL 4
REMARK VINA RESULT:    -3.334      3.542      6.114
REMARK INTER + INTRA:          -2.851
REMARK INTER:                  -3.020
REMARK INTRA:                   0.169
REMARK UNBOUND:                 0.776
REMARK SMILES CC(=O)[C@@H]1CC[C@H]2[C@@H]3CC=C4C[C@H](O)CC[C@@]4(C)[C@H]3CC[C@@]12C
REMARK SMILES IDX 4 1 5 2 6 3 7 4 22 5 21 6 20 7 19 8 8 9 9 10 10 11 11 12
REMARK SMILES IDX 17 13 16 14 15 15 13 16 12 17 18 18 23 19 2 20 1 21 3 22
REMARK SMILES IDX 14 23
REMARK H PARENT 14 24
REMARK Flexibility Score: inf
ROOT
ATOM      1  C   UNL     1      76.370  -8.306  26.903  1.00  0.00     0.062 C 
ATOM      2  C   UNL     1      76.605  -9.483  25.949  1.00  0.00     0.012 C 
ATOM      3  C   UNL     1      77.931 -10.125  26.358  1.00  0.00     0.005 C 
ATOM      4  C   UNL     1      78.504  -9.292  27.521  1.00  0.00    -0.001 C 
ATOM      5  C   UNL     1      77.792  -7.918  27.414  1.00  0.00    -0.020 C 
ATOM      6  C   UNL     1      78.476  -6.961  26.361  1.00  0.00     0.008 C 
ATOM      7  C   UNL     1      79.909  -7.343  25.947  1.00  0.00     0.005 C 
ATOM      8  C   UNL     1      80.690  -7.923  27.134  1.00  0.00     0.003 C 
ATOM      9  C   UNL     1      80.070  -9.276  27.538  1.00  0.00     0.000 C 
ATOM     10  C   UNL     1      80.643  -9.652  28.911  1.00  0.00     0.031 C 
ATOM     11  C   UNL     1      82.145  -9.715  28.846  1.00  0.00    -0.027 C 
ATOM     12  C   UNL     1      82.881  -8.993  27.967  1.00  0.00    -0.065 C 
ATOM     13  C   UNL     1      82.251  -8.037  26.932  1.00  0.00    -0.008 C 
ATOM     14  C   UNL     1      82.607  -8.578  25.510  1.00  0.00     0.014 C 
ATOM     15  C   UNL     1      84.103  -8.903  25.326  1.00  0.00     0.033 C 
ATOM     16  C   UNL     1      84.621  -9.858  26.420  1.00  0.00     0.118 C 
ATOM     17  C   UNL     1      84.356  -9.301  27.827  1.00  0.00     0.063 C 
ATOM     18  C   UNL     1      82.865  -6.624  27.125  1.00  0.00     0.016 C 
ATOM     19  C   UNL     1      77.727  -7.205  28.793  1.00  0.00     0.012 C 
ENDROOT
BRANCH   1  20
ATOM     20  C   UNL     1      75.387  -8.704  27.996  1.00  0.00     0.133 C 
ATOM     21  C   UNL     1      75.476 -10.060  28.630  1.00  0.00     0.088 C 
ATOM     22  O   UNL     1      74.534  -7.918  28.380  1.00  0.00    -0.300 OA
ENDBRANCH   1  20
BRANCH  16  23
ATOM     23  O   UNL     1      85.991 -10.120  26.240  1.00  0.00    -0.393 OA
ATOM     24  H   UNL     1      86.398  -9.318  25.818  1.00  0.00     0.210 HD
ENDBRANCH  16  23
TORSDOF 2
ENDMDL
MODEL 5
REMARK VINA RESULT:    -2.560      3.296      4.908
REMARK INTER + INTRA:          -2.008
REMARK INTER:                  -2.648
REMARK INTRA:                   0.640
REMARK UNBOUND:                 0.776
REMARK SMILES CC(=O)[C@@H]1CC[C@H]2[C@@H]3CC=C4C[C@H](O)CC[C@@]4(C)[C@H]3CC[C@@]12C
REMARK SMILES IDX 4 1 5 2 6 3 7 4 22 5 21 6 20 7 19 8 8 9 9 10 10 11 11 12
REMARK SMILES IDX 17 13 16 14 15 15 13 16 12 17 18 18 23 19 2 20 1 21 3 22
REMARK SMILES IDX 14 23
REMARK H PARENT 14 24
REMARK Flexibility Score: inf
ROOT
ATOM      1  C   UNL     1      83.884  -8.904  28.293  1.00  0.00     0.062 C 
ATOM      2  C   UNL     1      82.933  -9.794  29.103  1.00  0.00     0.012 C 
ATOM      3  C   UNL     1      81.749 -10.119  28.191  1.00  0.00     0.005 C 
ATOM      4  C   UNL     1      81.978  -9.377  26.861  1.00  0.00    -0.001 C 
ATOM      5  C   UNL     1      82.983  -8.245  27.205  1.00  0.00    -0.020 C 
ATOM      6  C   UNL     1      82.276  -6.974  27.820  1.00  0.00     0.008 C 
ATOM      7  C   UNL     1      80.756  -6.883  27.593  1.00  0.00     0.005 C 
ATOM      8  C   UNL     1      80.370  -7.428  26.212  1.00  0.00     0.003 C 
ATOM      9  C   UNL     1      80.639  -8.946  26.171  1.00  0.00     0.000 C 
ATOM     10  C   UNL     1      80.571  -9.385  24.703  1.00  0.00     0.031 C 
ATOM     11  C   UNL     1      79.230  -9.033  24.118  1.00  0.00    -0.027 C 
ATOM     12  C   UNL     1      78.474  -8.001  24.564  1.00  0.00    -0.065 C 
ATOM     13  C   UNL     1      78.907  -7.085  25.728  1.00  0.00    -0.008 C 
ATOM     14  C   UNL     1      77.867  -7.258  26.881  1.00  0.00     0.014 C 
ATOM     15  C   UNL     1      76.401  -7.136  26.417  1.00  0.00     0.033 C 
ATOM     16  C   UNL     1      76.087  -8.091  25.248  1.00  0.00     0.118 C 
ATOM     17  C   UNL     1      77.049  -7.875  24.069  1.00  0.00     0.063 C 
ATOM     18  C   UNL     1      78.899  -5.614  25.231  1.00  0.00     0.016 C 
ATOM     19  C   UNL     1      83.809  -7.823  25.959  1.00  0.00     0.012 C 
ENDROOT
BRANCH   1  20
ATOM     20  C   UNL     1      85.040  -9.733  27.747  1.00  0.00     0.133 C 
ATOM     21  C   UNL     1      86.190 -10.097  28.636  1.00  0.00     0.088 C 
ATOM     22  O   UNL     1      85.029 -10.125  26.589  1.00  0.00    -0.300 OA
ENDBRANCH   1  20
BRANCH  16  23
ATOM     23  O   UNL     1      74.753  -7.943  24.832  1.00  0.00    -0.393 OA
ATOM     24  H   UNL     1      74.631  -7.001  24.542  1.00  0.00     0.210 HD
ENDBRANCH  16  23
TORSDOF 2
ENDMDL
MODEL 6
REMARK VINA RESULT:    -2.040      3.359      5.062
REMARK INTER + INTRA:          -1.443
REMARK INTER:                  -1.928
REMARK INTRA:                   0.485
REMARK UNBOUND:                 0.776
REMARK SMILES CC(=O)[C@@H]1CC[C@H]2[C@@H]3CC=C4C[C@H](O)CC[C@@]4(C)[C@H]3CC[C@@]12C
REMARK SMILES IDX 4 1 5 2 6 3 7 4 22 5 21 6 20 7 19 8 8 9 9 10 10 11 11 12
REMARK SMILES IDX 17 13 16 14 15 15 13 16 12 17 18 18 23 19 2 20 1 21 3 22
REMARK SMILES IDX 14 23
REMARK H PARENT 14 24
REMARK Flexibility Score: inf
ROOT
ATOM      1  C   UNL     1      77.912  -7.115  29.898  1.00  0.00     0.062 C 
ATOM      2  C   UNL     1      78.084  -5.913  28.962  1.00  0.00     0.012 C 
ATOM      3  C   UNL     1      78.681  -6.448  27.660  1.00  0.00     0.005 C 
ATOM      4  C   UNL     1      78.909  -7.960  27.850  1.00  0.00    -0.001 C 
ATOM      5  C   UNL     1      78.942  -8.168  29.387  1.00  0.00    -0.020 C 
ATOM      6  C   UNL     1      80.358  -7.852  30.011  1.00  0.00     0.008 C 
ATOM      7  C   UNL     1      81.530  -7.813  29.015  1.00  0.00     0.005 C 
ATOM      8  C   UNL     1      81.354  -8.867  27.913  1.00  0.00     0.003 C 
ATOM      9  C   UNL     1      80.140  -8.491  27.039  1.00  0.00     0.000 C 
ATOM     10  C   UNL     1      79.793  -9.716  26.184  1.00  0.00     0.031 C 
ATOM     11  C   UNL     1      80.980 -10.125  25.356  1.00  0.00    -0.027 C 
ATOM     12  C   UNL     1      82.262  -9.885  25.727  1.00  0.00    -0.065 C 
ATOM     13  C   UNL     1      82.634  -9.156  27.036  1.00  0.00    -0.008 C 
ATOM     14  C   UNL     1      83.374  -7.836  26.650  1.00  0.00     0.014 C 
ATOM     15  C   UNL     1      84.511  -8.039  25.627  1.00  0.00     0.033 C 
ATOM     16  C   UNL     1      84.023  -8.781  24.367  1.00  0.00     0.118 C 
ATOM     17  C   UNL     1      83.367 -10.125  24.723  1.00  0.00     0.063 C 
ATOM     18  C   UNL     1      83.583 -10.069  27.858  1.00  0.00     0.016 C 
ATOM     19  C   UNL     1      78.519  -9.613  29.772  1.00  0.00     0.012 C 
ENDROOT
BRANCH   1  20
ATOM     20  C   UNL     1      76.463  -7.584  29.889  1.00  0.00     0.133 C 
ATOM     21  C   UNL     1      75.890  -8.234  28.665  1.00  0.00     0.088 C 
ATOM     22  O   UNL     1      75.762  -7.455  30.882  1.00  0.00    -0.300 OA
ENDBRANCH   1  20
BRANCH  16  23
ATOM     23  O   UNL     1      85.083  -8.970  23.462  1.00  0.00    -0.393 OA
ATOM     24  H   UNL     1      85.769  -8.277  23.654  1.00  0.00     0.210 HD
ENDBRANCH  16  23
TORSDOF 2
ENDMDL
MODEL 7
REMARK VINA RESULT:    -1.882      2.434      4.048
REMARK INTER + INTRA:          -1.271
REMARK INTER:                  -1.709
REMARK INTRA:                   0.439
REMARK UNBOUND:                 0.776
REMARK SMILES CC(=O)[C@@H]1CC[C@H]2[C@@H]3CC=C4C[C@H](O)CC[C@@]4(C)[C@H]3CC[C@@]12C
REMARK SMILES IDX 4 1 5 2 6 3 7 4 22 5 21 6 20 7 19 8 8 9 9 10 10 11 11 12
REMARK SMILES IDX 17 13 16 14 15 15 13 16 12 17 18 18 23 19 2 20 1 21 3 22
REMARK SMILES IDX 14 23
REMARK H PARENT 14 24
REMARK Flexibility Score: inf
ROOT
ATOM      1  C   UNL     1      80.061  -8.345  29.639  1.00  0.00     0.062 C 
ATOM      2  C   UNL     1      78.912  -9.356  29.726  1.00  0.00     0.012 C 
ATOM      3  C   UNL     1      78.848 -10.068  28.374  1.00  0.00     0.005 C 
ATOM      4  C   UNL     1      79.927  -9.438  27.473  1.00  0.00    -0.001 C 
ATOM      5  C   UNL     1      80.225  -8.057  28.115  1.00  0.00    -0.020 C 
ATOM      6  C   UNL     1      79.185  -6.951  27.683  1.00  0.00     0.008 C 
ATOM      7  C   UNL     1      78.349  -7.275  26.432  1.00  0.00     0.005 C 
ATOM      8  C   UNL     1      79.181  -8.045  25.398  1.00  0.00     0.003 C 
ATOM      9  C   UNL     1      79.526  -9.440  25.959  1.00  0.00     0.000 C 
ATOM     10  C   UNL     1      80.621 -10.036  25.065  1.00  0.00     0.031 C 
ATOM     11  C   UNL     1      80.148 -10.102  23.639  1.00  0.00    -0.027 C 
ATOM     12  C   UNL     1      79.223  -9.256  23.124  1.00  0.00    -0.065 C 
ATOM     13  C   UNL     1      78.552  -8.140  23.953  1.00  0.00    -0.008 C 
ATOM     14  C   UNL     1      77.022  -8.449  24.012  1.00  0.00     0.014 C 
ATOM     15  C   UNL     1      76.397  -8.755  22.636  1.00  0.00     0.033 C 
ATOM     16  C   UNL     1      77.153  -9.879  21.899  1.00  0.00     0.118 C 
ATOM     17  C   UNL     1      78.648  -9.551  21.756  1.00  0.00     0.063 C 
ATOM     18  C   UNL     1      78.786  -6.782  23.238  1.00  0.00     0.016 C 
ATOM     19  C   UNL     1      81.663  -7.574  27.778  1.00  0.00     0.012 C 
ENDROOT
BRANCH   1  20
ATOM     20  C   UNL     1      81.304  -8.904  30.320  1.00  0.00     0.133 C 
ATOM     21  C   UNL     1      82.002 -10.100  29.746  1.00  0.00     0.088 C 
ATOM     22  O   UNL     1      81.755  -8.371  31.323  1.00  0.00    -0.300 OA
ENDBRANCH   1  20
BRANCH  16  23
ATOM     23  O   UNL     1      76.576 -10.122  20.641  1.00  0.00    -0.393 OA
ATOM     24  H   UNL     1      76.334 -11.085  20.601  1.00  0.00     0.210 HD
ENDBRANCH  16  23
TORSDOF 2
ENDMDL
MODEL 8
REMARK VINA RESULT:    -1.639      2.381      6.804
REMARK INTER + INTRA:          -1.007
REMARK INTER:                  -1.615
REMARK INTRA:                   0.608
REMARK UNBOUND:                 0.776
REMARK SMILES CC(=O)[C@@H]1CC[C@H]2[C@@H]3CC=C4C[C@H](O)CC[C@@]4(C)[C@H]3CC[C@@]12C
REMARK SMILES IDX 4 1 5 2 6 3 7 4 22 5 21 6 20 7 19 8 8 9 9 10 10 11 11 12
REMARK SMILES IDX 17 13 16 14 15 15 13 16 12 17 18 18 23 19 2 20 1 21 3 22
REMARK SMILES IDX 14 23
REMARK H PARENT 14 24
REMARK Flexibility Score: inf
ROOT
ATOM      1  C   UNL     1      78.129  -8.688  22.582  1.00  0.00     0.062 C 
ATOM      2  C   UNL     1      79.421  -9.514  22.556  1.00  0.00     0.012 C 
ATOM      3  C   UNL     1      79.591 -10.112  23.953  1.00  0.00     0.005 C 
ATOM      4  C   UNL     1      78.425  -9.595  24.817  1.00  0.00    -0.001 C 
ATOM      5  C   UNL     1      77.919  -8.325  24.084  1.00  0.00    -0.020 C 
ATOM      6  C   UNL     1      78.776  -7.044  24.430  1.00  0.00     0.008 C 
ATOM      7  C   UNL     1      79.648  -7.149  25.694  1.00  0.00     0.005 C 
ATOM      8  C   UNL     1      78.942  -7.964  26.786  1.00  0.00     0.003 C 
ATOM      9  C   UNL     1      78.817  -9.431  26.325  1.00  0.00     0.000 C 
ATOM     10  C   UNL     1      77.825 -10.125  27.266  1.00  0.00     0.031 C 
ATOM     11  C   UNL     1      78.300 -10.019  28.690  1.00  0.00    -0.027 C 
ATOM     12  C   UNL     1      79.081  -9.006  29.138  1.00  0.00    -0.065 C 
ATOM     13  C   UNL     1      79.575  -7.861  28.228  1.00  0.00    -0.008 C 
ATOM     14  C   UNL     1      81.134  -7.934  28.178  1.00  0.00     0.014 C 
ATOM     15  C   UNL     1      81.795  -8.044  29.567  1.00  0.00     0.033 C 
ATOM     16  C   UNL     1      81.219  -9.217  30.386  1.00  0.00     0.118 C 
ATOM     17  C   UNL     1      79.692  -9.114  30.519  1.00  0.00     0.063 C 
ATOM     18  C   UNL     1      79.133  -6.509  28.851  1.00  0.00     0.016 C 
ATOM     19  C   UNL     1      76.424  -8.046  24.399  1.00  0.00     0.012 C 
ENDROOT
BRANCH   1  20
ATOM     20  C   UNL     1      76.989  -9.478  21.952  1.00  0.00     0.133 C 
ATOM     21  C   UNL     1      76.834  -9.516  20.462  1.00  0.00     0.088 C 
ATOM     22  O   UNL     1      76.206 -10.103  22.652  1.00  0.00    -0.300 OA
ENDBRANCH   1  20
BRANCH  16  23
ATOM     23  O   UNL     1      81.824  -9.280  31.653  1.00  0.00    -0.393 OA
ATOM     24  H   UNL     1      81.575  -8.455  32.147  1.00  0.00     0.210 HD
ENDBRANCH  16  23
TORSDOF 2
ENDMDL
