MODEL 1
REMARK VINA RESULT:    -1.657      0.000      0.000
REMARK INTER + INTRA:          -2.458
REMARK INTER:                  -2.432
REMARK INTRA:                  -0.026
REMARK UNBOUND:                -0.026
REMARK SMILES C=C1C=C[C@@H](C(C)C)CCC(C)=CCC1
REMARK SMILES IDX 3 1 4 2 5 3 9 4 10 5 11 6 12 7 13 8 6 10 7 11 8 12 2 13 1 14
REMARK SMILES IDX 15 15 14 16
REMARK H PARENT
REMARK Flexibility Score: 70.00
ROOT
ATOM      1  C   UNL     1       3.315   6.226  13.656  1.00  0.00    -0.001 C 
ATOM      2  C   UNL     1       3.428   7.550  13.853  1.00  0.00    -0.023 C 
ENDROOT
BRANCH   2   3
ATOM      3  C   UNL     1       4.562   8.399  13.307  1.00  0.00     0.014 C 
BRANCH   3   4
ATOM      4  C   UNL     1       5.640   8.702  14.388  1.00  0.00     0.012 C 
BRANCH   4   5
ATOM      5  C   UNL     1       6.610   7.536  14.710  1.00  0.00     0.031 C 
BRANCH   5   6
ATOM      6  C   UNL     1       7.754   7.356  13.723  1.00  0.00    -0.077 C 
ATOM      7  C   UNL     1       8.966   8.244  13.875  1.00  0.00     0.039 C 
ATOM      8  C   UNL     1       7.815   6.381  12.781  1.00  0.00    -0.028 CG0
ATOM      9  G   UNL     1       6.694   5.484  12.312  1.00  0.00     0.000 G0
ENDBRANCH   5   6
ENDBRANCH   4   5
ENDBRANCH   3   4
BRANCH   3  10
ATOM     10  C   UNL     1       4.002   9.676  12.605  1.00  0.00    -0.010 C 
ATOM     11  C   UNL     1       2.650  10.106  13.199  1.00  0.00     0.008 C 
ATOM     12  C   UNL     1       3.885   9.568  11.073  1.00  0.00     0.008 C 
ENDBRANCH   3  10
ENDBRANCH   2   3
BRANCH   1  13
ATOM     13  C   UNL     1       4.244   5.434  12.826  1.00  0.00    -0.055 C 
ATOM     14  C   UNL     1       3.840   5.002  11.629  1.00  0.00     0.012 C 
BRANCH  13  15
ATOM     15  C   UNL     1       5.630   5.097  13.330  1.00  0.00     0.039 C 
BRANCH  15  16
ATOM     16  C   UNL     1       6.720   5.461  12.298  1.00  0.00     0.032 CG0
ATOM     17  G   UNL     1       7.805   6.387  12.794  1.00  0.00     0.000 G0
ENDBRANCH  15  16
ENDBRANCH  13  15
ENDBRANCH   1  13
TORSDOF 1
ENDMDL
MODEL 2
REMARK VINA RESULT:    -0.955      1.137      1.681
REMARK INTER + INTRA:          -1.428
REMARK INTER:                  -4.327
REMARK INTRA:                   2.899
REMARK UNBOUND:                -0.026
REMARK SMILES C=C1C=C[C@@H](C(C)C)CCC(C)=CCC1
REMARK SMILES IDX 3 1 4 2 5 3 9 4 10 5 11 6 12 7 13 8 6 10 7 11 8 12 2 13 1 14
REMARK SMILES IDX 15 15 14 16
REMARK H PARENT
REMARK Flexibility Score: 70.00
ROOT
ATOM      1  C   UNL     1       4.497   6.974  11.228  1.00  0.00    -0.001 C 
ATOM      2  C   UNL     1       4.578   8.303  11.406  1.00  0.00    -0.023 C 
ENDROOT
BRANCH   2   3
ATOM      3  C   UNL     1       4.561   8.984  12.764  1.00  0.00     0.014 C 
BRANCH   3   4
ATOM      4  C   UNL     1       4.770   7.972  13.928  1.00  0.00     0.012 C 
BRANCH   4   5
ATOM      5  C   UNL     1       6.087   8.136  14.729  1.00  0.00     0.031 C 
BRANCH   5   6
ATOM      6  C   UNL     1       7.298   7.435  14.129  1.00  0.00    -0.077 C 
ATOM      7  C   UNL     1       8.551   8.250  13.911  1.00  0.00     0.039 C 
ATOM      8  C   UNL     1       7.374   6.104  13.876  1.00  0.00    -0.028 CG0
ATOM      9  G   UNL     1       6.238   5.108  13.843  1.00  0.00     0.000 G0
ENDBRANCH   5   6
ENDBRANCH   4   5
ENDBRANCH   3   4
BRANCH   3  10
ATOM     10  C   UNL     1       3.283   9.865  12.920  1.00  0.00    -0.010 C 
ATOM     11  C   UNL     1       3.211  10.961  11.843  1.00  0.00     0.008 C 
ATOM     12  C   UNL     1       3.103  10.495  14.314  1.00  0.00     0.008 C 
ENDBRANCH   3  10
ENDBRANCH   2   3
BRANCH   1  13
ATOM     13  C   UNL     1       4.446   5.996  12.332  1.00  0.00    -0.055 C 
ATOM     14  C   UNL     1       3.437   6.053  13.205  1.00  0.00     0.012 C 
BRANCH  13  15
ATOM     15  C   UNL     1       5.531   4.954  12.488  1.00  0.00     0.039 C 
BRANCH  15  16
ATOM     16  C   UNL     1       6.261   5.084  13.843  1.00  0.00     0.032 CG0
ATOM     17  G   UNL     1       7.392   6.083  13.883  1.00  0.00     0.000 G0
ENDBRANCH  15  16
ENDBRANCH  13  15
ENDBRANCH   1  13
TORSDOF 1
ENDMDL
MODEL 3
REMARK VINA RESULT:     0.089      1.607      3.187
REMARK INTER + INTRA:           0.105
REMARK INTER:                  -0.997
REMARK INTRA:                   1.102
REMARK UNBOUND:                -0.026
REMARK SMILES C=C1C=C[C@@H](C(C)C)CCC(C)=CCC1
REMARK SMILES IDX 3 1 4 2 5 3 9 4 10 5 11 6 12 7 13 8 6 10 7 11 8 12 2 13 1 14
REMARK SMILES IDX 15 15 14 16
REMARK H PARENT
REMARK Flexibility Score: 70.00
ROOT
ATOM      1  C   UNL     1       3.989  10.074  14.665  1.00  0.00    -0.001 C 
ATOM      2  C   UNL     1       3.677  10.502  13.430  1.00  0.00    -0.023 C 
ENDROOT
BRANCH   2   3
ATOM      3  C   UNL     1       3.476   9.586  12.235  1.00  0.00     0.014 C 
BRANCH   3   4
ATOM      4  C   UNL     1       4.723   8.697  11.963  1.00  0.00     0.012 C 
BRANCH   4   5
ATOM      5  C   UNL     1       4.506   7.171  12.125  1.00  0.00     0.031 C 
BRANCH   5   6
ATOM      6  C   UNL     1       5.698   6.404  12.678  1.00  0.00    -0.077 C 
ATOM      7  C   UNL     1       5.958   5.016  12.143  1.00  0.00     0.039 C 
ATOM      8  C   UNL     1       6.613   6.917  13.539  1.00  0.00    -0.028 CG0
ATOM      9  G   UNL     1       6.507   8.190  14.345  1.00  0.00     0.000 G0
ENDBRANCH   5   6
ENDBRANCH   4   5
ENDBRANCH   3   4
BRANCH   3  10
ATOM     10  C   UNL     1       3.003  10.403  10.992  1.00  0.00    -0.010 C 
ATOM     11  C   UNL     1       3.747  11.744  10.875  1.00  0.00     0.008 C 
ATOM     12  C   UNL     1       1.483  10.645  10.921  1.00  0.00     0.008 C 
ENDBRANCH   3  10
ENDBRANCH   2   3
BRANCH   1  13
ATOM     13  C   UNL     1       4.112   8.650  15.036  1.00  0.00    -0.055 C 
ATOM     14  C   UNL     1       3.033   7.867  14.979  1.00  0.00     0.012 C 
BRANCH  13  15
ATOM     15  C   UNL     1       5.439   8.087  15.495  1.00  0.00     0.039 C 
BRANCH  15  16
ATOM     16  C   UNL     1       6.510   8.164  14.384  1.00  0.00     0.032 CG0
ATOM     17  G   UNL     1       6.659   6.924  13.535  1.00  0.00     0.000 G0
ENDBRANCH  15  16
ENDBRANCH  13  15
ENDBRANCH   1  13
TORSDOF 1
ENDMDL
MODEL 4
REMARK VINA RESULT:     0.587      1.622      3.721
REMARK INTER + INTRA:           0.836
REMARK INTER:                  -0.111
REMARK INTRA:                   0.947
REMARK UNBOUND:                -0.026
REMARK SMILES C=C1C=C[C@@H](C(C)C)CCC(C)=CCC1
REMARK SMILES IDX 3 1 4 2 5 3 9 4 10 5 11 6 12 7 13 8 6 10 7 11 8 12 2 13 1 14
REMARK SMILES IDX 15 15 14 16
REMARK H PARENT
REMARK Flexibility Score: 70.00
ROOT
ATOM      1  C   UNL     1       4.449   8.365  11.591  1.00  0.00    -0.001 C 
ATOM      2  C   UNL     1       4.806   7.076  11.459  1.00  0.00    -0.023 C 
ENDROOT
BRANCH   2   3
ATOM      3  C   UNL     1       4.851   6.083  12.607  1.00  0.00     0.014 C 
BRANCH   3   4
ATOM      4  C   UNL     1       6.297   5.583  12.892  1.00  0.00     0.012 C 
BRANCH   4   5
ATOM      5  C   UNL     1       6.927   6.080  14.218  1.00  0.00     0.031 C 
BRANCH   5   6
ATOM      6  C   UNL     1       7.343   7.544  14.226  1.00  0.00    -0.077 C 
ATOM      7  C   UNL     1       8.754   7.881  13.805  1.00  0.00     0.039 C 
ATOM      8  C   UNL     1       6.508   8.584  14.477  1.00  0.00    -0.028 CG0
ATOM      9  G   UNL     1       5.122   8.525  15.074  1.00  0.00     0.000 G0
ENDBRANCH   5   6
ENDBRANCH   4   5
ENDBRANCH   3   4
BRANCH   3  10
ATOM     10  C   UNL     1       3.823   4.930  12.375  1.00  0.00    -0.010 C 
ATOM     11  C   UNL     1       3.336   4.887  10.917  1.00  0.00     0.008 C 
ATOM     12  C   UNL     1       2.613   4.949  13.327  1.00  0.00     0.008 C 
ENDBRANCH   3  10
ENDBRANCH   2   3
BRANCH   1  13
ATOM     13  C   UNL     1       3.991   8.968  12.858  1.00  0.00    -0.055 C 
ATOM     14  C   UNL     1       3.620  10.250  12.871  1.00  0.00     0.012 C 
BRANCH  13  15
ATOM     15  C   UNL     1       3.959   8.152  14.131  1.00  0.00     0.039 C 
BRANCH  15  16
ATOM     16  C   UNL     1       5.110   8.535  15.088  1.00  0.00     0.032 CG0
ATOM     17  G   UNL     1       6.485   8.586  14.466  1.00  0.00     0.000 G0
ENDBRANCH  15  16
ENDBRANCH  13  15
ENDBRANCH   1  13
TORSDOF 1
ENDMDL
