MODEL 1
REMARK VINA RESULT:    -6.124      0.000      0.000
REMARK INTER + INTRA:          -7.905
REMARK INTER:                  -7.556
REMARK INTRA:                  -0.349
REMARK UNBOUND:                -0.349
REMARK SMILES Oc1cc(O)c2cc(O)c(-c3cc(O)c(O)c(O)c3)[o+]c2c1
REMARK SMILES IDX 10 1 20 2 21 3 22 4 2 5 3 6 4 7 6 8 7 9 8 10 11 11 12 12
REMARK SMILES IDX 13 13 19 14 15 15 17 16 14 17 16 19 18 21 9 23 1 25 5 27
REMARK H PARENT 14 18 16 20 18 22 9 24 1 26 5 28
REMARK Flexibility Score: inf
ROOT
ATOM      1  C   UNL     1     -63.371 -56.218  33.285  1.00  0.00     0.402 A 
ATOM      2  O   UNL     1     -62.261 -56.337  34.010  1.00  0.00    -0.202 OA
ATOM      3  C   UNL     1     -62.213 -56.099  35.316  1.00  0.00     0.368 A 
ATOM      4  C   UNL     1     -61.001 -56.256  35.992  1.00  0.00     0.162 A 
ATOM      5  C   UNL     1     -60.923 -56.016  37.367  1.00  0.00     0.128 A 
ATOM      6  C   UNL     1     -62.063 -55.618  38.070  1.00  0.00     0.093 A 
ATOM      7  C   UNL     1     -63.291 -55.454  37.415  1.00  0.00     0.136 A 
ATOM      8  C   UNL     1     -63.374 -55.695  36.019  1.00  0.00     0.125 A 
ATOM      9  C   UNL     1     -64.559 -55.543  35.279  1.00  0.00     0.078 A 
ATOM     10  C   UNL     1     -64.562 -55.794  33.904  1.00  0.00     0.223 A 
ENDROOT
BRANCH   1  11
ATOM     11  C   UNL     1     -63.299 -56.521  31.838  1.00  0.00     0.091 A 
ATOM     12  C   UNL     1     -63.161 -55.471  30.919  1.00  0.00     0.068 A 
ATOM     13  C   UNL     1     -63.070 -55.721  29.545  1.00  0.00     0.162 A 
ATOM     14  C   UNL     1     -63.309 -57.843  31.367  1.00  0.00     0.068 A 
ATOM     15  C   UNL     1     -63.103 -57.056  29.075  1.00  0.00     0.200 A 
ATOM     16  C   UNL     1     -63.218 -58.109  29.995  1.00  0.00     0.162 A 
BRANCH  13  17
ATOM     17  O   UNL     1     -62.947 -54.624  28.690  1.00  0.00    -0.504 OA
ATOM     18  H   UNL     1     -62.590 -53.724  28.973  1.00  0.00     0.293 HD
ENDBRANCH  13  17
BRANCH  15  19
ATOM     19  O   UNL     1     -63.023 -57.377  27.719  1.00  0.00    -0.502 OA
ATOM     20  H   UNL     1     -62.744 -56.725  26.998  1.00  0.00     0.293 HD
ENDBRANCH  15  19
BRANCH  16  21
ATOM     21  O   UNL     1     -63.235 -59.425  29.534  1.00  0.00    -0.504 OA
ATOM     22  H   UNL     1     -64.070 -59.996  29.590  1.00  0.00     0.293 HD
ENDBRANCH  16  21
ENDBRANCH   1  11
BRANCH  10  23
ATOM     23  O   UNL     1     -65.726 -55.596  33.160  1.00  0.00    -0.500 OA
ATOM     24  H   UNL     1     -66.636 -55.871  33.511  1.00  0.00     0.294 HD
ENDBRANCH  10  23
BRANCH   5  25
ATOM     25  O   UNL     1     -59.717 -56.168  38.048  1.00  0.00    -0.507 OA
ATOM     26  H   UNL     1     -59.403 -55.488  38.729  1.00  0.00     0.293 HD
ENDBRANCH   5  25
BRANCH   7  27
ATOM     27  O   UNL     1     -64.385 -55.057  38.190  1.00  0.00    -0.507 OA
ATOM     28  H   UNL     1     -65.238 -55.588  38.286  1.00  0.00     0.293 HD
ENDBRANCH   7  27
TORSDOF 7
ENDMDL
MODEL 2
REMARK VINA RESULT:    -5.912      5.428     10.534
REMARK INTER + INTRA:          -7.643
REMARK INTER:                  -7.553
REMARK INTRA:                  -0.090
REMARK UNBOUND:                -0.349
REMARK SMILES Oc1cc(O)c2cc(O)c(-c3cc(O)c(O)c(O)c3)[o+]c2c1
REMARK SMILES IDX 10 1 20 2 21 3 22 4 2 5 3 6 4 7 6 8 7 9 8 10 11 11 12 12
REMARK SMILES IDX 13 13 19 14 15 15 17 16 14 17 16 19 18 21 9 23 1 25 5 27
REMARK H PARENT 14 18 16 20 18 22 9 24 1 26 5 28
REMARK Flexibility Score: inf
ROOT
ATOM      1  C   UNL     1     -58.717 -52.432  39.075  1.00  0.00     0.402 A 
ATOM      2  O   UNL     1     -59.334 -53.607  39.177  1.00  0.00    -0.202 OA
ATOM      3  C   UNL     1     -60.006 -54.167  38.177  1.00  0.00     0.368 A 
ATOM      4  C   UNL     1     -60.619 -55.407  38.379  1.00  0.00     0.162 A 
ATOM      5  C   UNL     1     -61.330 -56.020  37.343  1.00  0.00     0.128 A 
ATOM      6  C   UNL     1     -61.427 -55.391  36.099  1.00  0.00     0.093 A 
ATOM      7  C   UNL     1     -60.822 -54.149  35.871  1.00  0.00     0.136 A 
ATOM      8  C   UNL     1     -60.101 -53.521  36.920  1.00  0.00     0.125 A 
ATOM      9  C   UNL     1     -59.474 -52.272  36.786  1.00  0.00     0.078 A 
ATOM     10  C   UNL     1     -58.785 -51.714  37.867  1.00  0.00     0.223 A 
ENDROOT
BRANCH   1  11
ATOM     11  C   UNL     1     -57.991 -51.918  40.258  1.00  0.00     0.091 A 
ATOM     12  C   UNL     1     -58.613 -51.944  41.515  1.00  0.00     0.068 A 
ATOM     13  C   UNL     1     -57.950 -51.485  42.658  1.00  0.00     0.162 A 
ATOM     14  C   UNL     1     -56.670 -51.454  40.161  1.00  0.00     0.068 A 
ATOM     15  C   UNL     1     -56.626 -50.998  42.549  1.00  0.00     0.200 A 
ATOM     16  C   UNL     1     -55.994 -50.992  41.297  1.00  0.00     0.162 A 
BRANCH  13  17
ATOM     17  O   UNL     1     -58.639 -51.531  43.873  1.00  0.00    -0.504 OA
ATOM     18  H   UNL     1     -59.558 -51.931  43.987  1.00  0.00     0.293 HD
ENDBRANCH  13  17
BRANCH  15  19
ATOM     19  O   UNL     1     -55.909 -50.519  43.647  1.00  0.00    -0.502 OA
ATOM     20  H   UNL     1     -54.904 -50.411  43.666  1.00  0.00     0.293 HD
ENDBRANCH  15  19
BRANCH  16  21
ATOM     21  O   UNL     1     -54.683 -50.527  41.191  1.00  0.00    -0.504 OA
ATOM     22  H   UNL     1     -53.944 -50.883  41.786  1.00  0.00     0.293 HD
ENDBRANCH  16  21
ENDBRANCH   1  11
BRANCH  10  23
ATOM     23  O   UNL     1     -58.205 -50.451  37.749  1.00  0.00    -0.500 OA
ATOM     24  H   UNL     1     -58.176 -49.958  36.864  1.00  0.00     0.294 HD
ENDBRANCH  10  23
BRANCH   5  25
ATOM     25  O   UNL     1     -61.944 -57.255  37.538  1.00  0.00    -0.507 OA
ATOM     26  H   UNL     1     -62.916 -57.406  37.297  1.00  0.00     0.293 HD
ENDBRANCH   5  25
BRANCH   7  27
ATOM     27  O   UNL     1     -60.964 -53.589  34.598  1.00  0.00    -0.507 OA
ATOM     28  H   UNL     1     -60.726 -54.060  33.738  1.00  0.00     0.293 HD
ENDBRANCH   7  27
TORSDOF 7
ENDMDL
MODEL 3
REMARK VINA RESULT:    -5.705      5.629     10.699
REMARK INTER + INTRA:          -7.387
REMARK INTER:                  -7.319
REMARK INTRA:                  -0.069
REMARK UNBOUND:                -0.349
REMARK SMILES Oc1cc(O)c2cc(O)c(-c3cc(O)c(O)c(O)c3)[o+]c2c1
REMARK SMILES IDX 10 1 20 2 21 3 22 4 2 5 3 6 4 7 6 8 7 9 8 10 11 11 12 12
REMARK SMILES IDX 13 13 19 14 15 15 17 16 14 17 16 19 18 21 9 23 1 25 5 27
REMARK H PARENT 14 18 16 20 18 22 9 24 1 26 5 28
REMARK Flexibility Score: inf
ROOT
ATOM      1  C   UNL     1     -58.770 -52.556  39.151  1.00  0.00     0.402 A 
ATOM      2  O   UNL     1     -58.849 -51.823  38.044  1.00  0.00    -0.202 OA
ATOM      3  C   UNL     1     -59.488 -52.222  36.949  1.00  0.00     0.368 A 
ATOM      4  C   UNL     1     -59.519 -51.379  35.834  1.00  0.00     0.162 A 
ATOM      5  C   UNL     1     -60.187 -51.772  34.671  1.00  0.00     0.128 A 
ATOM      6  C   UNL     1     -60.828 -53.013  34.622  1.00  0.00     0.093 A 
ATOM      7  C   UNL     1     -60.811 -53.876  35.725  1.00  0.00     0.136 A 
ATOM      8  C   UNL     1     -60.133 -53.482  36.908  1.00  0.00     0.125 A 
ATOM      9  C   UNL     1     -60.054 -54.286  38.056  1.00  0.00     0.078 A 
ATOM     10  C   UNL     1     -59.362 -53.832  39.183  1.00  0.00     0.223 A 
ENDROOT
BRANCH   1  11
ATOM     11  C   UNL     1     -58.038 -51.997  40.310  1.00  0.00     0.091 A 
ATOM     12  C   UNL     1     -58.649 -51.988  41.573  1.00  0.00     0.068 A 
ATOM     13  C   UNL     1     -57.980 -51.487  42.695  1.00  0.00     0.162 A 
ATOM     14  C   UNL     1     -56.722 -51.526  40.186  1.00  0.00     0.068 A 
ATOM     15  C   UNL     1     -56.660 -50.992  42.557  1.00  0.00     0.200 A 
ATOM     16  C   UNL     1     -56.040 -51.022  41.300  1.00  0.00     0.162 A 
BRANCH  13  17
ATOM     17  O   UNL     1     -58.657 -51.499  43.916  1.00  0.00    -0.504 OA
ATOM     18  H   UNL     1     -58.219 -51.694  44.804  1.00  0.00     0.293 HD
ENDBRANCH  13  17
BRANCH  15  19
ATOM     19  O   UNL     1     -55.938 -50.472  43.633  1.00  0.00    -0.502 OA
ATOM     20  H   UNL     1     -55.148 -49.849  43.538  1.00  0.00     0.293 HD
ENDBRANCH  15  19
BRANCH  16  21
ATOM     21  O   UNL     1     -54.734 -50.550  41.168  1.00  0.00    -0.504 OA
ATOM     22  H   UNL     1     -53.954 -51.013  41.619  1.00  0.00     0.293 HD
ENDBRANCH  16  21
ENDBRANCH   1  11
BRANCH  10  23
ATOM     23  O   UNL     1     -59.241 -54.651  40.306  1.00  0.00    -0.500 OA
ATOM     24  H   UNL     1     -58.392 -55.170  40.498  1.00  0.00     0.294 HD
ENDBRANCH  10  23
BRANCH   5  25
ATOM     25  O   UNL     1     -60.221 -50.938  33.556  1.00  0.00    -0.507 OA
ATOM     26  H   UNL     1     -61.096 -50.598  33.175  1.00  0.00     0.293 HD
ENDBRANCH   5  25
BRANCH   7  27
ATOM     27  O   UNL     1     -61.479 -55.097  35.597  1.00  0.00    -0.507 OA
ATOM     28  H   UNL     1     -62.166 -55.299  34.886  1.00  0.00     0.293 HD
ENDBRANCH   7  27
TORSDOF 7
ENDMDL
MODEL 4
REMARK VINA RESULT:    -5.670      5.594     10.604
REMARK INTER + INTRA:          -7.344
REMARK INTER:                  -7.225
REMARK INTRA:                  -0.119
REMARK UNBOUND:                -0.349
REMARK SMILES Oc1cc(O)c2cc(O)c(-c3cc(O)c(O)c(O)c3)[o+]c2c1
REMARK SMILES IDX 10 1 20 2 21 3 22 4 2 5 3 6 4 7 6 8 7 9 8 10 11 11 12 12
REMARK SMILES IDX 13 13 19 14 15 15 17 16 14 17 16 19 18 21 9 23 1 25 5 27
REMARK H PARENT 14 18 16 20 18 22 9 24 1 26 5 28
REMARK Flexibility Score: inf
ROOT
ATOM      1  C   UNL     1     -58.802 -52.615  39.120  1.00  0.00     0.402 A 
ATOM      2  O   UNL     1     -58.872 -51.859  38.026  1.00  0.00    -0.202 OA
ATOM      3  C   UNL     1     -59.500 -52.236  36.918  1.00  0.00     0.368 A 
ATOM      4  C   UNL     1     -59.522 -51.371  35.821  1.00  0.00     0.162 A 
ATOM      5  C   UNL     1     -60.179 -51.741  34.643  1.00  0.00     0.128 A 
ATOM      6  C   UNL     1     -60.818 -52.981  34.563  1.00  0.00     0.093 A 
ATOM      7  C   UNL     1     -60.810 -53.866  35.649  1.00  0.00     0.136 A 
ATOM      8  C   UNL     1     -60.143 -53.496  36.846  1.00  0.00     0.125 A 
ATOM      9  C   UNL     1     -60.074 -54.324  37.978  1.00  0.00     0.078 A 
ATOM     10  C   UNL     1     -59.394 -53.892  39.120  1.00  0.00     0.223 A 
ENDROOT
BRANCH   1  11
ATOM     11  C   UNL     1     -58.081 -52.079  40.296  1.00  0.00     0.091 A 
ATOM     12  C   UNL     1     -56.800 -51.533  40.131  1.00  0.00     0.068 A 
ATOM     13  C   UNL     1     -56.097 -50.999  41.217  1.00  0.00     0.162 A 
ATOM     14  C   UNL     1     -58.673 -52.055  41.568  1.00  0.00     0.068 A 
ATOM     15  C   UNL     1     -56.693 -50.998  42.501  1.00  0.00     0.200 A 
ATOM     16  C   UNL     1     -57.982 -51.523  42.664  1.00  0.00     0.162 A 
BRANCH  13  17
ATOM     17  O   UNL     1     -54.821 -50.484  40.976  1.00  0.00    -0.504 OA
ATOM     18  H   UNL     1     -54.380 -49.778  41.546  1.00  0.00     0.293 HD
ENDBRANCH  13  17
BRANCH  15  19
ATOM     19  O   UNL     1     -56.045 -50.488  43.628  1.00  0.00    -0.502 OA
ATOM     20  H   UNL     1     -55.766 -51.046  44.423  1.00  0.00     0.293 HD
ENDBRANCH  15  19
BRANCH  16  21
ATOM     21  O   UNL     1     -58.576 -51.508  43.926  1.00  0.00    -0.504 OA
ATOM     22  H   UNL     1     -58.090 -51.855  44.745  1.00  0.00     0.293 HD
ENDBRANCH  16  21
ENDBRANCH   1  11
BRANCH  10  23
ATOM     23  O   UNL     1     -59.282 -54.734  40.227  1.00  0.00    -0.500 OA
ATOM     24  H   UNL     1     -59.605 -54.452  41.146  1.00  0.00     0.294 HD
ENDBRANCH  10  23
BRANCH   5  25
ATOM     25  O   UNL     1     -60.203 -50.884  33.545  1.00  0.00    -0.507 OA
ATOM     26  H   UNL     1     -59.569 -50.098  33.472  1.00  0.00     0.293 HD
ENDBRANCH   5  25
BRANCH   7  27
ATOM     27  O   UNL     1     -61.476 -55.085  35.489  1.00  0.00    -0.507 OA
ATOM     28  H   UNL     1     -62.442 -55.244  35.734  1.00  0.00     0.293 HD
ENDBRANCH   7  27
TORSDOF 7
ENDMDL
MODEL 5
REMARK VINA RESULT:    -5.595      7.699     12.261
REMARK INTER + INTRA:          -7.252
REMARK INTER:                  -7.198
REMARK INTRA:                  -0.054
REMARK UNBOUND:                -0.349
REMARK SMILES Oc1cc(O)c2cc(O)c(-c3cc(O)c(O)c(O)c3)[o+]c2c1
REMARK SMILES IDX 10 1 20 2 21 3 22 4 2 5 3 6 4 7 6 8 7 9 8 10 11 11 12 12
REMARK SMILES IDX 13 13 19 14 15 15 17 16 14 17 16 19 18 21 9 23 1 25 5 27
REMARK H PARENT 14 18 16 20 18 22 9 24 1 26 5 28
REMARK Flexibility Score: inf
ROOT
ATOM      1  C   UNL     1     -57.043 -49.959  38.960  1.00  0.00     0.402 A 
ATOM      2  O   UNL     1     -57.800 -50.920  38.435  1.00  0.00    -0.202 OA
ATOM      3  C   UNL     1     -58.276 -50.878  37.195  1.00  0.00     0.368 A 
ATOM      4  C   UNL     1     -59.060 -51.938  36.731  1.00  0.00     0.162 A 
ATOM      5  C   UNL     1     -59.570 -51.922  35.430  1.00  0.00     0.128 A 
ATOM      6  C   UNL     1     -59.294 -50.842  34.588  1.00  0.00     0.093 A 
ATOM      7  C   UNL     1     -58.511 -49.768  35.028  1.00  0.00     0.136 A 
ATOM      8  C   UNL     1     -57.992 -49.778  36.349  1.00  0.00     0.125 A 
ATOM      9  C   UNL     1     -57.209 -48.740  36.879  1.00  0.00     0.078 A 
ATOM     10  C   UNL     1     -56.738 -48.819  38.193  1.00  0.00     0.223 A 
ENDROOT
BRANCH   1  11
ATOM     11  C   UNL     1     -56.565 -50.125  40.351  1.00  0.00     0.091 A 
ATOM     12  C   UNL     1     -57.453 -50.583  41.335  1.00  0.00     0.068 A 
ATOM     13  C   UNL     1     -57.031 -50.770  42.656  1.00  0.00     0.162 A 
ATOM     14  C   UNL     1     -55.226 -49.888  40.697  1.00  0.00     0.068 A 
ATOM     15  C   UNL     1     -55.684 -50.508  43.003  1.00  0.00     0.200 A 
ATOM     16  C   UNL     1     -54.789 -50.073  42.014  1.00  0.00     0.162 A 
BRANCH  13  17
ATOM     17  O   UNL     1     -57.975 -51.216  43.584  1.00  0.00    -0.504 OA
ATOM     18  H   UNL     1     -58.955 -50.979  43.552  1.00  0.00     0.293 HD
ENDBRANCH  13  17
BRANCH  15  19
ATOM     19  O   UNL     1     -55.198 -50.668  44.302  1.00  0.00    -0.502 OA
ATOM     20  H   UNL     1     -55.420 -50.051  45.071  1.00  0.00     0.293 HD
ENDBRANCH  15  19
BRANCH  16  21
ATOM     21  O   UNL     1     -53.458 -49.829  42.352  1.00  0.00    -0.504 OA
ATOM     22  H   UNL     1     -53.143 -48.910  42.641  1.00  0.00     0.293 HD
ENDBRANCH  16  21
ENDBRANCH   1  11
BRANCH  10  23
ATOM     23  O   UNL     1     -56.002 -47.765  38.736  1.00  0.00    -0.500 OA
ATOM     24  H   UNL     1     -56.258 -47.335  39.618  1.00  0.00     0.294 HD
ENDBRANCH  10  23
BRANCH   5  25
ATOM     25  O   UNL     1     -60.353 -52.975  34.962  1.00  0.00    -0.507 OA
ATOM     26  H   UNL     1     -59.977 -53.910  34.858  1.00  0.00     0.293 HD
ENDBRANCH   5  25
BRANCH   7  27
ATOM     27  O   UNL     1     -58.279 -48.728  34.123  1.00  0.00    -0.507 OA
ATOM     28  H   UNL     1     -58.730 -47.826  34.163  1.00  0.00     0.293 HD
ENDBRANCH   7  27
TORSDOF 7
ENDMDL
MODEL 6
REMARK VINA RESULT:    -5.403      7.066     11.272
REMARK INTER + INTRA:          -7.015
REMARK INTER:                  -6.672
REMARK INTRA:                  -0.343
REMARK UNBOUND:                -0.349
REMARK SMILES Oc1cc(O)c2cc(O)c(-c3cc(O)c(O)c(O)c3)[o+]c2c1
REMARK SMILES IDX 10 1 20 2 21 3 22 4 2 5 3 6 4 7 6 8 7 9 8 10 11 11 12 12
REMARK SMILES IDX 13 13 19 14 15 15 17 16 14 17 16 19 18 21 9 23 1 25 5 27
REMARK H PARENT 14 18 16 20 18 22 9 24 1 26 5 28
REMARK Flexibility Score: inf
ROOT
ATOM      1  C   UNL     1     -58.453 -51.855  41.251  1.00  0.00     0.402 A 
ATOM      2  O   UNL     1     -58.649 -52.821  40.357  1.00  0.00    -0.202 OA
ATOM      3  C   UNL     1     -59.723 -53.604  40.352  1.00  0.00     0.368 A 
ATOM      4  C   UNL     1     -59.842 -54.590  39.368  1.00  0.00     0.162 A 
ATOM      5  C   UNL     1     -60.962 -55.424  39.338  1.00  0.00     0.128 A 
ATOM      6  C   UNL     1     -61.970 -55.272  40.294  1.00  0.00     0.093 A 
ATOM      7  C   UNL     1     -61.875 -54.292  41.289  1.00  0.00     0.136 A 
ATOM      8  C   UNL     1     -60.738 -53.443  41.326  1.00  0.00     0.125 A 
ATOM      9  C   UNL     1     -60.553 -52.442  42.294  1.00  0.00     0.078 A 
ATOM     10  C   UNL     1     -59.403 -51.648  42.269  1.00  0.00     0.223 A 
ENDROOT
BRANCH   1  11
ATOM     11  C   UNL     1     -57.220 -51.043  41.146  1.00  0.00     0.091 A 
ATOM     12  C   UNL     1     -57.177 -49.969  40.245  1.00  0.00     0.068 A 
ATOM     13  C   UNL     1     -56.036 -49.167  40.132  1.00  0.00     0.162 A 
ATOM     14  C   UNL     1     -56.111 -51.287  41.969  1.00  0.00     0.068 A 
ATOM     15  C   UNL     1     -54.912 -49.433  40.951  1.00  0.00     0.200 A 
ATOM     16  C   UNL     1     -54.962 -50.492  41.868  1.00  0.00     0.162 A 
BRANCH  13  17
ATOM     17  O   UNL     1     -56.062 -48.124  39.204  1.00  0.00    -0.504 OA
ATOM     18  H   UNL     1     -55.831 -47.166  39.422  1.00  0.00     0.293 HD
ENDBRANCH  13  17
BRANCH  15  19
ATOM     19  O   UNL     1     -53.740 -48.677  40.886  1.00  0.00    -0.502 OA
ATOM     20  H   UNL     1     -52.907 -48.875  41.423  1.00  0.00     0.293 HD
ENDBRANCH  15  19
BRANCH  16  21
ATOM     21  O   UNL     1     -53.861 -50.745  42.687  1.00  0.00    -0.504 OA
ATOM     22  H   UNL     1     -53.206 -51.490  42.479  1.00  0.00     0.293 HD
ENDBRANCH  16  21
ENDBRANCH   1  11
BRANCH  10  23
ATOM     23  O   UNL     1     -59.195 -50.687  43.259  1.00  0.00    -0.500 OA
ATOM     24  H   UNL     1     -58.711 -49.819  43.066  1.00  0.00     0.294 HD
ENDBRANCH  10  23
BRANCH   5  25
ATOM     25  O   UNL     1     -61.086 -56.410  38.361  1.00  0.00    -0.507 OA
ATOM     26  H   UNL     1     -60.965 -56.200  37.378  1.00  0.00     0.293 HD
ENDBRANCH   5  25
BRANCH   7  27
ATOM     27  O   UNL     1     -62.927 -54.202  42.206  1.00  0.00    -0.507 OA
ATOM     28  H   UNL     1     -62.897 -53.661  43.058  1.00  0.00     0.293 HD
ENDBRANCH   7  27
TORSDOF 7
ENDMDL
MODEL 7
REMARK VINA RESULT:    -5.282      1.134      7.156
REMARK INTER + INTRA:          -6.866
REMARK INTER:                  -6.482
REMARK INTRA:                  -0.384
REMARK UNBOUND:                -0.349
REMARK SMILES Oc1cc(O)c2cc(O)c(-c3cc(O)c(O)c(O)c3)[o+]c2c1
REMARK SMILES IDX 10 1 20 2 21 3 22 4 2 5 3 6 4 7 6 8 7 9 8 10 11 11 12 12
REMARK SMILES IDX 13 13 19 14 15 15 17 16 14 17 16 19 18 21 9 23 1 25 5 27
REMARK H PARENT 14 18 16 20 18 22 9 24 1 26 5 28
REMARK Flexibility Score: inf
ROOT
ATOM      1  C   UNL     1     -62.542 -55.670  33.863  1.00  0.00     0.402 A 
ATOM      2  O   UNL     1     -62.817 -56.757  33.146  1.00  0.00    -0.202 OA
ATOM      3  C   UNL     1     -62.995 -56.736  31.829  1.00  0.00     0.368 A 
ATOM      4  C   UNL     1     -63.278 -57.931  31.162  1.00  0.00     0.162 A 
ATOM      5  C   UNL     1     -63.466 -57.938  29.777  1.00  0.00     0.128 A 
ATOM      6  C   UNL     1     -63.370 -56.745  29.055  1.00  0.00     0.093 A 
ATOM      7  C   UNL     1     -63.088 -55.535  29.700  1.00  0.00     0.136 A 
ATOM      8  C   UNL     1     -62.897 -55.521  31.107  1.00  0.00     0.125 A 
ATOM      9  C   UNL     1     -62.623 -54.354  31.838  1.00  0.00     0.078 A 
ATOM     10  C   UNL     1     -62.454 -54.419  33.224  1.00  0.00     0.223 A 
ENDROOT
BRANCH   1  11
ATOM     11  C   UNL     1     -62.355 -55.824  35.324  1.00  0.00     0.091 A 
ATOM     12  C   UNL     1     -63.477 -55.833  36.165  1.00  0.00     0.068 A 
ATOM     13  C   UNL     1     -63.340 -55.996  37.548  1.00  0.00     0.162 A 
ATOM     14  C   UNL     1     -61.082 -56.018  35.882  1.00  0.00     0.068 A 
ATOM     15  C   UNL     1     -62.051 -56.169  38.107  1.00  0.00     0.200 A 
ATOM     16  C   UNL     1     -60.930 -56.183  37.264  1.00  0.00     0.162 A 
BRANCH  13  17
ATOM     17  O   UNL     1     -64.502 -55.981  38.323  1.00  0.00    -0.504 OA
ATOM     18  H   UNL     1     -64.788 -55.204  38.899  1.00  0.00     0.293 HD
ENDBRANCH  13  17
BRANCH  15  19
ATOM     19  O   UNL     1     -61.842 -56.330  39.478  1.00  0.00    -0.502 OA
ATOM     20  H   UNL     1     -61.162 -56.962  39.877  1.00  0.00     0.293 HD
ENDBRANCH  15  19
BRANCH  16  21
ATOM     21  O   UNL     1     -59.661 -56.370  37.812  1.00  0.00    -0.504 OA
ATOM     22  H   UNL     1     -58.969 -55.629  37.812  1.00  0.00     0.293 HD
ENDBRANCH  16  21
ENDBRANCH   1  11
BRANCH  10  23
ATOM     23  O   UNL     1     -62.231 -53.253  33.957  1.00  0.00    -0.500 OA
ATOM     24  H   UNL     1     -62.989 -52.756  34.410  1.00  0.00     0.294 HD
ENDBRANCH  10  23
BRANCH   5  25
ATOM     25  O   UNL     1     -63.749 -59.125  29.105  1.00  0.00    -0.507 OA
ATOM     26  H   UNL     1     -64.149 -59.923  29.585  1.00  0.00     0.293 HD
ENDBRANCH   5  25
BRANCH   7  27
ATOM     27  O   UNL     1     -63.005 -54.387  28.906  1.00  0.00    -0.507 OA
ATOM     28  H   UNL     1     -63.701 -53.656  28.885  1.00  0.00     0.293 HD
ENDBRANCH   7  27
TORSDOF 7
ENDMDL
MODEL 8
REMARK VINA RESULT:    -5.223      1.184      2.635
REMARK INTER + INTRA:          -6.793
REMARK INTER:                  -6.587
REMARK INTRA:                  -0.205
REMARK UNBOUND:                -0.349
REMARK SMILES Oc1cc(O)c2cc(O)c(-c3cc(O)c(O)c(O)c3)[o+]c2c1
REMARK SMILES IDX 10 1 20 2 21 3 22 4 2 5 3 6 4 7 6 8 7 9 8 10 11 11 12 12
REMARK SMILES IDX 13 13 19 14 15 15 17 16 14 17 16 19 18 21 9 23 1 25 5 27
REMARK H PARENT 14 18 16 20 18 22 9 24 1 26 5 28
REMARK Flexibility Score: inf
ROOT
ATOM      1  C   UNL     1     -62.932 -56.250  33.236  1.00  0.00     0.402 A 
ATOM      2  O   UNL     1     -63.909 -55.539  33.795  1.00  0.00    -0.202 OA
ATOM      3  C   UNL     1     -63.918 -55.194  35.078  1.00  0.00     0.368 A 
ATOM      4  C   UNL     1     -64.988 -54.443  35.573  1.00  0.00     0.162 A 
ATOM      5  C   UNL     1     -65.021 -54.063  36.917  1.00  0.00     0.128 A 
ATOM      6  C   UNL     1     -63.980 -54.435  37.772  1.00  0.00     0.093 A 
ATOM      7  C   UNL     1     -62.897 -55.188  37.301  1.00  0.00     0.136 A 
ATOM      8  C   UNL     1     -62.859 -55.577  35.936  1.00  0.00     0.125 A 
ATOM      9  C   UNL     1     -61.820 -56.342  35.381  1.00  0.00     0.078 A 
ATOM     10  C   UNL     1     -61.855 -56.692  34.028  1.00  0.00     0.223 A 
ENDROOT
BRANCH   1  11
ATOM     11  C   UNL     1     -63.031 -56.563  31.793  1.00  0.00     0.091 A 
ATOM     12  C   UNL     1     -62.960 -55.523  30.855  1.00  0.00     0.068 A 
ATOM     13  C   UNL     1     -63.029 -55.783  29.482  1.00  0.00     0.162 A 
ATOM     14  C   UNL     1     -63.137 -57.886  31.337  1.00  0.00     0.068 A 
ATOM     15  C   UNL     1     -63.159 -57.118  29.030  1.00  0.00     0.200 A 
ATOM     16  C   UNL     1     -63.207 -58.161  29.966  1.00  0.00     0.162 A 
BRANCH  13  17
ATOM     17  O   UNL     1     -62.965 -54.695  28.609  1.00  0.00    -0.504 OA
ATOM     18  H   UNL     1     -63.471 -54.637  27.738  1.00  0.00     0.293 HD
ENDBRANCH  13  17
BRANCH  15  19
ATOM     19  O   UNL     1     -63.240 -57.448  27.676  1.00  0.00    -0.502 OA
ATOM     20  H   UNL     1     -62.678 -57.020  26.954  1.00  0.00     0.293 HD
ENDBRANCH  15  19
BRANCH  16  21
ATOM     21  O   UNL     1     -63.319 -59.479  29.521  1.00  0.00    -0.504 OA
ATOM     22  H   UNL     1     -64.221 -59.929  29.416  1.00  0.00     0.293 HD
ENDBRANCH  16  21
ENDBRANCH   1  11
BRANCH  10  23
ATOM     23  O   UNL     1     -60.849 -57.493  33.486  1.00  0.00    -0.500 OA
ATOM     24  H   UNL     1     -60.795 -57.682  32.492  1.00  0.00     0.294 HD
ENDBRANCH  10  23
BRANCH   5  25
ATOM     25  O   UNL     1     -66.085 -53.316  37.418  1.00  0.00    -0.507 OA
ATOM     26  H   UNL     1     -66.925 -53.160  36.874  1.00  0.00     0.293 HD
ENDBRANCH   5  25
BRANCH   7  27
ATOM     27  O   UNL     1     -61.894 -55.515  38.218  1.00  0.00    -0.507 OA
ATOM     28  H   UNL     1     -62.054 -56.000  39.089  1.00  0.00     0.293 HD
ENDBRANCH   7  27
TORSDOF 7
ENDMDL
MODEL 9
REMARK VINA RESULT:    -5.193      6.031     10.953
REMARK INTER + INTRA:          -6.756
REMARK INTER:                  -6.438
REMARK INTRA:                  -0.318
REMARK UNBOUND:                -0.349
REMARK SMILES Oc1cc(O)c2cc(O)c(-c3cc(O)c(O)c(O)c3)[o+]c2c1
REMARK SMILES IDX 10 1 20 2 21 3 22 4 2 5 3 6 4 7 6 8 7 9 8 10 11 11 12 12
REMARK SMILES IDX 13 13 19 14 15 15 17 16 14 17 16 19 18 21 9 23 1 25 5 27
REMARK H PARENT 14 18 16 20 18 22 9 24 1 26 5 28
REMARK Flexibility Score: inf
ROOT
ATOM      1  C   UNL     1     -58.670 -52.343  40.181  1.00  0.00     0.402 A 
ATOM      2  O   UNL     1     -58.953 -52.307  38.881  1.00  0.00    -0.202 OA
ATOM      3  C   UNL     1     -59.668 -53.243  38.265  1.00  0.00     0.368 A 
ATOM      4  C   UNL     1     -59.917 -53.116  36.895  1.00  0.00     0.162 A 
ATOM      5  C   UNL     1     -60.668 -54.084  36.222  1.00  0.00     0.128 A 
ATOM      6  C   UNL     1     -61.175 -55.183  36.922  1.00  0.00     0.093 A 
ATOM      7  C   UNL     1     -60.939 -55.332  38.295  1.00  0.00     0.136 A 
ATOM      8  C   UNL     1     -60.175 -54.353  38.982  1.00  0.00     0.125 A 
ATOM      9  C   UNL     1     -59.879 -54.428  40.353  1.00  0.00     0.078 A 
ATOM     10  C   UNL     1     -59.115 -53.427  40.960  1.00  0.00     0.223 A 
ENDROOT
BRANCH   1  11
ATOM     11  C   UNL     1     -57.873 -51.235  40.754  1.00  0.00     0.091 A 
ATOM     12  C   UNL     1     -58.503 -50.281  41.567  1.00  0.00     0.068 A 
ATOM     13  C   UNL     1     -57.778 -49.231  42.142  1.00  0.00     0.162 A 
ATOM     14  C   UNL     1     -56.487 -51.148  40.550  1.00  0.00     0.068 A 
ATOM     15  C   UNL     1     -56.384 -49.138  41.913  1.00  0.00     0.200 A 
ATOM     16  C   UNL     1     -55.749 -50.104  41.120  1.00  0.00     0.162 A 
BRANCH  13  17
ATOM     17  O   UNL     1     -58.476 -48.312  42.929  1.00  0.00    -0.504 OA
ATOM     18  H   UNL     1     -59.030 -47.556  42.557  1.00  0.00     0.293 HD
ENDBRANCH  13  17
BRANCH  15  19
ATOM     19  O   UNL     1     -55.602 -48.114  42.451  1.00  0.00    -0.502 OA
ATOM     20  H   UNL     1     -55.970 -47.229  42.773  1.00  0.00     0.293 HD
ENDBRANCH  15  19
BRANCH  16  21
ATOM     21  O   UNL     1     -54.373 -50.022  40.907  1.00  0.00    -0.504 OA
ATOM     22  H   UNL     1     -53.732 -49.794  41.658  1.00  0.00     0.293 HD
ENDBRANCH  16  21
ENDBRANCH   1  11
BRANCH  10  23
ATOM     23  O   UNL     1     -58.779 -53.526  42.310  1.00  0.00    -0.500 OA
ATOM     24  H   UNL     1     -58.557 -54.417  42.740  1.00  0.00     0.294 HD
ENDBRANCH  10  23
BRANCH   5  25
ATOM     25  O   UNL     1     -60.919 -53.965  34.857  1.00  0.00    -0.507 OA
ATOM     26  H   UNL     1     -60.166 -53.875  34.186  1.00  0.00     0.293 HD
ENDBRANCH   5  25
BRANCH   7  27
ATOM     27  O   UNL     1     -61.483 -56.457  38.922  1.00  0.00    -0.507 OA
ATOM     28  H   UNL     1     -61.360 -57.406  38.599  1.00  0.00     0.293 HD
ENDBRANCH   7  27
TORSDOF 7
ENDMDL
