MODEL 1
REMARK VINA RESULT:    -3.457      0.000      0.000
REMARK INTER + INTRA:          -5.101
REMARK INTER:                  -5.276
REMARK INTRA:                   0.175
REMARK UNBOUND:                 0.175
REMARK SMILES CC1=CCC[C@H](C)C(=O)C[C@H](C(C)C)C(=O)C1
REMARK SMILES IDX 8 1 9 2 6 3 7 4 5 5 4 6 3 7 2 8 1 9 10 11 11 12 15 13 16 14
REMARK SMILES IDX 17 15 12 17 13 18 14 19
REMARK H PARENT
REMARK Flexibility Score: 70.00
ROOT
ATOM      1  C   UNL     1     102.739  49.776  56.805  1.00  0.00     0.136 C 
ATOM      2  O   UNL     1     102.453  50.488  57.756  1.00  0.00    -0.299 OA
ENDROOT
BRANCH   1   3
ATOM      3  C   UNL     1     103.198  48.335  57.071  1.00  0.00     0.053 C 
ATOM      4  C   UNL     1     103.539  48.128  58.551  1.00  0.00     0.016 C 
BRANCH   3   5
ATOM      5  C   UNL     1     102.045  47.470  56.602  1.00  0.00     0.015 C 
BRANCH   5   6
ATOM      6  C   UNL     1     102.049  46.394  55.556  1.00  0.00     0.028 C 
BRANCH   6   7
ATOM      7  C   UNL     1     102.069  47.064  54.175  1.00  0.00    -0.028 C 
ATOM      8  C   UNL     1     103.084  47.751  53.529  1.00  0.00    -0.070 CG0
ATOM      9  C   UNL     1     102.766  48.212  52.125  1.00  0.00     0.039 C 
ATOM     10  G   UNL     1     104.496  48.111  54.073  1.00  0.00     0.000 G0
ENDBRANCH   6   7
ENDBRANCH   5   6
ENDBRANCH   3   5
ENDBRANCH   1   3
BRANCH   1  11
ATOM     11  C   UNL     1     102.642  50.362  55.384  1.00  0.00     0.087 C 
BRANCH  11  12
ATOM     12  C   UNL     1     104.019  50.741  54.714  1.00  0.00     0.066 C 
BRANCH  12  13
ATOM     13  C   UNL     1     104.824  49.622  54.001  1.00  0.00     0.140 C 
ATOM     14  O   UNL     1     105.734  49.973  53.263  1.00  0.00    -0.299 OA
BRANCH  13  15
ATOM     15  C   UNL     1     104.497  48.122  54.041  1.00  0.00     0.106 CG0
ATOM     16  G   UNL     1     103.071  47.765  53.533  1.00  0.00     0.000 G0
ENDBRANCH  13  15
ENDBRANCH  12  13
BRANCH  12  17
ATOM     17  C   UNL     1     103.924  51.996  53.788  1.00  0.00    -0.006 C 
ATOM     18  C   UNL     1     104.996  53.047  54.127  1.00  0.00     0.008 C 
ATOM     19  C   UNL     1     102.534  52.654  53.776  1.00  0.00     0.008 C 
ENDBRANCH  12  17
ENDBRANCH  11  12
ENDBRANCH   1  11
TORSDOF 1
ENDMDL
MODEL 2
REMARK VINA RESULT:    -2.457      1.469      3.703
REMARK INTER + INTRA:          -3.575
REMARK INTER:                  -3.280
REMARK INTRA:                  -0.295
REMARK UNBOUND:                 0.175
REMARK SMILES CC1=CCC[C@H](C)C(=O)C[C@H](C(C)C)C(=O)C1
REMARK SMILES IDX 8 1 9 2 6 3 7 4 5 5 4 6 3 7 2 8 1 9 10 11 11 12 15 13 16 14
REMARK SMILES IDX 17 15 12 17 13 18 14 19
REMARK H PARENT
REMARK Flexibility Score: 70.00
ROOT
ATOM      1  C   UNL     1     104.092  48.273  53.865  1.00  0.00     0.136 C 
ATOM      2  O   UNL     1     104.923  47.379  53.902  1.00  0.00    -0.299 OA
ENDROOT
BRANCH   1   3
ATOM      3  C   UNL     1     102.682  47.953  53.348  1.00  0.00     0.053 C 
ATOM      4  C   UNL     1     102.634  47.992  51.816  1.00  0.00     0.016 C 
BRANCH   3   5
ATOM      5  C   UNL     1     102.365  46.584  53.915  1.00  0.00     0.015 C 
BRANCH   5   6
ATOM      6  C   UNL     1     101.672  46.243  55.202  1.00  0.00     0.028 C 
BRANCH   6   7
ATOM      7  C   UNL     1     102.542  46.741  56.365  1.00  0.00    -0.028 C 
ATOM      8  C   UNL     1     102.587  47.981  56.980  1.00  0.00    -0.070 CG0
ATOM      9  C   UNL     1     103.524  48.087  58.161  1.00  0.00     0.039 C 
ATOM     10  G   UNL     1     101.803  49.270  56.600  1.00  0.00     0.000 G0
ENDBRANCH   6   7
ENDBRANCH   5   6
ENDBRANCH   3   5
ENDBRANCH   1   3
BRANCH   1  11
ATOM     11  C   UNL     1     104.501  49.686  54.323  1.00  0.00     0.087 C 
BRANCH  11  12
ATOM     12  C   UNL     1     103.311  50.631  54.745  1.00  0.00     0.066 C 
BRANCH  12  13
ATOM     13  C   UNL     1     102.687  50.445  56.154  1.00  0.00     0.140 C 
ATOM     14  O   UNL     1     103.008  51.249  57.017  1.00  0.00    -0.299 OA
BRANCH  13  15
ATOM     15  C   UNL     1     101.804  49.268  56.592  1.00  0.00     0.106 CG0
ATOM     16  G   UNL     1     102.594  47.984  56.978  1.00  0.00     0.000 G0
ENDBRANCH  13  15
ENDBRANCH  12  13
BRANCH  12  17
ATOM     17  C   UNL     1     103.613  52.144  54.496  1.00  0.00    -0.006 C 
ATOM     18  C   UNL     1     102.550  52.807  53.604  1.00  0.00     0.008 C 
ATOM     19  C   UNL     1     105.015  52.410  53.922  1.00  0.00     0.008 C 
ENDBRANCH  12  17
ENDBRANCH  11  12
ENDBRANCH   1  11
TORSDOF 1
ENDMDL
MODEL 3
REMARK VINA RESULT:    -1.808      1.906      3.932
REMARK INTER + INTRA:          -2.584
REMARK INTER:                  -3.462
REMARK INTRA:                   0.878
REMARK UNBOUND:                 0.175
REMARK SMILES CC1=CCC[C@H](C)C(=O)C[C@H](C(C)C)C(=O)C1
REMARK SMILES IDX 8 1 9 2 6 3 7 4 5 5 4 6 3 7 2 8 1 9 10 11 11 12 15 13 16 14
REMARK SMILES IDX 17 15 12 17 13 18 14 19
REMARK H PARENT
REMARK Flexibility Score: 70.00
ROOT
ATOM      1  C   UNL     1     102.416  47.105  53.388  1.00  0.00     0.136 C 
ATOM      2  O   UNL     1     101.999  47.256  52.250  1.00  0.00    -0.299 OA
ENDROOT
BRANCH   1   3
ATOM      3  C   UNL     1     101.630  46.204  54.352  1.00  0.00     0.053 C 
ATOM      4  C   UNL     1     101.730  44.733  53.937  1.00  0.00     0.016 C 
BRANCH   3   5
ATOM      5  C   UNL     1     102.236  46.477  55.714  1.00  0.00     0.015 C 
BRANCH   5   6
ATOM      6  C   UNL     1     101.592  47.108  56.914  1.00  0.00     0.028 C 
BRANCH   6   7
ATOM      7  C   UNL     1     102.646  47.221  58.024  1.00  0.00    -0.028 C 
ATOM      8  C   UNL     1     103.864  47.880  58.035  1.00  0.00    -0.070 CG0
ATOM      9  C   UNL     1     104.613  47.841  59.347  1.00  0.00     0.039 C 
ATOM     10  G   UNL     1     104.555  48.641  56.867  1.00  0.00     0.000 G0
ENDBRANCH   6   7
ENDBRANCH   5   6
ENDBRANCH   3   5
ENDBRANCH   1   3
BRANCH   1  11
ATOM     11  C   UNL     1     103.702  47.840  53.810  1.00  0.00     0.087 C 
BRANCH  11  12
ATOM     12  C   UNL     1     103.488  49.273  54.434  1.00  0.00     0.066 C 
BRANCH  12  13
ATOM     13  C   UNL     1     103.613  49.433  55.973  1.00  0.00     0.140 C 
ATOM     14  O   UNL     1     102.972  50.334  56.494  1.00  0.00    -0.299 OA
BRANCH  13  15
ATOM     15  C   UNL     1     104.567  48.641  56.879  1.00  0.00     0.106 CG0
ATOM     16  G   UNL     1     103.864  47.889  58.046  1.00  0.00     0.000 G0
ENDBRANCH  13  15
ENDBRANCH  12  13
BRANCH  12  17
ATOM     17  C   UNL     1     104.323  50.383  53.718  1.00  0.00    -0.006 C 
ATOM     18  C   UNL     1     105.827  50.261  54.020  1.00  0.00     0.008 C 
ATOM     19  C   UNL     1     103.845  51.813  54.022  1.00  0.00     0.008 C 
ENDBRANCH  12  17
ENDBRANCH  11  12
ENDBRANCH   1  11
TORSDOF 1
ENDMDL
MODEL 4
REMARK VINA RESULT:    -1.602      1.859      4.631
REMARK INTER + INTRA:          -2.270
REMARK INTER:                  -5.178
REMARK INTRA:                   2.909
REMARK UNBOUND:                 0.175
REMARK SMILES CC1=CCC[C@H](C)C(=O)C[C@H](C(C)C)C(=O)C1
REMARK SMILES IDX 8 1 9 2 6 3 7 4 5 5 4 6 3 7 2 8 1 9 10 11 11 12 15 13 16 14
REMARK SMILES IDX 17 15 12 17 13 18 14 19
REMARK H PARENT
REMARK Flexibility Score: 70.00
ROOT
ATOM      1  C   UNL     1     102.384  46.758  54.887  1.00  0.00     0.136 C 
ATOM      2  O   UNL     1     101.828  45.709  54.600  1.00  0.00    -0.299 OA
ENDROOT
BRANCH   1   3
ATOM      3  C   UNL     1     103.422  47.336  53.914  1.00  0.00     0.053 C 
ATOM      4  C   UNL     1     102.750  47.876  52.647  1.00  0.00     0.016 C 
BRANCH   3   5
ATOM      5  C   UNL     1     104.138  48.411  54.708  1.00  0.00     0.015 C 
BRANCH   5   6
ATOM      6  C   UNL     1     105.310  49.252  54.297  1.00  0.00     0.028 C 
BRANCH   6   7
ATOM      7  C   UNL     1     104.808  50.678  54.024  1.00  0.00    -0.028 C 
ATOM      8  C   UNL     1     103.618  51.289  54.380  1.00  0.00    -0.070 CG0
ATOM      9  C   UNL     1     103.498  52.748  54.004  1.00  0.00     0.039 C 
ATOM     10  G   UNL     1     102.394  50.659  55.105  1.00  0.00     0.000 G0
ENDBRANCH   6   7
ENDBRANCH   5   6
ENDBRANCH   3   5
ENDBRANCH   1   3
BRANCH   1  11
ATOM     11  C   UNL     1     102.031  47.444  56.220  1.00  0.00     0.087 C 
BRANCH  11  12
ATOM     12  C   UNL     1     103.060  48.534  56.712  1.00  0.00     0.066 C 
BRANCH  12  13
ATOM     13  C   UNL     1     102.722  50.030  56.470  1.00  0.00     0.140 C 
ATOM     14  O   UNL     1     102.611  50.743  57.457  1.00  0.00    -0.299 OA
BRANCH  13  15
ATOM     15  C   UNL     1     102.391  50.662  55.110  1.00  0.00     0.106 CG0
ATOM     16  G   UNL     1     103.611  51.304  54.389  1.00  0.00     0.000 G0
ENDBRANCH  13  15
ENDBRANCH  12  13
BRANCH  12  17
ATOM     17  C   UNL     1     103.508  48.327  58.196  1.00  0.00    -0.006 C 
ATOM     18  C   UNL     1     105.025  48.099  58.315  1.00  0.00     0.008 C 
ATOM     19  C   UNL     1     102.753  47.199  58.919  1.00  0.00     0.008 C 
ENDBRANCH  12  17
ENDBRANCH  11  12
ENDBRANCH   1  11
TORSDOF 1
ENDMDL
MODEL 5
REMARK VINA RESULT:    -1.482      9.125     10.728
REMARK INTER + INTRA:          -2.087
REMARK INTER:                  -3.702
REMARK INTRA:                   1.616
REMARK UNBOUND:                 0.175
REMARK SMILES CC1=CCC[C@H](C)C(=O)C[C@H](C(C)C)C(=O)C1
REMARK SMILES IDX 8 1 9 2 6 3 7 4 5 5 4 6 3 7 2 8 1 9 10 11 11 12 15 13 16 14
REMARK SMILES IDX 17 15 12 17 13 18 14 19
REMARK H PARENT
REMARK Flexibility Score: 70.00
ROOT
ATOM      1  C   UNL     1     108.336  47.064  65.606  1.00  0.00     0.136 C 
ATOM      2  O   UNL     1     108.758  47.166  66.747  1.00  0.00    -0.299 OA
ENDROOT
BRANCH   1   3
ATOM      3  C   UNL     1     108.886  45.944  64.711  1.00  0.00     0.053 C 
ATOM      4  C   UNL     1     107.921  44.754  64.660  1.00  0.00     0.016 C 
BRANCH   3   5
ATOM      5  C   UNL     1     109.091  46.598  63.359  1.00  0.00     0.015 C 
BRANCH   5   6
ATOM      6  C   UNL     1     108.092  46.802  62.258  1.00  0.00     0.028 C 
BRANCH   6   7
ATOM      7  C   UNL     1     108.319  48.195  61.653  1.00  0.00    -0.028 C 
ATOM      8  C   UNL     1     109.022  49.281  62.149  1.00  0.00    -0.070 CG0
ATOM      9  C   UNL     1     109.099  50.480  61.232  1.00  0.00     0.039 C 
ATOM     10  G   UNL     1     109.727  49.419  63.529  1.00  0.00     0.000 G0
ENDBRANCH   6   7
ENDBRANCH   5   6
ENDBRANCH   3   5
ENDBRANCH   1   3
BRANCH   1  11
ATOM     11  C   UNL     1     107.283  48.074  65.111  1.00  0.00     0.087 C 
BRANCH  11  12
ATOM     12  C   UNL     1     107.647  49.593  65.334  1.00  0.00     0.066 C 
BRANCH  12  13
ATOM     13  C   UNL     1     108.871  50.176  64.579  1.00  0.00     0.140 C 
ATOM     14  O   UNL     1     109.125  51.359  64.758  1.00  0.00    -0.299 OA
BRANCH  13  15
ATOM     15  C   UNL     1     109.712  49.432  63.531  1.00  0.00     0.106 CG0
ATOM     16  G   UNL     1     109.020  49.283  62.145  1.00  0.00     0.000 G0
ENDBRANCH  13  15
ENDBRANCH  12  13
BRANCH  12  17
ATOM     17  C   UNL     1     106.419  50.546  65.167  1.00  0.00    -0.006 C 
ATOM     18  C   UNL     1     105.443  50.047  64.088  1.00  0.00     0.008 C 
ATOM     19  C   UNL     1     106.804  52.008  64.887  1.00  0.00     0.008 C 
ENDBRANCH  12  17
ENDBRANCH  11  12
ENDBRANCH   1  11
TORSDOF 1
ENDMDL
MODEL 6
REMARK VINA RESULT:    -1.421      8.008     10.642
REMARK INTER + INTRA:          -1.994
REMARK INTER:                  -3.484
REMARK INTRA:                   1.489
REMARK UNBOUND:                 0.175
REMARK SMILES CC1=CCC[C@H](C)C(=O)C[C@H](C(C)C)C(=O)C1
REMARK SMILES IDX 8 1 9 2 6 3 7 4 5 5 4 6 3 7 2 8 1 9 10 11 11 12 15 13 16 14
REMARK SMILES IDX 17 15 12 17 13 18 14 19
REMARK H PARENT
REMARK Flexibility Score: 70.00
ROOT
ATOM      1  C   UNL     1     107.864  47.098  64.209  1.00  0.00     0.136 C 
ATOM      2  O   UNL     1     108.723  46.419  63.667  1.00  0.00    -0.299 OA
ENDROOT
BRANCH   1   3
ATOM      3  C   UNL     1     107.795  47.120  65.743  1.00  0.00     0.053 C 
ATOM      4  C   UNL     1     109.036  46.465  66.360  1.00  0.00     0.016 C 
BRANCH   3   5
ATOM      5  C   UNL     1     107.659  48.586  66.101  1.00  0.00     0.015 C 
BRANCH   5   6
ATOM      6  C   UNL     1     106.611  49.563  65.657  1.00  0.00     0.028 C 
BRANCH   6   7
ATOM      7  C   UNL     1     107.310  50.868  65.249  1.00  0.00    -0.028 C 
ATOM      8  C   UNL     1     108.441  51.072  64.475  1.00  0.00    -0.070 CG0
ATOM      9  C   UNL     1     108.799  52.517  64.214  1.00  0.00     0.039 C 
ATOM     10  G   UNL     1     109.385  50.002  63.855  1.00  0.00     0.000 G0
ENDBRANCH   6   7
ENDBRANCH   5   6
ENDBRANCH   3   5
ENDBRANCH   1   3
BRANCH   1  11
ATOM     11  C   UNL     1     106.877  47.886  63.328  1.00  0.00     0.087 C 
BRANCH  11  12
ATOM     12  C   UNL     1     107.537  48.799  62.223  1.00  0.00     0.066 C 
BRANCH  12  13
ATOM     13  C   UNL     1     108.935  49.409  62.510  1.00  0.00     0.140 C 
ATOM     14  O   UNL     1     109.771  49.330  61.621  1.00  0.00    -0.299 OA
BRANCH  13  15
ATOM     15  C   UNL     1     109.398  49.987  63.855  1.00  0.00     0.106 CG0
ATOM     16  G   UNL     1     108.435  51.049  64.460  1.00  0.00     0.000 G0
ENDBRANCH  13  15
ENDBRANCH  12  13
BRANCH  12  17
ATOM     17  C   UNL     1     107.528  48.144  60.803  1.00  0.00    -0.006 C 
ATOM     18  C   UNL     1     106.098  47.893  60.292  1.00  0.00     0.008 C 
ATOM     19  C   UNL     1     108.349  46.847  60.714  1.00  0.00     0.008 C 
ENDBRANCH  12  17
ENDBRANCH  11  12
ENDBRANCH   1  11
TORSDOF 1
ENDMDL
MODEL 7
REMARK VINA RESULT:    -1.377      1.547      3.759
REMARK INTER + INTRA:          -1.926
REMARK INTER:                  -2.500
REMARK INTRA:                   0.574
REMARK UNBOUND:                 0.175
REMARK SMILES CC1=CCC[C@H](C)C(=O)C[C@H](C(C)C)C(=O)C1
REMARK SMILES IDX 8 1 9 2 6 3 7 4 5 5 4 6 3 7 2 8 1 9 10 11 11 12 15 13 16 14
REMARK SMILES IDX 17 15 12 17 13 18 14 19
REMARK H PARENT
REMARK Flexibility Score: 70.00
ROOT
ATOM      1  C   UNL     1     102.802  47.385  57.126  1.00  0.00     0.136 C 
ATOM      2  O   UNL     1     101.748  46.800  57.325  1.00  0.00    -0.299 OA
ENDROOT
BRANCH   1   3
ATOM      3  C   UNL     1     103.230  48.491  58.101  1.00  0.00     0.053 C 
ATOM      4  C   UNL     1     104.671  48.279  58.577  1.00  0.00     0.016 C 
BRANCH   3   5
ATOM      5  C   UNL     1     103.047  49.780  57.325  1.00  0.00     0.015 C 
BRANCH   5   6
ATOM      6  C   UNL     1     102.121  50.057  56.178  1.00  0.00     0.028 C 
BRANCH   6   7
ATOM      7  C   UNL     1     102.772  51.114  55.275  1.00  0.00    -0.028 C 
ATOM      8  C   UNL     1     103.891  51.029  54.463  1.00  0.00    -0.070 CG0
ATOM      9  C   UNL     1     104.198  52.263  53.646  1.00  0.00     0.039 C 
ATOM     10  G   UNL     1     104.868  49.829  54.298  1.00  0.00     0.000 G0
ENDBRANCH   6   7
ENDBRANCH   5   6
ENDBRANCH   3   5
ENDBRANCH   1   3
BRANCH   1  11
ATOM     11  C   UNL     1     103.643  46.998  55.895  1.00  0.00     0.087 C 
BRANCH  11  12
ATOM     12  C   UNL     1     103.201  47.667  54.537  1.00  0.00     0.066 C 
BRANCH  12  13
ATOM     13  C   UNL     1     104.235  48.535  53.771  1.00  0.00     0.140 C 
ATOM     14  O   UNL     1     104.639  48.107  52.700  1.00  0.00    -0.299 OA
BRANCH  13  15
ATOM     15  C   UNL     1     104.888  49.820  54.300  1.00  0.00     0.106 CG0
ATOM     16  G   UNL     1     103.907  51.017  54.463  1.00  0.00     0.000 G0
ENDBRANCH  13  15
ENDBRANCH  12  13
BRANCH  12  17
ATOM     17  C   UNL     1     102.524  46.659  53.551  1.00  0.00    -0.006 C 
ATOM     18  C   UNL     1     101.746  47.376  52.435  1.00  0.00     0.008 C 
ATOM     19  C   UNL     1     101.614  45.631  54.244  1.00  0.00     0.008 C 
ENDBRANCH  12  17
ENDBRANCH  11  12
ENDBRANCH   1  11
TORSDOF 1
ENDMDL
MODEL 8
REMARK VINA RESULT:    -1.300      8.430     11.032
REMARK INTER + INTRA:          -1.810
REMARK INTER:                  -2.331
REMARK INTRA:                   0.521
REMARK UNBOUND:                 0.175
REMARK SMILES CC1=CCC[C@H](C)C(=O)C[C@H](C(C)C)C(=O)C1
REMARK SMILES IDX 8 1 9 2 6 3 7 4 5 5 4 6 3 7 2 8 1 9 10 11 11 12 15 13 16 14
REMARK SMILES IDX 17 15 12 17 13 18 14 19
REMARK H PARENT
REMARK Flexibility Score: 70.00
ROOT
ATOM      1  C   UNL     1     109.211  50.386  63.431  1.00  0.00     0.136 C 
ATOM      2  O   UNL     1     109.057  50.950  62.359  1.00  0.00    -0.299 OA
ENDROOT
BRANCH   1   3
ATOM      3  C   UNL     1     108.750  51.094  64.714  1.00  0.00     0.053 C 
ATOM      4  C   UNL     1     109.234  52.548  64.745  1.00  0.00     0.016 C 
BRANCH   3   5
ATOM      5  C   UNL     1     107.240  50.972  64.700  1.00  0.00     0.015 C 
BRANCH   5   6
ATOM      6  C   UNL     1     106.374  49.996  65.441  1.00  0.00     0.028 C 
BRANCH   6   7
ATOM      7  C   UNL     1     107.286  48.995  66.164  1.00  0.00    -0.028 C 
ATOM      8  C   UNL     1     107.708  47.732  65.782  1.00  0.00    -0.070 CG0
ATOM      9  C   UNL     1     108.679  47.057  66.723  1.00  0.00     0.039 C 
ATOM     10  G   UNL     1     107.298  46.926  64.516  1.00  0.00     0.000 G0
ENDBRANCH   6   7
ENDBRANCH   5   6
ENDBRANCH   3   5
ENDBRANCH   1   3
BRANCH   1  11
ATOM     11  C   UNL     1     109.876  48.997  63.450  1.00  0.00     0.087 C 
BRANCH  11  12
ATOM     12  C   UNL     1     109.096  47.863  62.679  1.00  0.00     0.066 C 
BRANCH  12  13
ATOM     13  C   UNL     1     108.423  46.737  63.509  1.00  0.00     0.140 C 
ATOM     14  O   UNL     1     108.750  45.586  63.255  1.00  0.00    -0.299 OA
BRANCH  13  15
ATOM     15  C   UNL     1     107.292  46.932  64.529  1.00  0.00     0.106 CG0
ATOM     16  G   UNL     1     107.705  47.737  65.794  1.00  0.00     0.000 G0
ENDBRANCH  13  15
ENDBRANCH  12  13
BRANCH  12  17
ATOM     17  C   UNL     1     108.083  48.424  61.629  1.00  0.00    -0.006 C 
ATOM     18  C   UNL     1     106.633  48.378  62.143  1.00  0.00     0.008 C 
ATOM     19  C   UNL     1     108.171  47.738  60.255  1.00  0.00     0.008 C 
ENDBRANCH  12  17
ENDBRANCH  11  12
ENDBRANCH   1  11
TORSDOF 1
ENDMDL
