MODEL 1
REMARK VINA RESULT:    -6.220      0.000      0.000
REMARK INTER + INTRA:          -6.903
REMARK INTER:                  -6.765
REMARK INTRA:                  -0.138
REMARK UNBOUND:                -0.138
REMARK SMILES CC(=O)[C@@H]1CC[C@@H]2[C@H]3CC=C4C[C@H](O)CC[C@@]4(C)[C@@H]3CC[C@]21C
REMARK SMILES IDX 4 1 5 2 6 3 7 4 22 5 21 6 20 7 19 8 8 9 9 10 10 11 11 12
REMARK SMILES IDX 17 13 16 14 15 15 13 16 12 17 18 18 23 19 2 20 1 21 3 22
REMARK SMILES IDX 14 23
REMARK H PARENT 14 24
REMARK Flexibility Score: inf
ROOT
ATOM      1  C   UNL     1     168.305 176.329 188.062  1.00  0.00     0.062 C 
ATOM      2  C   UNL     1     167.926 177.831 188.092  1.00  0.00     0.012 C 
ATOM      3  C   UNL     1     169.210 178.610 187.750  1.00  0.00     0.005 C 
ATOM      4  C   UNL     1     170.302 177.546 187.740  1.00  0.00    -0.001 C 
ATOM      5  C   UNL     1     169.608 176.279 187.229  1.00  0.00    -0.020 C 
ATOM      6  C   UNL     1     170.528 175.082 187.550  1.00  0.00     0.008 C 
ATOM      7  C   UNL     1     171.916 175.257 186.891  1.00  0.00     0.005 C 
ATOM      8  C   UNL     1     172.593 176.632 187.209  1.00  0.00     0.003 C 
ATOM      9  C   UNL     1     171.630 177.844 187.012  1.00  0.00     0.000 C 
ATOM     10  C   UNL     1     172.283 179.110 187.587  1.00  0.00     0.031 C 
ATOM     11  C   UNL     1     173.703 179.292 187.132  1.00  0.00    -0.027 C 
ATOM     12  C   UNL     1     174.504 178.273 186.751  1.00  0.00    -0.065 C 
ATOM     13  C   UNL     1     173.965 176.861 186.464  1.00  0.00    -0.008 C 
ATOM     14  C   UNL     1     175.002 175.815 186.982  1.00  0.00     0.014 C 
ATOM     15  C   UNL     1     176.447 176.110 186.551  1.00  0.00     0.033 C 
ATOM     16  C   UNL     1     176.882 177.504 187.011  1.00  0.00     0.118 C 
ATOM     17  C   UNL     1     175.956 178.579 186.430  1.00  0.00     0.063 C 
ATOM     18  C   UNL     1     173.807 176.708 184.926  1.00  0.00     0.016 C 
ATOM     19  C   UNL     1     169.283 176.318 185.700  1.00  0.00     0.012 C 
ENDROOT
BRANCH   1  20
ATOM     20  C   UNL     1     167.191 175.417 187.577  1.00  0.00     0.133 C 
ATOM     21  C   UNL     1     166.066 175.958 186.745  1.00  0.00     0.088 C 
ATOM     22  O   UNL     1     167.188 174.231 187.873  1.00  0.00    -0.300 OA
ENDBRANCH   1  20
BRANCH  16  23
ATOM     23  O   UNL     1     178.201 177.733 186.590  1.00  0.00    -0.393 OA
ATOM     24  H   UNL     1     178.256 178.688 186.324  1.00  0.00     0.210 HD
ENDBRANCH  16  23
TORSDOF 2
ENDMDL
MODEL 2
REMARK VINA RESULT:    -6.201     10.328     12.797
REMARK INTER + INTRA:          -6.883
REMARK INTER:                  -6.794
REMARK INTRA:                  -0.089
REMARK UNBOUND:                -0.138
REMARK SMILES CC(=O)[C@@H]1CC[C@@H]2[C@H]3CC=C4C[C@H](O)CC[C@@]4(C)[C@@H]3CC[C@]21C
REMARK SMILES IDX 4 1 5 2 6 3 7 4 22 5 21 6 20 7 19 8 8 9 9 10 10 11 11 12
REMARK SMILES IDX 17 13 16 14 15 15 13 16 12 17 18 18 23 19 2 20 1 21 3 22
REMARK SMILES IDX 14 23
REMARK H PARENT 14 24
REMARK Flexibility Score: inf
ROOT
ATOM      1  C   UNL     1     160.493 176.402 186.889  1.00  0.00     0.062 C 
ATOM      2  C   UNL     1     160.877 175.033 187.504  1.00  0.00     0.012 C 
ATOM      3  C   UNL     1     161.162 174.090 186.320  1.00  0.00     0.005 C 
ATOM      4  C   UNL     1     160.736 174.890 185.094  1.00  0.00    -0.001 C 
ATOM      5  C   UNL     1     161.053 176.347 185.448  1.00  0.00    -0.020 C 
ATOM      6  C   UNL     1     160.309 177.245 184.437  1.00  0.00     0.008 C 
ATOM      7  C   UNL     1     160.740 176.922 182.987  1.00  0.00     0.005 C 
ATOM      8  C   UNL     1     160.635 175.402 182.625  1.00  0.00     0.003 C 
ATOM      9  C   UNL     1     161.271 174.474 183.707  1.00  0.00     0.000 C 
ATOM     10  C   UNL     1     160.900 173.015 183.406  1.00  0.00     0.031 C 
ATOM     11  C   UNL     1     161.131 172.639 181.970  1.00  0.00    -0.027 C 
ATOM     12  C   UNL     1     161.121 173.527 180.951  1.00  0.00    -0.065 C 
ATOM     13  C   UNL     1     161.163 175.048 181.182  1.00  0.00    -0.008 C 
ATOM     14  C   UNL     1     160.246 175.738 180.124  1.00  0.00     0.014 C 
ATOM     15  C   UNL     1     160.476 175.244 178.687  1.00  0.00     0.033 C 
ATOM     16  C   UNL     1     160.282 173.729 178.591  1.00  0.00     0.118 C 
ATOM     17  C   UNL     1     161.247 173.000 179.533  1.00  0.00     0.063 C 
ATOM     18  C   UNL     1     162.628 175.526 180.980  1.00  0.00     0.016 C 
ATOM     19  C   UNL     1     162.582 176.673 185.441  1.00  0.00     0.012 C 
ENDROOT
BRANCH   1  20
ATOM     20  C   UNL     1     160.940 177.599 187.711  1.00  0.00     0.133 C 
ATOM     21  C   UNL     1     162.125 177.501 188.625  1.00  0.00     0.088 C 
ATOM     22  O   UNL     1     160.328 178.656 187.651  1.00  0.00    -0.300 OA
ENDBRANCH   1  20
BRANCH  16  23
ATOM     23  O   UNL     1     160.509 173.322 177.267  1.00  0.00    -0.393 OA
ATOM     24  H   UNL     1     159.807 172.654 177.048  1.00  0.00     0.210 HD
ENDBRANCH  16  23
TORSDOF 2
ENDMDL
MODEL 3
REMARK VINA RESULT:    -6.162      9.535     12.577
REMARK INTER + INTRA:          -6.841
REMARK INTER:                  -6.747
REMARK INTRA:                  -0.093
REMARK UNBOUND:                -0.138
REMARK SMILES CC(=O)[C@@H]1CC[C@@H]2[C@H]3CC=C4C[C@H](O)CC[C@@]4(C)[C@@H]3CC[C@]21C
REMARK SMILES IDX 4 1 5 2 6 3 7 4 22 5 21 6 20 7 19 8 8 9 9 10 10 11 11 12
REMARK SMILES IDX 17 13 16 14 15 15 13 16 12 17 18 18 23 19 2 20 1 21 3 22
REMARK SMILES IDX 14 23
REMARK H PARENT 14 24
REMARK Flexibility Score: inf
ROOT
ATOM      1  C   UNL     1     161.493 175.853 186.428  1.00  0.00     0.062 C 
ATOM      2  C   UNL     1     160.850 174.444 186.475  1.00  0.00     0.012 C 
ATOM      3  C   UNL     1     160.547 174.057 185.015  1.00  0.00     0.005 C 
ATOM      4  C   UNL     1     160.835 175.327 184.223  1.00  0.00    -0.001 C 
ATOM      5  C   UNL     1     161.992 176.000 184.971  1.00  0.00    -0.020 C 
ATOM      6  C   UNL     1     162.086 177.457 184.471  1.00  0.00     0.008 C 
ATOM      7  C   UNL     1     162.315 177.504 182.942  1.00  0.00     0.005 C 
ATOM      8  C   UNL     1     161.280 176.659 182.127  1.00  0.00     0.003 C 
ATOM      9  C   UNL     1     161.078 175.222 182.703  1.00  0.00     0.000 C 
ATOM     10  C   UNL     1     159.875 174.563 182.013  1.00  0.00     0.031 C 
ATOM     11  C   UNL     1     159.917 174.693 180.517  1.00  0.00    -0.027 C 
ATOM     12  C   UNL     1     160.563 175.688 179.869  1.00  0.00    -0.065 C 
ATOM     13  C   UNL     1     161.561 176.621 180.575  1.00  0.00    -0.008 C 
ATOM     14  C   UNL     1     161.394 178.061 179.995  1.00  0.00     0.014 C 
ATOM     15  C   UNL     1     161.359 178.110 178.460  1.00  0.00     0.033 C 
ATOM     16  C   UNL     1     160.238 177.226 177.909  1.00  0.00     0.118 C 
ATOM     17  C   UNL     1     160.426 175.772 178.359  1.00  0.00     0.063 C 
ATOM     18  C   UNL     1     162.997 176.110 180.271  1.00  0.00     0.016 C 
ATOM     19  C   UNL     1     163.363 175.272 184.786  1.00  0.00     0.012 C 
ENDROOT
BRANCH   1  20
ATOM     20  C   UNL     1     162.543 176.091 187.500  1.00  0.00     0.133 C 
ATOM     21  C   UNL     1     162.842 177.479 187.984  1.00  0.00     0.088 C 
ATOM     22  O   UNL     1     163.172 175.155 187.971  1.00  0.00    -0.300 OA
ENDBRANCH   1  20
BRANCH  16  23
ATOM     23  O   UNL     1     160.248 177.295 176.507  1.00  0.00    -0.393 OA
ATOM     24  H   UNL     1     160.902 178.001 176.259  1.00  0.00     0.210 HD
ENDBRANCH  16  23
TORSDOF 2
ENDMDL
MODEL 4
REMARK VINA RESULT:    -6.107     10.124     12.559
REMARK INTER + INTRA:          -6.781
REMARK INTER:                  -6.593
REMARK INTRA:                  -0.188
REMARK UNBOUND:                -0.138
REMARK SMILES CC(=O)[C@@H]1CC[C@@H]2[C@H]3CC=C4C[C@H](O)CC[C@@]4(C)[C@@H]3CC[C@]21C
REMARK SMILES IDX 4 1 5 2 6 3 7 4 22 5 21 6 20 7 19 8 8 9 9 10 10 11 11 12
REMARK SMILES IDX 17 13 16 14 15 15 13 16 12 17 18 18 23 19 2 20 1 21 3 22
REMARK SMILES IDX 14 23
REMARK H PARENT 14 24
REMARK Flexibility Score: inf
ROOT
ATOM      1  C   UNL     1     161.613 174.089 179.586  1.00  0.00     0.062 C 
ATOM      2  C   UNL     1     160.760 172.845 179.939  1.00  0.00     0.012 C 
ATOM      3  C   UNL     1     160.382 172.985 181.426  1.00  0.00     0.005 C 
ATOM      4  C   UNL     1     161.196 174.181 181.907  1.00  0.00    -0.001 C 
ATOM      5  C   UNL     1     161.275 175.114 180.694  1.00  0.00    -0.020 C 
ATOM      6  C   UNL     1     162.387 176.148 180.972  1.00  0.00     0.008 C 
ATOM      7  C   UNL     1     162.093 176.945 182.264  1.00  0.00     0.005 C 
ATOM      8  C   UNL     1     161.796 176.039 183.506  1.00  0.00     0.003 C 
ATOM      9  C   UNL     1     160.767 174.906 183.201  1.00  0.00     0.000 C 
ATOM     10  C   UNL     1     160.731 173.921 184.379  1.00  0.00     0.031 C 
ATOM     11  C   UNL     1     160.607 174.608 185.709  1.00  0.00    -0.027 C 
ATOM     12  C   UNL     1     161.025 175.873 185.941  1.00  0.00    -0.065 C 
ATOM     13  C   UNL     1     161.400 176.840 184.806  1.00  0.00    -0.008 C 
ATOM     14  C   UNL     1     162.621 177.698 185.263  1.00  0.00     0.014 C 
ATOM     15  C   UNL     1     162.464 178.299 186.668  1.00  0.00     0.033 C 
ATOM     16  C   UNL     1     162.215 177.204 187.709  1.00  0.00     0.118 C 
ATOM     17  C   UNL     1     160.953 176.406 187.361  1.00  0.00     0.063 C 
ATOM     18  C   UNL     1     160.185 177.775 184.547  1.00  0.00     0.016 C 
ATOM     19  C   UNL     1     159.927 175.840 180.375  1.00  0.00     0.012 C 
ENDROOT
BRANCH   1  20
ATOM     20  C   UNL     1     161.426 174.587 178.163  1.00  0.00     0.133 C 
ATOM     21  C   UNL     1     160.339 174.030 177.294  1.00  0.00     0.088 C 
ATOM     22  O   UNL     1     162.171 175.440 177.702  1.00  0.00    -0.300 OA
ENDBRANCH   1  20
BRANCH  16  23
ATOM     23  O   UNL     1     162.070 177.798 188.972  1.00  0.00    -0.393 OA
ATOM     24  H   UNL     1     161.472 177.208 189.501  1.00  0.00     0.210 HD
ENDBRANCH  16  23
TORSDOF 2
ENDMDL
MODEL 5
REMARK VINA RESULT:    -6.038     11.238     13.203
REMARK INTER + INTRA:          -6.706
REMARK INTER:                  -6.516
REMARK INTRA:                  -0.190
REMARK UNBOUND:                -0.138
REMARK SMILES CC(=O)[C@@H]1CC[C@@H]2[C@H]3CC=C4C[C@H](O)CC[C@@]4(C)[C@@H]3CC[C@]21C
REMARK SMILES IDX 4 1 5 2 6 3 7 4 22 5 21 6 20 7 19 8 8 9 9 10 10 11 11 12
REMARK SMILES IDX 17 13 16 14 15 15 13 16 12 17 18 18 23 19 2 20 1 21 3 22
REMARK SMILES IDX 14 23
REMARK H PARENT 14 24
REMARK Flexibility Score: inf
ROOT
ATOM      1  C   UNL     1     160.930 177.075 178.603  1.00  0.00     0.062 C 
ATOM      2  C   UNL     1     161.361 178.482 179.086  1.00  0.00     0.012 C 
ATOM      3  C   UNL     1     161.526 178.386 180.614  1.00  0.00     0.005 C 
ATOM      4  C   UNL     1     160.990 177.002 180.962  1.00  0.00    -0.001 C 
ATOM      5  C   UNL     1     161.349 176.129 179.754  1.00  0.00    -0.020 C 
ATOM      6  C   UNL     1     160.517 174.832 179.853  1.00  0.00     0.008 C 
ATOM      7  C   UNL     1     160.805 174.088 181.178  1.00  0.00     0.005 C 
ATOM      8  C   UNL     1     160.657 174.991 182.448  1.00  0.00     0.003 C 
ATOM      9  C   UNL     1     161.387 176.363 182.309  1.00  0.00     0.000 C 
ATOM     10  C   UNL     1     160.979 177.276 183.475  1.00  0.00     0.031 C 
ATOM     11  C   UNL     1     161.070 176.592 184.810  1.00  0.00    -0.027 C 
ATOM     12  C   UNL     1     160.968 175.255 184.976  1.00  0.00    -0.065 C 
ATOM     13  C   UNL     1     161.042 174.269 183.797  1.00  0.00    -0.008 C 
ATOM     14  C   UNL     1     160.033 173.106 184.055  1.00  0.00     0.014 C 
ATOM     15  C   UNL     1     160.121 172.511 185.469  1.00  0.00     0.033 C 
ATOM     16  C   UNL     1     159.909 173.591 186.533  1.00  0.00     0.118 C 
ATOM     17  C   UNL     1     160.955 174.703 186.390  1.00  0.00     0.063 C 
ATOM     18  C   UNL     1     162.484 173.692 183.740  1.00  0.00     0.016 C 
ATOM     19  C   UNL     1     162.872 175.791 179.658  1.00  0.00     0.012 C 
ENDROOT
BRANCH   1  20
ATOM     20  C   UNL     1     161.460 176.699 177.231  1.00  0.00     0.133 C 
ATOM     21  C   UNL     1     162.508 177.536 176.559  1.00  0.00     0.088 C 
ATOM     22  O   UNL     1     161.028 175.715 176.647  1.00  0.00    -0.300 OA
ENDBRANCH   1  20
BRANCH  16  23
ATOM     23  O   UNL     1     160.006 173.006 187.804  1.00  0.00    -0.393 OA
ATOM     24  H   UNL     1     159.781 172.044 187.696  1.00  0.00     0.210 HD
ENDBRANCH  16  23
TORSDOF 2
ENDMDL
MODEL 6
REMARK VINA RESULT:    -6.034      7.648     10.241
REMARK INTER + INTRA:          -6.702
REMARK INTER:                  -6.534
REMARK INTRA:                  -0.168
REMARK UNBOUND:                -0.138
REMARK SMILES CC(=O)[C@@H]1CC[C@@H]2[C@H]3CC=C4C[C@H](O)CC[C@@]4(C)[C@@H]3CC[C@]21C
REMARK SMILES IDX 4 1 5 2 6 3 7 4 22 5 21 6 20 7 19 8 8 9 9 10 10 11 11 12
REMARK SMILES IDX 17 13 16 14 15 15 13 16 12 17 18 18 23 19 2 20 1 21 3 22
REMARK SMILES IDX 14 23
REMARK H PARENT 14 24
REMARK Flexibility Score: inf
ROOT
ATOM      1  C   UNL     1     162.430 170.216 187.973  1.00  0.00     0.062 C 
ATOM      2  C   UNL     1     160.887 170.353 187.971  1.00  0.00     0.012 C 
ATOM      3  C   UNL     1     160.582 171.824 187.635  1.00  0.00     0.005 C 
ATOM      4  C   UNL     1     161.946 172.505 187.662  1.00  0.00    -0.001 C 
ATOM      5  C   UNL     1     162.925 171.437 187.163  1.00  0.00    -0.020 C 
ATOM      6  C   UNL     1     164.351 171.908 187.522  1.00  0.00     0.008 C 
ATOM      7  C   UNL     1     164.658 173.283 186.882  1.00  0.00     0.005 C 
ATOM      8  C   UNL     1     163.575 174.372 187.187  1.00  0.00     0.003 C 
ATOM      9  C   UNL     1     162.118 173.864 186.951  1.00  0.00     0.000 C 
ATOM     10  C   UNL     1     161.125 174.892 187.514  1.00  0.00     0.031 C 
ATOM     11  C   UNL     1     161.431 176.297 187.079  1.00  0.00    -0.027 C 
ATOM     12  C   UNL     1     162.666 176.721 186.730  1.00  0.00    -0.065 C 
ATOM     13  C   UNL     1     163.828 175.749 186.460  1.00  0.00    -0.008 C 
ATOM     14  C   UNL     1     165.144 176.379 187.014  1.00  0.00     0.014 C 
ATOM     15  C   UNL     1     165.351 177.844 186.601  1.00  0.00     0.033 C 
ATOM     16  C   UNL     1     164.169 178.711 187.043  1.00  0.00     0.118 C 
ATOM     17  C   UNL     1     162.862 178.196 186.427  1.00  0.00     0.063 C 
ATOM     18  C   UNL     1     163.955 175.564 184.922  1.00  0.00     0.016 C 
ATOM     19  C   UNL     1     162.816 171.158 185.628  1.00  0.00     0.012 C 
ENDROOT
BRANCH   1  20
ATOM     20  C   UNL     1     162.935 168.868 187.487  1.00  0.00     0.133 C 
ATOM     21  C   UNL     1     162.036 167.945 186.720  1.00  0.00     0.088 C 
ATOM     22  O   UNL     1     164.079 168.511 187.729  1.00  0.00    -0.300 OA
ENDBRANCH   1  20
BRANCH  16  23
ATOM     23  O   UNL     1     164.397 180.035 186.640  1.00  0.00    -0.393 OA
ATOM     24  H   UNL     1     165.370 180.204 186.743  1.00  0.00     0.210 HD
ENDBRANCH  16  23
TORSDOF 2
ENDMDL
MODEL 7
REMARK VINA RESULT:    -5.926     11.677     14.903
REMARK INTER + INTRA:          -6.584
REMARK INTER:                  -6.394
REMARK INTRA:                  -0.190
REMARK UNBOUND:                -0.138
REMARK SMILES CC(=O)[C@@H]1CC[C@@H]2[C@H]3CC=C4C[C@H](O)CC[C@@]4(C)[C@@H]3CC[C@]21C
REMARK SMILES IDX 4 1 5 2 6 3 7 4 22 5 21 6 20 7 19 8 8 9 9 10 10 11 11 12
REMARK SMILES IDX 17 13 16 14 15 15 13 16 12 17 18 18 23 19 2 20 1 21 3 22
REMARK SMILES IDX 14 23
REMARK H PARENT 14 24
REMARK Flexibility Score: inf
ROOT
ATOM      1  C   UNL     1     159.946 174.489 174.728  1.00  0.00     0.062 C 
ATOM      2  C   UNL     1     160.248 175.826 174.006  1.00  0.00     0.012 C 
ATOM      3  C   UNL     1     160.722 176.809 175.093  1.00  0.00     0.005 C 
ATOM      4  C   UNL     1     160.478 176.066 176.401  1.00  0.00    -0.001 C 
ATOM      5  C   UNL     1     160.719 174.591 176.064  1.00  0.00    -0.020 C 
ATOM      6  C   UNL     1     160.126 173.747 177.213  1.00  0.00     0.008 C 
ATOM      7  C   UNL     1     160.776 174.118 178.566  1.00  0.00     0.005 C 
ATOM      8  C   UNL     1     160.747 175.652 178.876  1.00  0.00     0.003 C 
ATOM      9  C   UNL     1     161.223 176.525 177.673  1.00  0.00     0.000 C 
ATOM     10  C   UNL     1     160.920 178.002 177.966  1.00  0.00     0.031 C 
ATOM     11  C   UNL     1     161.372 178.430 179.334  1.00  0.00    -0.027 C 
ATOM     12  C   UNL     1     161.506 177.582 180.378  1.00  0.00    -0.065 C 
ATOM     13  C   UNL     1     161.493 176.053 180.207  1.00  0.00    -0.008 C 
ATOM     14  C   UNL     1     160.739 175.421 181.419  1.00  0.00     0.014 C 
ATOM     15  C   UNL     1     161.192 175.967 182.782  1.00  0.00     0.033 C 
ATOM     16  C   UNL     1     161.033 177.488 182.844  1.00  0.00     0.118 C 
ATOM     17  C   UNL     1     161.853 178.162 181.737  1.00  0.00     0.063 C 
ATOM     18  C   UNL     1     162.966 175.556 180.203  1.00  0.00     0.016 C 
ATOM     19  C   UNL     1     162.227 174.237 175.853  1.00  0.00     0.012 C 
ENDROOT
BRANCH   1  20
ATOM     20  C   UNL     1     160.247 173.254 173.898  1.00  0.00     0.133 C 
ATOM     21  C   UNL     1     160.982 173.366 172.595  1.00  0.00     0.088 C 
ATOM     22  O   UNL     1     159.879 172.150 174.273  1.00  0.00    -0.300 OA
ENDBRANCH   1  20
BRANCH  16  23
ATOM     23  O   UNL     1     161.464 177.943 184.100  1.00  0.00    -0.393 OA
ATOM     24  H   UNL     1     161.061 178.840 184.235  1.00  0.00     0.210 HD
ENDBRANCH  16  23
TORSDOF 2
ENDMDL
MODEL 8
REMARK VINA RESULT:    -5.876      5.384      8.286
REMARK INTER + INTRA:          -6.530
REMARK INTER:                  -6.343
REMARK INTRA:                  -0.187
REMARK UNBOUND:                -0.138
REMARK SMILES CC(=O)[C@@H]1CC[C@@H]2[C@H]3CC=C4C[C@H](O)CC[C@@]4(C)[C@@H]3CC[C@]21C
REMARK SMILES IDX 4 1 5 2 6 3 7 4 22 5 21 6 20 7 19 8 8 9 9 10 10 11 11 12
REMARK SMILES IDX 17 13 16 14 15 15 13 16 12 17 18 18 23 19 2 20 1 21 3 22
REMARK SMILES IDX 14 23
REMARK H PARENT 14 24
REMARK Flexibility Score: inf
ROOT
ATOM      1  C   UNL     1     174.142 179.791 178.651  1.00  0.00     0.062 C 
ATOM      2  C   UNL     1     175.614 179.896 179.123  1.00  0.00     0.012 C 
ATOM      3  C   UNL     1     175.589 179.756 180.657  1.00  0.00     0.005 C 
ATOM      4  C   UNL     1     174.107 179.783 181.011  1.00  0.00    -0.001 C 
ATOM      5  C   UNL     1     173.409 179.104 179.828  1.00  0.00    -0.020 C 
ATOM      6  C   UNL     1     171.904 179.431 179.923  1.00  0.00     0.008 C 
ATOM      7  C   UNL     1     171.314 178.942 181.267  1.00  0.00     0.005 C 
ATOM      8  C   UNL     1     172.113 179.437 182.519  1.00  0.00     0.003 C 
ATOM      9  C   UNL     1     173.654 179.230 182.379  1.00  0.00     0.000 C 
ATOM     10  C   UNL     1     174.371 179.968 183.519  1.00  0.00     0.031 C 
ATOM     11  C   UNL     1     173.769 179.686 184.866  1.00  0.00    -0.027 C 
ATOM     12  C   UNL     1     172.482 179.318 185.050  1.00  0.00    -0.065 C 
ATOM     13  C   UNL     1     171.579 178.866 183.889  1.00  0.00    -0.008 C 
ATOM     14  C   UNL     1     170.137 179.412 184.136  1.00  0.00     0.014 C 
ATOM     15  C   UNL     1     169.618 179.165 185.561  1.00  0.00     0.033 C 
ATOM     16  C   UNL     1     170.560 179.776 186.602  1.00  0.00     0.118 C 
ATOM     17  C   UNL     1     171.967 179.181 186.471  1.00  0.00     0.063 C 
ATOM     18  C   UNL     1     171.544 177.313 183.881  1.00  0.00     0.016 C 
ATOM     19  C   UNL     1     173.627 177.556 179.779  1.00  0.00     0.012 C 
ENDROOT
BRANCH   1  20
ATOM     20  C   UNL     1     173.970 179.119 177.300  1.00  0.00     0.133 C 
ATOM     21  C   UNL     1     175.136 178.475 176.610  1.00  0.00     0.088 C 
ATOM     22  O   UNL     1     172.880 179.108 176.747  1.00  0.00    -0.300 OA
ENDBRANCH   1  20
BRANCH  16  23
ATOM     23  O   UNL     1     170.051 179.520 187.885  1.00  0.00    -0.393 OA
ATOM     24  H   UNL     1     169.291 180.144 188.022  1.00  0.00     0.210 HD
ENDBRANCH  16  23
TORSDOF 2
ENDMDL
MODEL 9
REMARK VINA RESULT:    -5.859      4.900      6.911
REMARK INTER + INTRA:          -6.511
REMARK INTER:                  -6.486
REMARK INTRA:                  -0.025
REMARK UNBOUND:                -0.138
REMARK SMILES CC(=O)[C@@H]1CC[C@@H]2[C@H]3CC=C4C[C@H](O)CC[C@@]4(C)[C@@H]3CC[C@]21C
REMARK SMILES IDX 4 1 5 2 6 3 7 4 22 5 21 6 20 7 19 8 8 9 9 10 10 11 11 12
REMARK SMILES IDX 17 13 16 14 15 15 13 16 12 17 18 18 23 19 2 20 1 21 3 22
REMARK SMILES IDX 14 23
REMARK H PARENT 14 24
REMARK Flexibility Score: inf
ROOT
ATOM      1  C   UNL     1     173.207 179.359 186.579  1.00  0.00     0.062 C 
ATOM      2  C   UNL     1     171.663 179.397 186.696  1.00  0.00     0.012 C 
ATOM      3  C   UNL     1     171.118 179.364 185.256  1.00  0.00     0.005 C 
ATOM      4  C   UNL     1     172.358 179.515 184.383  1.00  0.00    -0.001 C 
ATOM      5  C   UNL     1     173.472 178.804 185.160  1.00  0.00    -0.020 C 
ATOM      6  C   UNL     1     174.820 179.237 184.544  1.00  0.00     0.008 C 
ATOM      7  C   UNL     1     174.882 178.881 183.040  1.00  0.00     0.005 C 
ATOM      8  C   UNL     1     173.655 179.406 182.221  1.00  0.00     0.003 C 
ATOM      9  C   UNL     1     172.287 179.087 182.901  1.00  0.00     0.000 C 
ATOM     10  C   UNL     1     171.169 179.852 182.177  1.00  0.00     0.031 C 
ATOM     11  C   UNL     1     171.234 179.703 180.684  1.00  0.00    -0.027 C 
ATOM     12  C   UNL     1     172.372 179.435 180.005  1.00  0.00    -0.065 C 
ATOM     13  C   UNL     1     173.659 178.967 180.706  1.00  0.00    -0.008 C 
ATOM     14  C   UNL     1     174.882 179.623 179.992  1.00  0.00     0.014 C 
ATOM     15  C   UNL     1     174.840 179.509 178.460  1.00  0.00     0.033 C 
ATOM     16  C   UNL     1     173.556 180.125 177.899  1.00  0.00     0.118 C 
ATOM     17  C   UNL     1     172.322 179.430 178.488  1.00  0.00     0.063 C 
ATOM     18  C   UNL     1     173.751 177.422 180.563  1.00  0.00     0.016 C 
ATOM     19  C   UNL     1     173.345 177.245 185.148  1.00  0.00     0.012 C 
ENDROOT
BRANCH   1  20
ATOM     20  C   UNL     1     173.897 178.609 187.706  1.00  0.00     0.133 C 
ATOM     21  C   UNL     1     175.239 179.049 188.210  1.00  0.00     0.088 C 
ATOM     22  O   UNL     1     173.372 177.626 188.208  1.00  0.00    -0.300 OA
ENDBRANCH   1  20
BRANCH  16  23
ATOM     23  O   UNL     1     173.557 179.992 176.502  1.00  0.00    -0.393 OA
ATOM     24  H   UNL     1     174.186 180.675 176.149  1.00  0.00     0.210 HD
ENDBRANCH  16  23
TORSDOF 2
ENDMDL
