MODEL 1
REMARK VINA RESULT:    -4.546      0.000      0.000
REMARK INTER + INTRA:          -5.640
REMARK INTER:                  -5.477
REMARK INTRA:                  -0.163
REMARK UNBOUND:                -0.163
REMARK SMILES [NH3+][C@@H](Cc1cnc[nH]1)C(=O)[O-]
REMARK SMILES IDX 3 1 2 2 1 3 9 7 10 8 11 9 4 10 5 11 8 12 6 13 7 14
REMARK H PARENT 1 4 1 5 1 6 8 15
REMARK Flexibility Score: inf
ROOT
ATOM      1  C   UNL     1     -22.768 -14.849  -7.739  1.00  0.00     0.127 C 
ENDROOT
BRANCH   1   2
ATOM      2  C   UNL     1     -21.857 -15.518  -6.689  1.00  0.00     0.233 C 
BRANCH   2   3
ATOM      3  N   UNL     1     -20.537 -15.804  -7.264  1.00  0.00    -0.350 N 
ATOM      4  H   UNL     1     -20.309 -15.125  -8.026  1.00  0.00     0.345 HD
ATOM      5  H   UNL     1     -20.522 -16.776  -7.653  1.00  0.00     0.345 HD
ATOM      6  H   UNL     1     -19.805 -15.741  -6.519  1.00  0.00     0.345 HD
ENDBRANCH   2   3
BRANCH   2   7
ATOM      7  C   UNL     1     -22.480 -16.783  -6.158  1.00  0.00     0.099 C 
ATOM      8  O   UNL     1     -21.915 -17.441  -5.244  1.00  0.00    -0.544 OA
ATOM      9  O   UNL     1     -23.677 -17.243  -6.693  1.00  0.00    -0.544 OA
ENDBRANCH   2   7
ENDBRANCH   1   2
BRANCH   1  10
ATOM     10  C   UNL     1     -22.438 -15.309  -9.129  1.00  0.00     0.041 A 
ATOM     11  C   UNL     1     -21.817 -14.568 -10.109  1.00  0.00     0.134 A 
ATOM     12  N   UNL     1     -22.787 -16.498  -9.643  1.00  0.00    -0.348 N 
ATOM     13  N   UNL     1     -21.760 -15.298 -11.241  1.00  0.00    -0.245 NA
ATOM     14  C   UNL     1     -22.358 -16.466 -10.918  1.00  0.00     0.196 A 
ATOM     15  H   UNL     1     -23.291 -17.277  -9.165  1.00  0.00     0.167 HD
ENDBRANCH   1  10
TORSDOF 4
ENDMDL
MODEL 2
REMARK VINA RESULT:    -4.456      1.745      2.433
REMARK INTER + INTRA:          -5.531
REMARK INTER:                  -5.384
REMARK INTRA:                  -0.147
REMARK UNBOUND:                -0.163
REMARK SMILES [NH3+][C@@H](Cc1cnc[nH]1)C(=O)[O-]
REMARK SMILES IDX 3 1 2 2 1 3 9 7 10 8 11 9 4 10 5 11 8 12 6 13 7 14
REMARK H PARENT 1 4 1 5 1 6 8 15
REMARK Flexibility Score: inf
ROOT
ATOM      1  C   UNL     1     -21.598 -14.995  -9.442  1.00  0.00     0.127 C 
ENDROOT
BRANCH   1   2
ATOM      2  C   UNL     1     -22.103 -15.822  -8.242  1.00  0.00     0.233 C 
BRANCH   2   3
ATOM      3  N   UNL     1     -23.329 -15.231  -7.690  1.00  0.00    -0.350 N 
ATOM      4  H   UNL     1     -23.680 -14.463  -8.308  1.00  0.00     0.345 HD
ATOM      5  H   UNL     1     -23.139 -14.846  -6.736  1.00  0.00     0.345 HD
ATOM      6  H   UNL     1     -24.068 -15.966  -7.604  1.00  0.00     0.345 HD
ENDBRANCH   2   3
BRANCH   2   7
ATOM      7  C   UNL     1     -21.046 -15.924  -7.172  1.00  0.00     0.099 C 
ATOM      8  O   UNL     1     -19.985 -15.249  -7.253  1.00  0.00    -0.544 OA
ATOM      9  O   UNL     1     -21.230 -16.785  -6.097  1.00  0.00    -0.544 OA
ENDBRANCH   2   7
ENDBRANCH   1   2
BRANCH   1  10
ATOM     10  C   UNL     1     -21.937 -15.654 -10.747  1.00  0.00     0.041 A 
ATOM     11  C   UNL     1     -22.587 -16.857 -10.912  1.00  0.00     0.134 A 
ATOM     12  N   UNL     1     -21.572 -15.193 -11.953  1.00  0.00    -0.348 N 
ATOM     13  N   UNL     1     -22.644 -17.148 -12.227  1.00  0.00    -0.245 NA
ATOM     14  C   UNL     1     -22.018 -16.113 -12.828  1.00  0.00     0.196 A 
ATOM     15  H   UNL     1     -21.045 -14.318 -12.169  1.00  0.00     0.167 HD
ENDBRANCH   1  10
TORSDOF 4
ENDMDL
MODEL 3
REMARK VINA RESULT:    -4.432      4.931      6.814
REMARK INTER + INTRA:          -5.502
REMARK INTER:                  -5.348
REMARK INTRA:                  -0.153
REMARK UNBOUND:                -0.163
REMARK SMILES [NH3+][C@@H](Cc1cnc[nH]1)C(=O)[O-]
REMARK SMILES IDX 3 1 2 2 1 3 9 7 10 8 11 9 4 10 5 11 8 12 6 13 7 14
REMARK H PARENT 1 4 1 5 1 6 8 15
REMARK Flexibility Score: inf
ROOT
ATOM      1  C   UNL     1     -23.055 -14.502 -13.402  1.00  0.00     0.127 C 
ENDROOT
BRANCH   1   2
ATOM      2  C   UNL     1     -22.834 -15.354 -14.669  1.00  0.00     0.233 C 
BRANCH   2   3
ATOM      3  N   UNL     1     -21.575 -14.981 -15.324  1.00  0.00    -0.350 N 
ATOM      4  H   UNL     1     -20.756 -15.358 -14.794  1.00  0.00     0.345 HD
ATOM      5  H   UNL     1     -21.498 -13.939 -15.381  1.00  0.00     0.345 HD
ATOM      6  H   UNL     1     -21.555 -15.363 -16.298  1.00  0.00     0.345 HD
ENDBRANCH   2   3
BRANCH   2   7
ATOM      7  C   UNL     1     -23.986 -15.205 -15.629  1.00  0.00     0.099 C 
ATOM      8  O   UNL     1     -25.133 -15.627 -15.323  1.00  0.00    -0.544 OA
ATOM      9  O   UNL     1     -23.781 -14.619 -16.872  1.00  0.00    -0.544 OA
ENDBRANCH   2   7
ENDBRANCH   1   2
BRANCH   1  10
ATOM     10  C   UNL     1     -22.705 -15.263 -12.157  1.00  0.00     0.041 A 
ATOM     11  C   UNL     1     -22.509 -16.622 -12.058  1.00  0.00     0.134 A 
ATOM     12  N   UNL     1     -22.616 -14.724 -10.932  1.00  0.00    -0.348 N 
ATOM     13  N   UNL     1     -22.281 -16.940 -10.767  1.00  0.00    -0.245 NA
ATOM     14  C   UNL     1     -22.353 -15.760 -10.113  1.00  0.00     0.196 A 
ATOM     15  H   UNL     1     -22.737 -13.722 -10.665  1.00  0.00     0.167 HD
ENDBRANCH   1  10
TORSDOF 4
ENDMDL
MODEL 4
REMARK VINA RESULT:    -4.424      2.652      4.241
REMARK INTER + INTRA:          -5.492
REMARK INTER:                  -5.353
REMARK INTRA:                  -0.139
REMARK UNBOUND:                -0.163
REMARK SMILES [NH3+][C@@H](Cc1cnc[nH]1)C(=O)[O-]
REMARK SMILES IDX 3 1 2 2 1 3 9 7 10 8 11 9 4 10 5 11 8 12 6 13 7 14
REMARK H PARENT 1 4 1 5 1 6 8 15
REMARK Flexibility Score: inf
ROOT
ATOM      1  C   UNL     1     -22.820 -15.228  -8.275  1.00  0.00     0.127 C 
ENDROOT
BRANCH   1   2
ATOM      2  C   UNL     1     -21.705 -15.474  -9.312  1.00  0.00     0.233 C 
BRANCH   2   3
ATOM      3  N   UNL     1     -20.899 -14.261  -9.497  1.00  0.00    -0.350 N 
ATOM      4  H   UNL     1     -21.512 -13.416  -9.564  1.00  0.00     0.345 HD
ATOM      5  H   UNL     1     -20.330 -14.343 -10.372  1.00  0.00     0.345 HD
ATOM      6  H   UNL     1     -20.243 -14.145  -8.691  1.00  0.00     0.345 HD
ENDBRANCH   2   3
BRANCH   2   7
ATOM      7  C   UNL     1     -22.281 -15.925 -10.630  1.00  0.00     0.099 C 
ATOM      8  O   UNL     1     -22.356 -17.151 -10.910  1.00  0.00    -0.544 OA
ATOM      9  O   UNL     1     -22.713 -14.983 -11.555  1.00  0.00    -0.544 OA
ENDBRANCH   2   7
ENDBRANCH   1   2
BRANCH   1  10
ATOM     10  C   UNL     1     -22.677 -16.132  -7.086  1.00  0.00     0.041 A 
ATOM     11  C   UNL     1     -21.555 -16.281  -6.302  1.00  0.00     0.134 A 
ATOM     12  N   UNL     1     -23.612 -16.998  -6.668  1.00  0.00    -0.348 N 
ATOM     13  N   UNL     1     -21.789 -17.233  -5.377  1.00  0.00    -0.245 NA
ATOM     14  C   UNL     1     -23.050 -17.645  -5.630  1.00  0.00     0.196 A 
ATOM     15  H   UNL     1     -24.565 -17.150  -7.066  1.00  0.00     0.167 HD
ENDBRANCH   1  10
TORSDOF 4
ENDMDL
MODEL 5
REMARK VINA RESULT:    -4.341      4.159      5.672
REMARK INTER + INTRA:          -5.392
REMARK INTER:                  -5.215
REMARK INTRA:                  -0.177
REMARK UNBOUND:                -0.163
REMARK SMILES [NH3+][C@@H](Cc1cnc[nH]1)C(=O)[O-]
REMARK SMILES IDX 3 1 2 2 1 3 9 7 10 8 11 9 4 10 5 11 8 12 6 13 7 14
REMARK H PARENT 1 4 1 5 1 6 8 15
REMARK Flexibility Score: inf
ROOT
ATOM      1  C   UNL     1     -21.547 -15.453 -13.884  1.00  0.00     0.127 C 
ENDROOT
BRANCH   1   2
ATOM      2  C   UNL     1     -21.798 -14.981 -12.438  1.00  0.00     0.233 C 
BRANCH   2   3
ATOM      3  N   UNL     1     -20.652 -14.207 -11.945  1.00  0.00    -0.350 N 
ATOM      4  H   UNL     1     -19.796 -14.805 -11.892  1.00  0.00     0.345 HD
ATOM      5  H   UNL     1     -20.865 -13.825 -10.994  1.00  0.00     0.345 HD
ATOM      6  H   UNL     1     -20.466 -13.401 -12.585  1.00  0.00     0.345 HD
ENDBRANCH   2   3
BRANCH   2   7
ATOM      7  C   UNL     1     -22.070 -16.149 -11.526  1.00  0.00     0.099 C 
ATOM      8  O   UNL     1     -22.352 -17.281 -12.001  1.00  0.00    -0.544 OA
ATOM      9  O   UNL     1     -22.031 -15.975 -10.148  1.00  0.00    -0.544 OA
ENDBRANCH   2   7
ENDBRANCH   1   2
BRANCH   1  10
ATOM     10  C   UNL     1     -22.648 -15.016 -14.806  1.00  0.00     0.041 A 
ATOM     11  C   UNL     1     -23.913 -14.617 -14.438  1.00  0.00     0.134 A 
ATOM     12  N   UNL     1     -22.575 -15.034 -16.146  1.00  0.00    -0.348 N 
ATOM     13  N   UNL     1     -24.636 -14.369 -15.549  1.00  0.00    -0.245 NA
ATOM     14  C   UNL     1     -23.788 -14.633 -16.567  1.00  0.00     0.196 A 
ATOM     15  H   UNL     1     -21.760 -15.311 -16.736  1.00  0.00     0.167 HD
ENDBRANCH   1  10
TORSDOF 4
ENDMDL
MODEL 6
REMARK VINA RESULT:    -4.305      2.016      2.268
REMARK INTER + INTRA:          -5.348
REMARK INTER:                  -5.127
REMARK INTRA:                  -0.222
REMARK UNBOUND:                -0.163
REMARK SMILES [NH3+][C@@H](Cc1cnc[nH]1)C(=O)[O-]
REMARK SMILES IDX 3 1 2 2 1 3 9 7 10 8 11 9 4 10 5 11 8 12 6 13 7 14
REMARK H PARENT 1 4 1 5 1 6 8 15
REMARK Flexibility Score: inf
ROOT
ATOM      1  C   UNL     1     -23.123 -15.740  -7.653  1.00  0.00     0.127 C 
ENDROOT
BRANCH   1   2
ATOM      2  C   UNL     1     -21.923 -16.273  -6.845  1.00  0.00     0.233 C 
BRANCH   2   3
ATOM      3  N   UNL     1     -22.369 -16.802  -5.550  1.00  0.00    -0.350 N 
ATOM      4  H   UNL     1     -22.345 -17.848  -5.549  1.00  0.00     0.345 HD
ATOM      5  H   UNL     1     -23.346 -16.480  -5.354  1.00  0.00     0.345 HD
ATOM      6  H   UNL     1     -21.749 -16.445  -4.788  1.00  0.00     0.345 HD
ENDBRANCH   2   3
BRANCH   2   7
ATOM      7  C   UNL     1     -20.887 -15.198  -6.640  1.00  0.00     0.099 C 
ATOM      8  O   UNL     1     -19.708 -15.357  -7.055  1.00  0.00    -0.544 OA
ATOM      9  O   UNL     1     -21.225 -14.029  -5.970  1.00  0.00    -0.544 OA
ENDBRANCH   2   7
ENDBRANCH   1   2
BRANCH   1  10
ATOM     10  C   UNL     1     -22.760 -15.505  -9.090  1.00  0.00     0.041 A 
ATOM     11  C   UNL     1     -22.414 -16.465 -10.014  1.00  0.00     0.134 A 
ATOM     12  N   UNL     1     -22.639 -14.296  -9.659  1.00  0.00    -0.348 N 
ATOM     13  N   UNL     1     -22.087 -15.860 -11.174  1.00  0.00    -0.245 NA
ATOM     14  C   UNL     1     -22.237 -14.542 -10.920  1.00  0.00     0.196 A 
ATOM     15  H   UNL     1     -22.806 -13.364  -9.220  1.00  0.00     0.167 HD
ENDBRANCH   1  10
TORSDOF 4
ENDMDL
MODEL 7
REMARK VINA RESULT:    -4.247      3.026      4.751
REMARK INTER + INTRA:          -5.279
REMARK INTER:                  -5.125
REMARK INTRA:                  -0.154
REMARK UNBOUND:                -0.163
REMARK SMILES [NH3+][C@@H](Cc1cnc[nH]1)C(=O)[O-]
REMARK SMILES IDX 3 1 2 2 1 3 9 7 10 8 11 9 4 10 5 11 8 12 6 13 7 14
REMARK H PARENT 1 4 1 5 1 6 8 15
REMARK Flexibility Score: inf
ROOT
ATOM      1  C   UNL     1     -22.396 -16.204  -9.679  1.00  0.00     0.127 C 
ENDROOT
BRANCH   1   2
ATOM      2  C   UNL     1     -21.929 -15.237 -10.786  1.00  0.00     0.233 C 
BRANCH   2   3
ATOM      3  N   UNL     1     -22.769 -14.033 -10.804  1.00  0.00    -0.350 N 
ATOM      4  H   UNL     1     -22.939 -13.714 -11.786  1.00  0.00     0.345 HD
ATOM      5  H   UNL     1     -22.299 -13.265 -10.269  1.00  0.00     0.345 HD
ATOM      6  H   UNL     1     -23.687 -14.234 -10.346  1.00  0.00     0.345 HD
ENDBRANCH   2   3
BRANCH   2   7
ATOM      7  C   UNL     1     -21.950 -15.907 -12.135  1.00  0.00     0.099 C 
ATOM      8  O   UNL     1     -22.287 -17.116 -12.245  1.00  0.00    -0.544 OA
ATOM      9  O   UNL     1     -21.574 -15.196 -13.268  1.00  0.00    -0.544 OA
ENDBRANCH   2   7
ENDBRANCH   1   2
BRANCH   1  10
ATOM     10  C   UNL     1     -21.826 -15.830  -8.343  1.00  0.00     0.041 A 
ATOM     11  C   UNL     1     -22.532 -15.634  -7.177  1.00  0.00     0.134 A 
ATOM     12  N   UNL     1     -20.534 -15.546  -8.116  1.00  0.00    -0.348 N 
ATOM     13  N   UNL     1     -21.681 -15.240  -6.209  1.00  0.00    -0.245 NA
ATOM     14  C   UNL     1     -20.476 -15.199  -6.817  1.00  0.00     0.196 A 
ATOM     15  H   UNL     1     -19.745 -15.575  -8.799  1.00  0.00     0.167 HD
ENDBRANCH   1  10
TORSDOF 4
ENDMDL
MODEL 8
REMARK VINA RESULT:    -4.243      4.967      6.943
REMARK INTER + INTRA:          -5.274
REMARK INTER:                  -4.961
REMARK INTRA:                  -0.313
REMARK UNBOUND:                -0.163
REMARK SMILES [NH3+][C@@H](Cc1cnc[nH]1)C(=O)[O-]
REMARK SMILES IDX 3 1 2 2 1 3 9 7 10 8 11 9 4 10 5 11 8 12 6 13 7 14
REMARK H PARENT 1 4 1 5 1 6 8 15
REMARK Flexibility Score: inf
ROOT
ATOM      1  C   UNL     1     -22.842 -16.780 -13.725  1.00  0.00     0.127 C 
ENDROOT
BRANCH   1   2
ATOM      2  C   UNL     1     -23.897 -15.850 -14.358  1.00  0.00     0.233 C 
BRANCH   2   3
ATOM      3  N   UNL     1     -25.075 -16.621 -14.777  1.00  0.00    -0.350 N 
ATOM      4  H   UNL     1     -25.098 -17.551 -14.298  1.00  0.00     0.345 HD
ATOM      5  H   UNL     1     -25.053 -16.768 -15.813  1.00  0.00     0.345 HD
ATOM      6  H   UNL     1     -25.946 -16.094 -14.540  1.00  0.00     0.345 HD
ENDBRANCH   2   3
BRANCH   2   7
ATOM      7  C   UNL     1     -23.323 -15.097 -15.530  1.00  0.00     0.099 C 
ATOM      8  O   UNL     1     -23.963 -15.012 -16.612  1.00  0.00    -0.544 OA
ATOM      9  O   UNL     1     -22.069 -14.509 -15.428  1.00  0.00    -0.544 OA
ENDBRANCH   2   7
ENDBRANCH   1   2
BRANCH   1  10
ATOM     10  C   UNL     1     -22.365 -16.253 -12.403  1.00  0.00     0.041 A 
ATOM     11  C   UNL     1     -22.504 -16.868 -11.179  1.00  0.00     0.134 A 
ATOM     12  N   UNL     1     -21.803 -15.049 -12.218  1.00  0.00    -0.348 N 
ATOM     13  N   UNL     1     -22.015 -16.056 -10.221  1.00  0.00    -0.245 NA
ATOM     14  C   UNL     1     -21.596 -14.960 -10.891  1.00  0.00     0.196 A 
ATOM     15  H   UNL     1     -21.583 -14.329 -12.942  1.00  0.00     0.167 HD
ENDBRANCH   1  10
TORSDOF 4
ENDMDL
MODEL 9
REMARK VINA RESULT:    -4.177      4.451      5.928
REMARK INTER + INTRA:          -5.195
REMARK INTER:                  -4.956
REMARK INTRA:                  -0.239
REMARK UNBOUND:                -0.163
REMARK SMILES [NH3+][C@@H](Cc1cnc[nH]1)C(=O)[O-]
REMARK SMILES IDX 3 1 2 2 1 3 9 7 10 8 11 9 4 10 5 11 8 12 6 13 7 14
REMARK H PARENT 1 4 1 5 1 6 8 15
REMARK Flexibility Score: inf
ROOT
ATOM      1  C   UNL     1     -23.568 -16.578 -13.364  1.00  0.00     0.127 C 
ENDROOT
BRANCH   1   2
ATOM      2  C   UNL     1     -22.312 -16.438 -12.479  1.00  0.00     0.233 C 
BRANCH   2   3
ATOM      3  N   UNL     1     -22.443 -17.257 -11.268  1.00  0.00    -0.350 N 
ATOM      4  H   UNL     1     -21.848 -18.115 -11.335  1.00  0.00     0.345 HD
ATOM      5  H   UNL     1     -23.442 -17.540 -11.138  1.00  0.00     0.345 HD
ATOM      6  H   UNL     1     -22.150 -16.703 -10.431  1.00  0.00     0.345 HD
ENDBRANCH   2   3
BRANCH   2   7
ATOM      7  C   UNL     1     -22.067 -14.998 -12.111  1.00  0.00     0.099 C 
ATOM      8  O   UNL     1     -22.795 -14.421 -11.261  1.00  0.00    -0.544 OA
ATOM      9  O   UNL     1     -21.042 -14.290 -12.728  1.00  0.00    -0.544 OA
ENDBRANCH   2   7
ENDBRANCH   1   2
BRANCH   1  10
ATOM     10  C   UNL     1     -23.541 -15.617 -14.516  1.00  0.00     0.041 A 
ATOM     11  C   UNL     1     -24.570 -14.795 -14.920  1.00  0.00     0.134 A 
ATOM     12  N   UNL     1     -22.521 -15.485 -15.378  1.00  0.00    -0.348 N 
ATOM     13  N   UNL     1     -24.192 -14.133 -16.032  1.00  0.00    -0.245 NA
ATOM     14  C   UNL     1     -22.941 -14.577 -16.279  1.00  0.00     0.196 A 
ATOM     15  H   UNL     1     -21.605 -15.985 -15.363  1.00  0.00     0.167 HD
ENDBRANCH   1  10
TORSDOF 4
ENDMDL
