MODEL 1
REMARK VINA RESULT:    -6.279      0.000      0.000
REMARK INTER + INTRA:         -10.026
REMARK INTER:                  -8.849
REMARK INTRA:                  -1.177
REMARK UNBOUND:                -1.177
REMARK SMILES OCC1=C[C@H](O)[C@H]2C=CO[C@H](O[C@@H]3O[C@@H](CO)[C@H](O)[C@H](O)[C@H]3O)[C@@H]12
REMARK SMILES IDX 12 1 11 2 8 3 9 4 7 5 10 6 24 7 5 8 3 9 4 10 6 11 2 13 1 14
REMARK SMILES IDX 13 16 22 17 14 18 20 19 15 20 18 21 23 22 21 24 16 26 17 27
REMARK SMILES IDX 19 29
REMARK H PARENT 6 12 1 15 23 23 21 25 17 28 19 30
REMARK Flexibility Score: inf
ROOT
ATOM      1  O   UNL     1       8.220 -26.879  26.076  1.00  0.00    -0.310 OA
ENDROOT
BRANCH   1   2
ATOM      2  C   UNL     1       8.175 -27.485  27.360  1.00  0.00     0.316 C 
ATOM      3  C   UNL     1       9.912 -29.810  27.570  1.00  0.00     0.018 C 
ATOM      4  C   UNL     1       8.688 -29.907  27.078  1.00  0.00     0.186 C 
ATOM      5  C   UNL     1      10.324 -28.618  28.378  1.00  0.00     0.061 C 
ATOM      6  O   UNL     1       7.789 -28.850  27.191  1.00  0.00    -0.472 OA
ATOM      7  C   UNL     1       9.571 -27.310  28.039  1.00  0.00     0.096 C 
ATOM      8  C   UNL     1      10.093 -28.831  29.889  1.00  0.00     0.145 C 
ATOM      9  C   UNL     1       9.446 -26.648  29.380  1.00  0.00    -0.036 C 
ATOM     10  C   UNL     1       9.722 -27.472  30.383  1.00  0.00     0.007 C 
BRANCH   8  11
ATOM     11  O   UNL     1      11.237 -29.323  30.537  1.00  0.00    -0.388 OA
ATOM     12  H   UNL     1      11.093 -30.290  30.729  1.00  0.00     0.211 HD
ENDBRANCH   8  11
BRANCH   9  13
ATOM     13  C   UNL     1       9.119 -25.195  29.573  1.00  0.00     0.187 C 
BRANCH  13  14
ATOM     14  O   UNL     1       9.503 -24.459  28.443  1.00  0.00    -0.392 OA
ATOM     15  H   UNL     1       8.690 -24.391  27.874  1.00  0.00     0.211 HD
ENDBRANCH  13  14
ENDBRANCH   9  13
ENDBRANCH   1   2
BRANCH   1  16
ATOM     16  C   UNL     1       9.543 -26.566  25.653  1.00  0.00     0.286 C 
ATOM     17  C   UNL     1       9.861 -27.283  24.325  1.00  0.00     0.202 C 
ATOM     18  O   UNL     1       9.711 -25.162  25.540  1.00  0.00    -0.341 OA
ATOM     19  C   UNL     1       9.060 -26.680  23.158  1.00  0.00     0.179 C 
ATOM     20  C   UNL     1       8.845 -24.599  24.566  1.00  0.00     0.178 C 
ATOM     21  C   UNL     1       9.189 -25.143  23.161  1.00  0.00     0.177 C 
BRANCH  17  22
ATOM     22  O   UNL     1      11.239 -27.177  24.067  1.00  0.00    -0.385 OA
ATOM     23  H   UNL     1      11.709 -27.700  24.769  1.00  0.00     0.211 HD
ENDBRANCH  17  22
BRANCH  19  24
ATOM     24  O   UNL     1       7.711 -27.064  23.269  1.00  0.00    -0.387 OA
ATOM     25  H   UNL     1       7.177 -26.393  22.770  1.00  0.00     0.211 HD
ENDBRANCH  19  24
BRANCH  20  26
ATOM     26  C   UNL     1       8.983 -23.068  24.621  1.00  0.00     0.191 C 
BRANCH  26  27
ATOM     27  O   UNL     1       7.730 -22.457  24.457  1.00  0.00    -0.394 OA
ATOM     28  H   UNL     1       7.805 -21.895  23.642  1.00  0.00     0.210 HD
ENDBRANCH  26  27
ENDBRANCH  20  26
BRANCH  21  29
ATOM     29  O   UNL     1       8.328 -24.581  22.202  1.00  0.00    -0.387 OA
ATOM     30  H   UNL     1       8.094 -25.299  21.559  1.00  0.00     0.211 HD
ENDBRANCH  21  29
ENDBRANCH   1  16
TORSDOF 10
ENDMDL
MODEL 2
REMARK VINA RESULT:    -5.852      7.791     10.555
REMARK INTER + INTRA:          -9.424
REMARK INTER:                  -8.184
REMARK INTRA:                  -1.240
REMARK UNBOUND:                -1.177
REMARK SMILES OCC1=C[C@H](O)[C@H]2C=CO[C@H](O[C@@H]3O[C@@H](CO)[C@H](O)[C@H](O)[C@H]3O)[C@@H]12
REMARK SMILES IDX 12 1 11 2 8 3 9 4 7 5 10 6 24 7 5 8 3 9 4 10 6 11 2 13 1 14
REMARK SMILES IDX 13 16 22 17 14 18 20 19 15 20 18 21 23 22 21 24 16 26 17 27
REMARK SMILES IDX 19 29
REMARK H PARENT 6 12 1 15 23 23 21 25 17 28 19 30
REMARK Flexibility Score: inf
ROOT
ATOM      1  O   UNL     1      14.290 -25.133  34.318  1.00  0.00    -0.310 OA
ENDROOT
BRANCH   1   2
ATOM      2  C   UNL     1      12.918 -24.913  34.614  1.00  0.00     0.316 C 
ATOM      3  C   UNL     1      12.523 -23.359  37.043  1.00  0.00     0.018 C 
ATOM      4  C   UNL     1      12.699 -24.669  37.084  1.00  0.00     0.186 C 
ATOM      5  C   UNL     1      12.143 -22.674  35.766  1.00  0.00     0.061 C 
ATOM      6  O   UNL     1      12.658 -25.431  35.919  1.00  0.00    -0.472 OA
ATOM      7  C   UNL     1      12.623 -23.384  34.478  1.00  0.00     0.096 C 
ATOM      8  C   UNL     1      10.613 -22.549  35.606  1.00  0.00     0.145 C 
ATOM      9  C   UNL     1      11.492 -23.131  33.524  1.00  0.00    -0.036 C 
ATOM     10  C   UNL     1      10.401 -22.685  34.135  1.00  0.00     0.007 C 
BRANCH   8  11
ATOM     11  O   UNL     1      10.128 -21.323  36.088  1.00  0.00    -0.388 OA
ATOM     12  H   UNL     1      10.906 -20.718  36.238  1.00  0.00     0.211 HD
ENDBRANCH   8  11
BRANCH   9  13
ATOM     13  C   UNL     1      11.596 -23.290  32.034  1.00  0.00     0.187 C 
BRANCH  13  14
ATOM     14  O   UNL     1      12.880 -22.933  31.600  1.00  0.00    -0.392 OA
ATOM     15  H   UNL     1      13.478 -23.062  32.384  1.00  0.00     0.211 HD
ENDBRANCH  13  14
ENDBRANCH   9  13
ENDBRANCH   1   2
BRANCH   1  16
ATOM     16  C   UNL     1      15.042 -23.927  34.232  1.00  0.00     0.286 C 
ATOM     17  C   UNL     1      16.279 -24.004  35.151  1.00  0.00     0.202 C 
ATOM     18  O   UNL     1      15.409 -23.665  32.887  1.00  0.00    -0.341 OA
ATOM     19  C   UNL     1      17.317 -25.004  34.610  1.00  0.00     0.179 C 
ATOM     20  C   UNL     1      16.240 -24.684  32.353  1.00  0.00     0.178 C 
ATOM     21  C   UNL     1      17.583 -24.739  33.115  1.00  0.00     0.177 C 
BRANCH  17  22
ATOM     22  O   UNL     1      16.853 -22.725  35.252  1.00  0.00    -0.385 OA
ATOM     23  H   UNL     1      16.207 -22.082  34.855  1.00  0.00     0.211 HD
ENDBRANCH  17  22
BRANCH  19  24
ATOM     24  O   UNL     1      16.847 -26.316  34.804  1.00  0.00    -0.387 OA
ATOM     25  H   UNL     1      16.476 -26.358  35.724  1.00  0.00     0.211 HD
ENDBRANCH  19  24
BRANCH  20  26
ATOM     26  C   UNL     1      16.457 -24.399  30.857  1.00  0.00     0.191 C 
BRANCH  26  27
ATOM     27  O   UNL     1      15.462 -23.534  30.374  1.00  0.00    -0.394 OA
ATOM     28  H   UNL     1      14.725 -24.118  30.054  1.00  0.00     0.210 HD
ENDBRANCH  26  27
ENDBRANCH  20  26
BRANCH  21  29
ATOM     29  O   UNL     1      18.400 -25.750  32.580  1.00  0.00    -0.387 OA
ATOM     30  H   UNL     1      17.827 -26.316  32.001  1.00  0.00     0.211 HD
ENDBRANCH  21  29
ENDBRANCH   1  16
TORSDOF 10
ENDMDL
MODEL 3
REMARK VINA RESULT:    -5.809      2.817      5.149
REMARK INTER + INTRA:          -9.364
REMARK INTER:                  -8.105
REMARK INTRA:                  -1.258
REMARK UNBOUND:                -1.177
REMARK SMILES OCC1=C[C@H](O)[C@H]2C=CO[C@H](O[C@@H]3O[C@@H](CO)[C@H](O)[C@H](O)[C@H]3O)[C@@H]12
REMARK SMILES IDX 12 1 11 2 8 3 9 4 7 5 10 6 24 7 5 8 3 9 4 10 6 11 2 13 1 14
REMARK SMILES IDX 13 16 22 17 14 18 20 19 15 20 18 21 23 22 21 24 16 26 17 27
REMARK SMILES IDX 19 29
REMARK H PARENT 6 12 1 15 23 23 21 25 17 28 19 30
REMARK Flexibility Score: inf
ROOT
ATOM      1  O   UNL     1       9.088 -30.005  27.970  1.00  0.00    -0.310 OA
ENDROOT
BRANCH   1   2
ATOM      2  C   UNL     1       8.509 -29.056  28.853  1.00  0.00     0.316 C 
ATOM      3  C   UNL     1       9.551 -29.257  31.564  1.00  0.00     0.018 C 
ATOM      4  C   UNL     1       8.556 -30.023  31.150  1.00  0.00     0.186 C 
ATOM      5  C   UNL     1       9.929 -28.017  30.814  1.00  0.00     0.061 C 
ATOM      6  O   UNL     1       7.914 -29.767  29.940  1.00  0.00    -0.472 OA
ATOM      7  C   UNL     1       9.622 -28.052  29.298  1.00  0.00     0.096 C 
ATOM      8  C   UNL     1       9.191 -26.769  31.342  1.00  0.00     0.145 C 
ATOM      9  C   UNL     1       9.221 -26.634  29.013  1.00  0.00    -0.036 C 
ATOM     10  C   UNL     1       8.981 -25.940  30.119  1.00  0.00     0.007 C 
BRANCH   8  11
ATOM     11  O   UNL     1       9.937 -26.081  32.312  1.00  0.00    -0.388 OA
ATOM     12  H   UNL     1      10.412 -25.328  31.862  1.00  0.00     0.211 HD
ENDBRANCH   8  11
BRANCH   9  13
ATOM     13  C   UNL     1       9.168 -26.036  27.636  1.00  0.00     0.187 C 
BRANCH  13  14
ATOM     14  O   UNL     1      10.217 -26.537  26.852  1.00  0.00    -0.392 OA
ATOM     15  H   UNL     1      10.885 -25.803  26.790  1.00  0.00     0.211 HD
ENDBRANCH  13  14
ENDBRANCH   9  13
ENDBRANCH   1   2
BRANCH   1  16
ATOM     16  C   UNL     1       8.232 -30.355  26.888  1.00  0.00     0.286 C 
ATOM     17  C   UNL     1       8.427 -29.373  25.714  1.00  0.00     0.202 C 
ATOM     18  O   UNL     1       8.461 -31.697  26.487  1.00  0.00    -0.341 OA
ATOM     19  C   UNL     1       9.797 -29.569  25.042  1.00  0.00     0.179 C 
ATOM     20  C   UNL     1       9.785 -31.894  26.017  1.00  0.00     0.178 C 
ATOM     21  C   UNL     1      10.034 -31.063  24.739  1.00  0.00     0.177 C 
BRANCH  17  22
ATOM     22  O   UNL     1       7.400 -29.573  24.776  1.00  0.00    -0.385 OA
ATOM     23  H   UNL     1       6.673 -30.068  25.239  1.00  0.00     0.211 HD
ENDBRANCH  17  22
BRANCH  19  24
ATOM     24  O   UNL     1      10.808 -29.069  25.885  1.00  0.00    -0.387 OA
ATOM     25  H   UNL     1      11.167 -29.841  26.396  1.00  0.00     0.211 HD
ENDBRANCH  19  24
BRANCH  20  26
ATOM     26  C   UNL     1       9.988 -33.397  25.755  1.00  0.00     0.191 C 
BRANCH  26  27
ATOM     27  O   UNL     1      11.311 -33.770  26.042  1.00  0.00    -0.394 OA
ATOM     28  H   UNL     1      11.886 -33.066  25.641  1.00  0.00     0.210 HD
ENDBRANCH  26  27
ENDBRANCH  20  26
BRANCH  21  29
ATOM     29  O   UNL     1      11.347 -31.264  24.280  1.00  0.00    -0.387 OA
ATOM     30  H   UNL     1      11.902 -30.526  24.642  1.00  0.00     0.211 HD
ENDBRANCH  21  29
ENDBRANCH   1  16
TORSDOF 10
ENDMDL
MODEL 4
REMARK VINA RESULT:    -5.802      2.075      6.440
REMARK INTER + INTRA:          -9.353
REMARK INTER:                  -8.592
REMARK INTRA:                  -0.762
REMARK UNBOUND:                -1.177
REMARK SMILES OCC1=C[C@H](O)[C@H]2C=CO[C@H](O[C@@H]3O[C@@H](CO)[C@H](O)[C@H](O)[C@H]3O)[C@@H]12
REMARK SMILES IDX 12 1 11 2 8 3 9 4 7 5 10 6 24 7 5 8 3 9 4 10 6 11 2 13 1 14
REMARK SMILES IDX 13 16 22 17 14 18 20 19 15 20 18 21 23 22 21 24 16 26 17 27
REMARK SMILES IDX 19 29
REMARK H PARENT 6 12 1 15 23 23 21 25 17 28 19 30
REMARK Flexibility Score: inf
ROOT
ATOM      1  O   UNL     1      10.758 -26.526  24.756  1.00  0.00    -0.310 OA
ENDROOT
BRANCH   1   2
ATOM      2  C   UNL     1      11.268 -25.295  24.266  1.00  0.00     0.316 C 
ATOM      3  C   UNL     1      11.916 -25.392  21.430  1.00  0.00     0.018 C 
ATOM      4  C   UNL     1      12.776 -25.803  22.347  1.00  0.00     0.186 C 
ATOM      5  C   UNL     1      10.753 -24.523  21.800  1.00  0.00     0.061 C 
ATOM      6  O   UNL     1      12.555 -25.543  23.698  1.00  0.00    -0.472 OA
ATOM      7  C   UNL     1      10.239 -24.704  23.248  1.00  0.00     0.096 C 
ATOM      8  C   UNL     1      11.087 -23.021  21.680  1.00  0.00     0.145 C 
ATOM      9  C   UNL     1       9.836 -23.310  23.629  1.00  0.00    -0.036 C 
ATOM     10  C   UNL     1      10.300 -22.397  22.784  1.00  0.00     0.007 C 
BRANCH   8  11
ATOM     11  O   UNL     1      10.730 -22.496  20.429  1.00  0.00    -0.388 OA
ATOM     12  H   UNL     1       9.827 -22.846  20.191  1.00  0.00     0.211 HD
ENDBRANCH   8  11
BRANCH   9  13
ATOM     13  C   UNL     1       8.945 -22.980  24.792  1.00  0.00     0.187 C 
BRANCH  13  14
ATOM     14  O   UNL     1       7.709 -22.503  24.332  1.00  0.00    -0.392 OA
ATOM     15  H   UNL     1       7.921 -21.836  23.626  1.00  0.00     0.211 HD
ENDBRANCH  13  14
ENDBRANCH   9  13
ENDBRANCH   1   2
BRANCH   1  16
ATOM     16  C   UNL     1       9.631 -26.364  25.610  1.00  0.00     0.286 C 
ATOM     17  C   UNL     1       8.521 -27.364  25.225  1.00  0.00     0.202 C 
ATOM     18  O   UNL     1      10.012 -26.506  26.969  1.00  0.00    -0.341 OA
ATOM     19  C   UNL     1       8.920 -28.806  25.584  1.00  0.00     0.179 C 
ATOM     20  C   UNL     1      10.528 -27.799  27.245  1.00  0.00     0.178 C 
ATOM     21  C   UNL     1       9.435 -28.872  27.036  1.00  0.00     0.177 C 
BRANCH  17  22
ATOM     22  O   UNL     1       7.337 -27.013  25.896  1.00  0.00    -0.385 OA
ATOM     23  H   UNL     1       6.631 -27.645  25.591  1.00  0.00     0.211 HD
ENDBRANCH  17  22
BRANCH  19  24
ATOM     24  O   UNL     1       9.908 -29.256  24.688  1.00  0.00    -0.387 OA
ATOM     25  H   UNL     1      10.118 -30.193  24.935  1.00  0.00     0.211 HD
ENDBRANCH  19  24
BRANCH  20  26
ATOM     26  C   UNL     1      11.056 -27.813  28.690  1.00  0.00     0.191 C 
BRANCH  26  27
ATOM     27  O   UNL     1      11.851 -28.948  28.910  1.00  0.00    -0.394 OA
ATOM     28  H   UNL     1      11.981 -29.367  28.019  1.00  0.00     0.210 HD
ENDBRANCH  26  27
ENDBRANCH  20  26
BRANCH  21  29
ATOM     29  O   UNL     1       9.954 -30.148  27.312  1.00  0.00    -0.387 OA
ATOM     30  H   UNL     1       9.984 -30.646  26.454  1.00  0.00     0.211 HD
ENDBRANCH  21  29
ENDBRANCH   1  16
TORSDOF 10
ENDMDL
MODEL 5
REMARK VINA RESULT:    -5.802      3.748      7.001
REMARK INTER + INTRA:          -9.353
REMARK INTER:                  -8.674
REMARK INTRA:                  -0.679
REMARK UNBOUND:                -1.177
REMARK SMILES OCC1=C[C@H](O)[C@H]2C=CO[C@H](O[C@@H]3O[C@@H](CO)[C@H](O)[C@H](O)[C@H]3O)[C@@H]12
REMARK SMILES IDX 12 1 11 2 8 3 9 4 7 5 10 6 24 7 5 8 3 9 4 10 6 11 2 13 1 14
REMARK SMILES IDX 13 16 22 17 14 18 20 19 15 20 18 21 23 22 21 24 16 26 17 27
REMARK SMILES IDX 19 29
REMARK H PARENT 6 12 1 15 23 23 21 25 17 28 19 30
REMARK Flexibility Score: inf
ROOT
ATOM      1  O   UNL     1      11.857 -25.755  22.288  1.00  0.00    -0.310 OA
ENDROOT
BRANCH   1   2
ATOM      2  C   UNL     1      11.289 -24.523  22.707  1.00  0.00     0.316 C 
ATOM      3  C   UNL     1       9.820 -23.179  20.583  1.00  0.00     0.018 C 
ATOM      4  C   UNL     1      11.129 -23.039  20.710  1.00  0.00     0.186 C 
ATOM      5  C   UNL     1       8.990 -23.706  21.713  1.00  0.00     0.061 C 
ATOM      6  O   UNL     1      11.787 -23.492  21.851  1.00  0.00    -0.472 OA
ATOM      7  C   UNL     1       9.733 -24.661  22.677  1.00  0.00     0.096 C 
ATOM      8  C   UNL     1       8.445 -22.576  22.611  1.00  0.00     0.145 C 
ATOM      9  C   UNL     1       9.130 -24.315  24.008  1.00  0.00    -0.036 C 
ATOM     10  C   UNL     1       8.438 -23.182  23.974  1.00  0.00     0.007 C 
BRANCH   8  11
ATOM     11  O   UNL     1       7.161 -22.161  22.222  1.00  0.00    -0.388 OA
ATOM     12  H   UNL     1       6.912 -22.657  21.394  1.00  0.00     0.211 HD
ENDBRANCH   8  11
BRANCH   9  13
ATOM     13  C   UNL     1       9.230 -25.185  25.228  1.00  0.00     0.187 C 
BRANCH  13  14
ATOM     14  O   UNL     1       9.294 -24.391  26.382  1.00  0.00    -0.392 OA
ATOM     15  H   UNL     1      10.200 -23.979  26.379  1.00  0.00     0.211 HD
ENDBRANCH  13  14
ENDBRANCH   9  13
ENDBRANCH   1   2
BRANCH   1  16
ATOM     16  C   UNL     1      12.526 -26.446  23.337  1.00  0.00     0.286 C 
ATOM     17  C   UNL     1      12.544 -27.961  23.051  1.00  0.00     0.202 C 
ATOM     18  O   UNL     1      13.838 -25.934  23.512  1.00  0.00    -0.341 OA
ATOM     19  C   UNL     1      13.477 -28.298  21.874  1.00  0.00     0.179 C 
ATOM     20  C   UNL     1      14.638 -26.112  22.354  1.00  0.00     0.178 C 
ATOM     21  C   UNL     1      14.847 -27.616  22.068  1.00  0.00     0.177 C 
BRANCH  17  22
ATOM     22  O   UNL     1      12.967 -28.640  24.207  1.00  0.00    -0.385 OA
ATOM     23  H   UNL     1      12.193 -28.665  24.831  1.00  0.00     0.211 HD
ENDBRANCH  17  22
BRANCH  19  24
ATOM     24  O   UNL     1      12.881 -27.879  20.670  1.00  0.00    -0.387 OA
ATOM     25  H   UNL     1      13.469 -27.178  20.285  1.00  0.00     0.211 HD
ENDBRANCH  19  24
BRANCH  20  26
ATOM     26  C   UNL     1      15.981 -25.394  22.577  1.00  0.00     0.191 C 
BRANCH  26  27
ATOM     27  O   UNL     1      16.175 -25.132  23.942  1.00  0.00    -0.394 OA
ATOM     28  H   UNL     1      16.310 -24.151  24.015  1.00  0.00     0.210 HD
ENDBRANCH  26  27
ENDBRANCH  20  26
BRANCH  21  29
ATOM     29  O   UNL     1      15.640 -27.783  20.920  1.00  0.00    -0.387 OA
ATOM     30  H   UNL     1      15.397 -27.061  20.286  1.00  0.00     0.211 HD
ENDBRANCH  21  29
ENDBRANCH   1  16
TORSDOF 10
ENDMDL
MODEL 6
REMARK VINA RESULT:    -5.780      6.477     10.048
REMARK INTER + INTRA:          -9.322
REMARK INTER:                  -8.307
REMARK INTRA:                  -1.015
REMARK UNBOUND:                -1.177
REMARK SMILES OCC1=C[C@H](O)[C@H]2C=CO[C@H](O[C@@H]3O[C@@H](CO)[C@H](O)[C@H](O)[C@H]3O)[C@@H]12
REMARK SMILES IDX 12 1 11 2 8 3 9 4 7 5 10 6 24 7 5 8 3 9 4 10 6 11 2 13 1 14
REMARK SMILES IDX 13 16 22 17 14 18 20 19 15 20 18 21 23 22 21 24 16 26 17 27
REMARK SMILES IDX 19 29
REMARK H PARENT 6 12 1 15 23 23 21 25 17 28 19 30
REMARK Flexibility Score: inf
ROOT
ATOM      1  O   UNL     1      10.102 -21.066  33.288  1.00  0.00    -0.310 OA
ENDROOT
BRANCH   1   2
ATOM      2  C   UNL     1       9.366 -22.209  32.876  1.00  0.00     0.316 C 
ATOM      3  C   UNL     1       9.381 -22.578  29.989  1.00  0.00     0.018 C 
ATOM      4  C   UNL     1       8.508 -21.776  30.576  1.00  0.00     0.186 C 
ATOM      5  C   UNL     1      10.132 -23.606  30.778  1.00  0.00     0.061 C 
ATOM      6  O   UNL     1       8.356 -21.779  31.961  1.00  0.00    -0.472 OA
ATOM      7  C   UNL     1      10.363 -23.245  32.264  1.00  0.00     0.096 C 
ATOM      8  C   UNL     1       9.404 -24.966  30.806  1.00  0.00     0.145 C 
ATOM      9  C   UNL     1      10.249 -24.578  32.945  1.00  0.00    -0.036 C 
ATOM     10  C   UNL     1       9.724 -25.509  32.158  1.00  0.00     0.007 C 
BRANCH   8  11
ATOM     11  O   UNL     1       9.843 -25.825  29.786  1.00  0.00    -0.388 OA
ATOM     12  H   UNL     1       9.050 -26.305  29.421  1.00  0.00     0.211 HD
ENDBRANCH   8  11
BRANCH   9  13
ATOM     13  C   UNL     1      10.742 -24.856  34.337  1.00  0.00     0.187 C 
BRANCH  13  14
ATOM     14  O   UNL     1      11.313 -26.134  34.400  1.00  0.00    -0.392 OA
ATOM     15  H   UNL     1      10.723 -26.667  34.997  1.00  0.00     0.211 HD
ENDBRANCH  13  14
ENDBRANCH   9  13
ENDBRANCH   1   2
BRANCH   1  16
ATOM     16  C   UNL     1       9.675 -20.551  34.544  1.00  0.00     0.286 C 
ATOM     17  C   UNL     1      10.263 -21.394  35.694  1.00  0.00     0.202 C 
ATOM     18  O   UNL     1      10.031 -19.182  34.667  1.00  0.00    -0.341 OA
ATOM     19  C   UNL     1      11.782 -21.182  35.823  1.00  0.00     0.179 C 
ATOM     20  C   UNL     1      11.436 -18.992  34.623  1.00  0.00     0.178 C 
ATOM     21  C   UNL     1      12.112 -19.676  35.833  1.00  0.00     0.177 C 
BRANCH  17  22
ATOM     22  O   UNL     1       9.626 -21.037  36.895  1.00  0.00    -0.385 OA
ATOM     23  H   UNL     1      10.114 -20.251  37.262  1.00  0.00     0.211 HD
ENDBRANCH  17  22
BRANCH  19  24
ATOM     24  O   UNL     1      12.436 -21.825  34.755  1.00  0.00    -0.387 OA
ATOM     25  H   UNL     1      11.759 -21.966  34.044  1.00  0.00     0.211 HD
ENDBRANCH  19  24
BRANCH  20  26
ATOM     26  C   UNL     1      11.720 -17.480  34.605  1.00  0.00     0.191 C 
BRANCH  26  27
ATOM     27  O   UNL     1      11.995 -17.018  35.902  1.00  0.00    -0.394 OA
ATOM     28  H   UNL     1      12.705 -16.330  35.802  1.00  0.00     0.210 HD
ENDBRANCH  26  27
ENDBRANCH  20  26
BRANCH  21  29
ATOM     29  O   UNL     1      13.503 -19.482  35.782  1.00  0.00    -0.387 OA
ATOM     30  H   UNL     1      13.766 -19.487  34.826  1.00  0.00     0.211 HD
ENDBRANCH  21  29
ENDBRANCH   1  16
TORSDOF 10
ENDMDL
MODEL 7
REMARK VINA RESULT:    -5.778      1.587      2.809
REMARK INTER + INTRA:          -9.319
REMARK INTER:                  -8.799
REMARK INTRA:                  -0.520
REMARK UNBOUND:                -1.177
REMARK SMILES OCC1=C[C@H](O)[C@H]2C=CO[C@H](O[C@@H]3O[C@@H](CO)[C@H](O)[C@H](O)[C@H]3O)[C@@H]12
REMARK SMILES IDX 12 1 11 2 8 3 9 4 7 5 10 6 24 7 5 8 3 9 4 10 6 11 2 13 1 14
REMARK SMILES IDX 13 16 22 17 14 18 20 19 15 20 18 21 23 22 21 24 16 26 17 27
REMARK SMILES IDX 19 29
REMARK H PARENT 6 12 1 15 23 23 21 25 17 28 19 30
REMARK Flexibility Score: inf
ROOT
ATOM      1  O   UNL     1       9.442 -26.346  27.254  1.00  0.00    -0.310 OA
ENDROOT
BRANCH   1   2
ATOM      2  C   UNL     1       8.825 -26.931  28.391  1.00  0.00     0.316 C 
ATOM      3  C   UNL     1      10.303 -29.216  29.424  1.00  0.00     0.018 C 
ATOM      4  C   UNL     1       9.438 -29.347  28.433  1.00  0.00     0.186 C 
ATOM      5  C   UNL     1      10.290 -28.002  30.302  1.00  0.00     0.061 C 
ATOM      6  O   UNL     1       8.573 -28.307  28.099  1.00  0.00    -0.472 OA
ATOM      7  C   UNL     1       9.759 -26.715  29.626  1.00  0.00     0.096 C 
ATOM      8  C   UNL     1       9.400 -28.194  31.547  1.00  0.00     0.145 C 
ATOM      9  C   UNL     1       9.030 -26.034  30.747  1.00  0.00    -0.036 C 
ATOM     10  C   UNL     1       8.830 -26.836  31.786  1.00  0.00     0.007 C 
BRANCH   8  11
ATOM     11  O   UNL     1      10.130 -28.651  32.656  1.00  0.00    -0.388 OA
ATOM     12  H   UNL     1      11.042 -28.905  32.344  1.00  0.00     0.211 HD
ENDBRANCH   8  11
BRANCH   9  13
ATOM     13  C   UNL     1       8.635 -24.585  30.735  1.00  0.00     0.187 C 
BRANCH  13  14
ATOM     14  O   UNL     1       9.514 -23.852  29.925  1.00  0.00    -0.392 OA
ATOM     15  H   UNL     1       9.623 -24.383  29.091  1.00  0.00     0.211 HD
ENDBRANCH  13  14
ENDBRANCH   9  13
ENDBRANCH   1   2
BRANCH   1  16
ATOM     16  C   UNL     1       9.270 -27.115  26.068  1.00  0.00     0.286 C 
ATOM     17  C   UNL     1       8.393 -26.347  25.058  1.00  0.00     0.202 C 
ATOM     18  O   UNL     1      10.529 -27.457  25.510  1.00  0.00    -0.341 OA
ATOM     19  C   UNL     1       9.139 -25.132  24.479  1.00  0.00     0.179 C 
ATOM     20  C   UNL     1      11.272 -26.309  25.128  1.00  0.00     0.178 C 
ATOM     21  C   UNL     1      10.544 -25.547  23.998  1.00  0.00     0.177 C 
BRANCH  17  22
ATOM     22  O   UNL     1       8.021 -27.220  24.020  1.00  0.00    -0.385 OA
ATOM     23  H   UNL     1       7.511 -26.683  23.356  1.00  0.00     0.211 HD
ENDBRANCH  17  22
BRANCH  19  24
ATOM     24  O   UNL     1       9.229 -24.128  25.462  1.00  0.00    -0.387 OA
ATOM     25  H   UNL     1      10.107 -24.239  25.910  1.00  0.00     0.211 HD
ENDBRANCH  19  24
BRANCH  20  26
ATOM     26  C   UNL     1      12.672 -26.764  24.683  1.00  0.00     0.191 C 
BRANCH  26  27
ATOM     27  O   UNL     1      13.137 -27.799  25.511  1.00  0.00    -0.394 OA
ATOM     28  H   UNL     1      14.081 -27.958  25.244  1.00  0.00     0.210 HD
ENDBRANCH  26  27
ENDBRANCH  20  26
BRANCH  21  29
ATOM     29  O   UNL     1      11.285 -24.413  23.625  1.00  0.00    -0.387 OA
ATOM     30  H   UNL     1      11.790 -24.115  24.426  1.00  0.00     0.211 HD
ENDBRANCH  21  29
ENDBRANCH   1  16
TORSDOF 10
ENDMDL
MODEL 8
REMARK VINA RESULT:    -5.653      1.977      6.459
REMARK INTER + INTRA:          -9.143
REMARK INTER:                  -7.944
REMARK INTRA:                  -1.199
REMARK UNBOUND:                -1.177
REMARK SMILES OCC1=C[C@H](O)[C@H]2C=CO[C@H](O[C@@H]3O[C@@H](CO)[C@H](O)[C@H](O)[C@H]3O)[C@@H]12
REMARK SMILES IDX 12 1 11 2 8 3 9 4 7 5 10 6 24 7 5 8 3 9 4 10 6 11 2 13 1 14
REMARK SMILES IDX 13 16 22 17 14 18 20 19 15 20 18 21 23 22 21 24 16 26 17 27
REMARK SMILES IDX 19 29
REMARK H PARENT 6 12 1 15 23 23 21 25 17 28 19 30
REMARK Flexibility Score: inf
ROOT
ATOM      1  O   UNL     1       9.739 -25.856  25.640  1.00  0.00    -0.310 OA
ENDROOT
BRANCH   1   2
ATOM      2  C   UNL     1       9.675 -25.588  24.247  1.00  0.00     0.316 C 
ATOM      3  C   UNL     1       9.435 -22.748  23.656  1.00  0.00     0.018 C 
ATOM      4  C   UNL     1       8.373 -23.486  23.934  1.00  0.00     0.186 C 
ATOM      5  C   UNL     1      10.731 -23.386  23.261  1.00  0.00     0.061 C 
ATOM      6  O   UNL     1       8.464 -24.875  23.989  1.00  0.00    -0.472 OA
ATOM      7  C   UNL     1      10.962 -24.804  23.834  1.00  0.00     0.096 C 
ATOM      8  C   UNL     1      10.858 -23.549  21.731  1.00  0.00     0.145 C 
ATOM      9  C   UNL     1      11.686 -25.496  22.716  1.00  0.00    -0.036 C 
ATOM     10  C   UNL     1      11.624 -24.820  21.575  1.00  0.00     0.007 C 
BRANCH   8  11
ATOM     11  O   UNL     1      11.523 -22.466  21.135  1.00  0.00    -0.388 OA
ATOM     12  H   UNL     1      11.282 -21.639  21.636  1.00  0.00     0.211 HD
ENDBRANCH   8  11
BRANCH   9  13
ATOM     13  C   UNL     1      12.460 -26.772  22.878  1.00  0.00     0.187 C 
BRANCH  13  14
ATOM     14  O   UNL     1      13.065 -26.813  24.142  1.00  0.00    -0.392 OA
ATOM     15  H   UNL     1      13.143 -27.777  24.375  1.00  0.00     0.211 HD
ENDBRANCH  13  14
ENDBRANCH   9  13
ENDBRANCH   1   2
BRANCH   1  16
ATOM     16  C   UNL     1       8.646 -26.638  26.109  1.00  0.00     0.286 C 
ATOM     17  C   UNL     1       8.771 -28.089  25.603  1.00  0.00     0.202 C 
ATOM     18  O   UNL     1       8.569 -26.585  27.525  1.00  0.00    -0.341 OA
ATOM     19  C   UNL     1       9.936 -28.823  26.291  1.00  0.00     0.179 C 
ATOM     20  C   UNL     1       9.728 -27.124  28.142  1.00  0.00     0.178 C 
ATOM     21  C   UNL     1       9.860 -28.629  27.819  1.00  0.00     0.177 C 
BRANCH  17  22
ATOM     22  O   UNL     1       7.565 -28.766  25.852  1.00  0.00    -0.385 OA
ATOM     23  H   UNL     1       7.003 -28.166  26.410  1.00  0.00     0.211 HD
ENDBRANCH  17  22
BRANCH  19  24
ATOM     24  O   UNL     1      11.158 -28.335  25.790  1.00  0.00    -0.387 OA
ATOM     25  H   UNL     1      11.167 -27.356  25.954  1.00  0.00     0.211 HD
ENDBRANCH  19  24
BRANCH  20  26
ATOM     26  C   UNL     1       9.625 -26.885  29.659  1.00  0.00     0.191 C 
BRANCH  26  27
ATOM     27  O   UNL     1       9.116 -28.024  30.301  1.00  0.00    -0.394 OA
ATOM     28  H   UNL     1       9.837 -28.706  30.261  1.00  0.00     0.210 HD
ENDBRANCH  26  27
ENDBRANCH  20  26
BRANCH  21  29
ATOM     29  O   UNL     1      11.010 -29.155  28.434  1.00  0.00    -0.387 OA
ATOM     30  H   UNL     1      10.952 -30.143  28.370  1.00  0.00     0.211 HD
ENDBRANCH  21  29
ENDBRANCH   1  16
TORSDOF 10
ENDMDL
MODEL 9
REMARK VINA RESULT:    -4.497      7.808      9.843
REMARK INTER + INTRA:          -7.514
REMARK INTER:                  -6.467
REMARK INTRA:                  -1.048
REMARK UNBOUND:                -1.177
REMARK SMILES OCC1=C[C@H](O)[C@H]2C=CO[C@H](O[C@@H]3O[C@@H](CO)[C@H](O)[C@H](O)[C@H]3O)[C@@H]12
REMARK SMILES IDX 12 1 11 2 8 3 9 4 7 5 10 6 24 7 5 8 3 9 4 10 6 11 2 13 1 14
REMARK SMILES IDX 13 16 22 17 14 18 20 19 15 20 18 21 23 22 21 24 16 26 17 27
REMARK SMILES IDX 19 29
REMARK H PARENT 6 12 1 15 23 23 21 25 17 28 19 30
REMARK Flexibility Score: inf
ROOT
ATOM      1  O   UNL     1      16.215 -24.868  31.382  1.00  0.00    -0.310 OA
ENDROOT
BRANCH   1   2
ATOM      2  C   UNL     1      16.173 -24.107  32.580  1.00  0.00     0.316 C 
ATOM      3  C   UNL     1      13.684 -24.455  34.050  1.00  0.00     0.018 C 
ATOM      4  C   UNL     1      13.785 -23.578  33.064  1.00  0.00     0.186 C 
ATOM      5  C   UNL     1      14.907 -25.024  34.701  1.00  0.00     0.061 C 
ATOM      6  O   UNL     1      15.027 -23.254  32.523  1.00  0.00    -0.472 OA
ATOM      7  C   UNL     1      16.157 -25.093  33.792  1.00  0.00     0.096 C 
ATOM      8  C   UNL     1      15.351 -24.199  35.927  1.00  0.00     0.145 C 
ATOM      9  C   UNL     1      17.275 -24.797  34.749  1.00  0.00    -0.036 C 
ATOM     10  C   UNL     1      16.839 -24.306  35.904  1.00  0.00     0.007 C 
BRANCH   8  11
ATOM     11  O   UNL     1      14.815 -24.698  37.125  1.00  0.00    -0.388 OA
ATOM     12  H   UNL     1      14.885 -25.692  37.106  1.00  0.00     0.211 HD
ENDBRANCH   8  11
BRANCH   9  13
ATOM     13  C   UNL     1      18.721 -25.089  34.471  1.00  0.00     0.187 C 
BRANCH  13  14
ATOM     14  O   UNL     1      18.888 -25.463  33.130  1.00  0.00    -0.392 OA
ATOM     15  H   UNL     1      18.709 -26.441  33.096  1.00  0.00     0.211 HD
ENDBRANCH  13  14
ENDBRANCH   9  13
ENDBRANCH   1   2
BRANCH   1  16
ATOM     16  C   UNL     1      16.120 -24.068  30.209  1.00  0.00     0.286 C 
ATOM     17  C   UNL     1      17.510 -23.525  29.819  1.00  0.00     0.202 C 
ATOM     18  O   UNL     1      15.534 -24.807  29.148  1.00  0.00    -0.341 OA
ATOM     19  C   UNL     1      18.424 -24.650  29.300  1.00  0.00     0.179 C 
ATOM     20  C   UNL     1      16.316 -25.935  28.790  1.00  0.00     0.178 C 
ATOM     21  C   UNL     1      17.687 -25.487  28.236  1.00  0.00     0.177 C 
BRANCH  17  22
ATOM     22  O   UNL     1      17.356 -22.538  28.830  1.00  0.00    -0.385 OA
ATOM     23  H   UNL     1      17.629 -22.947  27.965  1.00  0.00     0.211 HD
ENDBRANCH  17  22
BRANCH  19  24
ATOM     24  O   UNL     1      18.826 -25.461  30.378  1.00  0.00    -0.387 OA
ATOM     25  H   UNL     1      18.066 -25.493  31.015  1.00  0.00     0.211 HD
ENDBRANCH  19  24
BRANCH  20  26
ATOM     26  C   UNL     1      15.534 -26.757  27.751  1.00  0.00     0.191 C 
BRANCH  26  27
ATOM     27  O   UNL     1      15.969 -28.092  27.753  1.00  0.00    -0.394 OA
ATOM     28  H   UNL     1      16.399 -28.237  28.637  1.00  0.00     0.210 HD
ENDBRANCH  26  27
ENDBRANCH  20  26
BRANCH  21  29
ATOM     29  O   UNL     1      18.455 -26.610  27.883  1.00  0.00    -0.387 OA
ATOM     30  H   UNL     1      18.231 -26.837  26.943  1.00  0.00     0.211 HD
ENDBRANCH  21  29
ENDBRANCH   1  16
TORSDOF 10
ENDMDL
