MODEL 1
REMARK VINA RESULT:     4.772      0.000      0.000
REMARK INTER + INTRA:           7.273
REMARK INTER:                   8.677
REMARK INTRA:                  -1.405
REMARK UNBOUND:                -1.405
REMARK SMILES CCCCCCCCCCCCCCCC(=O)[O-]
REMARK SMILES IDX 9 1 10 2 11 3 12 4 13 5 14 6 15 7 16 8 17 9 18 10 8 11 7 12
REMARK SMILES IDX 6 13 5 14 4 15 3 16 2 17 1 18
REMARK H PARENT
REMARK Flexibility Score: inf
ROOT
ATOM      1  C   UNL     1      10.372  16.056   0.698  1.00  0.00     0.000 C 
ENDROOT
BRANCH   1   2
ATOM      2  C   UNL     1       8.953  16.571   0.983  1.00  0.00     0.000 C 
BRANCH   2   3
ATOM      3  C   UNL     1       8.288  15.754   2.101  1.00  0.00     0.000 C 
BRANCH   3   4
ATOM      4  C   UNL     1       8.331  14.240   1.837  1.00  0.00     0.000 C 
BRANCH   4   5
ATOM      5  C   UNL     1       6.984  13.554   2.122  1.00  0.00     0.000 C 
BRANCH   5   6
ATOM      6  C   UNL     1       5.800  14.235   1.412  1.00  0.00     0.006 C 
BRANCH   6   7
ATOM      7  C   UNL     1       4.911  13.269   0.609  1.00  0.00     0.053 C 
BRANCH   7   8
ATOM      8  C   UNL     1       3.534  13.809   0.371  1.00  0.00     0.041 C 
ATOM      9  O   UNL     1       2.961  13.625  -0.736  1.00  0.00    -0.550 OA
ATOM     10  O   UNL     1       2.893  14.541   1.362  1.00  0.00    -0.550 OA
ENDBRANCH   7   8
ENDBRANCH   6   7
ENDBRANCH   5   6
ENDBRANCH   4   5
ENDBRANCH   3   4
ENDBRANCH   2   3
ENDBRANCH   1   2
BRANCH   1  11
ATOM     11  C   UNL     1      11.458  16.881   1.407  1.00  0.00     0.000 C 
BRANCH  11  12
ATOM     12  C   UNL     1      12.502  16.001   2.114  1.00  0.00    -0.000 C 
BRANCH  12  13
ATOM     13  C   UNL     1      12.118  14.512   2.125  1.00  0.00    -0.000 C 
BRANCH  13  14
ATOM     14  C   UNL     1      12.965  13.647   1.166  1.00  0.00    -0.000 C 
BRANCH  14  15
ATOM     15  C   UNL     1      12.098  12.923   0.120  1.00  0.00    -0.000 C 
BRANCH  15  16
ATOM     16  C   UNL     1      12.047  13.667  -1.223  1.00  0.00    -0.000 C 
BRANCH  16  17
ATOM     17  C   UNL     1      10.812  13.297  -2.057  1.00  0.00    -0.003 C 
ATOM     18  C   UNL     1       9.543  13.344  -1.210  1.00  0.00     0.004 C 
ENDBRANCH  16  17
ENDBRANCH  15  16
ENDBRANCH  14  15
ENDBRANCH  13  14
ENDBRANCH  12  13
ENDBRANCH  11  12
ENDBRANCH   1  11
TORSDOF 14
ENDMDL
MODEL 2
REMARK VINA RESULT:     6.111     12.716     15.778
REMARK INTER + INTRA:           9.708
REMARK INTER:                  10.725
REMARK INTRA:                  -1.017
REMARK UNBOUND:                -1.405
REMARK SMILES CCCCCCCCCCCCCCCC(=O)[O-]
REMARK SMILES IDX 9 1 10 2 11 3 12 4 13 5 14 6 15 7 16 8 17 9 18 10 8 11 7 12
REMARK SMILES IDX 6 13 5 14 4 15 3 16 2 17 1 18
REMARK H PARENT
REMARK Flexibility Score: inf
ROOT
ATOM      1  C   UNL     1      15.749  14.814 -12.805  1.00  0.00     0.000 C 
ENDROOT
BRANCH   1   2
ATOM      2  C   UNL     1      17.160  14.306 -13.139  1.00  0.00     0.000 C 
BRANCH   2   3
ATOM      3  C   UNL     1      18.146  15.477 -13.267  1.00  0.00     0.000 C 
BRANCH   3   4
ATOM      4  C   UNL     1      17.606  16.780 -12.654  1.00  0.00     0.000 C 
BRANCH   4   5
ATOM      5  C   UNL     1      18.538  17.355 -11.574  1.00  0.00     0.000 C 
BRANCH   5   6
ATOM      6  C   UNL     1      18.299  18.852 -11.308  1.00  0.00     0.006 C 
BRANCH   6   7
ATOM      7  C   UNL     1      18.577  19.757 -12.521  1.00  0.00     0.053 C 
BRANCH   7   8
ATOM      8  C   UNL     1      19.663  20.757 -12.263  1.00  0.00     0.041 C 
ATOM      9  O   UNL     1      19.376  21.964 -12.047  1.00  0.00    -0.550 OA
ATOM     10  O   UNL     1      20.994  20.361 -12.289  1.00  0.00    -0.550 OA
ENDBRANCH   7   8
ENDBRANCH   6   7
ENDBRANCH   5   6
ENDBRANCH   4   5
ENDBRANCH   3   4
ENDBRANCH   2   3
ENDBRANCH   1   2
BRANCH   1  11
ATOM     11  C   UNL     1      15.150  14.132 -11.564  1.00  0.00     0.000 C 
BRANCH  11  12
ATOM     12  C   UNL     1      14.557  15.139 -10.565  1.00  0.00    -0.000 C 
BRANCH  12  13
ATOM     13  C   UNL     1      15.607  15.705  -9.595  1.00  0.00    -0.000 C 
BRANCH  13  14
ATOM     14  C   UNL     1      15.281  15.444  -8.108  1.00  0.00    -0.000 C 
BRANCH  14  15
ATOM     15  C   UNL     1      14.063  16.255  -7.632  1.00  0.00    -0.000 C 
BRANCH  15  16
ATOM     16  C   UNL     1      14.403  17.214  -6.481  1.00  0.00    -0.000 C 
BRANCH  16  17
ATOM     17  C   UNL     1      13.153  17.800  -5.809  1.00  0.00    -0.003 C 
ATOM     18  C   UNL     1      11.977  16.831  -5.897  1.00  0.00     0.004 C 
ENDBRANCH  16  17
ENDBRANCH  15  16
ENDBRANCH  14  15
ENDBRANCH  13  14
ENDBRANCH  12  13
ENDBRANCH  11  12
ENDBRANCH   1  11
TORSDOF 14
ENDMDL
MODEL 3
REMARK VINA RESULT:     6.414     11.718     14.340
REMARK INTER + INTRA:          10.259
REMARK INTER:                  11.249
REMARK INTRA:                  -0.991
REMARK UNBOUND:                -1.405
REMARK SMILES CCCCCCCCCCCCCCCC(=O)[O-]
REMARK SMILES IDX 9 1 10 2 11 3 12 4 13 5 14 6 15 7 16 8 17 9 18 10 8 11 7 12
REMARK SMILES IDX 6 13 5 14 4 15 3 16 2 17 1 18
REMARK H PARENT
REMARK Flexibility Score: inf
ROOT
ATOM      1  C   UNL     1      15.966  15.156 -12.721  1.00  0.00     0.000 C 
ENDROOT
BRANCH   1   2
ATOM      2  C   UNL     1      15.215  14.241 -11.741  1.00  0.00     0.000 C 
BRANCH   2   3
ATOM      3  C   UNL     1      14.509  15.066 -10.654  1.00  0.00     0.000 C 
BRANCH   3   4
ATOM      4  C   UNL     1      15.494  15.810  -9.738  1.00  0.00     0.000 C 
BRANCH   4   5
ATOM      5  C   UNL     1      15.413  15.336  -8.277  1.00  0.00     0.000 C 
BRANCH   5   6
ATOM      6  C   UNL     1      14.166  15.861  -7.543  1.00  0.00     0.006 C 
BRANCH   6   7
ATOM      7  C   UNL     1      14.466  16.940  -6.488  1.00  0.00     0.053 C 
BRANCH   7   8
ATOM      8  C   UNL     1      13.230  17.624  -5.988  1.00  0.00     0.041 C 
ATOM      9  O   UNL     1      13.120  18.876  -6.071  1.00  0.00    -0.550 OA
ATOM     10  O   UNL     1      12.212  16.881  -5.403  1.00  0.00    -0.550 OA
ENDBRANCH   7   8
ENDBRANCH   6   7
ENDBRANCH   5   6
ENDBRANCH   4   5
ENDBRANCH   3   4
ENDBRANCH   2   3
ENDBRANCH   1   2
BRANCH   1  11
ATOM     11  C   UNL     1      17.306  14.560 -13.181  1.00  0.00     0.000 C 
BRANCH  11  12
ATOM     12  C   UNL     1      18.414  15.620 -13.301  1.00  0.00    -0.000 C 
BRANCH  12  13
ATOM     13  C   UNL     1      17.941  17.026 -12.894  1.00  0.00    -0.000 C 
BRANCH  13  14
ATOM     14  C   UNL     1      18.688  17.600 -11.670  1.00  0.00    -0.000 C 
BRANCH  14  15
ATOM     15  C   UNL     1      18.265  19.048 -11.362  1.00  0.00    -0.000 C 
BRANCH  15  16
ATOM     16  C   UNL     1      18.255  19.940 -12.612  1.00  0.00    -0.000 C 
BRANCH  16  17
ATOM     17  C   UNL     1      19.169  21.166 -12.472  1.00  0.00    -0.003 C 
ATOM     18  C   UNL     1      20.606  20.747 -12.172  1.00  0.00     0.004 C 
ENDBRANCH  16  17
ENDBRANCH  15  16
ENDBRANCH  14  15
ENDBRANCH  13  14
ENDBRANCH  12  13
ENDBRANCH  11  12
ENDBRANCH   1  11
TORSDOF 14
ENDMDL
MODEL 4
REMARK VINA RESULT:     7.018      5.217      7.757
REMARK INTER + INTRA:          11.357
REMARK INTER:                  10.653
REMARK INTRA:                   0.704
REMARK UNBOUND:                -1.405
REMARK SMILES CCCCCCCCCCCCCCCC(=O)[O-]
REMARK SMILES IDX 9 1 10 2 11 3 12 4 13 5 14 6 15 7 16 8 17 9 18 10 8 11 7 12
REMARK SMILES IDX 6 13 5 14 4 15 3 16 2 17 1 18
REMARK H PARENT
REMARK Flexibility Score: inf
ROOT
ATOM      1  C   UNL     1      10.589  13.662  -0.630  1.00  0.00     0.000 C 
ENDROOT
BRANCH   1   2
ATOM      2  C   UNL     1      10.309  14.116  -2.070  1.00  0.00     0.000 C 
BRANCH   2   3
ATOM      3  C   UNL     1      11.489  13.771  -2.992  1.00  0.00     0.000 C 
BRANCH   3   4
ATOM      4  C   UNL     1      11.120  13.843  -4.483  1.00  0.00     0.000 C 
BRANCH   4   5
ATOM      5  C   UNL     1      10.827  15.279  -4.949  1.00  0.00     0.000 C 
BRANCH   5   6
ATOM      6  C   UNL     1      11.805  15.772  -6.031  1.00  0.00     0.006 C 
BRANCH   6   7
ATOM      7  C   UNL     1      12.434  17.143  -5.729  1.00  0.00     0.053 C 
BRANCH   7   8
ATOM      8  C   UNL     1      13.795  17.304  -6.335  1.00  0.00     0.041 C 
ATOM      9  O   UNL     1      14.488  18.325  -6.080  1.00  0.00    -0.550 OA
ATOM     10  O   UNL     1      14.289  16.339  -7.204  1.00  0.00    -0.550 OA
ENDBRANCH   7   8
ENDBRANCH   6   7
ENDBRANCH   5   6
ENDBRANCH   4   5
ENDBRANCH   3   4
ENDBRANCH   2   3
ENDBRANCH   1   2
BRANCH   1  11
ATOM     11  C   UNL     1      11.991  13.055  -0.460  1.00  0.00     0.000 C 
BRANCH  11  12
ATOM     12  C   UNL     1      12.497  13.132   0.990  1.00  0.00    -0.000 C 
BRANCH  12  13
ATOM     13  C   UNL     1      11.549  13.917   1.912  1.00  0.00    -0.000 C 
BRANCH  13  14
ATOM     14  C   UNL     1      10.914  15.153   1.238  1.00  0.00    -0.000 C 
BRANCH  14  15
ATOM     15  C   UNL     1       9.832  15.801   2.121  1.00  0.00    -0.000 C 
BRANCH  15  16
ATOM     16  C   UNL     1       8.480  15.076   2.027  1.00  0.00    -0.000 C 
BRANCH  16  17
ATOM     17  C   UNL     1       7.286  16.036   2.125  1.00  0.00    -0.003 C 
ATOM     18  C   UNL     1       7.701  17.465   1.784  1.00  0.00     0.004 C 
ENDBRANCH  16  17
ENDBRANCH  15  16
ENDBRANCH  14  15
ENDBRANCH  13  14
ENDBRANCH  12  13
ENDBRANCH  11  12
ENDBRANCH   1  11
TORSDOF 14
ENDMDL
