MODEL 1
REMARK VINA RESULT:    -3.622      0.000      0.000
REMARK INTER + INTRA:          -3.622
REMARK INTER:                  -3.622
REMARK INTRA:                   0.000
REMARK UNBOUND:                 0.000
REMARK SMILES O=C1CCCCC1
REMARK SMILES IDX 5 1 4 2 3 3 2 4 1 5 7 6 6 7
REMARK H PARENT
REMARK Flexibility Score: inf
ROOT
ATOM      1  C   UNL     1      17.175  44.074   0.374  1.00  0.00     0.001 C 
ATOM      2  C   UNL     1      18.172  45.144  -0.098  1.00  0.00     0.008 C 
ATOM      3  C   UNL     1      19.616  44.746   0.232  1.00  0.00     0.075 C 
ATOM      4  C   UNL     1      19.734  44.352   1.679  1.00  0.00     0.132 C 
ATOM      5  O   UNL     1      20.682  44.735   2.347  1.00  0.00    -0.300 OA
ATOM      6  C   UNL     1      18.726  43.403   2.266  1.00  0.00     0.075 C 
ATOM      7  C   UNL     1      17.303  43.835   1.886  1.00  0.00     0.008 C 
ENDROOT
TORSDOF 0
ENDMDL
MODEL 2
REMARK VINA RESULT:    -3.610      1.887      2.344
REMARK INTER + INTRA:          -3.610
REMARK INTER:                  -3.610
REMARK INTRA:                   0.000
REMARK UNBOUND:                 0.000
REMARK SMILES O=C1CCCCC1
REMARK SMILES IDX 5 1 4 2 3 3 2 4 1 5 7 6 6 7
REMARK H PARENT
REMARK Flexibility Score: inf
ROOT
ATOM      1  C   UNL     1      17.766  43.623   2.103  1.00  0.00     0.001 C 
ATOM      2  C   UNL     1      19.122  43.886   2.775  1.00  0.00     0.008 C 
ATOM      3  C   UNL     1      20.238  44.054   1.736  1.00  0.00     0.075 C 
ATOM      4  C   UNL     1      20.218  42.912   0.757  1.00  0.00     0.132 C 
ATOM      5  O   UNL     1      21.260  42.380   0.408  1.00  0.00    -0.300 OA
ATOM      6  C   UNL     1      18.911  42.499   0.138  1.00  0.00     0.075 C 
ATOM      7  C   UNL     1      17.828  42.369   1.218  1.00  0.00     0.008 C 
ENDROOT
TORSDOF 0
ENDMDL
MODEL 3
REMARK VINA RESULT:    -3.555      1.908      2.712
REMARK INTER + INTRA:          -3.555
REMARK INTER:                  -3.555
REMARK INTRA:                   0.000
REMARK UNBOUND:                 0.000
REMARK SMILES O=C1CCCCC1
REMARK SMILES IDX 5 1 4 2 3 3 2 4 1 5 7 6 6 7
REMARK H PARENT
REMARK Flexibility Score: inf
ROOT
ATOM      1  C   UNL     1      19.968  44.265   1.889  1.00  0.00     0.001 C 
ATOM      2  C   UNL     1      19.905  44.479   0.369  1.00  0.00     0.008 C 
ATOM      3  C   UNL     1      18.529  44.998  -0.066  1.00  0.00     0.075 C 
ATOM      4  C   UNL     1      17.438  44.135   0.506  1.00  0.00     0.132 C 
ATOM      5  O   UNL     1      16.488  43.802  -0.186  1.00  0.00    -0.300 OA
ATOM      6  C   UNL     1      17.482  43.767   1.963  1.00  0.00     0.075 C 
ATOM      7  C   UNL     1      18.885  43.278   2.348  1.00  0.00     0.008 C 
ENDROOT
TORSDOF 0
ENDMDL
MODEL 4
REMARK VINA RESULT:    -3.547      1.401      2.312
REMARK INTER + INTRA:          -3.547
REMARK INTER:                  -3.547
REMARK INTRA:                   0.000
REMARK UNBOUND:                 0.000
REMARK SMILES O=C1CCCCC1
REMARK SMILES IDX 5 1 4 2 3 3 2 4 1 5 7 6 6 7
REMARK H PARENT
REMARK Flexibility Score: inf
ROOT
ATOM      1  C   UNL     1      18.014  42.722   2.077  1.00  0.00     0.001 C 
ATOM      2  C   UNL     1      17.127  43.890   1.619  1.00  0.00     0.008 C 
ATOM      3  C   UNL     1      17.534  44.388   0.226  1.00  0.00     0.075 C 
ATOM      4  C   UNL     1      19.015  44.648   0.174  1.00  0.00     0.132 C 
ATOM      5  O   UNL     1      19.447  45.651  -0.372  1.00  0.00    -0.300 OA
ATOM      6  C   UNL     1      19.961  43.611   0.716  1.00  0.00     0.075 C 
ATOM      7  C   UNL     1      19.494  43.133   2.097  1.00  0.00     0.008 C 
ENDROOT
TORSDOF 0
ENDMDL
MODEL 5
REMARK VINA RESULT:    -3.544      1.590      2.856
REMARK INTER + INTRA:          -3.544
REMARK INTER:                  -3.544
REMARK INTRA:                   0.000
REMARK UNBOUND:                 0.000
REMARK SMILES O=C1CCCCC1
REMARK SMILES IDX 5 1 4 2 3 3 2 4 1 5 7 6 6 7
REMARK H PARENT
REMARK Flexibility Score: inf
ROOT
ATOM      1  C   UNL     1      19.087  43.116   2.196  1.00  0.00     0.001 C 
ATOM      2  C   UNL     1      17.630  43.573   2.032  1.00  0.00     0.008 C 
ATOM      3  C   UNL     1      17.331  43.979   0.583  1.00  0.00     0.075 C 
ATOM      4  C   UNL     1      18.368  44.949   0.086  1.00  0.00     0.132 C 
ATOM      5  O   UNL     1      18.035  45.929  -0.562  1.00  0.00    -0.300 OA
ATOM      6  C   UNL     1      19.823  44.647   0.312  1.00  0.00     0.075 C 
ATOM      7  C   UNL     1      20.060  44.225   1.768  1.00  0.00     0.008 C 
ENDROOT
TORSDOF 0
ENDMDL
MODEL 6
REMARK VINA RESULT:    -3.494      1.783      3.093
REMARK INTER + INTRA:          -3.494
REMARK INTER:                  -3.494
REMARK INTRA:                   0.000
REMARK UNBOUND:                 0.000
REMARK SMILES O=C1CCCCC1
REMARK SMILES IDX 5 1 4 2 3 3 2 4 1 5 7 6 6 7
REMARK H PARENT
REMARK Flexibility Score: inf
ROOT
ATOM      1  C   UNL     1      20.221  43.689   0.596  1.00  0.00     0.001 C 
ATOM      2  C   UNL     1      19.829  43.237   2.011  1.00  0.00     0.008 C 
ATOM      3  C   UNL     1      18.345  42.857   2.085  1.00  0.00     0.075 C 
ATOM      4  C   UNL     1      17.494  43.952   1.502  1.00  0.00     0.132 C 
ATOM      5  O   UNL     1      16.466  44.299   2.062  1.00  0.00    -0.300 OA
ATOM      6  C   UNL     1      17.872  44.547   0.173  1.00  0.00     0.075 C 
ATOM      7  C   UNL     1      19.368  44.885   0.147  1.00  0.00     0.008 C 
ENDROOT
TORSDOF 0
ENDMDL
MODEL 7
REMARK VINA RESULT:    -3.397      1.774      2.577
REMARK INTER + INTRA:          -3.397
REMARK INTER:                  -3.397
REMARK INTRA:                   0.000
REMARK UNBOUND:                 0.000
REMARK SMILES O=C1CCCCC1
REMARK SMILES IDX 5 1 4 2 3 3 2 4 1 5 7 6 6 7
REMARK H PARENT
REMARK Flexibility Score: inf
ROOT
ATOM      1  C   UNL     1      19.508  44.954   0.249  1.00  0.00     0.001 C 
ATOM      2  C   UNL     1      18.018  44.686  -0.011  1.00  0.00     0.008 C 
ATOM      3  C   UNL     1      17.326  44.122   1.237  1.00  0.00     0.075 C 
ATOM      4  C   UNL     1      18.102  42.957   1.785  1.00  0.00     0.132 C 
ATOM      5  O   UNL     1      17.521  41.949   2.159  1.00  0.00    -0.300 OA
ATOM      6  C   UNL     1      19.591  43.082   1.958  1.00  0.00     0.075 C 
ATOM      7  C   UNL     1      20.227  43.672   0.692  1.00  0.00     0.008 C 
ENDROOT
TORSDOF 0
ENDMDL
MODEL 8
REMARK VINA RESULT:    -3.370      2.372      3.041
REMARK INTER + INTRA:          -3.370
REMARK INTER:                  -3.370
REMARK INTRA:                   0.000
REMARK UNBOUND:                 0.000
REMARK SMILES O=C1CCCCC1
REMARK SMILES IDX 5 1 4 2 3 3 2 4 1 5 7 6 6 7
REMARK H PARENT
REMARK Flexibility Score: inf
ROOT
ATOM      1  C   UNL     1      20.254  44.087   1.732  1.00  0.00     0.001 C 
ATOM      2  C   UNL     1      20.437  42.824   0.877  1.00  0.00     0.008 C 
ATOM      3  C   UNL     1      19.149  42.466   0.125  1.00  0.00     0.075 C 
ATOM      4  C   UNL     1      17.980  42.437   1.071  1.00  0.00     0.132 C 
ATOM      5  O   UNL     1      17.153  41.540   1.004  1.00  0.00    -0.300 OA
ATOM      6  C   UNL     1      17.788  43.575   2.036  1.00  0.00     0.075 C 
ATOM      7  C   UNL     1      19.110  43.904   2.741  1.00  0.00     0.008 C 
ENDROOT
TORSDOF 0
ENDMDL
MODEL 9
REMARK VINA RESULT:    -3.344      2.323      3.192
REMARK INTER + INTRA:          -3.344
REMARK INTER:                  -3.344
REMARK INTRA:                   0.000
REMARK UNBOUND:                 0.000
REMARK SMILES O=C1CCCCC1
REMARK SMILES IDX 5 1 4 2 3 3 2 4 1 5 7 6 6 7
REMARK H PARENT
REMARK Flexibility Score: inf
ROOT
ATOM      1  C   UNL     1      19.096  43.914   2.648  1.00  0.00     0.001 C 
ATOM      2  C   UNL     1      17.643  43.686   2.206  1.00  0.00     0.008 C 
ATOM      3  C   UNL     1      17.506  42.406   1.371  1.00  0.00     0.075 C 
ATOM      4  C   UNL     1      18.523  42.391   0.264  1.00  0.00     0.132 C 
ATOM      5  O   UNL     1      18.206  42.037  -0.861  1.00  0.00    -0.300 OA
ATOM      6  C   UNL     1      19.956  42.725   0.579  1.00  0.00     0.075 C 
ATOM      7  C   UNL     1      20.032  43.997   1.433  1.00  0.00     0.008 C 
ENDROOT
TORSDOF 0
ENDMDL
