MODEL 1
REMARK VINA RESULT:    -3.253      0.000      0.000
REMARK INTER + INTRA:          -4.441
REMARK INTER:                  -4.203
REMARK INTRA:                  -0.237
REMARK UNBOUND:                -0.237
REMARK SMILES CCCCCCC(=O)[O-]
REMARK SMILES IDX 5 1 6 2 7 3 8 4 9 5 4 6 3 7 2 8 1 9
REMARK H PARENT
REMARK Flexibility Score: inf
ROOT
ATOM      1  C   UNL     1      29.608   9.301  28.884  1.00  0.00     0.006 C 
ENDROOT
BRANCH   1   2
ATOM      2  C   UNL     1      29.817  10.818  28.868  1.00  0.00     0.053 C 
BRANCH   2   3
ATOM      3  C   UNL     1      30.492  11.269  30.124  1.00  0.00     0.041 C 
ATOM      4  O   UNL     1      31.122  10.444  30.837  1.00  0.00    -0.550 OA
ATOM      5  O   UNL     1      30.467  12.612  30.483  1.00  0.00    -0.550 OA
ENDBRANCH   2   3
ENDBRANCH   1   2
BRANCH   1   6
ATOM      6  C   UNL     1      29.743   8.712  27.472  1.00  0.00     0.000 C 
BRANCH   6   7
ATOM      7  C   UNL     1      29.865   9.792  26.382  1.00  0.00    -0.000 C 
BRANCH   7   8
ATOM      8  C   UNL     1      31.225   9.832  25.661  1.00  0.00    -0.003 C 
ATOM      9  C   UNL     1      31.936  11.177  25.802  1.00  0.00     0.004 C 
ENDBRANCH   7   8
ENDBRANCH   6   7
ENDBRANCH   1   6
TORSDOF 5
ENDMDL
MODEL 2
REMARK VINA RESULT:    -3.175     16.683     17.712
REMARK INTER + INTRA:          -4.340
REMARK INTER:                  -4.097
REMARK INTRA:                  -0.243
REMARK UNBOUND:                -0.237
REMARK SMILES CCCCCCC(=O)[O-]
REMARK SMILES IDX 5 1 6 2 7 3 8 4 9 5 4 6 3 7 2 8 1 9
REMARK H PARENT
REMARK Flexibility Score: inf
ROOT
ATOM      1  C   UNL     1      17.691  14.630  15.558  1.00  0.00     0.006 C 
ENDROOT
BRANCH   1   2
ATOM      2  C   UNL     1      16.974  15.680  16.412  1.00  0.00     0.053 C 
BRANCH   2   3
ATOM      3  C   UNL     1      17.521  17.044  16.134  1.00  0.00     0.041 C 
ATOM      4  O   UNL     1      17.774  17.832  17.084  1.00  0.00    -0.550 OA
ATOM      5  O   UNL     1      17.800  17.428  14.828  1.00  0.00    -0.550 OA
ENDBRANCH   2   3
ENDBRANCH   1   2
BRANCH   1   6
ATOM      6  C   UNL     1      19.136  14.425  16.037  1.00  0.00     0.000 C 
BRANCH   6   7
ATOM      7  C   UNL     1      19.426  12.975  16.464  1.00  0.00    -0.000 C 
BRANCH   7   8
ATOM      8  C   UNL     1      20.233  12.833  17.768  1.00  0.00    -0.003 C 
ATOM      9  C   UNL     1      20.164  14.079  18.651  1.00  0.00     0.004 C 
ENDBRANCH   7   8
ENDBRANCH   6   7
ENDBRANCH   1   6
TORSDOF 5
ENDMDL
MODEL 3
REMARK VINA RESULT:    -3.169     16.600     17.629
REMARK INTER + INTRA:          -4.332
REMARK INTER:                  -4.133
REMARK INTRA:                  -0.199
REMARK UNBOUND:                -0.237
REMARK SMILES CCCCCCC(=O)[O-]
REMARK SMILES IDX 5 1 6 2 7 3 8 4 9 5 4 6 3 7 2 8 1 9
REMARK H PARENT
REMARK Flexibility Score: inf
ROOT
ATOM      1  C   UNL     1      17.730  14.588  15.604  1.00  0.00     0.006 C 
ENDROOT
BRANCH   1   2
ATOM      2  C   UNL     1      16.850  15.646  16.274  1.00  0.00     0.053 C 
BRANCH   2   3
ATOM      3  C   UNL     1      17.478  16.999  16.162  1.00  0.00     0.041 C 
ATOM      4  O   UNL     1      17.753  17.479  15.031  1.00  0.00    -0.550 OA
ATOM      5  O   UNL     1      17.714  17.752  17.306  1.00  0.00    -0.550 OA
ENDBRANCH   2   3
ENDBRANCH   1   2
BRANCH   1   6
ATOM      6  C   UNL     1      19.047  14.402  16.371  1.00  0.00     0.000 C 
BRANCH   6   7
ATOM      7  C   UNL     1      19.472  12.927  16.484  1.00  0.00    -0.000 C 
BRANCH   7   8
ATOM      8  C   UNL     1      20.359  12.601  17.701  1.00  0.00    -0.003 C 
ATOM      9  C   UNL     1      20.467  13.761  18.689  1.00  0.00     0.004 C 
ENDBRANCH   7   8
ENDBRANCH   6   7
ENDBRANCH   1   6
TORSDOF 5
ENDMDL
MODEL 4
REMARK VINA RESULT:    -3.157     16.056     17.106
REMARK INTER + INTRA:          -4.316
REMARK INTER:                  -3.979
REMARK INTRA:                  -0.337
REMARK UNBOUND:                -0.237
REMARK SMILES CCCCCCC(=O)[O-]
REMARK SMILES IDX 5 1 6 2 7 3 8 4 9 5 4 6 3 7 2 8 1 9
REMARK H PARENT
REMARK Flexibility Score: inf
ROOT
ATOM      1  C   UNL     1      19.127  14.621  15.732  1.00  0.00     0.006 C 
ENDROOT
BRANCH   1   2
ATOM      2  C   UNL     1      19.222  13.184  16.252  1.00  0.00     0.053 C 
BRANCH   2   3
ATOM      3  C   UNL     1      19.972  13.142  17.546  1.00  0.00     0.041 C 
ATOM      4  O   UNL     1      19.968  14.139  18.314  1.00  0.00    -0.550 OA
ATOM      5  O   UNL     1      20.635  11.981  17.926  1.00  0.00    -0.550 OA
ENDBRANCH   2   3
ENDBRANCH   1   2
BRANCH   1   6
ATOM      6  C   UNL     1      17.683  14.971  15.345  1.00  0.00     0.000 C 
BRANCH   6   7
ATOM      7  C   UNL     1      16.906  15.658  16.483  1.00  0.00    -0.000 C 
BRANCH   7   8
ATOM      8  C   UNL     1      17.646  16.830  17.154  1.00  0.00    -0.003 C 
ATOM      9  C   UNL     1      17.648  16.740  18.680  1.00  0.00     0.004 C 
ENDBRANCH   7   8
ENDBRANCH   6   7
ENDBRANCH   1   6
TORSDOF 5
ENDMDL
MODEL 5
REMARK VINA RESULT:    -3.030     16.354     17.299
REMARK INTER + INTRA:          -4.153
REMARK INTER:                  -3.786
REMARK INTRA:                  -0.367
REMARK UNBOUND:                -0.237
REMARK SMILES CCCCCCC(=O)[O-]
REMARK SMILES IDX 5 1 6 2 7 3 8 4 9 5 4 6 3 7 2 8 1 9
REMARK H PARENT
REMARK Flexibility Score: inf
ROOT
ATOM      1  C   UNL     1      16.916  15.648  16.512  1.00  0.00     0.006 C 
ENDROOT
BRANCH   1   2
ATOM      2  C   UNL     1      17.559  16.873  17.168  1.00  0.00     0.053 C 
BRANCH   2   3
ATOM      3  C   UNL     1      18.144  16.511  18.496  1.00  0.00     0.041 C 
ATOM      4  O   UNL     1      19.388  16.361  18.622  1.00  0.00    -0.550 OA
ATOM      5  O   UNL     1      17.319  16.389  19.608  1.00  0.00    -0.550 OA
ENDBRANCH   2   3
ENDBRANCH   1   2
BRANCH   1   6
ATOM      6  C   UNL     1      17.618  15.300  15.191  1.00  0.00     0.000 C 
BRANCH   6   7
ATOM      7  C   UNL     1      19.021  14.700  15.398  1.00  0.00    -0.000 C 
BRANCH   7   8
ATOM      8  C   UNL     1      19.043  13.349  16.137  1.00  0.00    -0.003 C 
ATOM      9  C   UNL     1      20.135  13.270  17.204  1.00  0.00     0.004 C 
ENDBRANCH   7   8
ENDBRANCH   6   7
ENDBRANCH   1   6
TORSDOF 5
ENDMDL
MODEL 6
REMARK VINA RESULT:    -3.026     16.183     17.251
REMARK INTER + INTRA:          -4.148
REMARK INTER:                  -3.837
REMARK INTRA:                  -0.312
REMARK UNBOUND:                -0.237
REMARK SMILES CCCCCCC(=O)[O-]
REMARK SMILES IDX 5 1 6 2 7 3 8 4 9 5 4 6 3 7 2 8 1 9
REMARK H PARENT
REMARK Flexibility Score: inf
ROOT
ATOM      1  C   UNL     1      19.083  14.419  15.668  1.00  0.00     0.006 C 
ENDROOT
BRANCH   1   2
ATOM      2  C   UNL     1      17.608  14.832  15.692  1.00  0.00     0.053 C 
BRANCH   2   3
ATOM      3  C   UNL     1      17.450  16.177  16.327  1.00  0.00     0.041 C 
ATOM      4  O   UNL     1      17.364  17.210  15.613  1.00  0.00    -0.550 OA
ATOM      5  O   UNL     1      17.347  16.283  17.709  1.00  0.00    -0.550 OA
ENDBRANCH   2   3
ENDBRANCH   1   2
BRANCH   1   6
ATOM      6  C   UNL     1      19.272  13.020  16.273  1.00  0.00     0.000 C 
BRANCH   6   7
ATOM      7  C   UNL     1      20.054  13.041  17.599  1.00  0.00    -0.000 C 
BRANCH   7   8
ATOM      8  C   UNL     1      20.300  14.445  18.182  1.00  0.00    -0.003 C 
ATOM      9  C   UNL     1      19.914  14.556  19.656  1.00  0.00     0.004 C 
ENDBRANCH   7   8
ENDBRANCH   6   7
ENDBRANCH   1   6
TORSDOF 5
ENDMDL
MODEL 7
REMARK VINA RESULT:    -2.991     16.815     17.846
REMARK INTER + INTRA:          -4.102
REMARK INTER:                  -3.699
REMARK INTRA:                  -0.403
REMARK UNBOUND:                -0.237
REMARK SMILES CCCCCCC(=O)[O-]
REMARK SMILES IDX 5 1 6 2 7 3 8 4 9 5 4 6 3 7 2 8 1 9
REMARK H PARENT
REMARK Flexibility Score: inf
ROOT
ATOM      1  C   UNL     1      16.938  15.644  16.315  1.00  0.00     0.006 C 
ENDROOT
BRANCH   1   2
ATOM      2  C   UNL     1      17.750  14.888  15.259  1.00  0.00     0.053 C 
BRANCH   2   3
ATOM      3  C   UNL     1      18.965  14.269  15.874  1.00  0.00     0.041 C 
ATOM      4  O   UNL     1      18.941  13.071  16.259  1.00  0.00    -0.550 OA
ATOM      5  O   UNL     1      20.141  15.003  15.977  1.00  0.00    -0.550 OA
ENDBRANCH   2   3
ENDBRANCH   1   2
BRANCH   1   6
ATOM      6  C   UNL     1      17.388  17.109  16.408  1.00  0.00     0.000 C 
BRANCH   6   7
ATOM      7  C   UNL     1      17.767  17.530  17.839  1.00  0.00    -0.000 C 
BRANCH   7   8
ATOM      8  C   UNL     1      17.734  16.394  18.877  1.00  0.00    -0.003 C 
ATOM      9  C   UNL     1      19.128  15.913  19.281  1.00  0.00     0.004 C 
ENDBRANCH   7   8
ENDBRANCH   6   7
ENDBRANCH   1   6
TORSDOF 5
ENDMDL
MODEL 8
REMARK VINA RESULT:    -2.959     16.991     17.994
REMARK INTER + INTRA:          -4.060
REMARK INTER:                  -3.728
REMARK INTRA:                  -0.333
REMARK UNBOUND:                -0.237
REMARK SMILES CCCCCCC(=O)[O-]
REMARK SMILES IDX 5 1 6 2 7 3 8 4 9 5 4 6 3 7 2 8 1 9
REMARK H PARENT
REMARK Flexibility Score: inf
ROOT
ATOM      1  C   UNL     1      17.898  17.252  16.850  1.00  0.00     0.006 C 
ENDROOT
BRANCH   1   2
ATOM      2  C   UNL     1      16.951  16.093  16.527  1.00  0.00     0.053 C 
BRANCH   2   3
ATOM      3  C   UNL     1      17.561  15.187  15.504  1.00  0.00     0.041 C 
ATOM      4  O   UNL     1      18.059  14.084  15.851  1.00  0.00    -0.550 OA
ATOM      5  O   UNL     1      17.532  15.539  14.160  1.00  0.00    -0.550 OA
ENDBRANCH   2   3
ENDBRANCH   1   2
BRANCH   1   6
ATOM      6  C   UNL     1      17.889  17.567  18.353  1.00  0.00     0.000 C 
BRANCH   6   7
ATOM      7  C   UNL     1      17.599  16.330  19.223  1.00  0.00    -0.000 C 
BRANCH   7   8
ATOM      8  C   UNL     1      18.820  15.768  19.974  1.00  0.00    -0.003 C 
ATOM      9  C   UNL     1      19.721  14.906  19.091  1.00  0.00     0.004 C 
ENDBRANCH   7   8
ENDBRANCH   6   7
ENDBRANCH   1   6
TORSDOF 5
ENDMDL
MODEL 9
REMARK VINA RESULT:    -2.920      2.026      3.491
REMARK INTER + INTRA:          -4.011
REMARK INTER:                  -3.857
REMARK INTRA:                  -0.154
REMARK UNBOUND:                -0.237
REMARK SMILES CCCCCCC(=O)[O-]
REMARK SMILES IDX 5 1 6 2 7 3 8 4 9 5 4 6 3 7 2 8 1 9
REMARK H PARENT
REMARK Flexibility Score: inf
ROOT
ATOM      1  C   UNL     1      29.731   9.264  29.011  1.00  0.00     0.006 C 
ENDROOT
BRANCH   1   2
ATOM      2  C   UNL     1      29.777  10.783  28.822  1.00  0.00     0.053 C 
BRANCH   2   3
ATOM      3  C   UNL     1      30.381  11.443  30.020  1.00  0.00     0.041 C 
ATOM      4  O   UNL     1      30.282  12.688  30.176  1.00  0.00    -0.550 OA
ATOM      5  O   UNL     1      31.011  10.675  30.992  1.00  0.00    -0.550 OA
ENDBRANCH   2   3
ENDBRANCH   1   2
BRANCH   1   6
ATOM      6  C   UNL     1      29.030   8.583  27.826  1.00  0.00     0.000 C 
BRANCH   6   7
ATOM      7  C   UNL     1      27.606   8.108  28.165  1.00  0.00    -0.000 C 
BRANCH   7   8
ATOM      8  C   UNL     1      26.505   9.165  27.957  1.00  0.00    -0.003 C 
ATOM      9  C   UNL     1      25.170   8.770  28.588  1.00  0.00     0.004 C 
ENDBRANCH   7   8
ENDBRANCH   6   7
ENDBRANCH   1   6
TORSDOF 5
ENDMDL
