MODEL 1
REMARK VINA RESULT:    -3.899      0.000      0.000
REMARK INTER + INTRA:          -5.116
REMARK INTER:                  -5.266
REMARK INTRA:                   0.150
REMARK UNBOUND:                 0.150
REMARK SMILES C=C(C)[C@@H]1CC[C@@H](C)C2=C(C1)[C@@H](C)CC2
REMARK SMILES IDX 10 1 9 2 15 3 14 4 12 5 13 6 7 7 8 8 6 9 11 11 4 12 5 13
REMARK SMILES IDX 2 15 1 16 3 17
REMARK H PARENT
REMARK Flexibility Score: 80.00
ROOT
ATOM      1  C   UNL     1     135.172 139.045 132.169  1.00  0.00    -0.067 C 
ATOM      2  C   UNL     1     135.476 139.333 133.435  1.00  0.00    -0.068 C 
ATOM      3  C   UNL     1     136.631 140.283 133.514  1.00  0.00     0.032 C 
ATOM      4  C   UNL     1     137.137 140.397 132.075  1.00  0.00     0.012 C 
ATOM      5  C   UNL     1     136.049 139.765 131.195  1.00  0.00     0.012 C 
ATOM      6  C   UNL     1     135.256 140.826 130.424  1.00  0.00     0.012 C 
ENDROOT
BRANCH   2   7
ATOM      7  C   UNL     1     134.721 138.777 134.633  1.00  0.00     0.012 C 
ATOM      8  C   UNL     1     135.167 139.431 135.951  1.00  0.00     0.012 C 
BRANCH   7   9
ATOM      9  C   UNL     1     134.892 137.244 134.717  1.00  0.00     0.008 CG0
ATOM     10  G   UNL     1     133.963 136.481 133.757  1.00  0.00     0.000 G0
ENDBRANCH   7   9
ENDBRANCH   2   7
BRANCH   1  11
ATOM     11  C   UNL     1     134.080 138.094 131.747  1.00  0.00     0.039 C 
BRANCH  11  12
ATOM     12  C   UNL     1     134.343 136.660 132.260  1.00  0.00     0.018 C 
BRANCH  12  13
ATOM     13  C   UNL     1     133.956 136.487 133.746  1.00  0.00     0.009 CG0
ATOM     14  G   UNL     1     134.877 137.240 134.720  1.00  0.00     0.000 G0
ENDBRANCH  12  13
BRANCH  12  15
ATOM     15  C   UNL     1     133.581 135.651 131.409  1.00  0.00    -0.077 C 
ATOM     16  C   UNL     1     132.314 135.895 131.039  1.00  0.00     0.008 C 
ATOM     17  C   UNL     1     134.234 134.368 130.955  1.00  0.00     0.039 C 
ENDBRANCH  12  15
ENDBRANCH  11  12
ENDBRANCH   1  11
TORSDOF 1
ENDMDL
MODEL 2
REMARK VINA RESULT:    -3.894      2.915      4.403
REMARK INTER + INTRA:          -5.110
REMARK INTER:                  -5.247
REMARK INTRA:                   0.137
REMARK UNBOUND:                 0.150
REMARK SMILES C=C(C)[C@@H]1CC[C@@H](C)C2=C(C1)[C@@H](C)CC2
REMARK SMILES IDX 10 1 9 2 15 3 14 4 12 5 13 6 7 7 8 8 6 9 11 11 4 12 5 13
REMARK SMILES IDX 2 15 1 16 3 17
REMARK H PARENT
REMARK Flexibility Score: 80.00
ROOT
ATOM      1  C   UNL     1     134.414 135.335 132.206  1.00  0.00    -0.067 C 
ATOM      2  C   UNL     1     134.405 135.474 133.532  1.00  0.00    -0.068 C 
ATOM      3  C   UNL     1     133.623 136.682 133.946  1.00  0.00     0.032 C 
ATOM      4  C   UNL     1     133.298 137.401 132.636  1.00  0.00     0.012 C 
ATOM      5  C   UNL     1     133.627 136.403 131.516  1.00  0.00     0.012 C 
ATOM      6  C   UNL     1     132.357 135.824 130.881  1.00  0.00     0.012 C 
ENDROOT
BRANCH   2   7
ATOM      7  C   UNL     1     135.088 134.508 134.488  1.00  0.00     0.012 C 
ATOM      8  C   UNL     1     134.747 134.810 135.956  1.00  0.00     0.012 C 
BRANCH   7   9
ATOM      9  C   UNL     1     136.619 134.533 134.283  1.00  0.00     0.008 CG0
ATOM     10  G   UNL     1     137.077 133.705 133.070  1.00  0.00     0.000 G0
ENDBRANCH   7   9
ENDBRANCH   2   7
BRANCH   1  11
ATOM     11  C   UNL     1     135.140 134.238 131.466  1.00  0.00     0.039 C 
BRANCH  11  12
ATOM     12  C   UNL     1     136.664 134.299 131.708  1.00  0.00     0.018 C 
BRANCH  12  13
ATOM     13  C   UNL     1     137.067 133.701 133.075  1.00  0.00     0.009 CG0
ATOM     14  G   UNL     1     136.602 134.536 134.281  1.00  0.00     0.000 G0
ENDBRANCH  12  13
BRANCH  12  15
ATOM     15  C   UNL     1     137.403 133.572 130.591  1.00  0.00    -0.077 C 
ATOM     16  C   UNL     1     138.126 132.473 130.860  1.00  0.00     0.008 C 
ATOM     17  C   UNL     1     137.327 134.058 129.165  1.00  0.00     0.039 C 
ENDBRANCH  12  15
ENDBRANCH  11  12
ENDBRANCH   1  11
TORSDOF 1
ENDMDL
MODEL 3
REMARK VINA RESULT:    -3.857      3.165      4.674
REMARK INTER + INTRA:          -5.060
REMARK INTER:                  -5.223
REMARK INTRA:                   0.163
REMARK UNBOUND:                 0.150
REMARK SMILES C=C(C)[C@@H]1CC[C@@H](C)C2=C(C1)[C@@H](C)CC2
REMARK SMILES IDX 10 1 9 2 15 3 14 4 12 5 13 6 7 7 8 8 6 9 11 11 4 12 5 13
REMARK SMILES IDX 2 15 1 16 3 17
REMARK H PARENT
REMARK Flexibility Score: 80.00
ROOT
ATOM      1  C   UNL     1     139.219 138.394 132.346  1.00  0.00    -0.067 C 
ATOM      2  C   UNL     1     139.436 138.125 133.634  1.00  0.00    -0.068 C 
ATOM      3  C   UNL     1     140.310 136.920 133.798  1.00  0.00     0.032 C 
ATOM      4  C   UNL     1     140.451 136.350 132.386  1.00  0.00     0.012 C 
ATOM      5  C   UNL     1     139.923 137.437 131.438  1.00  0.00     0.012 C 
ATOM      6  C   UNL     1     141.061 138.134 130.684  1.00  0.00     0.012 C 
ENDROOT
BRANCH   2   7
ATOM      7  C   UNL     1     138.879 138.960 134.778  1.00  0.00     0.012 C 
ATOM      8  C   UNL     1     139.447 138.527 136.139  1.00  0.00     0.012 C 
BRANCH   7   9
ATOM      9  C   UNL     1     137.336 138.889 134.799  1.00  0.00     0.008 CG0
ATOM     10  G   UNL     1     136.676 139.819 133.768  1.00  0.00     0.000 G0
ENDBRANCH   7   9
ENDBRANCH   2   7
BRANCH   1  11
ATOM     11  C   UNL     1     138.354 139.523 131.843  1.00  0.00     0.039 C 
BRANCH  11  12
ATOM     12  C   UNL     1     136.888 139.368 132.304  1.00  0.00     0.018 C 
BRANCH  12  13
ATOM     13  C   UNL     1     136.682 139.821 133.768  1.00  0.00     0.009 CG0
ATOM     14  G   UNL     1     137.329 138.887 134.805  1.00  0.00     0.000 G0
ENDBRANCH  12  13
BRANCH  12  15
ATOM     15  C   UNL     1     135.962 140.158 131.387  1.00  0.00    -0.077 C 
ATOM     16  C   UNL     1     136.153 141.473 131.200  1.00  0.00     0.008 C 
ATOM     17  C   UNL     1     134.827 139.480 130.660  1.00  0.00     0.039 C 
ENDBRANCH  12  15
ENDBRANCH  11  12
ENDBRANCH   1  11
TORSDOF 1
ENDMDL
MODEL 4
REMARK VINA RESULT:    -3.819      4.460      6.300
REMARK INTER + INTRA:          -5.009
REMARK INTER:                  -5.141
REMARK INTRA:                   0.133
REMARK UNBOUND:                 0.150
REMARK SMILES C=C(C)[C@@H]1CC[C@@H](C)C2=C(C1)[C@@H](C)CC2
REMARK SMILES IDX 10 1 9 2 15 3 14 4 12 5 13 6 7 7 8 8 6 9 11 11 4 12 5 13
REMARK SMILES IDX 2 15 1 16 3 17
REMARK H PARENT
REMARK Flexibility Score: 80.00
ROOT
ATOM      1  C   UNL     1     138.113 134.292 132.212  1.00  0.00    -0.067 C 
ATOM      2  C   UNL     1     137.817 134.296 133.512  1.00  0.00    -0.068 C 
ATOM      3  C   UNL     1     136.537 133.567 133.780  1.00  0.00     0.032 C 
ATOM      4  C   UNL     1     135.966 133.266 132.394  1.00  0.00     0.012 C 
ATOM      5  C   UNL     1     137.102 133.547 131.400  1.00  0.00     0.012 C 
ATOM      6  C   UNL     1     137.698 132.251 130.838  1.00  0.00     0.012 C 
ENDROOT
BRANCH   2   7
ATOM      7  C   UNL     1     138.692 134.942 134.576  1.00  0.00     0.012 C 
ATOM      8  C   UNL     1     138.205 134.621 135.998  1.00  0.00     0.012 C 
BRANCH   7   9
ATOM      9  C   UNL     1     138.755 136.472 134.369  1.00  0.00     0.008 CG0
ATOM     10  G   UNL     1     139.746 136.891 133.270  1.00  0.00     0.000 G0
ENDBRANCH   7   9
ENDBRANCH   2   7
BRANCH   1  11
ATOM     11  C   UNL     1     139.319 134.968 131.607  1.00  0.00     0.039 C 
BRANCH  11  12
ATOM     12  C   UNL     1     139.290 136.496 131.834  1.00  0.00     0.018 C 
BRANCH  12  13
ATOM     13  C   UNL     1     139.743 136.887 133.259  1.00  0.00     0.009 CG0
ATOM     14  G   UNL     1     138.750 136.482 134.361  1.00  0.00     0.000 G0
ENDBRANCH  12  13
BRANCH  12  15
ATOM     15  C   UNL     1     140.168 137.197 130.805  1.00  0.00    -0.077 C 
ATOM     16  C   UNL     1     141.261 137.872 131.193  1.00  0.00     0.008 C 
ATOM     17  C   UNL     1     139.840 137.135 129.333  1.00  0.00     0.039 C 
ENDBRANCH  12  15
ENDBRANCH  11  12
ENDBRANCH   1  11
TORSDOF 1
ENDMDL
MODEL 5
REMARK VINA RESULT:    -3.669      1.806      5.327
REMARK INTER + INTRA:          -4.805
REMARK INTER:                  -4.960
REMARK INTRA:                   0.155
REMARK UNBOUND:                 0.150
REMARK SMILES C=C(C)[C@@H]1CC[C@@H](C)C2=C(C1)[C@@H](C)CC2
REMARK SMILES IDX 10 1 9 2 15 3 14 4 12 5 13 6 7 7 8 8 6 9 11 11 4 12 5 13
REMARK SMILES IDX 2 15 1 16 3 17
REMARK H PARENT
REMARK Flexibility Score: 80.00
ROOT
ATOM      1  C   UNL     1     134.973 135.326 133.789  1.00  0.00    -0.067 C 
ATOM      2  C   UNL     1     134.439 135.052 132.599  1.00  0.00    -0.068 C 
ATOM      3  C   UNL     1     135.006 133.790 132.026  1.00  0.00     0.032 C 
ATOM      4  C   UNL     1     136.143 133.411 132.976  1.00  0.00     0.012 C 
ATOM      5  C   UNL     1     135.962 134.291 134.222  1.00  0.00     0.012 C 
ATOM      6  C   UNL     1     135.427 133.486 135.412  1.00  0.00     0.012 C 
ENDROOT
BRANCH   2   7
ATOM      7  C   UNL     1     133.374 135.910 131.932  1.00  0.00     0.012 C 
ATOM      8  C   UNL     1     132.817 135.253 130.659  1.00  0.00     0.012 C 
BRANCH   7   9
ATOM      9  C   UNL     1     133.934 137.312 131.606  1.00  0.00     0.008 CG0
ATOM     10  G   UNL     1     133.950 138.253 132.822  1.00  0.00     0.000 G0
ENDBRANCH   7   9
ENDBRANCH   2   7
BRANCH   1  11
ATOM     11  C   UNL     1     134.639 136.543 134.616  1.00  0.00     0.039 C 
BRANCH  11  12
ATOM     12  C   UNL     1     135.013 137.850 133.883  1.00  0.00     0.018 C 
BRANCH  12  13
ATOM     13  C   UNL     1     133.963 138.251 132.822  1.00  0.00     0.009 CG0
ATOM     14  G   UNL     1     133.937 137.325 131.593  1.00  0.00     0.000 G0
ENDBRANCH  12  13
BRANCH  12  15
ATOM     15  C   UNL     1     135.187 138.984 134.887  1.00  0.00    -0.077 C 
ATOM     16  C   UNL     1     135.895 140.077 134.559  1.00  0.00     0.008 C 
ATOM     17  C   UNL     1     134.559 138.911 136.257  1.00  0.00     0.039 C 
ENDBRANCH  12  15
ENDBRANCH  11  12
ENDBRANCH   1  11
TORSDOF 1
ENDMDL
MODEL 6
REMARK VINA RESULT:    -3.609      3.505      5.615
REMARK INTER + INTRA:          -4.724
REMARK INTER:                  -4.846
REMARK INTRA:                   0.122
REMARK UNBOUND:                 0.150
REMARK SMILES C=C(C)[C@@H]1CC[C@@H](C)C2=C(C1)[C@@H](C)CC2
REMARK SMILES IDX 10 1 9 2 15 3 14 4 12 5 13 6 7 7 8 8 6 9 11 11 4 12 5 13
REMARK SMILES IDX 2 15 1 16 3 17
REMARK H PARENT
REMARK Flexibility Score: 80.00
ROOT
ATOM      1  C   UNL     1     138.864 138.837 131.471  1.00  0.00    -0.067 C 
ATOM      2  C   UNL     1     138.216 139.161 130.352  1.00  0.00    -0.068 C 
ATOM      3  C   UNL     1     139.147 139.221 129.182  1.00  0.00     0.032 C 
ATOM      4  C   UNL     1     140.542 139.069 129.790  1.00  0.00     0.012 C 
ATOM      5  C   UNL     1     140.323 138.604 131.237  1.00  0.00     0.012 C 
ATOM      6  C   UNL     1     140.677 137.123 131.417  1.00  0.00     0.012 C 
ENDROOT
BRANCH   2   7
ATOM      7  C   UNL     1     136.716 139.412 130.287  1.00  0.00     0.012 C 
ATOM      8  C   UNL     1     136.221 139.574 128.841  1.00  0.00     0.012 C 
BRANCH   7   9
ATOM      9  C   UNL     1     136.339 140.657 131.120  1.00  0.00     0.008 CG0
ATOM     10  G   UNL     1     136.258 140.371 132.629  1.00  0.00     0.000 G0
ENDBRANCH   7   9
ENDBRANCH   2   7
BRANCH   1  11
ATOM     11  C   UNL     1     138.220 138.725 132.831  1.00  0.00     0.039 C 
BRANCH  11  12
ATOM     12  C   UNL     1     137.623 140.073 133.292  1.00  0.00     0.018 C 
BRANCH  12  13
ATOM     13  C   UNL     1     136.256 140.367 132.635  1.00  0.00     0.009 CG0
ATOM     14  G   UNL     1     136.338 140.643 131.124  1.00  0.00     0.000 G0
ENDBRANCH  12  13
BRANCH  12  15
ATOM     15  C   UNL     1     137.478 140.092 134.809  1.00  0.00    -0.077 C 
ATOM     16  C   UNL     1     138.492 139.689 135.592  1.00  0.00     0.008 C 
ATOM     17  C   UNL     1     136.206 140.575 135.462  1.00  0.00     0.039 C 
ENDBRANCH  12  15
ENDBRANCH  11  12
ENDBRANCH   1  11
TORSDOF 1
ENDMDL
MODEL 7
REMARK VINA RESULT:    -3.588      5.057      7.122
REMARK INTER + INTRA:          -4.696
REMARK INTER:                  -4.829
REMARK INTRA:                   0.133
REMARK UNBOUND:                 0.150
REMARK SMILES C=C(C)[C@@H]1CC[C@@H](C)C2=C(C1)[C@@H](C)CC2
REMARK SMILES IDX 10 1 9 2 15 3 14 4 12 5 13 6 7 7 8 8 6 9 11 11 4 12 5 13
REMARK SMILES IDX 2 15 1 16 3 17
REMARK H PARENT
REMARK Flexibility Score: 80.00
ROOT
ATOM      1  C   UNL     1     138.878 135.008 131.255  1.00  0.00    -0.067 C 
ATOM      2  C   UNL     1     139.210 135.636 130.127  1.00  0.00    -0.068 C 
ATOM      3  C   UNL     1     139.306 134.679 128.979  1.00  0.00     0.032 C 
ATOM      4  C   UNL     1     139.168 133.296 129.616  1.00  0.00     0.012 C 
ATOM      5  C   UNL     1     138.675 133.540 131.050  1.00  0.00     0.012 C 
ATOM      6  C   UNL     1     137.197 133.164 131.213  1.00  0.00     0.012 C 
ENDROOT
BRANCH   2   7
ATOM      7  C   UNL     1     139.436 137.138 130.031  1.00  0.00     0.012 C 
ATOM      8  C   UNL     1     139.617 137.603 128.577  1.00  0.00     0.012 C 
BRANCH   7   9
ATOM      9  C   UNL     1     140.658 137.557 130.879  1.00  0.00     0.008 CG0
ATOM     10  G   UNL     1     140.334 137.691 132.377  1.00  0.00     0.000 G0
ENDBRANCH   7   9
ENDBRANCH   2   7
BRANCH   1  11
ATOM     11  C   UNL     1     138.731 135.680 132.597  1.00  0.00     0.039 C 
BRANCH  11  12
ATOM     12  C   UNL     1     140.058 136.319 133.063  1.00  0.00     0.018 C 
BRANCH  12  13
ATOM     13  C   UNL     1     140.327 137.680 132.379  1.00  0.00     0.009 CG0
ATOM     14  G   UNL     1     140.658 137.569 130.882  1.00  0.00     0.000 G0
ENDBRANCH  12  13
BRANCH  12  15
ATOM     15  C   UNL     1     140.053 136.497 134.576  1.00  0.00    -0.077 C 
ATOM     16  C   UNL     1     139.755 135.463 135.379  1.00  0.00     0.008 C 
ATOM     17  C   UNL     1     140.395 137.826 135.203  1.00  0.00     0.039 C 
ENDBRANCH  12  15
ENDBRANCH  11  12
ENDBRANCH   1  11
TORSDOF 1
ENDMDL
MODEL 8
REMARK VINA RESULT:    -3.550      1.834      3.211
REMARK INTER + INTRA:          -4.644
REMARK INTER:                  -4.790
REMARK INTRA:                   0.145
REMARK UNBOUND:                 0.150
REMARK SMILES C=C(C)[C@@H]1CC[C@@H](C)C2=C(C1)[C@@H](C)CC2
REMARK SMILES IDX 10 1 9 2 15 3 14 4 12 5 13 6 7 7 8 8 6 9 11 11 4 12 5 13
REMARK SMILES IDX 2 15 1 16 3 17
REMARK H PARENT
REMARK Flexibility Score: 80.00
ROOT
ATOM      1  C   UNL     1     136.758 138.498 132.501  1.00  0.00    -0.067 C 
ATOM      2  C   UNL     1     136.130 139.430 131.785  1.00  0.00    -0.068 C 
ATOM      3  C   UNL     1     136.862 140.735 131.829  1.00  0.00     0.032 C 
ATOM      4  C   UNL     1     137.968 140.523 132.864  1.00  0.00     0.012 C 
ATOM      5  C   UNL     1     138.019 139.010 133.122  1.00  0.00     0.012 C 
ATOM      6  C   UNL     1     139.250 138.365 132.475  1.00  0.00     0.012 C 
ENDROOT
BRANCH   2   7
ATOM      7  C   UNL     1     134.846 139.177 131.008  1.00  0.00     0.012 C 
ATOM      8  C   UNL     1     134.461 140.372 130.122  1.00  0.00     0.012 C 
BRANCH   7   9
ATOM      9  C   UNL     1     133.688 138.836 131.973  1.00  0.00     0.008 CG0
ATOM     10  G   UNL     1     133.717 137.377 132.458  1.00  0.00     0.000 G0
ENDBRANCH   7   9
ENDBRANCH   2   7
BRANCH   1  11
ATOM     11  C   UNL     1     136.263 137.084 132.688  1.00  0.00     0.039 C 
BRANCH  11  12
ATOM     12  C   UNL     1     134.897 137.049 133.408  1.00  0.00     0.018 C 
BRANCH  12  13
ATOM     13  C   UNL     1     133.722 137.371 132.457  1.00  0.00     0.009 CG0
ATOM     14  G   UNL     1     133.691 138.833 131.981  1.00  0.00     0.000 G0
ENDBRANCH  12  13
BRANCH  12  15
ATOM     15  C   UNL     1     134.679 135.685 134.052  1.00  0.00    -0.077 C 
ATOM     16  C   UNL     1     135.326 134.604 133.587  1.00  0.00     0.008 C 
ATOM     17  C   UNL     1     133.746 135.521 135.227  1.00  0.00     0.039 C 
ENDBRANCH  12  15
ENDBRANCH  11  12
ENDBRANCH   1  11
TORSDOF 1
ENDMDL
MODEL 9
REMARK VINA RESULT:    -3.539      3.275      5.688
REMARK INTER + INTRA:          -4.630
REMARK INTER:                  -4.776
REMARK INTRA:                   0.146
REMARK UNBOUND:                 0.150
REMARK SMILES C=C(C)[C@@H]1CC[C@@H](C)C2=C(C1)[C@@H](C)CC2
REMARK SMILES IDX 10 1 9 2 15 3 14 4 12 5 13 6 7 7 8 8 6 9 11 11 4 12 5 13
REMARK SMILES IDX 2 15 1 16 3 17
REMARK H PARENT
REMARK Flexibility Score: 80.00
ROOT
ATOM      1  C   UNL     1     136.391 139.340 131.584  1.00  0.00    -0.067 C 
ATOM      2  C   UNL     1     135.433 139.420 130.660  1.00  0.00    -0.068 C 
ATOM      3  C   UNL     1     134.096 139.062 131.230  1.00  0.00     0.032 C 
ATOM      4  C   UNL     1     134.401 138.548 132.638  1.00  0.00     0.012 C 
ATOM      5  C   UNL     1     135.858 138.941 132.923  1.00  0.00     0.012 C 
ATOM      6  C   UNL     1     135.948 140.105 133.917  1.00  0.00     0.012 C 
ENDROOT
BRANCH   2   7
ATOM      7  C   UNL     1     135.681 139.845 129.220  1.00  0.00     0.012 C 
ATOM      8  C   UNL     1     134.370 140.031 128.439  1.00  0.00     0.012 C 
BRANCH   7   9
ATOM      9  C   UNL     1     136.587 138.820 128.501  1.00  0.00     0.008 CG0
ATOM     10  G   UNL     1     138.079 139.003 128.826  1.00  0.00     0.000 G0
ENDBRANCH   7   9
ENDBRANCH   2   7
BRANCH   1  11
ATOM     11  C   UNL     1     137.853 139.606 131.325  1.00  0.00     0.039 C 
BRANCH  11  12
ATOM     12  C   UNL     1     138.438 138.616 130.292  1.00  0.00     0.018 C 
BRANCH  12  13
ATOM     13  C   UNL     1     138.070 138.997 128.840  1.00  0.00     0.009 CG0
ATOM     14  G   UNL     1     136.579 138.817 128.509  1.00  0.00     0.000 G0
ENDBRANCH  12  13
BRANCH  12  15
ATOM     15  C   UNL     1     139.954 138.543 130.435  1.00  0.00    -0.077 C 
ATOM     16  C   UNL     1     140.749 139.210 129.584  1.00  0.00     0.008 C 
ATOM     17  C   UNL     1     140.591 137.736 131.540  1.00  0.00     0.039 C 
ENDBRANCH  12  15
ENDBRANCH  11  12
ENDBRANCH   1  11
TORSDOF 1
ENDMDL
