MODEL 1
REMARK VINA RESULT:    -4.396      0.000      0.000
REMARK INTER + INTRA:          -4.675
REMARK INTER:                  -4.653
REMARK INTRA:                  -0.022
REMARK UNBOUND:                -0.022
REMARK SMILES O=C([O-])c1cccnc1
REMARK SMILES IDX 4 1 5 2 9 3 6 4 8 5 7 6 2 7 1 8 3 9
REMARK H PARENT
REMARK Flexibility Score: inf
ROOT
ATOM      1  C   UNL     1      12.731 -30.455  22.445  1.00  0.00     0.016 A 
ATOM      2  C   UNL     1      13.318 -29.882  23.585  1.00  0.00     0.013 A 
ATOM      3  C   UNL     1      11.486 -29.962  22.015  1.00  0.00     0.120 A 
ATOM      4  C   UNL     1      12.669 -28.849  24.263  1.00  0.00     0.021 A 
ATOM      5  N   UNL     1      10.876 -28.953  22.693  1.00  0.00    -0.264 NA
ATOM      6  C   UNL     1      11.436 -28.393  23.797  1.00  0.00     0.111 A 
ENDROOT
BRANCH   1   7
ATOM      7  C   UNL     1      13.407 -31.550  21.718  1.00  0.00     0.073 C 
ATOM      8  O   UNL     1      13.211 -31.719  20.485  1.00  0.00    -0.545 OA
ATOM      9  O   UNL     1      14.272 -32.410  22.387  1.00  0.00    -0.545 OA
ENDBRANCH   1   7
TORSDOF 1
ENDMDL
MODEL 2
REMARK VINA RESULT:    -4.227      2.762      4.073
REMARK INTER + INTRA:          -4.496
REMARK INTER:                  -4.473
REMARK INTRA:                  -0.022
REMARK UNBOUND:                -0.022
REMARK SMILES O=C([O-])c1cccnc1
REMARK SMILES IDX 4 1 5 2 9 3 6 4 8 5 7 6 2 7 1 8 3 9
REMARK H PARENT
REMARK Flexibility Score: inf
ROOT
ATOM      1  C   UNL     1      13.196 -31.049  22.490  1.00  0.00     0.016 A 
ATOM      2  C   UNL     1      13.196 -31.374  21.123  1.00  0.00     0.013 A 
ATOM      3  C   UNL     1      13.968 -31.835  23.363  1.00  0.00     0.120 A 
ATOM      4  C   UNL     1      13.950 -32.454  20.660  1.00  0.00     0.021 A 
ATOM      5  N   UNL     1      14.693 -32.882  22.886  1.00  0.00    -0.264 NA
ATOM      6  C   UNL     1      14.699 -33.204  21.566  1.00  0.00     0.111 A 
ENDROOT
BRANCH   1   7
ATOM      7  C   UNL     1      12.402 -29.908  22.992  1.00  0.00     0.073 C 
ATOM      8  O   UNL     1      11.381 -29.512  22.369  1.00  0.00    -0.545 OA
ATOM      9  O   UNL     1      12.773 -29.254  24.163  1.00  0.00    -0.545 OA
ENDBRANCH   1   7
TORSDOF 1
ENDMDL
MODEL 3
REMARK VINA RESULT:    -4.172      2.839      3.798
REMARK INTER + INTRA:          -4.437
REMARK INTER:                  -4.416
REMARK INTRA:                  -0.021
REMARK UNBOUND:                -0.022
REMARK SMILES O=C([O-])c1cccnc1
REMARK SMILES IDX 4 1 5 2 9 3 6 4 8 5 7 6 2 7 1 8 3 9
REMARK H PARENT
REMARK Flexibility Score: inf
ROOT
ATOM      1  C   UNL     1      13.248 -31.016  22.849  1.00  0.00     0.016 A 
ATOM      2  C   UNL     1      13.845 -31.761  23.880  1.00  0.00     0.013 A 
ATOM      3  C   UNL     1      13.457 -31.428  21.521  1.00  0.00     0.120 A 
ATOM      4  C   UNL     1      14.623 -32.880  23.575  1.00  0.00     0.021 A 
ATOM      5  N   UNL     1      14.218 -32.522  21.252  1.00  0.00    -0.264 NA
ATOM      6  C   UNL     1      14.800 -33.248  22.242  1.00  0.00     0.111 A 
ENDROOT
BRANCH   1   7
ATOM      7  C   UNL     1      12.423 -29.829  23.158  1.00  0.00     0.073 C 
ATOM      8  O   UNL     1      11.444 -29.521  22.427  1.00  0.00    -0.545 OA
ATOM      9  O   UNL     1      12.716 -29.036  24.262  1.00  0.00    -0.545 OA
ENDBRANCH   1   7
TORSDOF 1
ENDMDL
MODEL 4
REMARK VINA RESULT:    -4.092      5.066      6.923
REMARK INTER + INTRA:          -4.353
REMARK INTER:                  -4.330
REMARK INTRA:                  -0.022
REMARK UNBOUND:                -0.022
REMARK SMILES O=C([O-])c1cccnc1
REMARK SMILES IDX 4 1 5 2 9 3 6 4 8 5 7 6 2 7 1 8 3 9
REMARK H PARENT
REMARK Flexibility Score: inf
ROOT
ATOM      1  C   UNL     1      15.668 -34.412  21.142  1.00  0.00     0.016 A 
ATOM      2  C   UNL     1      15.564 -35.162  19.959  1.00  0.00     0.013 A 
ATOM      3  C   UNL     1      16.709 -34.717  22.036  1.00  0.00     0.120 A 
ATOM      4  C   UNL     1      16.480 -36.182  19.693  1.00  0.00     0.021 A 
ATOM      5  N   UNL     1      17.589 -35.715  21.752  1.00  0.00    -0.264 NA
ATOM      6  C   UNL     1      17.496 -36.446  20.611  1.00  0.00     0.111 A 
ENDROOT
BRANCH   1   7
ATOM      7  C   UNL     1      14.704 -33.331  21.436  1.00  0.00     0.073 C 
ATOM      8  O   UNL     1      14.539 -32.921  22.616  1.00  0.00    -0.545 OA
ATOM      9  O   UNL     1      13.966 -32.748  20.411  1.00  0.00    -0.545 OA
ENDBRANCH   1   7
TORSDOF 1
ENDMDL
MODEL 5
REMARK VINA RESULT:    -4.041      2.815      3.824
REMARK INTER + INTRA:          -4.299
REMARK INTER:                  -4.276
REMARK INTRA:                  -0.023
REMARK UNBOUND:                -0.022
REMARK SMILES O=C([O-])c1cccnc1
REMARK SMILES IDX 4 1 5 2 9 3 6 4 8 5 7 6 2 7 1 8 3 9
REMARK H PARENT
REMARK Flexibility Score: inf
ROOT
ATOM      1  C   UNL     1      14.670 -33.196  21.546  1.00  0.00     0.016 A 
ATOM      2  C   UNL     1      13.906 -32.500  20.595  1.00  0.00     0.013 A 
ATOM      3  C   UNL     1      14.680 -32.723  22.870  1.00  0.00     0.120 A 
ATOM      4  C   UNL     1      13.181 -31.367  20.971  1.00  0.00     0.021 A 
ATOM      5  N   UNL     1      13.964 -31.617  23.210  1.00  0.00    -0.264 NA
ATOM      6  C   UNL     1      13.223 -30.937  22.297  1.00  0.00     0.111 A 
ENDROOT
BRANCH   1   7
ATOM      7  C   UNL     1      15.441 -34.397  21.161  1.00  0.00     0.073 C 
ATOM      8  O   UNL     1      15.129 -35.059  20.136  1.00  0.00    -0.545 OA
ATOM      9  O   UNL     1      16.525 -34.813  21.927  1.00  0.00    -0.545 OA
ENDBRANCH   1   7
TORSDOF 1
ENDMDL
MODEL 6
REMARK VINA RESULT:    -4.039     10.634     11.057
REMARK INTER + INTRA:          -4.296
REMARK INTER:                  -4.280
REMARK INTRA:                  -0.016
REMARK UNBOUND:                -0.022
REMARK SMILES O=C([O-])c1cccnc1
REMARK SMILES IDX 4 1 5 2 9 3 6 4 8 5 7 6 2 7 1 8 3 9
REMARK H PARENT
REMARK Flexibility Score: inf
ROOT
ATOM      1  C   UNL     1      22.180 -25.646  20.158  1.00  0.00     0.016 A 
ATOM      2  C   UNL     1      20.799 -25.397  20.095  1.00  0.00     0.013 A 
ATOM      3  C   UNL     1      22.610 -26.918  20.575  1.00  0.00     0.120 A 
ATOM      4  C   UNL     1      19.890 -26.398  20.441  1.00  0.00     0.021 A 
ATOM      5  N   UNL     1      21.703 -27.876  20.906  1.00  0.00    -0.264 NA
ATOM      6  C   UNL     1      20.366 -27.644  20.849  1.00  0.00     0.111 A 
ENDROOT
BRANCH   1   7
ATOM      7  C   UNL     1      23.153 -24.595  19.795  1.00  0.00     0.073 C 
ATOM      8  O   UNL     1      23.572 -24.490  18.611  1.00  0.00    -0.545 OA
ATOM      9  O   UNL     1      23.621 -23.705  20.756  1.00  0.00    -0.545 OA
ENDBRANCH   1   7
TORSDOF 1
ENDMDL
MODEL 7
REMARK VINA RESULT:    -4.038      2.573      3.457
REMARK INTER + INTRA:          -4.296
REMARK INTER:                  -4.274
REMARK INTRA:                  -0.022
REMARK UNBOUND:                -0.022
REMARK SMILES O=C([O-])c1cccnc1
REMARK SMILES IDX 4 1 5 2 9 3 6 4 8 5 7 6 2 7 1 8 3 9
REMARK H PARENT
REMARK Flexibility Score: inf
ROOT
ATOM      1  C   UNL     1      14.612 -33.052  21.893  1.00  0.00     0.016 A 
ATOM      2  C   UNL     1      14.509 -32.702  23.249  1.00  0.00     0.013 A 
ATOM      3  C   UNL     1      13.914 -32.278  20.949  1.00  0.00     0.120 A 
ATOM      4  C   UNL     1      13.729 -31.610  23.634  1.00  0.00     0.021 A 
ATOM      5  N   UNL     1      13.161 -31.219  21.351  1.00  0.00    -0.264 NA
ATOM      6  C   UNL     1      13.055 -30.873  22.660  1.00  0.00     0.111 A 
ENDROOT
BRANCH   1   7
ATOM      7  C   UNL     1      15.434 -34.206  21.472  1.00  0.00     0.073 C 
ATOM      8  O   UNL     1      16.430 -34.566  22.154  1.00  0.00    -0.545 OA
ATOM      9  O   UNL     1      15.118 -34.912  20.316  1.00  0.00    -0.545 OA
ENDBRANCH   1   7
TORSDOF 1
ENDMDL
MODEL 8
REMARK VINA RESULT:    -4.026     11.755     12.126
REMARK INTER + INTRA:          -4.283
REMARK INTER:                  -4.267
REMARK INTRA:                  -0.016
REMARK UNBOUND:                -0.022
REMARK SMILES O=C([O-])c1cccnc1
REMARK SMILES IDX 4 1 5 2 9 3 6 4 8 5 7 6 2 7 1 8 3 9
REMARK H PARENT
REMARK Flexibility Score: inf
ROOT
ATOM      1  C   UNL     1      22.616 -24.485  20.787  1.00  0.00     0.016 A 
ATOM      2  C   UNL     1      22.451 -23.953  22.076  1.00  0.00     0.013 A 
ATOM      3  C   UNL     1      23.601 -23.924  19.955  1.00  0.00     0.120 A 
ATOM      4  C   UNL     1      23.252 -22.893  22.505  1.00  0.00     0.021 A 
ATOM      5  N   UNL     1      24.369 -22.892  20.398  1.00  0.00    -0.264 NA
ATOM      6  C   UNL     1      24.215 -22.370  21.643  1.00  0.00     0.111 A 
ENDROOT
BRANCH   1   7
ATOM      7  C   UNL     1      21.775 -25.607  20.321  1.00  0.00     0.073 C 
ATOM      8  O   UNL     1      20.670 -25.388  19.756  1.00  0.00    -0.545 OA
ATOM      9  O   UNL     1      22.192 -26.921  20.499  1.00  0.00    -0.545 OA
ENDBRANCH   1   7
TORSDOF 1
ENDMDL
MODEL 9
REMARK VINA RESULT:    -3.959     10.724     11.071
REMARK INTER + INTRA:          -4.212
REMARK INTER:                  -4.195
REMARK INTRA:                  -0.017
REMARK UNBOUND:                -0.022
REMARK SMILES O=C([O-])c1cccnc1
REMARK SMILES IDX 4 1 5 2 9 3 6 4 8 5 7 6 2 7 1 8 3 9
REMARK H PARENT
REMARK Flexibility Score: inf
ROOT
ATOM      1  C   UNL     1      22.134 -25.024  20.436  1.00  0.00     0.016 A 
ATOM      2  C   UNL     1      20.796 -25.442  20.336  1.00  0.00     0.013 A 
ATOM      3  C   UNL     1      22.506 -24.239  21.542  1.00  0.00     0.120 A 
ATOM      4  C   UNL     1      19.873 -25.078  21.318  1.00  0.00     0.021 A 
ATOM      5  N   UNL     1      21.587 -23.899  22.485  1.00  0.00    -0.264 NA
ATOM      6  C   UNL     1      20.291 -24.298  22.396  1.00  0.00     0.111 A 
ENDROOT
BRANCH   1   7
ATOM      7  C   UNL     1      23.121 -25.402  19.404  1.00  0.00     0.073 C 
ATOM      8  O   UNL     1      23.581 -24.540  18.609  1.00  0.00    -0.545 OA
ATOM      9  O   UNL     1      23.556 -26.719  19.295  1.00  0.00    -0.545 OA
ENDBRANCH   1   7
TORSDOF 1
ENDMDL
