MODEL 1
REMARK VINA RESULT:    -3.601      0.000      0.000
REMARK INTER + INTRA:          -7.973
REMARK INTER:                  -6.232
REMARK INTRA:                  -1.742
REMARK UNBOUND:                -1.742
REMARK SMILES CCCCCCCCCCCCCCO
REMARK SMILES IDX 8 1 7 2 6 3 5 4 4 5 3 6 2 7 1 8 9 9 10 10 11 11 12 12 13 13
REMARK SMILES IDX 14 14 15 15
REMARK H PARENT 15 16
REMARK Flexibility Score: inf
ROOT
ATOM      1  C   UNL     1     106.925 103.906 102.946  1.00  0.00     0.000 C 
ENDROOT
BRANCH   1   2
ATOM      2  C   UNL     1     106.982 105.010 101.875  1.00  0.00    -0.000 C 
BRANCH   2   3
ATOM      3  C   UNL     1     108.191 105.942 102.054  1.00  0.00    -0.000 C 
BRANCH   3   4
ATOM      4  C   UNL     1     107.865 107.169 102.924  1.00  0.00    -0.000 C 
BRANCH   4   5
ATOM      5  C   UNL     1     108.315 106.994 104.383  1.00  0.00    -0.000 C 
BRANCH   5   6
ATOM      6  C   UNL     1     107.170 107.223 105.385  1.00  0.00    -0.000 C 
BRANCH   6   7
ATOM      7  C   UNL     1     105.934 107.861 104.732  1.00  0.00    -0.003 C 
ATOM      8  C   UNL     1     104.957 108.436 105.758  1.00  0.00     0.004 C 
ENDBRANCH   6   7
ENDBRANCH   5   6
ENDBRANCH   4   5
ENDBRANCH   3   4
ENDBRANCH   2   3
ENDBRANCH   1   2
BRANCH   1   9
ATOM      9  C   UNL     1     105.816 104.146 103.982  1.00  0.00     0.000 C 
BRANCH   9  10
ATOM     10  C   UNL     1     104.559 104.779 103.367  1.00  0.00     0.000 C 
BRANCH  10  11
ATOM     11  C   UNL     1     103.497 105.048 104.442  1.00  0.00     0.000 C 
BRANCH  11  12
ATOM     12  C   UNL     1     104.024 104.831 105.871  1.00  0.00     0.002 C 
BRANCH  12  13
ATOM     13  C   UNL     1     102.909 104.703 106.930  1.00  0.00     0.028 C 
BRANCH  13  14
ATOM     14  C   UNL     1     103.372 103.938 108.175  1.00  0.00     0.156 C 
BRANCH  14  15
ATOM     15  O   UNL     1     102.941 102.605 108.111  1.00  0.00    -0.396 OA
ATOM     16  H   UNL     1     103.607 102.066 108.613  1.00  0.00     0.210 HD
ENDBRANCH  14  15
ENDBRANCH  13  14
ENDBRANCH  12  13
ENDBRANCH  11  12
ENDBRANCH  10  11
ENDBRANCH   9  10
ENDBRANCH   1   9
TORSDOF 13
ENDMDL
MODEL 2
REMARK VINA RESULT:    -3.463      2.183      4.386
REMARK INTER + INTRA:          -7.736
REMARK INTER:                  -6.045
REMARK INTRA:                  -1.691
REMARK UNBOUND:                -1.742
REMARK SMILES CCCCCCCCCCCCCCO
REMARK SMILES IDX 8 1 7 2 6 3 5 4 4 5 3 6 2 7 1 8 9 9 10 10 11 11 12 12 13 13
REMARK SMILES IDX 14 14 15 15
REMARK H PARENT 15 16
REMARK Flexibility Score: inf
ROOT
ATOM      1  C   UNL     1     107.503 105.104 102.250  1.00  0.00     0.000 C 
ENDROOT
BRANCH   1   2
ATOM      2  C   UNL     1     106.145 104.396 102.091  1.00  0.00    -0.000 C 
BRANCH   2   3
ATOM      3  C   UNL     1     104.988 105.384 101.875  1.00  0.00    -0.000 C 
BRANCH   3   4
ATOM      4  C   UNL     1     103.874 105.226 102.925  1.00  0.00    -0.000 C 
BRANCH   4   5
ATOM      5  C   UNL     1     104.413 104.772 104.291  1.00  0.00    -0.000 C 
BRANCH   5   6
ATOM      6  C   UNL     1     103.432 105.066 105.440  1.00  0.00    -0.000 C 
BRANCH   6   7
ATOM      7  C   UNL     1     104.054 104.822 106.823  1.00  0.00    -0.003 C 
ATOM      8  C   UNL     1     105.500 104.332 106.740  1.00  0.00     0.004 C 
ENDBRANCH   6   7
ENDBRANCH   5   6
ENDBRANCH   4   5
ENDBRANCH   3   4
ENDBRANCH   2   3
ENDBRANCH   1   2
BRANCH   1   9
ATOM      9  C   UNL     1     107.391 106.630 102.112  1.00  0.00     0.000 C 
BRANCH   9  10
ATOM     10  C   UNL     1     108.134 107.380 103.227  1.00  0.00     0.000 C 
BRANCH  10  11
ATOM     11  C   UNL     1     108.139 106.566 104.528  1.00  0.00     0.000 C 
BRANCH  11  12
ATOM     12  C   UNL     1     107.251 107.182 105.623  1.00  0.00     0.002 C 
BRANCH  12  13
ATOM     13  C   UNL     1     105.989 107.881 105.077  1.00  0.00     0.028 C 
BRANCH  13  14
ATOM     14  C   UNL     1     105.145 108.513 106.190  1.00  0.00     0.156 C 
BRANCH  14  15
ATOM     15  O   UNL     1     104.520 109.678 105.721  1.00  0.00    -0.396 OA
ATOM     16  H   UNL     1     105.224 110.221 105.281  1.00  0.00     0.210 HD
ENDBRANCH  14  15
ENDBRANCH  13  14
ENDBRANCH  12  13
ENDBRANCH  11  12
ENDBRANCH  10  11
ENDBRANCH   9  10
ENDBRANCH   1   9
TORSDOF 13
ENDMDL
MODEL 3
REMARK VINA RESULT:    -3.392      2.741      3.805
REMARK INTER + INTRA:          -7.613
REMARK INTER:                  -5.756
REMARK INTRA:                  -1.857
REMARK UNBOUND:                -1.742
REMARK SMILES CCCCCCCCCCCCCCO
REMARK SMILES IDX 8 1 7 2 6 3 5 4 4 5 3 6 2 7 1 8 9 9 10 10 11 11 12 12 13 13
REMARK SMILES IDX 14 14 15 15
REMARK H PARENT 15 16
REMARK Flexibility Score: inf
ROOT
ATOM      1  C   UNL     1     107.892 105.041 102.265  1.00  0.00     0.000 C 
ENDROOT
BRANCH   1   2
ATOM      2  C   UNL     1     107.764 106.525 101.879  1.00  0.00    -0.000 C 
BRANCH   2   3
ATOM      3  C   UNL     1     108.172 107.468 103.022  1.00  0.00    -0.000 C 
BRANCH   3   4
ATOM      4  C   UNL     1     108.273 106.744 104.376  1.00  0.00    -0.000 C 
BRANCH   4   5
ATOM      5  C   UNL     1     107.204 107.214 105.376  1.00  0.00    -0.000 C 
BRANCH   5   6
ATOM      6  C   UNL     1     106.552 106.045 106.135  1.00  0.00    -0.000 C 
BRANCH   6   7
ATOM      7  C   UNL     1     107.454 104.802 106.190  1.00  0.00    -0.003 C 
ATOM      8  C   UNL     1     107.541 104.200 107.593  1.00  0.00     0.004 C 
ENDBRANCH   6   7
ENDBRANCH   5   6
ENDBRANCH   4   5
ENDBRANCH   3   4
ENDBRANCH   2   3
ENDBRANCH   1   2
BRANCH   1   9
ATOM      9  C   UNL     1     106.616 104.241 101.964  1.00  0.00     0.000 C 
BRANCH   9  10
ATOM     10  C   UNL     1     105.631 104.233 103.143  1.00  0.00     0.000 C 
BRANCH  10  11
ATOM     11  C   UNL     1     104.284 104.845 102.737  1.00  0.00     0.000 C 
BRANCH  11  12
ATOM     12  C   UNL     1     104.109 106.291 103.234  1.00  0.00     0.002 C 
BRANCH  12  13
ATOM     13  C   UNL     1     104.501 107.357 102.188  1.00  0.00     0.028 C 
BRANCH  13  14
ATOM     14  C   UNL     1     104.601 108.760 102.796  1.00  0.00     0.156 C 
BRANCH  14  15
ATOM     15  O   UNL     1     104.527 108.688 104.195  1.00  0.00    -0.396 OA
ATOM     16  H   UNL     1     105.348 108.219 104.499  1.00  0.00     0.210 HD
ENDBRANCH  14  15
ENDBRANCH  13  14
ENDBRANCH  12  13
ENDBRANCH  11  12
ENDBRANCH  10  11
ENDBRANCH   9  10
ENDBRANCH   1   9
TORSDOF 13
ENDMDL
MODEL 4
REMARK VINA RESULT:    -3.367      2.227      3.490
REMARK INTER + INTRA:          -7.568
REMARK INTER:                  -5.826
REMARK INTRA:                  -1.742
REMARK UNBOUND:                -1.742
REMARK SMILES CCCCCCCCCCCCCCO
REMARK SMILES IDX 8 1 7 2 6 3 5 4 4 5 3 6 2 7 1 8 9 9 10 10 11 11 12 12 13 13
REMARK SMILES IDX 14 14 15 15
REMARK H PARENT 15 16
REMARK Flexibility Score: inf
ROOT
ATOM      1  C   UNL     1     107.735 105.746 104.059  1.00  0.00     0.000 C 
ENDROOT
BRANCH   1   2
ATOM      2  C   UNL     1     107.937 106.401 102.681  1.00  0.00    -0.000 C 
BRANCH   2   3
ATOM      3  C   UNL     1     106.963 107.565 102.434  1.00  0.00    -0.000 C 
BRANCH   3   4
ATOM      4  C   UNL     1     106.008 107.795 103.619  1.00  0.00    -0.000 C 
BRANCH   4   5
ATOM      5  C   UNL     1     104.531 107.651 103.221  1.00  0.00    -0.000 C 
BRANCH   5   6
ATOM      6  C   UNL     1     104.321 106.625 102.093  1.00  0.00    -0.000 C 
BRANCH   6   7
ATOM      7  C   UNL     1     103.867 105.255 102.620  1.00  0.00    -0.003 C 
ATOM      8  C   UNL     1     102.647 104.713 101.875  1.00  0.00     0.004 C 
ENDBRANCH   6   7
ENDBRANCH   5   6
ENDBRANCH   4   5
ENDBRANCH   3   4
ENDBRANCH   2   3
ENDBRANCH   1   2
BRANCH   1   9
ATOM      9  C   UNL     1     107.110 104.346 103.959  1.00  0.00     0.000 C 
BRANCH   9  10
ATOM     10  C   UNL     1     106.538 103.856 105.298  1.00  0.00     0.000 C 
BRANCH  10  11
ATOM     11  C   UNL     1     106.181 105.039 106.208  1.00  0.00     0.000 C 
BRANCH  11  12
ATOM     12  C   UNL     1     104.681 105.382 106.184  1.00  0.00     0.002 C 
BRANCH  12  13
ATOM     13  C   UNL     1     104.238 106.306 107.338  1.00  0.00     0.028 C 
BRANCH  13  14
ATOM     14  C   UNL     1     104.608 107.772 107.084  1.00  0.00     0.156 C 
BRANCH  14  15
ATOM     15  O   UNL     1     103.560 108.612 107.492  1.00  0.00    -0.396 OA
ATOM     16  H   UNL     1     103.246 108.270 108.369  1.00  0.00     0.210 HD
ENDBRANCH  14  15
ENDBRANCH  13  14
ENDBRANCH  12  13
ENDBRANCH  11  12
ENDBRANCH  10  11
ENDBRANCH   9  10
ENDBRANCH   1   9
TORSDOF 13
ENDMDL
MODEL 5
REMARK VINA RESULT:    -3.353      1.655      2.936
REMARK INTER + INTRA:          -7.545
REMARK INTER:                  -5.614
REMARK INTRA:                  -1.932
REMARK UNBOUND:                -1.742
REMARK SMILES CCCCCCCCCCCCCCO
REMARK SMILES IDX 8 1 7 2 6 3 5 4 4 5 3 6 2 7 1 8 9 9 10 10 11 11 12 12 13 13
REMARK SMILES IDX 14 14 15 15
REMARK H PARENT 15 16
REMARK Flexibility Score: inf
ROOT
ATOM      1  C   UNL     1     107.803 106.154 104.460  1.00  0.00     0.000 C 
ENDROOT
BRANCH   1   2
ATOM      2  C   UNL     1     107.176 104.754 104.345  1.00  0.00    -0.000 C 
BRANCH   2   3
ATOM      3  C   UNL     1     107.243 104.194 102.915  1.00  0.00    -0.000 C 
BRANCH   3   4
ATOM      4  C   UNL     1     106.412 105.022 101.919  1.00  0.00    -0.000 C 
BRANCH   4   5
ATOM      5  C   UNL     1     104.901 104.793 102.080  1.00  0.00    -0.000 C 
BRANCH   5   6
ATOM      6  C   UNL     1     104.120 106.108 102.257  1.00  0.00    -0.000 C 
BRANCH   6   7
ATOM      7  C   UNL     1     104.981 107.347 101.969  1.00  0.00    -0.003 C 
ATOM      8  C   UNL     1     104.443 108.608 102.645  1.00  0.00     0.004 C 
ENDBRANCH   6   7
ENDBRANCH   5   6
ENDBRANCH   4   5
ENDBRANCH   3   4
ENDBRANCH   2   3
ENDBRANCH   1   2
BRANCH   1   9
ATOM      9  C   UNL     1     106.860 107.170 105.122  1.00  0.00     0.000 C 
BRANCH   9  10
ATOM     10  C   UNL     1     106.012 106.548 106.241  1.00  0.00     0.000 C 
BRANCH  10  11
ATOM     11  C   UNL     1     104.515 106.653 105.920  1.00  0.00     0.000 C 
BRANCH  11  12
ATOM     12  C   UNL     1     103.844 105.281 105.735  1.00  0.00     0.002 C 
BRANCH  12  13
ATOM     13  C   UNL     1     103.759 104.452 107.034  1.00  0.00     0.028 C 
BRANCH  13  14
ATOM     14  C   UNL     1     102.537 104.822 107.882  1.00  0.00     0.156 C 
BRANCH  14  15
ATOM     15  O   UNL     1     101.374 104.776 107.100  1.00  0.00    -0.396 OA
ATOM     16  H   UNL     1     101.354 105.615 106.569  1.00  0.00     0.210 HD
ENDBRANCH  14  15
ENDBRANCH  13  14
ENDBRANCH  12  13
ENDBRANCH  11  12
ENDBRANCH  10  11
ENDBRANCH   9  10
ENDBRANCH   1   9
TORSDOF 13
ENDMDL
MODEL 6
REMARK VINA RESULT:    -3.318      2.706      4.224
REMARK INTER + INTRA:          -7.485
REMARK INTER:                  -5.822
REMARK INTRA:                  -1.663
REMARK UNBOUND:                -1.742
REMARK SMILES CCCCCCCCCCCCCCO
REMARK SMILES IDX 8 1 7 2 6 3 5 4 4 5 3 6 2 7 1 8 9 9 10 10 11 11 12 12 13 13
REMARK SMILES IDX 14 14 15 15
REMARK H PARENT 15 16
REMARK Flexibility Score: inf
ROOT
ATOM      1  C   UNL     1     104.400 106.109 101.933  1.00  0.00     0.000 C 
ENDROOT
BRANCH   1   2
ATOM      2  C   UNL     1     104.580 104.736 102.604  1.00  0.00    -0.000 C 
BRANCH   2   3
ATOM      3  C   UNL     1     105.803 103.975 102.068  1.00  0.00    -0.000 C 
BRANCH   3   4
ATOM      4  C   UNL     1     107.065 104.215 102.916  1.00  0.00    -0.000 C 
BRANCH   4   5
ATOM      5  C   UNL     1     107.004 103.505 104.278  1.00  0.00    -0.000 C 
BRANCH   5   6
ATOM      6  C   UNL     1     107.047 104.490 105.460  1.00  0.00    -0.000 C 
BRANCH   6   7
ATOM      7  C   UNL     1     105.963 104.199 106.509  1.00  0.00    -0.003 C 
ATOM      8  C   UNL     1     104.609 104.806 106.141  1.00  0.00     0.004 C 
ENDBRANCH   6   7
ENDBRANCH   5   6
ENDBRANCH   4   5
ENDBRANCH   3   4
ENDBRANCH   2   3
ENDBRANCH   1   2
BRANCH   1   9
ATOM      9  C   UNL     1     104.479 107.270 102.935  1.00  0.00     0.000 C 
BRANCH   9  10
ATOM     10  C   UNL     1     105.923 107.606 103.337  1.00  0.00     0.000 C 
BRANCH  10  11
ATOM     11  C   UNL     1     106.026 107.870 104.845  1.00  0.00     0.000 C 
BRANCH  11  12
ATOM     12  C   UNL     1     104.839 108.681 105.394  1.00  0.00     0.002 C 
BRANCH  12  13
ATOM     13  C   UNL     1     104.617 108.504 106.911  1.00  0.00     0.028 C 
BRANCH  13  14
ATOM     14  C   UNL     1     104.121 109.791 107.581  1.00  0.00     0.156 C 
BRANCH  14  15
ATOM     15  O   UNL     1     104.739 110.908 106.999  1.00  0.00    -0.396 OA
ATOM     16  H   UNL     1     105.566 111.079 107.520  1.00  0.00     0.210 HD
ENDBRANCH  14  15
ENDBRANCH  13  14
ENDBRANCH  12  13
ENDBRANCH  11  12
ENDBRANCH  10  11
ENDBRANCH   9  10
ENDBRANCH   1   9
TORSDOF 13
ENDMDL
MODEL 7
REMARK VINA RESULT:    -3.315      2.800      4.784
REMARK INTER + INTRA:          -7.480
REMARK INTER:                  -5.661
REMARK INTRA:                  -1.819
REMARK UNBOUND:                -1.742
REMARK SMILES CCCCCCCCCCCCCCO
REMARK SMILES IDX 8 1 7 2 6 3 5 4 4 5 3 6 2 7 1 8 9 9 10 10 11 11 12 12 13 13
REMARK SMILES IDX 14 14 15 15
REMARK H PARENT 15 16
REMARK Flexibility Score: inf
ROOT
ATOM      1  C   UNL     1     107.277 104.560 102.750  1.00  0.00     0.000 C 
ENDROOT
BRANCH   1   2
ATOM      2  C   UNL     1     105.902 103.921 102.492  1.00  0.00    -0.000 C 
BRANCH   2   3
ATOM      3  C   UNL     1     104.812 104.966 102.202  1.00  0.00    -0.000 C 
BRANCH   3   4
ATOM      4  C   UNL     1     103.884 105.200 103.407  1.00  0.00    -0.000 C 
BRANCH   4   5
ATOM      5  C   UNL     1     104.307 106.414 104.249  1.00  0.00    -0.000 C 
BRANCH   5   6
ATOM      6  C   UNL     1     104.399 106.088 105.750  1.00  0.00    -0.000 C 
BRANCH   6   7
ATOM      7  C   UNL     1     104.689 104.603 106.014  1.00  0.00    -0.003 C 
ATOM      8  C   UNL     1     106.168 104.331 106.289  1.00  0.00     0.004 C 
ENDBRANCH   6   7
ENDBRANCH   5   6
ENDBRANCH   4   5
ENDBRANCH   3   4
ENDBRANCH   2   3
ENDBRANCH   1   2
BRANCH   1   9
ATOM      9  C   UNL     1     107.396 105.968 102.146  1.00  0.00     0.000 C 
BRANCH   9  10
ATOM     10  C   UNL     1     108.281 106.900 102.986  1.00  0.00     0.000 C 
BRANCH  10  11
ATOM     11  C   UNL     1     107.697 107.092 104.392  1.00  0.00     0.000 C 
BRANCH  11  12
ATOM     12  C   UNL     1     108.772 107.081 105.494  1.00  0.00     0.002 C 
BRANCH  12  13
ATOM     13  C   UNL     1     108.223 107.411 106.898  1.00  0.00     0.028 C 
BRANCH  13  14
ATOM     14  C   UNL     1     109.334 107.798 107.881  1.00  0.00     0.156 C 
BRANCH  14  15
ATOM     15  O   UNL     1     109.497 109.191 107.901  1.00  0.00    -0.396 OA
ATOM     16  H   UNL     1     108.588 109.584 107.970  1.00  0.00     0.210 HD
ENDBRANCH  14  15
ENDBRANCH  13  14
ENDBRANCH  12  13
ENDBRANCH  11  12
ENDBRANCH  10  11
ENDBRANCH   9  10
ENDBRANCH   1   9
TORSDOF 13
ENDMDL
MODEL 8
REMARK VINA RESULT:    -3.288      2.243      2.879
REMARK INTER + INTRA:          -7.432
REMARK INTER:                  -5.603
REMARK INTRA:                  -1.828
REMARK UNBOUND:                -1.742
REMARK SMILES CCCCCCCCCCCCCCO
REMARK SMILES IDX 8 1 7 2 6 3 5 4 4 5 3 6 2 7 1 8 9 9 10 10 11 11 12 12 13 13
REMARK SMILES IDX 14 14 15 15
REMARK H PARENT 15 16
REMARK Flexibility Score: inf
ROOT
ATOM      1  C   UNL     1     105.404 104.093 103.320  1.00  0.00     0.000 C 
ENDROOT
BRANCH   1   2
ATOM      2  C   UNL     1     106.043 104.150 101.921  1.00  0.00    -0.000 C 
BRANCH   2   3
ATOM      3  C   UNL     1     107.551 104.446 101.975  1.00  0.00    -0.000 C 
BRANCH   3   4
ATOM      4  C   UNL     1     107.853 105.953 102.048  1.00  0.00    -0.000 C 
BRANCH   4   5
ATOM      5  C   UNL     1     107.892 106.477 103.492  1.00  0.00    -0.000 C 
BRANCH   5   6
ATOM      6  C   UNL     1     106.895 107.624 103.732  1.00  0.00    -0.000 C 
BRANCH   6   7
ATOM      7  C   UNL     1     105.978 107.869 102.524  1.00  0.00    -0.003 C 
ATOM      8  C   UNL     1     104.646 108.510 102.916  1.00  0.00     0.004 C 
ENDBRANCH   6   7
ENDBRANCH   5   6
ENDBRANCH   4   5
ENDBRANCH   3   4
ENDBRANCH   2   3
ENDBRANCH   1   2
BRANCH   1   9
ATOM      9  C   UNL     1     103.999 104.715 103.352  1.00  0.00     0.000 C 
BRANCH   9  10
ATOM     10  C   UNL     1     103.692 105.414 104.685  1.00  0.00     0.000 C 
BRANCH  10  11
ATOM     11  C   UNL     1     104.614 104.901 105.799  1.00  0.00     0.000 C 
BRANCH  11  12
ATOM     12  C   UNL     1     105.394 106.028 106.499  1.00  0.00     0.002 C 
BRANCH  12  13
ATOM     13  C   UNL     1     104.489 107.094 107.153  1.00  0.00     0.028 C 
BRANCH  13  14
ATOM     14  C   UNL     1     104.774 108.504 106.623  1.00  0.00     0.156 C 
BRANCH  14  15
ATOM     15  O   UNL     1     105.546 109.221 107.548  1.00  0.00    -0.396 OA
ATOM     16  H   UNL     1     105.786 110.081 107.113  1.00  0.00     0.210 HD
ENDBRANCH  14  15
ENDBRANCH  13  14
ENDBRANCH  12  13
ENDBRANCH  11  12
ENDBRANCH  10  11
ENDBRANCH   9  10
ENDBRANCH   1   9
TORSDOF 13
ENDMDL
MODEL 9
REMARK VINA RESULT:    -3.259      2.467      3.752
REMARK INTER + INTRA:          -7.382
REMARK INTER:                  -5.601
REMARK INTRA:                  -1.781
REMARK UNBOUND:                -1.742
REMARK SMILES CCCCCCCCCCCCCCO
REMARK SMILES IDX 8 1 7 2 6 3 5 4 4 5 3 6 2 7 1 8 9 9 10 10 11 11 12 12 13 13
REMARK SMILES IDX 14 14 15 15
REMARK H PARENT 15 16
REMARK Flexibility Score: inf
ROOT
ATOM      1  C   UNL     1     106.845 103.750 105.039  1.00  0.00     0.000 C 
ENDROOT
BRANCH   1   2
ATOM      2  C   UNL     1     106.818 103.743 103.500  1.00  0.00    -0.000 C 
BRANCH   2   3
ATOM      3  C   UNL     1     107.495 104.983 102.894  1.00  0.00    -0.000 C 
BRANCH   3   4
ATOM      4  C   UNL     1     106.596 105.707 101.877  1.00  0.00    -0.000 C 
BRANCH   4   5
ATOM      5  C   UNL     1     105.860 106.908 102.492  1.00  0.00    -0.000 C 
BRANCH   5   6
ATOM      6  C   UNL     1     104.345 106.669 102.621  1.00  0.00    -0.000 C 
BRANCH   6   7
ATOM      7  C   UNL     1     103.883 105.403 101.884  1.00  0.00    -0.003 C 
ATOM      8  C   UNL     1     103.150 104.423 102.800  1.00  0.00     0.004 C 
ENDBRANCH   6   7
ENDBRANCH   5   6
ENDBRANCH   4   5
ENDBRANCH   3   4
ENDBRANCH   2   3
ENDBRANCH   1   2
BRANCH   1   9
ATOM      9  C   UNL     1     105.681 104.551 105.644  1.00  0.00     0.000 C 
BRANCH   9  10
ATOM     10  C   UNL     1     106.100 105.961 106.085  1.00  0.00     0.000 C 
BRANCH  10  11
ATOM     11  C   UNL     1     104.881 106.885 106.203  1.00  0.00     0.000 C 
BRANCH  11  12
ATOM     12  C   UNL     1     105.219 108.361 105.932  1.00  0.00     0.002 C 
BRANCH  12  13
ATOM     13  C   UNL     1     104.385 109.352 106.772  1.00  0.00     0.028 C 
BRANCH  13  14
ATOM     14  C   UNL     1     103.840 108.714 108.055  1.00  0.00     0.156 C 
BRANCH  14  15
ATOM     15  O   UNL     1     102.458 108.930 108.153  1.00  0.00    -0.396 OA
ATOM     16  H   UNL     1     102.102 108.920 107.227  1.00  0.00     0.210 HD
ENDBRANCH  14  15
ENDBRANCH  13  14
ENDBRANCH  12  13
ENDBRANCH  11  12
ENDBRANCH  10  11
ENDBRANCH   9  10
ENDBRANCH   1   9
TORSDOF 13
ENDMDL
