MODEL 1
REMARK VINA RESULT:    -2.908      0.000      0.000
REMARK INTER + INTRA:          -3.507
REMARK INTER:                  -3.418
REMARK INTRA:                  -0.089
REMARK UNBOUND:                -0.089
REMARK SMILES O=C([O-])CCC(=O)[O-]
REMARK SMILES IDX 4 1 2 2 1 3 3 4 5 5 6 6 7 7 8 8
REMARK H PARENT
REMARK Flexibility Score: inf
ROOT
ATOM      1  C   UNL     1      18.268 126.938  63.461  1.00  0.00     0.059 C 
ENDROOT
BRANCH   1   2
ATOM      2  C   UNL     1      18.221 125.572  62.855  1.00  0.00     0.042 C 
ATOM      3  O   UNL     1      17.113 125.033  62.594  1.00  0.00    -0.550 OA
ATOM      4  O   UNL     1      19.400 124.912  62.533  1.00  0.00    -0.550 OA
ENDBRANCH   1   2
BRANCH   1   5
ATOM      5  C   UNL     1      17.573 127.951  62.550  1.00  0.00     0.059 C 
BRANCH   5   6
ATOM      6  C   UNL     1      18.561 128.941  62.019  1.00  0.00     0.042 C 
ATOM      7  O   UNL     1      19.730 128.575  61.725  1.00  0.00    -0.550 OA
ATOM      8  O   UNL     1      18.178 130.259  61.802  1.00  0.00    -0.550 OA
ENDBRANCH   5   6
ENDBRANCH   1   5
TORSDOF 3
ENDMDL
MODEL 2
REMARK VINA RESULT:    -2.897      0.075      4.041
REMARK INTER + INTRA:          -3.494
REMARK INTER:                  -3.405
REMARK INTRA:                  -0.089
REMARK UNBOUND:                -0.089
REMARK SMILES O=C([O-])CCC(=O)[O-]
REMARK SMILES IDX 4 1 2 2 1 3 3 4 5 5 6 6 7 7 8 8
REMARK H PARENT
REMARK Flexibility Score: inf
ROOT
ATOM      1  C   UNL     1      17.507 127.976  62.545  1.00  0.00     0.059 C 
ENDROOT
BRANCH   1   2
ATOM      2  C   UNL     1      18.499 128.965  62.021  1.00  0.00     0.042 C 
ATOM      3  O   UNL     1      19.660 128.591  61.706  1.00  0.00    -0.550 OA
ATOM      4  O   UNL     1      18.129 130.291  61.834  1.00  0.00    -0.550 OA
ENDBRANCH   1   2
BRANCH   1   5
ATOM      5  C   UNL     1      18.192 126.974  63.476  1.00  0.00     0.059 C 
BRANCH   5   6
ATOM      6  C   UNL     1      18.154 125.600  62.885  1.00  0.00     0.042 C 
ATOM      7  O   UNL     1      17.051 125.058  62.613  1.00  0.00    -0.550 OA
ATOM      8  O   UNL     1      19.338 124.937  62.590  1.00  0.00    -0.550 OA
ENDBRANCH   5   6
ENDBRANCH   1   5
TORSDOF 3
ENDMDL
MODEL 3
REMARK VINA RESULT:    -2.896      1.554      2.070
REMARK INTER + INTRA:          -3.493
REMARK INTER:                  -3.366
REMARK INTRA:                  -0.127
REMARK UNBOUND:                -0.089
REMARK SMILES O=C([O-])CCC(=O)[O-]
REMARK SMILES IDX 4 1 2 2 1 3 3 4 5 5 6 6 7 7 8 8
REMARK H PARENT
REMARK Flexibility Score: inf
ROOT
ATOM      1  C   UNL     1      18.243 125.402  62.752  1.00  0.00     0.059 C 
ENDROOT
BRANCH   1   2
ATOM      2  C   UNL     1      19.633 124.853  62.714  1.00  0.00     0.042 C 
ATOM      3  O   UNL     1      20.025 124.060  63.611  1.00  0.00    -0.550 OA
ATOM      4  O   UNL     1      20.482 125.178  61.664  1.00  0.00    -0.550 OA
ENDBRANCH   1   2
BRANCH   1   5
ATOM      5  C   UNL     1      18.215 126.735  63.502  1.00  0.00     0.059 C 
BRANCH   5   6
ATOM      6  C   UNL     1      18.221 127.879  62.537  1.00  0.00     0.042 C 
ATOM      7  O   UNL     1      17.139 128.424  62.193  1.00  0.00    -0.550 OA
ATOM      8  O   UNL     1      19.426 128.374  62.053  1.00  0.00    -0.550 OA
ENDBRANCH   5   6
ENDBRANCH   1   5
TORSDOF 3
ENDMDL
MODEL 4
REMARK VINA RESULT:    -2.876      0.342      3.754
REMARK INTER + INTRA:          -3.470
REMARK INTER:                  -3.377
REMARK INTRA:                  -0.094
REMARK UNBOUND:                -0.089
REMARK SMILES O=C([O-])CCC(=O)[O-]
REMARK SMILES IDX 4 1 2 2 1 3 3 4 5 5 6 6 7 7 8 8
REMARK H PARENT
REMARK Flexibility Score: inf
ROOT
ATOM      1  C   UNL     1      17.682 128.196  62.498  1.00  0.00     0.059 C 
ENDROOT
BRANCH   1   2
ATOM      2  C   UNL     1      18.720 128.986  61.766  1.00  0.00     0.042 C 
ATOM      3  O   UNL     1      18.441 130.122  61.301  1.00  0.00    -0.550 OA
ATOM      4  O   UNL     1      20.011 128.487  61.638  1.00  0.00    -0.550 OA
ENDBRANCH   1   2
BRANCH   1   5
ATOM      5  C   UNL     1      18.342 127.204  63.457  1.00  0.00     0.059 C 
BRANCH   5   6
ATOM      6  C   UNL     1      18.212 125.808  62.936  1.00  0.00     0.042 C 
ATOM      7  O   UNL     1      19.241 125.138  62.656  1.00  0.00    -0.550 OA
ATOM      8  O   UNL     1      16.957 125.228  62.805  1.00  0.00    -0.550 OA
ENDBRANCH   5   6
ENDBRANCH   1   5
TORSDOF 3
ENDMDL
MODEL 5
REMARK VINA RESULT:    -2.799      8.318      9.120
REMARK INTER + INTRA:          -3.380
REMARK INTER:                  -3.294
REMARK INTRA:                  -0.086
REMARK UNBOUND:                -0.089
REMARK SMILES O=C([O-])CCC(=O)[O-]
REMARK SMILES IDX 4 1 2 2 1 3 3 4 5 5 6 6 7 7 8 8
REMARK H PARENT
REMARK Flexibility Score: inf
ROOT
ATOM      1  C   UNL     1      15.992 127.892  53.363  1.00  0.00     0.059 C 
ENDROOT
BRANCH   1   2
ATOM      2  C   UNL     1      17.073 128.513  52.536  1.00  0.00     0.042 C 
ATOM      3  O   UNL     1      17.038 128.427  51.280  1.00  0.00    -0.550 OA
ATOM      4  O   UNL     1      18.093 129.230  53.149  1.00  0.00    -0.550 OA
ENDBRANCH   1   2
BRANCH   1   5
ATOM      5  C   UNL     1      16.556 127.401  54.697  1.00  0.00     0.059 C 
BRANCH   5   6
ATOM      6  C   UNL     1      15.966 128.178  55.832  1.00  0.00     0.042 C 
ATOM      7  O   UNL     1      16.552 128.215  56.946  1.00  0.00    -0.550 OA
ATOM      8  O   UNL     1      14.795 128.900  55.645  1.00  0.00    -0.550 OA
ENDBRANCH   5   6
ENDBRANCH   1   5
TORSDOF 3
ENDMDL
MODEL 6
REMARK VINA RESULT:    -2.796      2.418      4.079
REMARK INTER + INTRA:          -3.375
REMARK INTER:                  -3.345
REMARK INTRA:                  -0.030
REMARK UNBOUND:                -0.089
REMARK SMILES O=C([O-])CCC(=O)[O-]
REMARK SMILES IDX 4 1 2 2 1 3 3 4 5 5 6 6 7 7 8 8
REMARK H PARENT
REMARK Flexibility Score: inf
ROOT
ATOM      1  C   UNL     1      17.305 125.648  62.781  1.00  0.00     0.059 C 
ENDROOT
BRANCH   1   2
ATOM      2  C   UNL     1      16.585 126.899  63.173  1.00  0.00     0.042 C 
ATOM      3  O   UNL     1      16.412 127.176  64.389  1.00  0.00    -0.550 OA
ATOM      4  O   UNL     1      16.145 127.785  62.196  1.00  0.00    -0.550 OA
ENDBRANCH   1   2
BRANCH   1   5
ATOM      5  C   UNL     1      18.806 125.794  63.034  1.00  0.00     0.059 C 
BRANCH   5   6
ATOM      6  C   UNL     1      19.502 124.487  62.820  1.00  0.00     0.042 C 
ATOM      7  O   UNL     1      19.264 123.804  61.790  1.00  0.00    -0.550 OA
ATOM      8  O   UNL     1      20.450 124.047  63.735  1.00  0.00    -0.550 OA
ENDBRANCH   5   6
ENDBRANCH   1   5
TORSDOF 3
ENDMDL
MODEL 7
REMARK VINA RESULT:    -2.774      2.001      2.227
REMARK INTER + INTRA:          -3.350
REMARK INTER:                  -3.257
REMARK INTRA:                  -0.093
REMARK UNBOUND:                -0.089
REMARK SMILES O=C([O-])CCC(=O)[O-]
REMARK SMILES IDX 4 1 2 2 1 3 3 4 5 5 6 6 7 7 8 8
REMARK H PARENT
REMARK Flexibility Score: inf
ROOT
ATOM      1  C   UNL     1      17.308 127.353  62.842  1.00  0.00     0.059 C 
ENDROOT
BRANCH   1   2
ATOM      2  C   UNL     1      17.599 125.892  62.966  1.00  0.00     0.042 C 
ATOM      3  O   UNL     1      16.659 125.072  63.145  1.00  0.00    -0.550 OA
ATOM      4  O   UNL     1      18.902 125.428  62.838  1.00  0.00    -0.550 OA
ENDBRANCH   1   2
BRANCH   1   5
ATOM      5  C   UNL     1      18.576 128.173  63.084  1.00  0.00     0.059 C 
BRANCH   5   6
ATOM      6  C   UNL     1      18.483 128.910  64.383  1.00  0.00     0.042 C 
ATOM      7  O   UNL     1      18.505 130.168  64.401  1.00  0.00    -0.550 OA
ATOM      8  O   UNL     1      18.323 128.207  65.571  1.00  0.00    -0.550 OA
ENDBRANCH   5   6
ENDBRANCH   1   5
TORSDOF 3
ENDMDL
MODEL 8
REMARK VINA RESULT:    -2.747      8.170      8.754
REMARK INTER + INTRA:          -3.318
REMARK INTER:                  -3.229
REMARK INTRA:                  -0.089
REMARK UNBOUND:                -0.089
REMARK SMILES O=C([O-])CCC(=O)[O-]
REMARK SMILES IDX 4 1 2 2 1 3 3 4 5 5 6 6 7 7 8 8
REMARK H PARENT
REMARK Flexibility Score: inf
ROOT
ATOM      1  C   UNL     1      16.542 127.518  54.882  1.00  0.00     0.059 C 
ENDROOT
BRANCH   1   2
ATOM      2  C   UNL     1      15.876 128.296  55.972  1.00  0.00     0.042 C 
ATOM      3  O   UNL     1      14.819 128.939  55.737  1.00  0.00    -0.550 OA
ATOM      4  O   UNL     1      16.397 128.274  57.260  1.00  0.00    -0.550 OA
ENDBRANCH   1   2
BRANCH   1   5
ATOM      5  C   UNL     1      15.990 127.932  53.517  1.00  0.00     0.059 C 
BRANCH   5   6
ATOM      6  C   UNL     1      17.067 128.549  52.682  1.00  0.00     0.042 C 
ATOM      7  O   UNL     1      17.070 128.391  51.433  1.00  0.00    -0.550 OA
ATOM      8  O   UNL     1      18.042 129.339  53.278  1.00  0.00    -0.550 OA
ENDBRANCH   5   6
ENDBRANCH   1   5
TORSDOF 3
ENDMDL
MODEL 9
REMARK VINA RESULT:    -2.665      7.777      8.707
REMARK INTER + INTRA:          -3.222
REMARK INTER:                  -3.093
REMARK INTRA:                  -0.129
REMARK UNBOUND:                -0.089
REMARK SMILES O=C([O-])CCC(=O)[O-]
REMARK SMILES IDX 4 1 2 2 1 3 3 4 5 5 6 6 7 7 8 8
REMARK H PARENT
REMARK Flexibility Score: inf
ROOT
ATOM      1  C   UNL     1      17.426 128.816  55.773  1.00  0.00     0.059 C 
ENDROOT
BRANCH   1   2
ATOM      2  C   UNL     1      18.635 129.146  54.957  1.00  0.00     0.042 C 
ATOM      3  O   UNL     1      19.703 128.497  55.116  1.00  0.00    -0.550 OA
ATOM      4  O   UNL     1      18.571 130.138  53.986  1.00  0.00    -0.550 OA
ENDBRANCH   1   2
BRANCH   1   5
ATOM      5  C   UNL     1      16.723 127.579  55.210  1.00  0.00     0.059 C 
BRANCH   5   6
ATOM      6  C   UNL     1      15.948 127.933  53.979  1.00  0.00     0.042 C 
ATOM      7  O   UNL     1      16.295 127.475  52.859  1.00  0.00    -0.550 OA
ATOM      8  O   UNL     1      14.814 128.730  54.077  1.00  0.00    -0.550 OA
ENDBRANCH   5   6
ENDBRANCH   1   5
TORSDOF 3
ENDMDL
