MODEL 1
REMARK VINA RESULT:     2.390      0.000      0.000
REMARK INTER + INTRA:           2.390
REMARK INTER:                   2.390
REMARK INTRA:                   0.000
REMARK UNBOUND:                 0.000
REMARK SMILES C=C1CCC[C@]2(C)C=C3OC(=O)C(C)=C3C[C@H]12
REMARK SMILES IDX 14 1 13 2 15 3 16 4 17 5 2 6 1 7 3 8 4 9 5 10 6 11 8 12 9 13
REMARK SMILES IDX 10 14 11 15 12 16 7 17
REMARK H PARENT
REMARK Flexibility Score: inf
ROOT
ATOM      1  C   UNL     1      13.728 -15.124 -25.503  1.00  0.00     0.053 C 
ATOM      2  C   UNL     1      12.629 -14.120 -25.644  1.00  0.00     0.041 C 
ATOM      3  C   UNL     1      12.570 -13.132 -26.532  1.00  0.00     0.005 C 
ATOM      4  C   UNL     1      13.501 -12.816 -27.656  1.00  0.00     0.049 C 
ATOM      5  C   UNL     1      13.320 -11.332 -28.086  1.00  0.00     0.029 C 
ATOM      6  C   UNL     1      14.057 -10.305 -27.221  1.00  0.00    -0.073 C 
ATOM      7  C   UNL     1      14.701 -10.604 -26.077  1.00  0.00     0.008 C 
ATOM      8  C   UNL     1      14.009  -8.858 -27.663  1.00  0.00     0.031 C 
ATOM      9  C   UNL     1      12.950  -8.634 -28.752  1.00  0.00     0.005 C 
ATOM     10  C   UNL     1      11.644  -9.346 -28.375  1.00  0.00     0.012 C 
ATOM     11  C   UNL     1      11.799 -10.905 -28.255  1.00  0.00    -0.004 C 
ATOM     12  C   UNL     1      10.949 -11.378 -27.075  1.00  0.00     0.027 C 
ATOM     13  C   UNL     1      11.328 -12.413 -26.331  1.00  0.00     0.131 C 
ATOM     14  O   UNL     1      10.624 -12.961 -25.268  1.00  0.00    -0.423 OA
ATOM     15  C   UNL     1      11.417 -14.015 -24.828  1.00  0.00     0.339 C 
ATOM     16  O   UNL     1      11.115 -14.765 -23.864  1.00  0.00    -0.246 OA
ATOM     17  C   UNL     1      11.227 -11.560 -29.532  1.00  0.00     0.016 C 
ENDROOT
TORSDOF 0
ENDMDL
MODEL 2
REMARK VINA RESULT:     3.116      2.515      4.129
REMARK INTER + INTRA:           3.116
REMARK INTER:                   3.116
REMARK INTRA:                   0.000
REMARK UNBOUND:                 0.000
REMARK SMILES C=C1CCC[C@]2(C)C=C3OC(=O)C(C)=C3C[C@H]12
REMARK SMILES IDX 14 1 13 2 15 3 16 4 17 5 2 6 1 7 3 8 4 9 5 10 6 11 8 12 9 13
REMARK SMILES IDX 10 14 11 15 12 16 7 17
REMARK H PARENT
REMARK Flexibility Score: inf
ROOT
ATOM      1  C   UNL     1       9.496 -15.125 -28.625  1.00  0.00     0.053 C 
ATOM      2  C   UNL     1      10.274 -13.866 -28.838  1.00  0.00     0.041 C 
ATOM      3  C   UNL     1      11.315 -13.449 -28.125  1.00  0.00     0.005 C 
ATOM      4  C   UNL     1      12.033 -14.138 -27.011  1.00  0.00     0.049 C 
ATOM      5  C   UNL     1      12.824 -13.094 -26.172  1.00  0.00     0.029 C 
ATOM      6  C   UNL     1      12.000 -12.330 -25.131  1.00  0.00    -0.073 C 
ATOM      7  C   UNL     1      10.661 -12.412 -25.020  1.00  0.00     0.008 C 
ATOM      8  C   UNL     1      12.742 -11.387 -24.209  1.00  0.00     0.031 C 
ATOM      9  C   UNL     1      14.175 -11.130 -24.697  1.00  0.00     0.005 C 
ATOM     10  C   UNL     1      14.179 -10.858 -26.208  1.00  0.00     0.012 C 
ATOM     11  C   UNL     1      13.659 -12.074 -27.058  1.00  0.00    -0.004 C 
ATOM     12  C   UNL     1      12.823 -11.522 -28.214  1.00  0.00     0.027 C 
ATOM     13  C   UNL     1      11.777 -12.194 -28.683  1.00  0.00     0.131 C 
ATOM     14  O   UNL     1      10.973 -11.820 -29.751  1.00  0.00    -0.423 OA
ATOM     15  C   UNL     1      10.035 -12.841 -29.858  1.00  0.00     0.339 C 
ATOM     16  O   UNL     1       9.119 -12.864 -30.720  1.00  0.00    -0.246 OA
ATOM     17  C   UNL     1      14.873 -12.807 -27.670  1.00  0.00     0.016 C 
ENDROOT
TORSDOF 0
ENDMDL
MODEL 3
REMARK VINA RESULT:     3.199      2.388      5.200
REMARK INTER + INTRA:           3.199
REMARK INTER:                   3.199
REMARK INTRA:                   0.000
REMARK UNBOUND:                 0.000
REMARK SMILES C=C1CCC[C@]2(C)C=C3OC(=O)C(C)=C3C[C@H]12
REMARK SMILES IDX 14 1 13 2 15 3 16 4 17 5 2 6 1 7 3 8 4 9 5 10 6 11 8 12 9 13
REMARK SMILES IDX 10 14 11 15 12 16 7 17
REMARK H PARENT
REMARK Flexibility Score: inf
ROOT
ATOM      1  C   UNL     1      11.437  -8.381 -28.754  1.00  0.00     0.053 C 
ATOM      2  C   UNL     1      12.459  -9.337 -28.227  1.00  0.00     0.041 C 
ATOM      3  C   UNL     1      12.222 -10.530 -27.690  1.00  0.00     0.005 C 
ATOM      4  C   UNL     1      10.928 -11.263 -27.552  1.00  0.00     0.049 C 
ATOM      5  C   UNL     1      11.054 -12.347 -26.444  1.00  0.00     0.029 C 
ATOM      6  C   UNL     1      10.887 -11.838 -25.009  1.00  0.00    -0.073 C 
ATOM      7  C   UNL     1      10.789 -10.537 -24.675  1.00  0.00     0.008 C 
ATOM      8  C   UNL     1      10.886 -12.867 -23.899  1.00  0.00     0.031 C 
ATOM      9  C   UNL     1      11.370 -14.237 -24.398  1.00  0.00     0.005 C 
ATOM     10  C   UNL     1      12.627 -14.070 -25.263  1.00  0.00     0.012 C 
ATOM     11  C   UNL     1      12.379 -13.217 -26.559  1.00  0.00    -0.004 C 
ATOM     12  C   UNL     1      13.608 -12.338 -26.792  1.00  0.00     0.027 C 
ATOM     13  C   UNL     1      13.492 -11.128 -27.332  1.00  0.00     0.131 C 
ATOM     14  O   UNL     1      14.532 -10.260 -27.632  1.00  0.00    -0.423 OA
ATOM     15  C   UNL     1      13.910  -9.144 -28.182  1.00  0.00     0.339 C 
ATOM     16  O   UNL     1      14.528  -8.124 -28.583  1.00  0.00    -0.246 OA
ATOM     17  C   UNL     1      12.255 -14.173 -27.767  1.00  0.00     0.016 C 
ENDROOT
TORSDOF 0
ENDMDL
MODEL 4
REMARK VINA RESULT:     4.680      2.007      3.710
REMARK INTER + INTRA:           4.680
REMARK INTER:                   4.680
REMARK INTRA:                   0.000
REMARK UNBOUND:                 0.000
REMARK SMILES C=C1CCC[C@]2(C)C=C3OC(=O)C(C)=C3C[C@H]12
REMARK SMILES IDX 14 1 13 2 15 3 16 4 17 5 2 6 1 7 3 8 4 9 5 10 6 11 8 12 9 13
REMARK SMILES IDX 10 14 11 15 12 16 7 17
REMARK H PARENT
REMARK Flexibility Score: inf
ROOT
ATOM      1  C   UNL     1      10.295 -12.348 -30.432  1.00  0.00     0.053 C 
ATOM      2  C   UNL     1      10.473 -12.920 -29.061  1.00  0.00     0.041 C 
ATOM      3  C   UNL     1      11.055 -12.324 -28.026  1.00  0.00     0.005 C 
ATOM      4  C   UNL     1      11.591 -10.934 -27.916  1.00  0.00     0.049 C 
ATOM      5  C   UNL     1      12.603 -10.853 -26.736  1.00  0.00     0.029 C 
ATOM      6  C   UNL     1      14.018 -11.345 -27.054  1.00  0.00    -0.073 C 
ATOM      7  C   UNL     1      14.368 -11.950 -28.205  1.00  0.00     0.008 C 
ATOM      8  C   UNL     1      15.071 -11.182 -25.979  1.00  0.00     0.031 C 
ATOM      9  C   UNL     1      14.443 -10.825 -24.623  1.00  0.00     0.005 C 
ATOM     10  C   UNL     1      13.227 -11.721 -24.350  1.00  0.00     0.012 C 
ATOM     11  C   UNL     1      12.076 -11.541 -25.405  1.00  0.00    -0.004 C 
ATOM     12  C   UNL     1      11.470 -12.916 -25.687  1.00  0.00     0.027 C 
ATOM     13  C   UNL     1      10.996 -13.222 -26.891  1.00  0.00     0.131 C 
ATOM     14  O   UNL     1      10.385 -14.414 -27.254  1.00  0.00    -0.423 OA
ATOM     15  C   UNL     1      10.060 -14.246 -28.596  1.00  0.00     0.339 C 
ATOM     16  O   UNL     1       9.486 -15.122 -29.293  1.00  0.00    -0.246 OA
ATOM     17  C   UNL     1      10.967 -10.663 -24.784  1.00  0.00     0.016 C 
ENDROOT
TORSDOF 0
ENDMDL
MODEL 5
REMARK VINA RESULT:     4.929      2.000      3.050
REMARK INTER + INTRA:           4.929
REMARK INTER:                   4.929
REMARK INTRA:                   0.000
REMARK UNBOUND:                 0.000
REMARK SMILES C=C1CCC[C@]2(C)C=C3OC(=O)C(C)=C3C[C@H]12
REMARK SMILES IDX 14 1 13 2 15 3 16 4 17 5 2 6 1 7 3 8 4 9 5 10 6 11 8 12 9 13
REMARK SMILES IDX 10 14 11 15 12 16 7 17
REMARK H PARENT
REMARK Flexibility Score: inf
ROOT
ATOM      1  C   UNL     1      10.159 -14.572 -22.913  1.00  0.00     0.053 C 
ATOM      2  C   UNL     1      10.508 -13.262 -23.544  1.00  0.00     0.041 C 
ATOM      3  C   UNL     1      10.862 -13.064 -24.810  1.00  0.00     0.005 C 
ATOM      4  C   UNL     1      10.920 -14.041 -25.938  1.00  0.00     0.049 C 
ATOM      5  C   UNL     1      11.847 -13.492 -27.061  1.00  0.00     0.029 C 
ATOM      6  C   UNL     1      13.346 -13.707 -26.834  1.00  0.00    -0.073 C 
ATOM      7  C   UNL     1      13.877 -14.192 -25.696  1.00  0.00     0.008 C 
ATOM      8  C   UNL     1      14.286 -13.297 -27.948  1.00  0.00     0.031 C 
ATOM      9  C   UNL     1      13.572 -12.437 -29.002  1.00  0.00     0.005 C 
ATOM     10  C   UNL     1      12.710 -11.368 -28.317  1.00  0.00     0.012 C 
ATOM     11  C   UNL     1      11.566 -11.971 -27.424  1.00  0.00    -0.004 C 
ATOM     12  C   UNL     1      11.438 -11.109 -26.168  1.00  0.00     0.027 C 
ATOM     13  C   UNL     1      11.093 -11.647 -25.002  1.00  0.00     0.131 C 
ATOM     14  O   UNL     1      10.901 -10.964 -23.808  1.00  0.00    -0.423 OA
ATOM     15  C   UNL     1      10.544 -11.950 -22.894  1.00  0.00     0.339 C 
ATOM     16  O   UNL     1      10.287 -11.723 -21.683  1.00  0.00    -0.246 OA
ATOM     17  C   UNL     1      10.230 -11.871 -28.194  1.00  0.00     0.016 C 
ENDROOT
TORSDOF 0
ENDMDL
