MODEL 1
REMARK VINA RESULT:    -4.801      0.000      0.000
REMARK INTER + INTRA:         -10.733
REMARK INTER:                  -8.730
REMARK INTRA:                  -2.003
REMARK UNBOUND:                -2.003
REMARK SMILES CCCCCCCCCCCCCCCC(=O)[O-]
REMARK SMILES IDX 9 1 10 2 11 3 12 4 13 5 14 6 15 7 16 8 17 9 18 10 8 11 7 12
REMARK SMILES IDX 6 13 5 14 4 15 3 16 2 17 1 18
REMARK H PARENT
REMARK Flexibility Score: inf
ROOT
ATOM      1  C   UNL     1     252.764 258.585 246.844  1.00  0.00     0.000 C 
ENDROOT
BRANCH   1   2
ATOM      2  C   UNL     1     252.393 260.061 247.055  1.00  0.00     0.000 C 
BRANCH   2   3
ATOM      3  C   UNL     1     253.629 260.963 246.913  1.00  0.00     0.000 C 
BRANCH   3   4
ATOM      4  C   UNL     1     254.577 260.501 245.794  1.00  0.00     0.000 C 
BRANCH   4   5
ATOM      5  C   UNL     1     255.959 261.170 245.877  1.00  0.00     0.000 C 
BRANCH   5   6
ATOM      6  C   UNL     1     256.828 260.898 244.635  1.00  0.00     0.006 C 
BRANCH   6   7
ATOM      7  C   UNL     1     258.127 261.720 244.576  1.00  0.00     0.053 C 
BRANCH   7   8
ATOM      8  C   UNL     1     258.869 261.690 245.876  1.00  0.00     0.041 C 
ATOM      9  O   UNL     1     259.432 260.631 246.260  1.00  0.00    -0.550 OA
ATOM     10  O   UNL     1     258.967 262.840 246.648  1.00  0.00    -0.550 OA
ENDBRANCH   7   8
ENDBRANCH   6   7
ENDBRANCH   5   6
ENDBRANCH   4   5
ENDBRANCH   3   4
ENDBRANCH   2   3
ENDBRANCH   1   2
BRANCH   1  11
ATOM     11  C   UNL     1     253.228 257.891 248.138  1.00  0.00     0.000 C 
BRANCH  11  12
ATOM     12  C   UNL     1     254.694 257.422 248.134  1.00  0.00    -0.000 C 
BRANCH  12  13
ATOM     13  C   UNL     1     255.652 258.441 248.768  1.00  0.00    -0.000 C 
BRANCH  13  14
ATOM     14  C   UNL     1     255.021 259.092 250.008  1.00  0.00    -0.000 C 
BRANCH  14  15
ATOM     15  C   UNL     1     255.451 260.566 250.175  1.00  0.00    -0.000 C 
BRANCH  15  16
ATOM     16  C   UNL     1     256.618 260.975 249.260  1.00  0.00    -0.000 C 
BRANCH  16  17
ATOM     17  C   UNL     1     257.616 261.916 249.949  1.00  0.00    -0.003 C 
ATOM     18  C   UNL     1     257.033 262.487 251.239  1.00  0.00     0.004 C 
ENDBRANCH  16  17
ENDBRANCH  15  16
ENDBRANCH  14  15
ENDBRANCH  13  14
ENDBRANCH  12  13
ENDBRANCH  11  12
ENDBRANCH   1  11
TORSDOF 14
ENDMDL
MODEL 2
REMARK VINA RESULT:    -4.625      2.602      5.929
REMARK INTER + INTRA:         -10.413
REMARK INTER:                  -8.671
REMARK INTRA:                  -1.742
REMARK UNBOUND:                -2.003
REMARK SMILES CCCCCCCCCCCCCCCC(=O)[O-]
REMARK SMILES IDX 9 1 10 2 11 3 12 4 13 5 14 6 15 7 16 8 17 9 18 10 8 11 7 12
REMARK SMILES IDX 6 13 5 14 4 15 3 16 2 17 1 18
REMARK H PARENT
REMARK Flexibility Score: inf
ROOT
ATOM      1  C   UNL     1     258.379 262.719 249.069  1.00  0.00     0.000 C 
ENDROOT
BRANCH   1   2
ATOM      2  C   UNL     1     258.357 262.481 250.586  1.00  0.00     0.000 C 
BRANCH   2   3
ATOM      3  C   UNL     1     256.921 262.247 251.084  1.00  0.00     0.000 C 
BRANCH   3   4
ATOM      4  C   UNL     1     256.290 260.973 250.499  1.00  0.00     0.000 C 
BRANCH   4   5
ATOM      5  C   UNL     1     254.917 261.235 249.856  1.00  0.00     0.000 C 
BRANCH   5   6
ATOM      6  C   UNL     1     254.557 260.198 248.777  1.00  0.00     0.006 C 
BRANCH   6   7
ATOM      7  C   UNL     1     253.810 260.777 247.563  1.00  0.00     0.053 C 
BRANCH   7   8
ATOM      8  C   UNL     1     253.538 259.735 246.523  1.00  0.00     0.041 C 
ATOM      9  O   UNL     1     254.423 259.435 245.679  1.00  0.00    -0.550 OA
ATOM     10  O   UNL     1     252.317 259.072 246.505  1.00  0.00    -0.550 OA
ENDBRANCH   7   8
ENDBRANCH   6   7
ENDBRANCH   5   6
ENDBRANCH   4   5
ENDBRANCH   3   4
ENDBRANCH   2   3
ENDBRANCH   1   2
BRANCH   1  11
ATOM     11  C   UNL     1     259.536 261.989 248.363  1.00  0.00     0.000 C 
BRANCH  11  12
ATOM     12  C   UNL     1     259.107 261.004 247.261  1.00  0.00    -0.000 C 
BRANCH  12  13
ATOM     13  C   UNL     1     257.582 260.881 247.125  1.00  0.00    -0.000 C 
BRANCH  13  14
ATOM     14  C   UNL     1     257.065 261.716 245.944  1.00  0.00    -0.000 C 
BRANCH  14  15
ATOM     15  C   UNL     1     257.851 261.438 244.645  1.00  0.00    -0.000 C 
BRANCH  15  16
ATOM     16  C   UNL     1     258.641 262.654 244.130  1.00  0.00    -0.000 C 
BRANCH  16  17
ATOM     17  C   UNL     1     258.485 263.890 245.025  1.00  0.00    -0.003 C 
ATOM     18  C   UNL     1     257.748 265.009 244.295  1.00  0.00     0.004 C 
ENDBRANCH  16  17
ENDBRANCH  15  16
ENDBRANCH  14  15
ENDBRANCH  13  14
ENDBRANCH  12  13
ENDBRANCH  11  12
ENDBRANCH   1  11
TORSDOF 14
ENDMDL
MODEL 3
REMARK VINA RESULT:    -4.620      2.527      5.348
REMARK INTER + INTRA:         -10.404
REMARK INTER:                  -8.518
REMARK INTRA:                  -1.885
REMARK UNBOUND:                -2.003
REMARK SMILES CCCCCCCCCCCCCCCC(=O)[O-]
REMARK SMILES IDX 9 1 10 2 11 3 12 4 13 5 14 6 15 7 16 8 17 9 18 10 8 11 7 12
REMARK SMILES IDX 6 13 5 14 4 15 3 16 2 17 1 18
REMARK H PARENT
REMARK Flexibility Score: inf
ROOT
ATOM      1  C   UNL     1     256.068 261.309 245.805  1.00  0.00     0.000 C 
ENDROOT
BRANCH   1   2
ATOM      2  C   UNL     1     256.423 260.796 247.209  1.00  0.00     0.000 C 
BRANCH   2   3
ATOM      3  C   UNL     1     255.203 260.864 248.141  1.00  0.00     0.000 C 
BRANCH   3   4
ATOM      4  C   UNL     1     255.588 260.817 249.629  1.00  0.00     0.000 C 
BRANCH   4   5
ATOM      5  C   UNL     1     257.099 260.998 249.854  1.00  0.00     0.000 C 
BRANCH   5   6
ATOM      6  C   UNL     1     257.446 262.349 250.506  1.00  0.00     0.006 C 
BRANCH   6   7
ATOM      7  C   UNL     1     258.748 262.986 249.992  1.00  0.00     0.053 C 
BRANCH   7   8
ATOM      8  C   UNL     1     259.873 262.828 250.967  1.00  0.00     0.041 C 
ATOM      9  O   UNL     1     261.063 262.769 250.559  1.00  0.00    -0.550 OA
ATOM     10  O   UNL     1     259.611 262.775 252.330  1.00  0.00    -0.550 OA
ENDBRANCH   7   8
ENDBRANCH   6   7
ENDBRANCH   5   6
ENDBRANCH   4   5
ENDBRANCH   3   4
ENDBRANCH   2   3
ENDBRANCH   1   2
BRANCH   1  11
ATOM     11  C   UNL     1     257.074 260.860 244.729  1.00  0.00     0.000 C 
BRANCH  11  12
ATOM     12  C   UNL     1     258.118 261.920 244.331  1.00  0.00    -0.000 C 
BRANCH  12  13
ATOM     13  C   UNL     1     257.874 263.281 244.998  1.00  0.00    -0.000 C 
BRANCH  13  14
ATOM     14  C   UNL     1     258.699 263.420 246.286  1.00  0.00    -0.000 C 
BRANCH  14  15
ATOM     15  C   UNL     1     260.125 262.850 246.130  1.00  0.00    -0.000 C 
BRANCH  15  16
ATOM     16  C   UNL     1     260.471 261.763 247.162  1.00  0.00    -0.000 C 
BRANCH  16  17
ATOM     17  C   UNL     1     260.410 260.345 246.580  1.00  0.00    -0.003 C 
ATOM     18  C   UNL     1     259.962 259.336 247.635  1.00  0.00     0.004 C 
ENDBRANCH  16  17
ENDBRANCH  15  16
ENDBRANCH  14  15
ENDBRANCH  13  14
ENDBRANCH  12  13
ENDBRANCH  11  12
ENDBRANCH   1  11
TORSDOF 14
ENDMDL
MODEL 4
REMARK VINA RESULT:    -4.612      1.062      2.471
REMARK INTER + INTRA:         -10.389
REMARK INTER:                  -8.471
REMARK INTRA:                  -1.918
REMARK UNBOUND:                -2.003
REMARK SMILES CCCCCCCCCCCCCCCC(=O)[O-]
REMARK SMILES IDX 9 1 10 2 11 3 12 4 13 5 14 6 15 7 16 8 17 9 18 10 8 11 7 12
REMARK SMILES IDX 6 13 5 14 4 15 3 16 2 17 1 18
REMARK H PARENT
REMARK Flexibility Score: inf
ROOT
ATOM      1  C   UNL     1     253.725 260.802 246.615  1.00  0.00     0.000 C 
ENDROOT
BRANCH   1   2
ATOM      2  C   UNL     1     254.745 260.476 245.513  1.00  0.00     0.000 C 
BRANCH   2   3
ATOM      3  C   UNL     1     256.115 261.096 245.834  1.00  0.00     0.000 C 
BRANCH   3   4
ATOM      4  C   UNL     1     257.095 261.016 244.652  1.00  0.00     0.000 C 
BRANCH   4   5
ATOM      5  C   UNL     1     258.044 262.225 244.589  1.00  0.00     0.000 C 
BRANCH   5   6
ATOM      6  C   UNL     1     258.355 262.810 245.979  1.00  0.00     0.006 C 
BRANCH   6   7
ATOM      7  C   UNL     1     259.839 262.742 246.379  1.00  0.00     0.053 C 
BRANCH   7   8
ATOM      8  C   UNL     1     260.097 261.667 247.390  1.00  0.00     0.041 C 
ATOM      9  O   UNL     1     260.395 261.970 248.575  1.00  0.00    -0.550 OA
ATOM     10  O   UNL     1     259.979 260.331 247.030  1.00  0.00    -0.550 OA
ENDBRANCH   7   8
ENDBRANCH   6   7
ENDBRANCH   5   6
ENDBRANCH   4   5
ENDBRANCH   3   4
ENDBRANCH   2   3
ENDBRANCH   1   2
BRANCH   1  11
ATOM     11  C   UNL     1     252.818 259.609 246.966  1.00  0.00     0.000 C 
BRANCH  11  12
ATOM     12  C   UNL     1     253.337 258.237 246.497  1.00  0.00    -0.000 C 
BRANCH  12  13
ATOM     13  C   UNL     1     254.299 257.585 247.500  1.00  0.00    -0.000 C 
BRANCH  13  14
ATOM     14  C   UNL     1     253.702 257.585 248.916  1.00  0.00    -0.000 C 
BRANCH  14  15
ATOM     15  C   UNL     1     254.612 258.306 249.933  1.00  0.00    -0.000 C 
BRANCH  15  16
ATOM     16  C   UNL     1     255.705 259.169 249.279  1.00  0.00    -0.000 C 
BRANCH  16  17
ATOM     17  C   UNL     1     255.713 260.614 249.792  1.00  0.00    -0.003 C 
ATOM     18  C   UNL     1     256.982 261.344 249.361  1.00  0.00     0.004 C 
ENDBRANCH  16  17
ENDBRANCH  15  16
ENDBRANCH  14  15
ENDBRANCH  13  14
ENDBRANCH  12  13
ENDBRANCH  11  12
ENDBRANCH   1  11
TORSDOF 14
ENDMDL
MODEL 5
REMARK VINA RESULT:    -4.606      2.207      3.241
REMARK INTER + INTRA:         -10.379
REMARK INTER:                  -8.720
REMARK INTRA:                  -1.658
REMARK UNBOUND:                -2.003
REMARK SMILES CCCCCCCCCCCCCCCC(=O)[O-]
REMARK SMILES IDX 9 1 10 2 11 3 12 4 13 5 14 6 15 7 16 8 17 9 18 10 8 11 7 12
REMARK SMILES IDX 6 13 5 14 4 15 3 16 2 17 1 18
REMARK H PARENT
REMARK Flexibility Score: inf
ROOT
ATOM      1  C   UNL     1     254.078 260.923 248.486  1.00  0.00     0.000 C 
ENDROOT
BRANCH   1   2
ATOM      2  C   UNL     1     253.997 260.913 246.952  1.00  0.00     0.000 C 
BRANCH   2   3
ATOM      3  C   UNL     1     255.218 260.206 246.343  1.00  0.00     0.000 C 
BRANCH   3   4
ATOM      4  C   UNL     1     255.902 261.039 245.246  1.00  0.00     0.000 C 
BRANCH   4   5
ATOM      5  C   UNL     1     257.375 261.343 245.567  1.00  0.00     0.000 C 
BRANCH   5   6
ATOM      6  C   UNL     1     257.620 261.582 247.068  1.00  0.00     0.006 C 
BRANCH   6   7
ATOM      7  C   UNL     1     258.636 260.621 247.707  1.00  0.00     0.053 C 
BRANCH   7   8
ATOM      8  C   UNL     1     259.984 260.718 247.061  1.00  0.00     0.041 C 
ATOM      9  O   UNL     1     260.565 261.832 246.970  1.00  0.00    -0.550 OA
ATOM     10  O   UNL     1     260.612 259.574 246.586  1.00  0.00    -0.550 OA
ENDBRANCH   7   8
ENDBRANCH   6   7
ENDBRANCH   5   6
ENDBRANCH   4   5
ENDBRANCH   3   4
ENDBRANCH   2   3
ENDBRANCH   1   2
BRANCH   1  11
ATOM     11  C   UNL     1     254.908 259.755 249.051  1.00  0.00     0.000 C 
BRANCH  11  12
ATOM     12  C   UNL     1     255.579 260.032 250.408  1.00  0.00    -0.000 C 
BRANCH  12  13
ATOM     13  C   UNL     1     256.267 261.403 250.469  1.00  0.00    -0.000 C 
BRANCH  13  14
ATOM     14  C   UNL     1     255.988 262.101 251.809  1.00  0.00    -0.000 C 
BRANCH  14  15
ATOM     15  C   UNL     1     254.479 262.312 252.055  1.00  0.00    -0.000 C 
BRANCH  15  16
ATOM     16  C   UNL     1     253.930 261.513 253.249  1.00  0.00    -0.000 C 
BRANCH  16  17
ATOM     17  C   UNL     1     254.724 261.749 254.541  1.00  0.00    -0.003 C 
ATOM     18  C   UNL     1     255.081 260.428 255.216  1.00  0.00     0.004 C 
ENDBRANCH  16  17
ENDBRANCH  15  16
ENDBRANCH  14  15
ENDBRANCH  13  14
ENDBRANCH  12  13
ENDBRANCH  11  12
ENDBRANCH   1  11
TORSDOF 14
ENDMDL
MODEL 6
REMARK VINA RESULT:    -4.581      1.753      4.159
REMARK INTER + INTRA:         -10.334
REMARK INTER:                  -8.231
REMARK INTRA:                  -2.103
REMARK UNBOUND:                -2.003
REMARK SMILES CCCCCCCCCCCCCCCC(=O)[O-]
REMARK SMILES IDX 9 1 10 2 11 3 12 4 13 5 14 6 15 7 16 8 17 9 18 10 8 11 7 12
REMARK SMILES IDX 6 13 5 14 4 15 3 16 2 17 1 18
REMARK H PARENT
REMARK Flexibility Score: inf
ROOT
ATOM      1  C   UNL     1     256.425 261.223 247.711  1.00  0.00     0.000 C 
ENDROOT
BRANCH   1   2
ATOM      2  C   UNL     1     256.387 261.116 246.179  1.00  0.00     0.000 C 
BRANCH   2   3
ATOM      3  C   UNL     1     257.465 262.005 245.540  1.00  0.00     0.000 C 
BRANCH   3   4
ATOM      4  C   UNL     1     258.558 261.195 244.824  1.00  0.00     0.000 C 
BRANCH   4   5
ATOM      5  C   UNL     1     259.506 260.485 245.805  1.00  0.00     0.000 C 
BRANCH   5   6
ATOM      6  C   UNL     1     260.039 261.424 246.903  1.00  0.00     0.006 C 
BRANCH   6   7
ATOM      7  C   UNL     1     259.978 260.840 248.324  1.00  0.00     0.053 C 
BRANCH   7   8
ATOM      8  C   UNL     1     259.917 261.911 249.369  1.00  0.00     0.041 C 
ATOM      9  O   UNL     1     260.683 261.867 250.367  1.00  0.00    -0.550 OA
ATOM     10  O   UNL     1     259.036 262.975 249.224  1.00  0.00    -0.550 OA
ENDBRANCH   7   8
ENDBRANCH   6   7
ENDBRANCH   5   6
ENDBRANCH   4   5
ENDBRANCH   3   4
ENDBRANCH   2   3
ENDBRANCH   1   2
BRANCH   1  11
ATOM     11  C   UNL     1     256.383 259.852 248.411  1.00  0.00     0.000 C 
BRANCH  11  12
ATOM     12  C   UNL     1     255.277 259.696 249.470  1.00  0.00    -0.000 C 
BRANCH  12  13
ATOM     13  C   UNL     1     254.670 258.286 249.501  1.00  0.00    -0.000 C 
BRANCH  13  14
ATOM     14  C   UNL     1     254.792 257.603 248.131  1.00  0.00    -0.000 C 
BRANCH  14  15
ATOM     15  C   UNL     1     253.468 257.642 247.339  1.00  0.00    -0.000 C 
BRANCH  15  16
ATOM     16  C   UNL     1     253.321 258.884 246.444  1.00  0.00    -0.000 C 
BRANCH  16  17
ATOM     17  C   UNL     1     252.218 259.838 246.923  1.00  0.00    -0.003 C 
ATOM     18  C   UNL     1     252.784 261.222 247.230  1.00  0.00     0.004 C 
ENDBRANCH  16  17
ENDBRANCH  15  16
ENDBRANCH  14  15
ENDBRANCH  13  14
ENDBRANCH  12  13
ENDBRANCH  11  12
ENDBRANCH   1  11
TORSDOF 14
ENDMDL
MODEL 7
REMARK VINA RESULT:    -4.554      2.663      5.349
REMARK INTER + INTRA:         -10.285
REMARK INTER:                  -8.525
REMARK INTRA:                  -1.760
REMARK UNBOUND:                -2.003
REMARK SMILES CCCCCCCCCCCCCCCC(=O)[O-]
REMARK SMILES IDX 9 1 10 2 11 3 12 4 13 5 14 6 15 7 16 8 17 9 18 10 8 11 7 12
REMARK SMILES IDX 6 13 5 14 4 15 3 16 2 17 1 18
REMARK H PARENT
REMARK Flexibility Score: inf
ROOT
ATOM      1  C   UNL     1     255.978 260.555 250.261  1.00  0.00     0.000 C 
ENDROOT
BRANCH   1   2
ATOM      2  C   UNL     1     254.903 260.803 249.193  1.00  0.00     0.000 C 
BRANCH   2   3
ATOM      3  C   UNL     1     255.469 260.575 247.782  1.00  0.00     0.000 C 
BRANCH   3   4
ATOM      4  C   UNL     1     254.431 260.829 246.676  1.00  0.00     0.000 C 
BRANCH   4   5
ATOM      5  C   UNL     1     254.072 259.551 245.899  1.00  0.00     0.000 C 
BRANCH   5   6
ATOM      6  C   UNL     1     253.088 258.647 246.662  1.00  0.00     0.006 C 
BRANCH   6   7
ATOM      7  C   UNL     1     253.449 257.152 246.637  1.00  0.00     0.053 C 
BRANCH   7   8
ATOM      8  C   UNL     1     254.214 256.739 247.857  1.00  0.00     0.041 C 
ATOM      9  O   UNL     1     254.129 257.413 248.917  1.00  0.00    -0.550 OA
ATOM     10  O   UNL     1     254.996 255.592 247.832  1.00  0.00    -0.550 OA
ENDBRANCH   7   8
ENDBRANCH   6   7
ENDBRANCH   5   6
ENDBRANCH   4   5
ENDBRANCH   3   4
ENDBRANCH   2   3
ENDBRANCH   1   2
BRANCH   1  11
ATOM     11  C   UNL     1     256.259 261.795 251.130  1.00  0.00     0.000 C 
BRANCH  11  12
ATOM     12  C   UNL     1     257.549 262.557 250.778  1.00  0.00    -0.000 C 
BRANCH  12  13
ATOM     13  C   UNL     1     258.463 261.779 249.819  1.00  0.00    -0.000 C 
BRANCH  13  14
ATOM     14  C   UNL     1     258.568 262.489 248.461  1.00  0.00    -0.000 C 
BRANCH  14  15
ATOM     15  C   UNL     1     259.027 261.535 247.338  1.00  0.00    -0.000 C 
BRANCH  15  16
ATOM     16  C   UNL     1     259.130 262.210 245.960  1.00  0.00    -0.000 C 
BRANCH  16  17
ATOM     17  C   UNL     1     257.770 262.372 245.270  1.00  0.00    -0.003 C 
ATOM     18  C   UNL     1     257.352 261.082 244.568  1.00  0.00     0.004 C 
ENDBRANCH  16  17
ENDBRANCH  15  16
ENDBRANCH  14  15
ENDBRANCH  13  14
ENDBRANCH  12  13
ENDBRANCH  11  12
ENDBRANCH   1  11
TORSDOF 14
ENDMDL
MODEL 8
REMARK VINA RESULT:    -4.529      3.591      6.051
REMARK INTER + INTRA:         -10.239
REMARK INTER:                  -8.530
REMARK INTRA:                  -1.708
REMARK UNBOUND:                -2.003
REMARK SMILES CCCCCCCCCCCCCCCC(=O)[O-]
REMARK SMILES IDX 9 1 10 2 11 3 12 4 13 5 14 6 15 7 16 8 17 9 18 10 8 11 7 12
REMARK SMILES IDX 6 13 5 14 4 15 3 16 2 17 1 18
REMARK H PARENT
REMARK Flexibility Score: inf
ROOT
ATOM      1  C   UNL     1     252.982 259.941 246.945  1.00  0.00     0.000 C 
ENDROOT
BRANCH   1   2
ATOM      2  C   UNL     1     253.745 261.059 247.671  1.00  0.00     0.000 C 
BRANCH   2   3
ATOM      3  C   UNL     1     255.264 260.859 247.544  1.00  0.00     0.000 C 
BRANCH   3   4
ATOM      4  C   UNL     1     255.973 260.809 248.907  1.00  0.00     0.000 C 
BRANCH   4   5
ATOM      5  C   UNL     1     254.986 260.786 250.086  1.00  0.00     0.000 C 
BRANCH   5   6
ATOM      6  C   UNL     1     255.519 261.533 251.323  1.00  0.00     0.006 C 
BRANCH   6   7
ATOM      7  C   UNL     1     254.483 261.727 252.443  1.00  0.00     0.053 C 
BRANCH   7   8
ATOM      8  C   UNL     1     254.364 260.515 253.314  1.00  0.00     0.041 C 
ATOM      9  O   UNL     1     253.339 260.342 254.023  1.00  0.00    -0.550 OA
ATOM     10  O   UNL     1     255.374 259.560 253.319  1.00  0.00    -0.550 OA
ENDBRANCH   7   8
ENDBRANCH   6   7
ENDBRANCH   5   6
ENDBRANCH   4   5
ENDBRANCH   3   4
ENDBRANCH   2   3
ENDBRANCH   1   2
BRANCH   1  11
ATOM     11  C   UNL     1     253.911 258.855 246.371  1.00  0.00     0.000 C 
BRANCH  11  12
ATOM     12  C   UNL     1     253.705 257.447 246.958  1.00  0.00    -0.000 C 
BRANCH  12  13
ATOM     13  C   UNL     1     254.052 257.363 248.451  1.00  0.00    -0.000 C 
BRANCH  13  14
ATOM     14  C   UNL     1     255.573 257.306 248.661  1.00  0.00    -0.000 C 
BRANCH  14  15
ATOM     15  C   UNL     1     256.041 255.925 249.170  1.00  0.00    -0.000 C 
BRANCH  15  16
ATOM     16  C   UNL     1     256.164 254.868 248.059  1.00  0.00    -0.000 C 
BRANCH  16  17
ATOM     17  C   UNL     1     255.048 253.817 248.108  1.00  0.00    -0.003 C 
ATOM     18  C   UNL     1     254.220 253.832 246.826  1.00  0.00     0.004 C 
ENDBRANCH  16  17
ENDBRANCH  15  16
ENDBRANCH  14  15
ENDBRANCH  13  14
ENDBRANCH  12  13
ENDBRANCH  11  12
ENDBRANCH   1  11
TORSDOF 14
ENDMDL
MODEL 9
REMARK VINA RESULT:    -4.516      3.272      5.407
REMARK INTER + INTRA:         -10.215
REMARK INTER:                  -8.212
REMARK INTRA:                  -2.002
REMARK UNBOUND:                -2.003
REMARK SMILES CCCCCCCCCCCCCCCC(=O)[O-]
REMARK SMILES IDX 9 1 10 2 11 3 12 4 13 5 14 6 15 7 16 8 17 9 18 10 8 11 7 12
REMARK SMILES IDX 6 13 5 14 4 15 3 16 2 17 1 18
REMARK H PARENT
REMARK Flexibility Score: inf
ROOT
ATOM      1  C   UNL     1     254.077 258.956 245.742  1.00  0.00     0.000 C 
ENDROOT
BRANCH   1   2
ATOM      2  C   UNL     1     253.074 258.385 246.756  1.00  0.00     0.000 C 
BRANCH   2   3
ATOM      3  C   UNL     1     253.621 257.105 247.407  1.00  0.00     0.000 C 
BRANCH   3   4
ATOM      4  C   UNL     1     253.578 257.154 248.943  1.00  0.00     0.000 C 
BRANCH   4   5
ATOM      5  C   UNL     1     254.980 257.249 249.570  1.00  0.00     0.000 C 
BRANCH   5   6
ATOM      6  C   UNL     1     256.074 256.636 248.677  1.00  0.00     0.006 C 
BRANCH   6   7
ATOM      7  C   UNL     1     256.736 255.375 249.258  1.00  0.00     0.053 C 
BRANCH   7   8
ATOM      8  C   UNL     1     256.084 254.121 248.761  1.00  0.00     0.041 C 
ATOM      9  O   UNL     1     256.135 253.067 249.447  1.00  0.00    -0.550 OA
ATOM     10  O   UNL     1     255.395 254.126 247.556  1.00  0.00    -0.550 OA
ENDBRANCH   7   8
ENDBRANCH   6   7
ENDBRANCH   5   6
ENDBRANCH   4   5
ENDBRANCH   3   4
ENDBRANCH   2   3
ENDBRANCH   1   2
BRANCH   1  11
ATOM     11  C   UNL     1     254.687 260.296 246.191  1.00  0.00     0.000 C 
BRANCH  11  12
ATOM     12  C   UNL     1     254.145 260.844 247.524  1.00  0.00    -0.000 C 
BRANCH  12  13
ATOM     13  C   UNL     1     255.189 260.823 248.650  1.00  0.00    -0.000 C 
BRANCH  13  14
ATOM     14  C   UNL     1     256.527 260.257 248.150  1.00  0.00    -0.000 C 
BRANCH  14  15
ATOM     15  C   UNL     1     257.565 261.366 247.877  1.00  0.00    -0.000 C 
BRANCH  15  16
ATOM     16  C   UNL     1     258.719 260.919 246.964  1.00  0.00    -0.000 C 
BRANCH  16  17
ATOM     17  C   UNL     1     258.543 261.377 245.510  1.00  0.00    -0.003 C 
ATOM     18  C   UNL     1     257.533 262.516 245.411  1.00  0.00     0.004 C 
ENDBRANCH  16  17
ENDBRANCH  15  16
ENDBRANCH  14  15
ENDBRANCH  13  14
ENDBRANCH  12  13
ENDBRANCH  11  12
ENDBRANCH   1  11
TORSDOF 14
ENDMDL
