MODEL 1
REMARK VINA RESULT:    -4.908      0.000      0.000
REMARK INTER + INTRA:          -7.242
REMARK INTER:                  -6.917
REMARK INTRA:                  -0.325
REMARK UNBOUND:                -0.325
REMARK SMILES CCCCCCCCC(=O)[O-]
REMARK SMILES IDX 6 1 7 2 8 3 9 4 10 5 11 6 5 7 4 8 3 9 2 10 1 11
REMARK H PARENT
REMARK Flexibility Score: inf
ROOT
ATOM      1  C   UNL     1     -22.349 -31.915  23.331  1.00  0.00     0.000 C 
ENDROOT
BRANCH   1   2
ATOM      2  C   UNL     1     -23.069 -31.193  24.480  1.00  0.00     0.006 C 
BRANCH   2   3
ATOM      3  C   UNL     1     -24.010 -32.122  25.261  1.00  0.00     0.053 C 
BRANCH   3   4
ATOM      4  C   UNL     1     -25.422 -31.939  24.802  1.00  0.00     0.041 C 
ATOM      5  O   UNL     1     -26.339 -32.663  25.272  1.00  0.00    -0.550 OA
ATOM      6  O   UNL     1     -25.734 -30.936  23.894  1.00  0.00    -0.550 OA
ENDBRANCH   3   4
ENDBRANCH   2   3
ENDBRANCH   1   2
BRANCH   1   7
ATOM      7  C   UNL     1     -20.830 -31.684  23.346  1.00  0.00     0.000 C 
BRANCH   7   8
ATOM      8  C   UNL     1     -20.415 -30.526  24.271  1.00  0.00    -0.000 C 
BRANCH   8   9
ATOM      9  C   UNL     1     -18.895 -30.254  24.272  1.00  0.00    -0.000 C 
BRANCH   9  10
ATOM     10  C   UNL     1     -18.103 -31.218  23.372  1.00  0.00    -0.003 C 
ATOM     11  C   UNL     1     -16.591 -31.038  23.514  1.00  0.00     0.004 C 
ENDBRANCH   9  10
ENDBRANCH   8   9
ENDBRANCH   7   8
ENDBRANCH   1   7
TORSDOF 7
ENDMDL
MODEL 2
REMARK VINA RESULT:    -4.794      1.553      2.283
REMARK INTER + INTRA:          -7.081
REMARK INTER:                  -6.855
REMARK INTRA:                  -0.226
REMARK UNBOUND:                -0.325
REMARK SMILES CCCCCCCCC(=O)[O-]
REMARK SMILES IDX 6 1 7 2 8 3 9 4 10 5 11 6 5 7 4 8 3 9 2 10 1 11
REMARK H PARENT
REMARK Flexibility Score: inf
ROOT
ATOM      1  C   UNL     1     -20.786 -30.892  23.612  1.00  0.00     0.000 C 
ENDROOT
BRANCH   1   2
ATOM      2  C   UNL     1     -21.925 -31.842  23.208  1.00  0.00     0.006 C 
BRANCH   2   3
ATOM      3  C   UNL     1     -22.968 -31.162  22.310  1.00  0.00     0.053 C 
BRANCH   3   4
ATOM      4  C   UNL     1     -24.349 -31.573  22.712  1.00  0.00     0.041 C 
ATOM      5  O   UNL     1     -24.612 -31.815  23.919  1.00  0.00    -0.550 OA
ATOM      6  O   UNL     1     -25.358 -31.641  21.760  1.00  0.00    -0.550 OA
ENDBRANCH   3   4
ENDBRANCH   2   3
ENDBRANCH   1   2
BRANCH   1   7
ATOM      7  C   UNL     1     -19.401 -31.551  23.507  1.00  0.00     0.000 C 
BRANCH   7   8
ATOM      8  C   UNL     1     -18.259 -30.595  23.892  1.00  0.00    -0.000 C 
BRANCH   8   9
ATOM      9  C   UNL     1     -16.853 -31.177  23.625  1.00  0.00    -0.000 C 
BRANCH   9  10
ATOM     10  C   UNL     1     -16.108 -30.468  22.480  1.00  0.00    -0.003 C 
ATOM     11  C   UNL     1     -16.818 -29.192  22.026  1.00  0.00     0.004 C 
ENDBRANCH   9  10
ENDBRANCH   8   9
ENDBRANCH   7   8
ENDBRANCH   1   7
TORSDOF 7
ENDMDL
MODEL 3
REMARK VINA RESULT:    -4.749      5.125      6.957
REMARK INTER + INTRA:          -7.017
REMARK INTER:                  -6.666
REMARK INTRA:                  -0.352
REMARK UNBOUND:                -0.325
REMARK SMILES CCCCCCCCC(=O)[O-]
REMARK SMILES IDX 6 1 7 2 8 3 9 4 10 5 11 6 5 7 4 8 3 9 2 10 1 11
REMARK H PARENT
REMARK Flexibility Score: inf
ROOT
ATOM      1  C   UNL     1     -17.990 -31.290  23.321  1.00  0.00     0.000 C 
ENDROOT
BRANCH   1   2
ATOM      2  C   UNL     1     -16.504 -30.900  23.286  1.00  0.00     0.006 C 
BRANCH   2   3
ATOM      3  C   UNL     1     -15.942 -30.852  21.859  1.00  0.00     0.053 C 
BRANCH   3   4
ATOM      4  C   UNL     1     -16.304 -29.560  21.199  1.00  0.00     0.041 C 
ATOM      5  O   UNL     1     -16.302 -28.488  21.860  1.00  0.00    -0.550 OA
ATOM      6  O   UNL     1     -16.596 -29.530  19.842  1.00  0.00    -0.550 OA
ENDBRANCH   3   4
ENDBRANCH   2   3
ENDBRANCH   1   2
BRANCH   1   7
ATOM      7  C   UNL     1     -18.903 -30.109  23.691  1.00  0.00     0.000 C 
BRANCH   7   8
ATOM      8  C   UNL     1     -20.282 -30.563  24.200  1.00  0.00    -0.000 C 
BRANCH   8   9
ATOM      9  C   UNL     1     -20.847 -29.669  25.326  1.00  0.00    -0.000 C 
BRANCH   9  10
ATOM     10  C   UNL     1     -19.756 -29.056  26.221  1.00  0.00    -0.003 C 
ATOM     11  C   UNL     1     -19.767 -27.527  26.187  1.00  0.00     0.004 C 
ENDBRANCH   9  10
ENDBRANCH   8   9
ENDBRANCH   7   8
ENDBRANCH   1   7
TORSDOF 7
ENDMDL
MODEL 4
REMARK VINA RESULT:    -4.734      1.007      1.335
REMARK INTER + INTRA:          -6.996
REMARK INTER:                  -6.734
REMARK INTRA:                  -0.262
REMARK UNBOUND:                -0.325
REMARK SMILES CCCCCCCCC(=O)[O-]
REMARK SMILES IDX 6 1 7 2 8 3 9 4 10 5 11 6 5 7 4 8 3 9 2 10 1 11
REMARK H PARENT
REMARK Flexibility Score: inf
ROOT
ATOM      1  C   UNL     1     -22.646 -31.253  24.068  1.00  0.00     0.000 C 
ENDROOT
BRANCH   1   2
ATOM      2  C   UNL     1     -24.105 -31.735  24.101  1.00  0.00     0.006 C 
BRANCH   2   3
ATOM      3  C   UNL     1     -24.448 -32.486  25.395  1.00  0.00     0.053 C 
BRANCH   3   4
ATOM      4  C   UNL     1     -25.918 -32.750  25.470  1.00  0.00     0.041 C 
ATOM      5  O   UNL     1     -26.525 -32.644  26.568  1.00  0.00    -0.550 OA
ATOM      6  O   UNL     1     -26.628 -33.064  24.319  1.00  0.00    -0.550 OA
ENDBRANCH   3   4
ENDBRANCH   2   3
ENDBRANCH   1   2
BRANCH   1   7
ATOM      7  C   UNL     1     -21.750 -32.138  23.187  1.00  0.00     0.000 C 
BRANCH   7   8
ATOM      8  C   UNL     1     -20.258 -31.785  23.315  1.00  0.00    -0.000 C 
BRANCH   8   9
ATOM      9  C   UNL     1     -20.000 -30.476  24.092  1.00  0.00    -0.000 C 
BRANCH   9  10
ATOM     10  C   UNL     1     -18.512 -30.235  24.401  1.00  0.00    -0.003 C 
ATOM     11  C   UNL     1     -17.590 -31.083  23.523  1.00  0.00     0.004 C 
ENDBRANCH   9  10
ENDBRANCH   8   9
ENDBRANCH   7   8
ENDBRANCH   1   7
TORSDOF 7
ENDMDL
MODEL 5
REMARK VINA RESULT:    -4.694      4.112      6.475
REMARK INTER + INTRA:          -6.940
REMARK INTER:                  -6.488
REMARK INTRA:                  -0.452
REMARK UNBOUND:                -0.325
REMARK SMILES CCCCCCCCC(=O)[O-]
REMARK SMILES IDX 6 1 7 2 8 3 9 4 10 5 11 6 5 7 4 8 3 9 2 10 1 11
REMARK H PARENT
REMARK Flexibility Score: inf
ROOT
ATOM      1  C   UNL     1     -20.308 -30.459  24.003  1.00  0.00     0.000 C 
ENDROOT
BRANCH   1   2
ATOM      2  C   UNL     1     -18.892 -30.030  24.420  1.00  0.00     0.006 C 
BRANCH   2   3
ATOM      3  C   UNL     1     -17.802 -30.908  23.791  1.00  0.00     0.053 C 
BRANCH   3   4
ATOM      4  C   UNL     1     -16.956 -30.100  22.858  1.00  0.00     0.041 C 
ATOM      5  O   UNL     1     -15.876 -30.571  22.415  1.00  0.00    -0.550 OA
ATOM      6  O   UNL     1     -17.385 -28.848  22.437  1.00  0.00    -0.550 OA
ENDBRANCH   3   4
ENDBRANCH   2   3
ENDBRANCH   1   2
BRANCH   1   7
ATOM      7  C   UNL     1     -20.319 -31.785  23.225  1.00  0.00     0.000 C 
BRANCH   7   8
ATOM      8  C   UNL     1     -21.736 -32.354  23.042  1.00  0.00    -0.000 C 
BRANCH   8   9
ATOM      9  C   UNL     1     -22.800 -31.273  22.750  1.00  0.00    -0.000 C 
BRANCH   9  10
ATOM     10  C   UNL     1     -24.089 -31.450  23.572  1.00  0.00    -0.003 C 
ATOM     11  C   UNL     1     -23.806 -31.872  25.015  1.00  0.00     0.004 C 
ENDBRANCH   9  10
ENDBRANCH   8   9
ENDBRANCH   7   8
ENDBRANCH   1   7
TORSDOF 7
ENDMDL
MODEL 6
REMARK VINA RESULT:    -4.644      4.438      6.550
REMARK INTER + INTRA:          -6.869
REMARK INTER:                  -6.507
REMARK INTRA:                  -0.362
REMARK UNBOUND:                -0.325
REMARK SMILES CCCCCCCCC(=O)[O-]
REMARK SMILES IDX 6 1 7 2 8 3 9 4 10 5 11 6 5 7 4 8 3 9 2 10 1 11
REMARK H PARENT
REMARK Flexibility Score: inf
ROOT
ATOM      1  C   UNL     1     -19.699 -30.787  23.875  1.00  0.00     0.000 C 
ENDROOT
BRANCH   1   2
ATOM      2  C   UNL     1     -18.294 -30.348  24.315  1.00  0.00     0.006 C 
BRANCH   2   3
ATOM      3  C   UNL     1     -17.183 -31.160  23.634  1.00  0.00     0.053 C 
BRANCH   3   4
ATOM      4  C   UNL     1     -16.612 -30.397  22.481  1.00  0.00     0.041 C 
ATOM      5  O   UNL     1     -15.875 -30.977  21.641  1.00  0.00    -0.550 OA
ATOM      6  O   UNL     1     -16.932 -29.058  22.306  1.00  0.00    -0.550 OA
ENDBRANCH   3   4
ENDBRANCH   2   3
ENDBRANCH   1   2
BRANCH   1   7
ATOM      7  C   UNL     1     -20.813 -30.105  24.686  1.00  0.00     0.000 C 
BRANCH   7   8
ATOM      8  C   UNL     1     -22.190 -30.753  24.464  1.00  0.00    -0.000 C 
BRANCH   8   9
ATOM      9  C   UNL     1     -22.204 -31.795  23.324  1.00  0.00    -0.000 C 
BRANCH   9  10
ATOM     10  C   UNL     1     -23.094 -31.387  22.137  1.00  0.00    -0.003 C 
ATOM     11  C   UNL     1     -23.162 -29.869  21.955  1.00  0.00     0.004 C 
ENDBRANCH   9  10
ENDBRANCH   8   9
ENDBRANCH   7   8
ENDBRANCH   1   7
TORSDOF 7
ENDMDL
MODEL 7
REMARK VINA RESULT:    -4.587      3.953      5.710
REMARK INTER + INTRA:          -6.788
REMARK INTER:                  -6.211
REMARK INTRA:                  -0.577
REMARK UNBOUND:                -0.325
REMARK SMILES CCCCCCCCC(=O)[O-]
REMARK SMILES IDX 6 1 7 2 8 3 9 4 10 5 11 6 5 7 4 8 3 9 2 10 1 11
REMARK H PARENT
REMARK Flexibility Score: inf
ROOT
ATOM      1  C   UNL     1     -24.670 -31.235  22.610  1.00  0.00     0.000 C 
ENDROOT
BRANCH   1   2
ATOM      2  C   UNL     1     -25.959 -32.049  22.411  1.00  0.00     0.006 C 
BRANCH   2   3
ATOM      3  C   UNL     1     -27.208 -31.162  22.324  1.00  0.00     0.053 C 
BRANCH   3   4
ATOM      4  C   UNL     1     -28.420 -31.994  22.047  1.00  0.00     0.041 C 
ATOM      5  O   UNL     1     -28.315 -33.242  21.919  1.00  0.00    -0.550 OA
ATOM      6  O   UNL     1     -29.672 -31.398  21.980  1.00  0.00    -0.550 OA
ENDBRANCH   3   4
ENDBRANCH   2   3
ENDBRANCH   1   2
BRANCH   1   7
ATOM      7  C   UNL     1     -23.818 -31.751  23.780  1.00  0.00     0.000 C 
BRANCH   7   8
ATOM      8  C   UNL     1     -24.514 -31.579  25.142  1.00  0.00    -0.000 C 
BRANCH   8   9
ATOM      9  C   UNL     1     -24.835 -32.917  25.842  1.00  0.00    -0.000 C 
BRANCH   9  10
ATOM     10  C   UNL     1     -26.257 -32.974  26.426  1.00  0.00    -0.003 C 
ATOM     11  C   UNL     1     -26.969 -31.622  26.356  1.00  0.00     0.004 C 
ENDBRANCH   9  10
ENDBRANCH   8   9
ENDBRANCH   7   8
ENDBRANCH   1   7
TORSDOF 7
ENDMDL
MODEL 8
REMARK VINA RESULT:    -4.450      5.346      7.568
REMARK INTER + INTRA:          -6.596
REMARK INTER:                  -6.369
REMARK INTRA:                  -0.227
REMARK UNBOUND:                -0.325
REMARK SMILES CCCCCCCCC(=O)[O-]
REMARK SMILES IDX 6 1 7 2 8 3 9 4 10 5 11 6 5 7 4 8 3 9 2 10 1 11
REMARK H PARENT
REMARK Flexibility Score: inf
ROOT
ATOM      1  C   UNL     1     -16.146 -30.829  21.819  1.00  0.00     0.000 C 
ENDROOT
BRANCH   1   2
ATOM      2  C   UNL     1     -16.506 -29.435  21.280  1.00  0.00     0.006 C 
BRANCH   2   3
ATOM      3  C   UNL     1     -16.104 -29.250  19.811  1.00  0.00     0.053 C 
BRANCH   3   4
ATOM      4  C   UNL     1     -16.918 -28.166  19.179  1.00  0.00     0.041 C 
ATOM      5  O   UNL     1     -17.347 -28.299  18.003  1.00  0.00    -0.550 OA
ATOM      6  O   UNL     1     -17.248 -27.030  19.907  1.00  0.00    -0.550 OA
ENDBRANCH   3   4
ENDBRANCH   2   3
ENDBRANCH   1   2
BRANCH   1   7
ATOM      7  C   UNL     1     -16.551 -31.018  23.290  1.00  0.00     0.000 C 
BRANCH   7   8
ATOM      8  C   UNL     1     -18.069 -31.195  23.469  1.00  0.00    -0.000 C 
BRANCH   8   9
ATOM      9  C   UNL     1     -18.698 -30.166  24.434  1.00  0.00    -0.000 C 
BRANCH   9  10
ATOM     10  C   UNL     1     -20.236 -30.213  24.456  1.00  0.00    -0.003 C 
ATOM     11  C   UNL     1     -20.830 -29.337  25.560  1.00  0.00     0.004 C 
ENDBRANCH   9  10
ENDBRANCH   8   9
ENDBRANCH   7   8
ENDBRANCH   1   7
TORSDOF 7
ENDMDL
MODEL 9
REMARK VINA RESULT:    -4.441      4.008      5.350
REMARK INTER + INTRA:          -6.584
REMARK INTER:                  -5.998
REMARK INTRA:                  -0.586
REMARK UNBOUND:                -0.325
REMARK SMILES CCCCCCCCC(=O)[O-]
REMARK SMILES IDX 6 1 7 2 8 3 9 4 10 5 11 6 5 7 4 8 3 9 2 10 1 11
REMARK H PARENT
REMARK Flexibility Score: inf
ROOT
ATOM      1  C   UNL     1     -26.745 -32.376  25.741  1.00  0.00     0.000 C 
ENDROOT
BRANCH   1   2
ATOM      2  C   UNL     1     -27.541 -32.819  24.503  1.00  0.00     0.006 C 
BRANCH   2   3
ATOM      3  C   UNL     1     -28.315 -31.663  23.856  1.00  0.00     0.053 C 
BRANCH   3   4
ATOM      4  C   UNL     1     -28.853 -32.077  22.523  1.00  0.00     0.041 C 
ATOM      5  O   UNL     1     -29.743 -31.389  21.958  1.00  0.00    -0.550 OA
ATOM      6  O   UNL     1     -28.335 -33.194  21.880  1.00  0.00    -0.550 OA
ENDBRANCH   3   4
ENDBRANCH   2   3
ENDBRANCH   1   2
BRANCH   1   7
ATOM      7  C   UNL     1     -25.469 -33.207  25.953  1.00  0.00     0.000 C 
BRANCH   7   8
ATOM      8  C   UNL     1     -24.192 -32.444  25.562  1.00  0.00    -0.000 C 
BRANCH   8   9
ATOM      9  C   UNL     1     -24.463 -31.198  24.691  1.00  0.00    -0.000 C 
BRANCH   9  10
ATOM     10  C   UNL     1     -23.915 -31.325  23.259  1.00  0.00    -0.003 C 
ATOM     11  C   UNL     1     -25.015 -31.620  22.238  1.00  0.00     0.004 C 
ENDBRANCH   9  10
ENDBRANCH   8   9
ENDBRANCH   7   8
ENDBRANCH   1   7
TORSDOF 7
ENDMDL
