MODEL 1
REMARK VINA RESULT:    -3.853      0.000      0.000
REMARK INTER + INTRA:          -6.264
REMARK INTER:                  -5.656
REMARK INTRA:                  -0.609
REMARK UNBOUND:                -0.609
REMARK SMILES CC(C)COC(=O)c1ccccc1C(=O)OCC(C)C
REMARK SMILES IDX 8 1 9 2 10 3 11 4 12 5 13 6 6 7 7 8 5 9 4 10 2 11 1 12 3 13
REMARK SMILES IDX 14 14 15 15 16 16 17 17 18 18 19 19 20 20
REMARK H PARENT
REMARK Flexibility Score: inf
ROOT
ATOM      1  C   UNL     1      25.355  23.932  26.123  1.00  0.00     0.074 A 
ATOM      2  C   UNL     1      24.396  23.215  25.385  1.00  0.00     0.016 A 
ATOM      3  C   UNL     1      24.633  22.875  24.052  1.00  0.00     0.001 A 
ATOM      4  C   UNL     1      25.828  23.245  23.438  1.00  0.00     0.001 A 
ATOM      5  C   UNL     1      26.782  23.976  24.147  1.00  0.00     0.016 A 
ATOM      6  C   UNL     1      26.555  24.346  25.485  1.00  0.00     0.074 A 
ENDROOT
BRANCH   1   7
ATOM      7  C   UNL     1      25.110  24.157  27.563  1.00  0.00     0.339 C 
ATOM      8  O   UNL     1      25.753  23.491  28.422  1.00  0.00    -0.246 OA
BRANCH   7   9
ATOM      9  O   UNL     1      24.212  25.149  27.967  1.00  0.00    -0.462 OA
BRANCH   9  10
ATOM     10  C   UNL     1      22.798  25.013  27.835  1.00  0.00     0.236 C 
BRANCH  10  11
ATOM     11  C   UNL     1      22.114  26.387  27.907  1.00  0.00     0.021 C 
ATOM     12  C   UNL     1      20.895  26.350  28.837  1.00  0.00     0.011 C 
ATOM     13  C   UNL     1      23.097  27.477  28.346  1.00  0.00     0.011 C 
ENDBRANCH  10  11
ENDBRANCH   9  10
ENDBRANCH   7   9
ENDBRANCH   1   7
BRANCH   6  14
ATOM     14  C   UNL     1      27.537  25.233  26.147  1.00  0.00     0.339 C 
ATOM     15  O   UNL     1      28.556  24.737  26.702  1.00  0.00    -0.246 OA
BRANCH  14  16
ATOM     16  O   UNL     1      27.359  26.623  26.105  1.00  0.00    -0.462 OA
BRANCH  16  17
ATOM     17  C   UNL     1      28.156  27.505  25.315  1.00  0.00     0.236 C 
BRANCH  17  18
ATOM     18  C   UNL     1      27.700  28.967  25.487  1.00  0.00     0.021 C 
ATOM     19  C   UNL     1      27.348  29.617  24.141  1.00  0.00     0.011 C 
ATOM     20  C   UNL     1      28.790  29.781  26.196  1.00  0.00     0.011 C 
ENDBRANCH  17  18
ENDBRANCH  16  17
ENDBRANCH  14  16
ENDBRANCH   6  14
TORSDOF 8
ENDMDL
MODEL 2
REMARK VINA RESULT:    -3.605      0.487      5.026
REMARK INTER + INTRA:          -5.899
REMARK INTER:                  -5.328
REMARK INTRA:                  -0.571
REMARK UNBOUND:                -0.609
REMARK SMILES CC(C)COC(=O)c1ccccc1C(=O)OCC(C)C
REMARK SMILES IDX 8 1 9 2 10 3 11 4 12 5 13 6 6 7 7 8 5 9 4 10 2 11 1 12 3 13
REMARK SMILES IDX 14 14 15 15 16 16 17 17 18 18 19 19 20 20
REMARK H PARENT
REMARK Flexibility Score: inf
ROOT
ATOM      1  C   UNL     1      26.867  24.489  25.424  1.00  0.00     0.074 A 
ATOM      2  C   UNL     1      27.092  24.208  24.065  1.00  0.00     0.016 A 
ATOM      3  C   UNL     1      26.203  23.407  23.347  1.00  0.00     0.001 A 
ATOM      4  C   UNL     1      25.078  22.875  23.975  1.00  0.00     0.001 A 
ATOM      5  C   UNL     1      24.850  23.124  25.329  1.00  0.00     0.016 A 
ATOM      6  C   UNL     1      25.744  23.913  26.075  1.00  0.00     0.074 A 
ENDROOT
BRANCH   1   7
ATOM      7  C   UNL     1      27.768  25.443  26.104  1.00  0.00     0.339 C 
ATOM      8  O   UNL     1      28.815  25.026  26.669  1.00  0.00    -0.246 OA
BRANCH   7   9
ATOM      9  O   UNL     1      27.485  26.812  26.065  1.00  0.00    -0.462 OA
BRANCH   9  10
ATOM     10  C   UNL     1      28.435  27.787  25.639  1.00  0.00     0.236 C 
BRANCH  10  11
ATOM     11  C   UNL     1      27.769  29.164  25.494  1.00  0.00     0.021 C 
ATOM     12  C   UNL     1      28.811  30.289  25.525  1.00  0.00     0.011 C 
ATOM     13  C   UNL     1      26.924  29.244  24.218  1.00  0.00     0.011 C 
ENDBRANCH  10  11
ENDBRANCH   9  10
ENDBRANCH   7   9
ENDBRANCH   1   7
BRANCH   6  14
ATOM     14  C   UNL     1      25.527  24.035  27.534  1.00  0.00     0.339 C 
ATOM     15  O   UNL     1      26.228  23.352  28.331  1.00  0.00    -0.246 OA
BRANCH  14  16
ATOM     16  O   UNL     1      24.586  24.950  28.023  1.00  0.00    -0.462 OA
BRANCH  16  17
ATOM     17  C   UNL     1      23.211  24.964  27.639  1.00  0.00     0.236 C 
BRANCH  17  18
ATOM     18  C   UNL     1      22.431  26.046  28.409  1.00  0.00     0.021 C 
ATOM     19  C   UNL     1      20.937  26.036  28.052  1.00  0.00     0.011 C 
ATOM     20  C   UNL     1      23.030  27.430  28.130  1.00  0.00     0.011 C 
ENDBRANCH  17  18
ENDBRANCH  16  17
ENDBRANCH  14  16
ENDBRANCH   6  14
TORSDOF 8
ENDMDL
MODEL 3
REMARK VINA RESULT:    -1.435      1.625      2.134
REMARK INTER + INTRA:          -2.715
REMARK INTER:                  -3.005
REMARK INTRA:                   0.289
REMARK UNBOUND:                -0.609
REMARK SMILES CC(C)COC(=O)c1ccccc1C(=O)OCC(C)C
REMARK SMILES IDX 8 1 9 2 10 3 11 4 12 5 13 6 6 7 7 8 5 9 4 10 2 11 1 12 3 13
REMARK SMILES IDX 14 14 15 15 16 16 17 17 18 18 19 19 20 20
REMARK H PARENT
REMARK Flexibility Score: inf
ROOT
ATOM      1  C   UNL     1      26.832  24.997  26.039  1.00  0.00     0.074 A 
ATOM      2  C   UNL     1      26.675  23.618  25.810  1.00  0.00     0.016 A 
ATOM      3  C   UNL     1      27.687  22.879  25.198  1.00  0.00     0.001 A 
ATOM      4  C   UNL     1      28.869  23.503  24.804  1.00  0.00     0.001 A 
ATOM      5  C   UNL     1      29.035  24.875  25.002  1.00  0.00     0.016 A 
ATOM      6  C   UNL     1      28.019  25.642  25.600  1.00  0.00     0.074 A 
ENDROOT
BRANCH   1   7
ATOM      7  C   UNL     1      25.785  25.707  26.803  1.00  0.00     0.339 C 
ATOM      8  O   UNL     1      25.888  26.948  27.007  1.00  0.00    -0.246 OA
BRANCH   7   9
ATOM      9  O   UNL     1      24.655  25.011  27.244  1.00  0.00    -0.462 OA
BRANCH   9  10
ATOM     10  C   UNL     1      23.853  25.453  28.337  1.00  0.00     0.236 C 
BRANCH  10  11
ATOM     11  C   UNL     1      22.748  26.403  27.849  1.00  0.00     0.021 C 
ATOM     12  C   UNL     1      21.358  25.870  28.214  1.00  0.00     0.011 C 
ATOM     13  C   UNL     1      22.947  27.819  28.399  1.00  0.00     0.011 C 
ENDBRANCH  10  11
ENDBRANCH   9  10
ENDBRANCH   7   9
ENDBRANCH   1   7
BRANCH   6  14
ATOM     14  C   UNL     1      28.190  27.111  25.664  1.00  0.00     0.339 C 
ATOM     15  O   UNL     1      28.912  27.619  26.566  1.00  0.00    -0.246 OA
BRANCH  14  16
ATOM     16  O   UNL     1      27.596  27.924  24.689  1.00  0.00    -0.462 OA
BRANCH  16  17
ATOM     17  C   UNL     1      27.151  29.259  24.927  1.00  0.00     0.236 C 
BRANCH  17  18
ATOM     18  C   UNL     1      28.149  30.286  24.359  1.00  0.00     0.021 C 
ATOM     19  C   UNL     1      28.929  29.722  23.163  1.00  0.00     0.011 C 
ATOM     20  C   UNL     1      29.120  30.742  25.454  1.00  0.00     0.011 C 
ENDBRANCH  17  18
ENDBRANCH  16  17
ENDBRANCH  14  16
ENDBRANCH   6  14
TORSDOF 8
ENDMDL
