MODEL 1
REMARK VINA RESULT:    -4.787      0.000      0.000
REMARK INTER + INTRA:          -9.897
REMARK INTER:                  -8.985
REMARK INTRA:                  -0.912
REMARK UNBOUND:                -0.912
REMARK SMILES O=C([O-])CCCCCCCCCCCCCCC(=O)[O-]
REMARK SMILES IDX 10 1 9 2 8 3 7 4 6 5 5 6 4 7 2 8 1 9 3 10 11 11 12 12 13 13
REMARK SMILES IDX 14 14 15 15 16 16 17 17 18 18 19 19 20 20
REMARK H PARENT
REMARK Flexibility Score: inf
ROOT
ATOM      1  C   UNL     1       4.560  -2.203  -8.488  1.00  0.00     0.000 C 
ENDROOT
BRANCH   1   2
ATOM      2  C   UNL     1       3.252  -2.585  -9.199  1.00  0.00     0.000 C 
BRANCH   2   3
ATOM      3  C   UNL     1       2.086  -2.648  -8.201  1.00  0.00     0.000 C 
BRANCH   3   4
ATOM      4  C   UNL     1       1.525  -4.070  -8.029  1.00  0.00     0.000 C 
BRANCH   4   5
ATOM      5  C   UNL     1       2.589  -5.172  -7.858  1.00  0.00     0.000 C 
BRANCH   5   6
ATOM      6  C   UNL     1       3.336  -5.113  -6.509  1.00  0.00     0.006 C 
BRANCH   6   7
ATOM      7  C   UNL     1       4.558  -6.040  -6.476  1.00  0.00     0.053 C 
BRANCH   7   8
ATOM      8  C   UNL     1       4.871  -6.446  -5.071  1.00  0.00     0.041 C 
ATOM      9  O   UNL     1       3.966  -6.909  -4.329  1.00  0.00    -0.550 OA
ATOM     10  O   UNL     1       6.152  -6.267  -4.564  1.00  0.00    -0.550 OA
ENDBRANCH   7   8
ENDBRANCH   6   7
ENDBRANCH   5   6
ENDBRANCH   4   5
ENDBRANCH   3   4
ENDBRANCH   2   3
ENDBRANCH   1   2
BRANCH   1  11
ATOM     11  C   UNL     1       5.701  -1.900  -9.472  1.00  0.00     0.000 C 
BRANCH  11  12
ATOM     12  C   UNL     1       6.642  -0.794  -8.962  1.00  0.00     0.000 C 
BRANCH  12  13
ATOM     13  C   UNL     1       6.073  -0.052  -7.743  1.00  0.00     0.000 C 
BRANCH  13  14
ATOM     14  C   UNL     1       7.136   0.779  -7.003  1.00  0.00     0.000 C 
BRANCH  14  15
ATOM     15  C   UNL     1       7.654   1.958  -7.841  1.00  0.00     0.000 C 
BRANCH  15  16
ATOM     16  C   UNL     1       6.523   2.872  -8.337  1.00  0.00     0.006 C 
BRANCH  16  17
ATOM     17  C   UNL     1       6.971   4.336  -8.359  1.00  0.00     0.053 C 
BRANCH  17  18
ATOM     18  C   UNL     1       5.786   5.247  -8.339  1.00  0.00     0.041 C 
ATOM     19  O   UNL     1       4.716   4.910  -8.913  1.00  0.00    -0.550 OA
ATOM     20  O   UNL     1       5.844   6.449  -7.642  1.00  0.00    -0.550 OA
ENDBRANCH  17  18
ENDBRANCH  16  17
ENDBRANCH  15  16
ENDBRANCH  14  15
ENDBRANCH  13  14
ENDBRANCH  12  13
ENDBRANCH  11  12
ENDBRANCH   1  11
TORSDOF 15
ENDMDL
MODEL 2
REMARK VINA RESULT:    -4.743      1.933      8.431
REMARK INTER + INTRA:          -9.814
REMARK INTER:                  -8.169
REMARK INTRA:                  -1.645
REMARK UNBOUND:                -0.912
REMARK SMILES O=C([O-])CCCCCCCCCCCCCCC(=O)[O-]
REMARK SMILES IDX 10 1 9 2 8 3 7 4 6 5 5 6 4 7 2 8 1 9 3 10 11 11 12 12 13 13
REMARK SMILES IDX 14 14 15 15 16 16 17 17 18 18 19 19 20 20
REMARK H PARENT
REMARK Flexibility Score: inf
ROOT
ATOM      1  C   UNL     1       1.588  -3.709  -7.636  1.00  0.00     0.000 C 
ENDROOT
BRANCH   1   2
ATOM      2  C   UNL     1       2.995  -3.149  -7.380  1.00  0.00     0.000 C 
BRANCH   2   3
ATOM      3  C   UNL     1       3.504  -2.371  -8.603  1.00  0.00     0.000 C 
BRANCH   3   4
ATOM      4  C   UNL     1       4.854  -2.894  -9.123  1.00  0.00     0.000 C 
BRANCH   4   5
ATOM      5  C   UNL     1       5.756  -1.828  -9.775  1.00  0.00     0.000 C 
BRANCH   5   6
ATOM      6  C   UNL     1       6.604  -1.027  -8.764  1.00  0.00     0.006 C 
BRANCH   6   7
ATOM      7  C   UNL     1       6.698   0.461  -9.130  1.00  0.00     0.053 C 
BRANCH   7   8
ATOM      8  C   UNL     1       6.704   1.305  -7.894  1.00  0.00     0.041 C 
ATOM      9  O   UNL     1       6.155   0.889  -6.841  1.00  0.00    -0.550 OA
ATOM     10  O   UNL     1       7.272   2.572  -7.920  1.00  0.00    -0.550 OA
ENDBRANCH   7   8
ENDBRANCH   6   7
ENDBRANCH   5   6
ENDBRANCH   4   5
ENDBRANCH   3   4
ENDBRANCH   2   3
ENDBRANCH   1   2
BRANCH   1  11
ATOM     11  C   UNL     1       1.199  -3.676  -9.123  1.00  0.00     0.000 C 
BRANCH  11  12
ATOM     12  C   UNL     1       1.077  -5.083  -9.733  1.00  0.00     0.000 C 
BRANCH  12  13
ATOM     13  C   UNL     1       2.438  -5.784  -9.877  1.00  0.00     0.000 C 
BRANCH  13  14
ATOM     14  C   UNL     1       2.581  -7.000  -8.945  1.00  0.00     0.000 C 
BRANCH  14  15
ATOM     15  C   UNL     1       3.759  -6.860  -7.968  1.00  0.00     0.000 C 
BRANCH  15  16
ATOM     16  C   UNL     1       3.308  -6.827  -6.500  1.00  0.00     0.006 C 
BRANCH  16  17
ATOM     17  C   UNL     1       4.216  -5.916  -5.668  1.00  0.00     0.053 C 
BRANCH  17  18
ATOM     18  C   UNL     1       5.019  -6.722  -4.697  1.00  0.00     0.041 C 
ATOM     19  O   UNL     1       4.509  -7.725  -4.131  1.00  0.00    -0.550 OA
ATOM     20  O   UNL     1       6.347  -6.395  -4.453  1.00  0.00    -0.550 OA
ENDBRANCH  17  18
ENDBRANCH  16  17
ENDBRANCH  15  16
ENDBRANCH  14  15
ENDBRANCH  13  14
ENDBRANCH  12  13
ENDBRANCH  11  12
ENDBRANCH   1  11
TORSDOF 15
ENDMDL
MODEL 3
REMARK VINA RESULT:    -4.675      1.490      2.319
REMARK INTER + INTRA:          -9.686
REMARK INTER:                  -8.433
REMARK INTRA:                  -1.253
REMARK UNBOUND:                -0.912
REMARK SMILES O=C([O-])CCCCCCCCCCCCCCC(=O)[O-]
REMARK SMILES IDX 10 1 9 2 8 3 7 4 6 5 5 6 4 7 2 8 1 9 3 10 11 11 12 12 13 13
REMARK SMILES IDX 14 14 15 15 16 16 17 17 18 18 19 19 20 20
REMARK H PARENT
REMARK Flexibility Score: inf
ROOT
ATOM      1  C   UNL     1       3.947  -2.553  -7.961  1.00  0.00     0.000 C 
ENDROOT
BRANCH   1   2
ATOM      2  C   UNL     1       2.412  -2.632  -7.916  1.00  0.00     0.000 C 
BRANCH   2   3
ATOM      3  C   UNL     1       1.952  -3.984  -7.350  1.00  0.00     0.000 C 
BRANCH   3   4
ATOM      4  C   UNL     1       2.484  -5.180  -8.158  1.00  0.00     0.000 C 
BRANCH   4   5
ATOM      5  C   UNL     1       3.194  -6.263  -7.322  1.00  0.00     0.000 C 
BRANCH   5   6
ATOM      6  C   UNL     1       3.826  -5.729  -6.018  1.00  0.00     0.006 C 
BRANCH   6   7
ATOM      7  C   UNL     1       3.673  -6.712  -4.850  1.00  0.00     0.053 C 
BRANCH   7   8
ATOM      8  C   UNL     1       5.008  -7.032  -4.255  1.00  0.00     0.041 C 
ATOM      9  O   UNL     1       5.123  -7.974  -3.429  1.00  0.00    -0.550 OA
ATOM     10  O   UNL     1       6.116  -6.258  -4.576  1.00  0.00    -0.550 OA
ENDBRANCH   7   8
ENDBRANCH   6   7
ENDBRANCH   5   6
ENDBRANCH   4   5
ENDBRANCH   3   4
ENDBRANCH   2   3
ENDBRANCH   1   2
BRANCH   1  11
ATOM     11  C   UNL     1       4.487  -2.341  -9.384  1.00  0.00     0.000 C 
BRANCH  11  12
ATOM     12  C   UNL     1       5.675  -3.264  -9.708  1.00  0.00     0.000 C 
BRANCH  12  13
ATOM     13  C   UNL     1       7.024  -2.531  -9.653  1.00  0.00     0.000 C 
BRANCH  13  14
ATOM     14  C   UNL     1       6.874  -1.033  -9.332  1.00  0.00     0.000 C 
BRANCH  14  15
ATOM     15  C   UNL     1       8.029  -0.493  -8.475  1.00  0.00     0.000 C 
BRANCH  15  16
ATOM     16  C   UNL     1       7.541   0.202  -7.195  1.00  0.00     0.006 C 
BRANCH  16  17
ATOM     17  C   UNL     1       6.387   1.162  -7.499  1.00  0.00     0.053 C 
BRANCH  17  18
ATOM     18  C   UNL     1       6.907   2.445  -8.063  1.00  0.00     0.041 C 
ATOM     19  O   UNL     1       6.150   3.198  -8.731  1.00  0.00    -0.550 OA
ATOM     20  O   UNL     1       8.217   2.836  -7.810  1.00  0.00    -0.550 OA
ENDBRANCH  17  18
ENDBRANCH  16  17
ENDBRANCH  15  16
ENDBRANCH  14  15
ENDBRANCH  13  14
ENDBRANCH  12  13
ENDBRANCH  11  12
ENDBRANCH   1  11
TORSDOF 15
ENDMDL
MODEL 4
REMARK VINA RESULT:    -4.552      2.566      4.140
REMARK INTER + INTRA:          -9.456
REMARK INTER:                  -7.724
REMARK INTRA:                  -1.732
REMARK UNBOUND:                -0.912
REMARK SMILES O=C([O-])CCCCCCCCCCCCCCC(=O)[O-]
REMARK SMILES IDX 10 1 9 2 8 3 7 4 6 5 5 6 4 7 2 8 1 9 3 10 11 11 12 12 13 13
REMARK SMILES IDX 14 14 15 15 16 16 17 17 18 18 19 19 20 20
REMARK H PARENT
REMARK Flexibility Score: inf
ROOT
ATOM      1  C   UNL     1       2.952  -4.647  -7.031  1.00  0.00     0.000 C 
ENDROOT
BRANCH   1   2
ATOM      2  C   UNL     1       2.688  -5.733  -8.086  1.00  0.00     0.000 C 
BRANCH   2   3
ATOM      3  C   UNL     1       3.978  -6.502  -8.412  1.00  0.00     0.000 C 
BRANCH   3   4
ATOM      4  C   UNL     1       5.235  -5.828  -7.837  1.00  0.00     0.000 C 
BRANCH   4   5
ATOM      5  C   UNL     1       6.408  -6.783  -7.545  1.00  0.00     0.000 C 
BRANCH   5   6
ATOM      6  C   UNL     1       6.408  -7.349  -6.108  1.00  0.00     0.006 C 
BRANCH   6   7
ATOM      7  C   UNL     1       5.754  -6.392  -5.103  1.00  0.00     0.053 C 
BRANCH   7   8
ATOM      8  C   UNL     1       4.683  -7.094  -4.330  1.00  0.00     0.041 C 
ATOM      9  O   UNL     1       3.476  -6.779  -4.490  1.00  0.00    -0.550 OA
ATOM     10  O   UNL     1       5.023  -8.064  -3.395  1.00  0.00    -0.550 OA
ENDBRANCH   7   8
ENDBRANCH   6   7
ENDBRANCH   5   6
ENDBRANCH   4   5
ENDBRANCH   3   4
ENDBRANCH   2   3
ENDBRANCH   1   2
BRANCH   1  11
ATOM     11  C   UNL     1       2.540  -3.245  -7.507  1.00  0.00     0.000 C 
BRANCH  11  12
ATOM     12  C   UNL     1       2.268  -3.193  -9.021  1.00  0.00     0.000 C 
BRANCH  12  13
ATOM     13  C   UNL     1       3.473  -2.669  -9.818  1.00  0.00     0.000 C 
BRANCH  13  14
ATOM     14  C   UNL     1       4.662  -2.290  -8.917  1.00  0.00     0.000 C 
BRANCH  14  15
ATOM     15  C   UNL     1       6.015  -2.700  -9.521  1.00  0.00     0.000 C 
BRANCH  15  16
ATOM     16  C   UNL     1       7.105  -1.640  -9.302  1.00  0.00     0.006 C 
BRANCH  16  17
ATOM     17  C   UNL     1       6.486  -0.266  -9.029  1.00  0.00     0.053 C 
BRANCH  17  18
ATOM     18  C   UNL     1       7.030   0.311  -7.760  1.00  0.00     0.041 C 
ATOM     19  O   UNL     1       8.249   0.618  -7.674  1.00  0.00    -0.550 OA
ATOM     20  O   UNL     1       6.180   0.557  -6.688  1.00  0.00    -0.550 OA
ENDBRANCH  17  18
ENDBRANCH  16  17
ENDBRANCH  15  16
ENDBRANCH  14  15
ENDBRANCH  13  14
ENDBRANCH  12  13
ENDBRANCH  11  12
ENDBRANCH   1  11
TORSDOF 15
ENDMDL
MODEL 5
REMARK VINA RESULT:    -4.537      2.842      8.447
REMARK INTER + INTRA:          -9.428
REMARK INTER:                  -8.222
REMARK INTRA:                  -1.206
REMARK UNBOUND:                -0.912
REMARK SMILES O=C([O-])CCCCCCCCCCCCCCC(=O)[O-]
REMARK SMILES IDX 10 1 9 2 8 3 7 4 6 5 5 6 4 7 2 8 1 9 3 10 11 11 12 12 13 13
REMARK SMILES IDX 14 14 15 15 16 16 17 17 18 18 19 19 20 20
REMARK H PARENT
REMARK Flexibility Score: inf
ROOT
ATOM      1  C   UNL     1       3.305  -3.356  -7.193  1.00  0.00     0.000 C 
ENDROOT
BRANCH   1   2
ATOM      2  C   UNL     1       3.475  -2.319  -8.314  1.00  0.00     0.000 C 
BRANCH   2   3
ATOM      3  C   UNL     1       4.347  -2.879  -9.449  1.00  0.00     0.000 C 
BRANCH   3   4
ATOM      4  C   UNL     1       5.406  -1.876  -9.937  1.00  0.00     0.000 C 
BRANCH   4   5
ATOM      5  C   UNL     1       6.415  -1.424  -8.864  1.00  0.00     0.000 C 
BRANCH   5   6
ATOM      6  C   UNL     1       6.346   0.084  -8.540  1.00  0.00     0.006 C 
BRANCH   6   7
ATOM      7  C   UNL     1       6.555   0.370  -7.047  1.00  0.00     0.053 C 
BRANCH   7   8
ATOM      8  C   UNL     1       8.012   0.521  -6.741  1.00  0.00     0.041 C 
ATOM      9  O   UNL     1       8.498  -0.000  -5.704  1.00  0.00    -0.550 OA
ATOM     10  O   UNL     1       8.824   1.279  -7.575  1.00  0.00    -0.550 OA
ENDBRANCH   7   8
ENDBRANCH   6   7
ENDBRANCH   5   6
ENDBRANCH   4   5
ENDBRANCH   3   4
ENDBRANCH   2   3
ENDBRANCH   1   2
BRANCH   1  11
ATOM     11  C   UNL     1       2.344  -4.493  -7.578  1.00  0.00     0.000 C 
BRANCH  11  12
ATOM     12  C   UNL     1       2.997  -5.881  -7.467  1.00  0.00     0.000 C 
BRANCH  12  13
ATOM     13  C   UNL     1       4.102  -5.929  -6.399  1.00  0.00     0.000 C 
BRANCH  13  14
ATOM     14  C   UNL     1       3.650  -6.634  -5.108  1.00  0.00     0.000 C 
BRANCH  14  15
ATOM     15  C   UNL     1       4.832  -7.071  -4.228  1.00  0.00     0.000 C 
BRANCH  15  16
ATOM     16  C   UNL     1       6.158  -6.423  -4.655  1.00  0.00     0.006 C 
BRANCH  16  17
ATOM     17  C   UNL     1       7.274  -7.468  -4.747  1.00  0.00     0.053 C 
BRANCH  17  18
ATOM     18  C   UNL     1       7.949  -7.398  -6.079  1.00  0.00     0.041 C 
ATOM     19  O   UNL     1       9.207  -7.383  -6.154  1.00  0.00    -0.550 OA
ATOM     20  O   UNL     1       7.191  -7.401  -7.244  1.00  0.00    -0.550 OA
ENDBRANCH  17  18
ENDBRANCH  16  17
ENDBRANCH  15  16
ENDBRANCH  14  15
ENDBRANCH  13  14
ENDBRANCH  12  13
ENDBRANCH  11  12
ENDBRANCH   1  11
TORSDOF 15
ENDMDL
MODEL 6
REMARK VINA RESULT:    -4.537      1.761      3.273
REMARK INTER + INTRA:          -9.428
REMARK INTER:                  -8.542
REMARK INTRA:                  -0.886
REMARK UNBOUND:                -0.912
REMARK SMILES O=C([O-])CCCCCCCCCCCCCCC(=O)[O-]
REMARK SMILES IDX 10 1 9 2 8 3 7 4 6 5 5 6 4 7 2 8 1 9 3 10 11 11 12 12 13 13
REMARK SMILES IDX 14 14 15 15 16 16 17 17 18 18 19 19 20 20
REMARK H PARENT
REMARK Flexibility Score: inf
ROOT
ATOM      1  C   UNL     1       2.685  -3.794  -7.166  1.00  0.00     0.000 C 
ENDROOT
BRANCH   1   2
ATOM      2  C   UNL     1       2.679  -5.118  -7.946  1.00  0.00     0.000 C 
BRANCH   2   3
ATOM      3  C   UNL     1       3.255  -6.257  -7.091  1.00  0.00     0.000 C 
BRANCH   3   4
ATOM      4  C   UNL     1       3.953  -5.753  -5.817  1.00  0.00     0.000 C 
BRANCH   4   5
ATOM      5  C   UNL     1       3.845  -6.694  -4.601  1.00  0.00     0.000 C 
BRANCH   5   6
ATOM      6  C   UNL     1       5.185  -7.345  -4.197  1.00  0.00     0.006 C 
BRANCH   6   7
ATOM      7  C   UNL     1       6.397  -6.528  -4.665  1.00  0.00     0.053 C 
BRANCH   7   8
ATOM      8  C   UNL     1       7.583  -7.416  -4.865  1.00  0.00     0.041 C 
ATOM      9  O   UNL     1       8.458  -7.121  -5.721  1.00  0.00    -0.550 OA
ATOM     10  O   UNL     1       7.698  -8.597  -4.143  1.00  0.00    -0.550 OA
ENDBRANCH   7   8
ENDBRANCH   6   7
ENDBRANCH   5   6
ENDBRANCH   4   5
ENDBRANCH   3   4
ENDBRANCH   2   3
ENDBRANCH   1   2
BRANCH   1  11
ATOM     11  C   UNL     1       3.338  -2.646  -7.952  1.00  0.00     0.000 C 
BRANCH  11  12
ATOM     12  C   UNL     1       4.509  -3.122  -8.829  1.00  0.00     0.000 C 
BRANCH  12  13
ATOM     13  C   UNL     1       5.206  -1.965  -9.562  1.00  0.00     0.000 C 
BRANCH  13  14
ATOM     14  C   UNL     1       6.738  -2.008  -9.419  1.00  0.00     0.000 C 
BRANCH  14  15
ATOM     15  C   UNL     1       7.291  -0.814  -8.623  1.00  0.00     0.000 C 
BRANCH  15  16
ATOM     16  C   UNL     1       6.187  -0.011  -7.919  1.00  0.00     0.006 C 
BRANCH  16  17
ATOM     17  C   UNL     1       6.714   1.347  -7.446  1.00  0.00     0.053 C 
BRANCH  17  18
ATOM     18  C   UNL     1       6.477   2.393  -8.489  1.00  0.00     0.041 C 
ATOM     19  O   UNL     1       6.552   2.099  -9.711  1.00  0.00    -0.550 OA
ATOM     20  O   UNL     1       6.125   3.684  -8.111  1.00  0.00    -0.550 OA
ENDBRANCH  17  18
ENDBRANCH  16  17
ENDBRANCH  15  16
ENDBRANCH  14  15
ENDBRANCH  13  14
ENDBRANCH  12  13
ENDBRANCH  11  12
ENDBRANCH   1  11
TORSDOF 15
ENDMDL
MODEL 7
REMARK VINA RESULT:    -4.428      2.365      8.760
REMARK INTER + INTRA:          -9.223
REMARK INTER:                  -7.782
REMARK INTRA:                  -1.441
REMARK UNBOUND:                -0.912
REMARK SMILES O=C([O-])CCCCCCCCCCCCCCC(=O)[O-]
REMARK SMILES IDX 10 1 9 2 8 3 7 4 6 5 5 6 4 7 2 8 1 9 3 10 11 11 12 12 13 13
REMARK SMILES IDX 14 14 15 15 16 16 17 17 18 18 19 19 20 20
REMARK H PARENT
REMARK Flexibility Score: inf
ROOT
ATOM      1  C   UNL     1       2.718  -3.605  -7.195  1.00  0.00     0.000 C 
ENDROOT
BRANCH   1   2
ATOM      2  C   UNL     1       3.296  -2.649  -8.250  1.00  0.00     0.000 C 
BRANCH   2   3
ATOM      3  C   UNL     1       4.535  -3.261  -8.921  1.00  0.00     0.000 C 
BRANCH   3   4
ATOM      4  C   UNL     1       5.243  -2.282  -9.873  1.00  0.00     0.000 C 
BRANCH   4   5
ATOM      5  C   UNL     1       6.531  -1.649  -9.314  1.00  0.00     0.000 C 
BRANCH   5   6
ATOM      6  C   UNL     1       6.427  -0.126  -9.082  1.00  0.00     0.006 C 
BRANCH   6   7
ATOM      7  C   UNL     1       6.241   0.228  -7.600  1.00  0.00     0.053 C 
BRANCH   7   8
ATOM      8  C   UNL     1       7.503   0.800  -7.035  1.00  0.00     0.041 C 
ATOM      9  O   UNL     1       7.930   1.912  -7.440  1.00  0.00    -0.550 OA
ATOM     10  O   UNL     1       8.233   0.081  -6.097  1.00  0.00    -0.550 OA
ENDBRANCH   7   8
ENDBRANCH   6   7
ENDBRANCH   5   6
ENDBRANCH   4   5
ENDBRANCH   3   4
ENDBRANCH   2   3
ENDBRANCH   1   2
BRANCH   1  11
ATOM     11  C   UNL     1       3.700  -4.722  -6.807  1.00  0.00     0.000 C 
BRANCH  11  12
ATOM     12  C   UNL     1       2.984  -6.011  -6.368  1.00  0.00     0.000 C 
BRANCH  12  13
ATOM     13  C   UNL     1       3.323  -7.209  -7.269  1.00  0.00     0.000 C 
BRANCH  13  14
ATOM     14  C   UNL     1       4.666  -7.041  -8.001  1.00  0.00     0.000 C 
BRANCH  14  15
ATOM     15  C   UNL     1       5.712  -8.078  -7.564  1.00  0.00     0.000 C 
BRANCH  15  16
ATOM     16  C   UNL     1       5.225  -8.953  -6.399  1.00  0.00     0.006 C 
BRANCH  16  17
ATOM     17  C   UNL     1       6.146  -8.810  -5.183  1.00  0.00     0.053 C 
BRANCH  17  18
ATOM     18  C   UNL     1       5.765  -7.610  -4.377  1.00  0.00     0.041 C 
ATOM     19  O   UNL     1       4.833  -7.682  -3.532  1.00  0.00    -0.550 OA
ATOM     20  O   UNL     1       6.473  -6.422  -4.521  1.00  0.00    -0.550 OA
ENDBRANCH  17  18
ENDBRANCH  16  17
ENDBRANCH  15  16
ENDBRANCH  14  15
ENDBRANCH  13  14
ENDBRANCH  12  13
ENDBRANCH  11  12
ENDBRANCH   1  11
TORSDOF 15
ENDMDL
MODEL 8
REMARK VINA RESULT:    -4.393      1.108      9.583
REMARK INTER + INTRA:          -9.156
REMARK INTER:                  -8.281
REMARK INTRA:                  -0.875
REMARK UNBOUND:                -0.912
REMARK SMILES O=C([O-])CCCCCCCCCCCCCCC(=O)[O-]
REMARK SMILES IDX 10 1 9 2 8 3 7 4 6 5 5 6 4 7 2 8 1 9 3 10 11 11 12 12 13 13
REMARK SMILES IDX 14 14 15 15 16 16 17 17 18 18 19 19 20 20
REMARK H PARENT
REMARK Flexibility Score: inf
ROOT
ATOM      1  C   UNL     1       5.414  -1.242  -8.421  1.00  0.00     0.000 C 
ENDROOT
BRANCH   1   2
ATOM      2  C   UNL     1       6.764  -0.511  -8.486  1.00  0.00     0.000 C 
BRANCH   2   3
ATOM      3  C   UNL     1       6.886   0.512  -7.346  1.00  0.00     0.000 C 
BRANCH   3   4
ATOM      4  C   UNL     1       6.461   1.929  -7.769  1.00  0.00     0.000 C 
BRANCH   4   5
ATOM      5  C   UNL     1       6.688   2.258  -9.257  1.00  0.00     0.000 C 
BRANCH   5   6
ATOM      6  C   UNL     1       6.394   3.729  -9.622  1.00  0.00     0.006 C 
BRANCH   6   7
ATOM      7  C   UNL     1       5.648   4.470  -8.505  1.00  0.00     0.053 C 
BRANCH   7   8
ATOM      8  C   UNL     1       6.354   5.741  -8.155  1.00  0.00     0.041 C 
ATOM      9  O   UNL     1       7.610   5.799  -8.198  1.00  0.00    -0.550 OA
ATOM     10  O   UNL     1       5.628   6.847  -7.732  1.00  0.00    -0.550 OA
ENDBRANCH   7   8
ENDBRANCH   6   7
ENDBRANCH   5   6
ENDBRANCH   4   5
ENDBRANCH   3   4
ENDBRANCH   2   3
ENDBRANCH   1   2
BRANCH   1  11
ATOM     11  C   UNL     1       5.259  -2.298  -9.527  1.00  0.00     0.000 C 
BRANCH  11  12
ATOM     12  C   UNL     1       4.071  -3.243  -9.279  1.00  0.00     0.000 C 
BRANCH  12  13
ATOM     13  C   UNL     1       3.005  -2.622  -8.362  1.00  0.00     0.000 C 
BRANCH  13  14
ATOM     14  C   UNL     1       2.652  -3.524  -7.166  1.00  0.00     0.000 C 
BRANCH  14  15
ATOM     15  C   UNL     1       3.170  -4.961  -7.335  1.00  0.00     0.000 C 
BRANCH  15  16
ATOM     16  C   UNL     1       3.046  -5.789  -6.048  1.00  0.00     0.006 C 
BRANCH  16  17
ATOM     17  C   UNL     1       3.964  -7.014  -6.093  1.00  0.00     0.053 C 
BRANCH  17  18
ATOM     18  C   UNL     1       4.828  -7.067  -4.874  1.00  0.00     0.041 C 
ATOM     19  O   UNL     1       5.630  -6.129  -4.624  1.00  0.00    -0.550 OA
ATOM     20  O   UNL     1       4.712  -8.130  -3.985  1.00  0.00    -0.550 OA
ENDBRANCH  17  18
ENDBRANCH  16  17
ENDBRANCH  15  16
ENDBRANCH  14  15
ENDBRANCH  13  14
ENDBRANCH  12  13
ENDBRANCH  11  12
ENDBRANCH   1  11
TORSDOF 15
ENDMDL
MODEL 9
REMARK VINA RESULT:    -4.363      2.437      3.817
REMARK INTER + INTRA:          -9.101
REMARK INTER:                  -8.029
REMARK INTRA:                  -1.073
REMARK UNBOUND:                -0.912
REMARK SMILES O=C([O-])CCCCCCCCCCCCCCC(=O)[O-]
REMARK SMILES IDX 10 1 9 2 8 3 7 4 6 5 5 6 4 7 2 8 1 9 3 10 11 11 12 12 13 13
REMARK SMILES IDX 14 14 15 15 16 16 17 17 18 18 19 19 20 20
REMARK H PARENT
REMARK Flexibility Score: inf
ROOT
ATOM      1  C   UNL     1       1.951  -3.777  -7.447  1.00  0.00     0.000 C 
ENDROOT
BRANCH   1   2
ATOM      2  C   UNL     1       2.398  -5.135  -8.010  1.00  0.00     0.000 C 
BRANCH   2   3
ATOM      3  C   UNL     1       3.037  -5.998  -6.911  1.00  0.00     0.000 C 
BRANCH   3   4
ATOM      4  C   UNL     1       4.514  -5.647  -6.661  1.00  0.00     0.000 C 
BRANCH   4   5
ATOM      5  C   UNL     1       5.100  -6.204  -5.349  1.00  0.00     0.000 C 
BRANCH   5   6
ATOM      6  C   UNL     1       4.065  -6.929  -4.462  1.00  0.00     0.006 C 
BRANCH   6   7
ATOM      7  C   UNL     1       4.518  -8.342  -4.071  1.00  0.00     0.053 C 
BRANCH   7   8
ATOM      8  C   UNL     1       5.068  -9.064  -5.261  1.00  0.00     0.041 C 
ATOM      9  O   UNL     1       6.292  -9.353  -5.315  1.00  0.00    -0.550 OA
ATOM     10  O   UNL     1       4.239  -9.374  -6.331  1.00  0.00    -0.550 OA
ENDBRANCH   7   8
ENDBRANCH   6   7
ENDBRANCH   5   6
ENDBRANCH   4   5
ENDBRANCH   3   4
ENDBRANCH   2   3
ENDBRANCH   1   2
BRANCH   1  11
ATOM     11  C   UNL     1       2.360  -2.600  -8.347  1.00  0.00     0.000 C 
BRANCH  11  12
ATOM     12  C   UNL     1       3.856  -2.258  -8.229  1.00  0.00     0.000 C 
BRANCH  12  13
ATOM     13  C   UNL     1       4.616  -2.477  -9.546  1.00  0.00     0.000 C 
BRANCH  13  14
ATOM     14  C   UNL     1       6.085  -2.025  -9.467  1.00  0.00     0.000 C 
BRANCH  14  15
ATOM     15  C   UNL     1       6.266  -0.747  -8.631  1.00  0.00     0.000 C 
BRANCH  15  16
ATOM     16  C   UNL     1       7.658  -0.122  -8.802  1.00  0.00     0.006 C 
BRANCH  16  17
ATOM     17  C   UNL     1       8.386  -0.029  -7.457  1.00  0.00     0.053 C 
BRANCH  17  18
ATOM     18  C   UNL     1       8.748   1.390  -7.154  1.00  0.00     0.041 C 
ATOM     19  O   UNL     1       8.061   2.335  -7.625  1.00  0.00    -0.550 OA
ATOM     20  O   UNL     1       9.817   1.670  -6.310  1.00  0.00    -0.550 OA
ENDBRANCH  17  18
ENDBRANCH  16  17
ENDBRANCH  15  16
ENDBRANCH  14  15
ENDBRANCH  13  14
ENDBRANCH  12  13
ENDBRANCH  11  12
ENDBRANCH   1  11
TORSDOF 15
ENDMDL
