MODEL 1
REMARK VINA RESULT:    -4.519      0.000      0.000
REMARK INTER + INTRA:          -7.921
REMARK INTER:                  -7.161
REMARK INTRA:                  -0.760
REMARK UNBOUND:                -0.760
REMARK SMILES CCCCCCCCCCCC(=O)[O-]
REMARK SMILES IDX 7 1 8 2 9 3 10 4 11 5 12 6 13 7 14 8 6 9 5 10 4 11 3 12 2 13
REMARK SMILES IDX 1 14
REMARK H PARENT
REMARK Flexibility Score: inf
ROOT
ATOM      1  C   UNL     1       7.010  -2.721 -35.807  1.00  0.00     0.000 C 
ENDROOT
BRANCH   1   2
ATOM      2  C   UNL     1       8.499  -2.334 -35.860  1.00  0.00     0.000 C 
BRANCH   2   3
ATOM      3  C   UNL     1       9.135  -2.237 -34.465  1.00  0.00     0.000 C 
BRANCH   3   4
ATOM      4  C   UNL     1      10.345  -1.285 -34.431  1.00  0.00     0.006 C 
BRANCH   4   5
ATOM      5  C   UNL     1      11.662  -2.013 -34.730  1.00  0.00     0.053 C 
BRANCH   5   6
ATOM      6  C   UNL     1      12.582  -1.179 -35.568  1.00  0.00     0.041 C 
ATOM      7  O   UNL     1      12.356   0.050 -35.727  1.00  0.00    -0.550 OA
ATOM      8  O   UNL     1      13.672  -1.766 -36.199  1.00  0.00    -0.550 OA
ENDBRANCH   5   6
ENDBRANCH   4   5
ENDBRANCH   3   4
ENDBRANCH   2   3
ENDBRANCH   1   2
BRANCH   1   9
ATOM      9  C   UNL     1       6.546  -3.081 -34.387  1.00  0.00     0.000 C 
BRANCH   9  10
ATOM     10  C   UNL     1       6.180  -4.568 -34.245  1.00  0.00    -0.000 C 
BRANCH  10  11
ATOM     11  C   UNL     1       7.402  -5.491 -34.377  1.00  0.00    -0.000 C 
BRANCH  11  12
ATOM     12  C   UNL     1       8.172  -5.643 -33.053  1.00  0.00    -0.000 C 
BRANCH  12  13
ATOM     13  C   UNL     1       7.263  -5.495 -31.824  1.00  0.00    -0.003 C 
ATOM     14  C   UNL     1       6.666  -6.825 -31.367  1.00  0.00     0.004 C 
ENDBRANCH  12  13
ENDBRANCH  11  12
ENDBRANCH  10  11
ENDBRANCH   9  10
ENDBRANCH   1   9
TORSDOF 10
ENDMDL
MODEL 2
REMARK VINA RESULT:    -4.304     13.847     15.132
REMARK INTER + INTRA:          -7.580
REMARK INTER:                  -6.254
REMARK INTRA:                  -1.326
REMARK UNBOUND:                -0.760
REMARK SMILES CCCCCCCCCCCC(=O)[O-]
REMARK SMILES IDX 7 1 8 2 9 3 10 4 11 5 12 6 13 7 14 8 6 9 5 10 4 11 3 12 2 13
REMARK SMILES IDX 1 14
REMARK H PARENT
REMARK Flexibility Score: inf
ROOT
ATOM      1  C   UNL     1      14.338  -5.803 -23.934  1.00  0.00     0.000 C 
ENDROOT
BRANCH   1   2
ATOM      2  C   UNL     1      14.364  -4.582 -22.997  1.00  0.00     0.000 C 
BRANCH   2   3
ATOM      3  C   UNL     1      13.266  -4.638 -21.923  1.00  0.00     0.000 C 
BRANCH   3   4
ATOM      4  C   UNL     1      13.160  -3.331 -21.116  1.00  0.00     0.006 C 
BRANCH   4   5
ATOM      5  C   UNL     1      14.467  -2.529 -21.140  1.00  0.00     0.053 C 
BRANCH   5   6
ATOM      6  C   UNL     1      14.975  -2.246 -19.758  1.00  0.00     0.041 C 
ATOM      7  O   UNL     1      14.165  -2.022 -18.820  1.00  0.00    -0.550 OA
ATOM      8  O   UNL     1      16.341  -2.200 -19.515  1.00  0.00    -0.550 OA
ENDBRANCH   5   6
ENDBRANCH   4   5
ENDBRANCH   3   4
ENDBRANCH   2   3
ENDBRANCH   1   2
BRANCH   1   9
ATOM      9  C   UNL     1      15.589  -6.684 -23.786  1.00  0.00     0.000 C 
BRANCH   9  10
ATOM     10  C   UNL     1      16.551  -6.166 -22.703  1.00  0.00    -0.000 C 
BRANCH  10  11
ATOM     11  C   UNL     1      17.243  -7.305 -21.936  1.00  0.00    -0.000 C 
BRANCH  11  12
ATOM     12  C   UNL     1      17.172  -7.117 -20.411  1.00  0.00    -0.000 C 
BRANCH  12  13
ATOM     13  C   UNL     1      16.562  -5.765 -20.012  1.00  0.00    -0.003 C 
ATOM     14  C   UNL     1      15.290  -5.913 -19.178  1.00  0.00     0.004 C 
ENDBRANCH  12  13
ENDBRANCH  11  12
ENDBRANCH  10  11
ENDBRANCH   9  10
ENDBRANCH   1   9
TORSDOF 10
ENDMDL
MODEL 3
REMARK VINA RESULT:    -4.292      1.613      2.363
REMARK INTER + INTRA:          -7.561
REMARK INTER:                  -6.361
REMARK INTRA:                  -1.200
REMARK UNBOUND:                -0.760
REMARK SMILES CCCCCCCCCCCC(=O)[O-]
REMARK SMILES IDX 7 1 8 2 9 3 10 4 11 5 12 6 13 7 14 8 6 9 5 10 4 11 3 12 2 13
REMARK SMILES IDX 1 14
REMARK H PARENT
REMARK Flexibility Score: inf
ROOT
ATOM      1  C   UNL     1       6.145  -3.974 -35.877  1.00  0.00     0.000 C 
ENDROOT
BRANCH   1   2
ATOM      2  C   UNL     1       5.871  -3.026 -34.695  1.00  0.00     0.000 C 
BRANCH   2   3
ATOM      3  C   UNL     1       7.145  -2.675 -33.911  1.00  0.00     0.000 C 
BRANCH   3   4
ATOM      4  C   UNL     1       8.423  -3.190 -34.598  1.00  0.00     0.006 C 
BRANCH   4   5
ATOM      5  C   UNL     1       9.181  -2.071 -35.324  1.00  0.00     0.053 C 
BRANCH   5   6
ATOM      6  C   UNL     1      10.449  -1.704 -34.615  1.00  0.00     0.041 C 
ATOM      7  O   UNL     1      10.442  -0.812 -33.727  1.00  0.00    -0.550 OA
ATOM      8  O   UNL     1      11.643  -2.326 -34.958  1.00  0.00    -0.550 OA
ENDBRANCH   5   6
ENDBRANCH   4   5
ENDBRANCH   3   4
ENDBRANCH   2   3
ENDBRANCH   1   2
BRANCH   1   9
ATOM      9  C   UNL     1       5.284  -5.246 -35.822  1.00  0.00     0.000 C 
BRANCH   9  10
ATOM     10  C   UNL     1       6.131  -6.530 -35.779  1.00  0.00    -0.000 C 
BRANCH  10  11
ATOM     11  C   UNL     1       6.679  -6.828 -34.374  1.00  0.00    -0.000 C 
BRANCH  11  12
ATOM     12  C   UNL     1       5.630  -6.600 -33.271  1.00  0.00    -0.000 C 
BRANCH  12  13
ATOM     13  C   UNL     1       6.238  -6.656 -31.862  1.00  0.00    -0.003 C 
ATOM     14  C   UNL     1       7.379  -5.658 -31.670  1.00  0.00     0.004 C 
ENDBRANCH  12  13
ENDBRANCH  11  12
ENDBRANCH  10  11
ENDBRANCH   9  10
ENDBRANCH   1   9
TORSDOF 10
ENDMDL
MODEL 4
REMARK VINA RESULT:    -4.278      5.125      6.870
REMARK INTER + INTRA:          -7.539
REMARK INTER:                  -6.189
REMARK INTRA:                  -1.350
REMARK UNBOUND:                -0.760
REMARK SMILES CCCCCCCCCCCC(=O)[O-]
REMARK SMILES IDX 7 1 8 2 9 3 10 4 11 5 12 6 13 7 14 8 6 9 5 10 4 11 3 12 2 13
REMARK SMILES IDX 1 14
REMARK H PARENT
REMARK Flexibility Score: inf
ROOT
ATOM      1  C   UNL     1       8.159  -4.591 -33.740  1.00  0.00     0.000 C 
ENDROOT
BRANCH   1   2
ATOM      2  C   UNL     1       8.346  -5.806 -32.813  1.00  0.00     0.000 C 
BRANCH   2   3
ATOM      3  C   UNL     1       7.367  -5.802 -31.629  1.00  0.00     0.000 C 
BRANCH   3   4
ATOM      4  C   UNL     1       6.422  -7.018 -31.639  1.00  0.00     0.006 C 
BRANCH   4   5
ATOM      5  C   UNL     1       5.359  -6.917 -32.740  1.00  0.00     0.053 C 
BRANCH   5   6
ATOM      6  C   UNL     1       4.928  -8.267 -33.225  1.00  0.00     0.041 C 
ATOM      7  O   UNL     1       5.298  -9.307 -32.619  1.00  0.00    -0.550 OA
ATOM      8  O   UNL     1       4.142  -8.379 -34.366  1.00  0.00    -0.550 OA
ENDBRANCH   5   6
ENDBRANCH   4   5
ENDBRANCH   3   4
ENDBRANCH   2   3
ENDBRANCH   1   2
BRANCH   1   9
ATOM      9  C   UNL     1       7.274  -3.503 -33.112  1.00  0.00     0.000 C 
BRANCH   9  10
ATOM     10  C   UNL     1       6.266  -2.912 -34.114  1.00  0.00    -0.000 C 
BRANCH  10  11
ATOM     11  C   UNL     1       6.414  -3.510 -35.522  1.00  0.00    -0.000 C 
BRANCH  11  12
ATOM     12  C   UNL     1       5.065  -3.933 -36.128  1.00  0.00    -0.000 C 
BRANCH  12  13
ATOM     13  C   UNL     1       4.891  -5.458 -36.170  1.00  0.00    -0.003 C 
ATOM     14  C   UNL     1       6.214  -6.199 -36.355  1.00  0.00     0.004 C 
ENDBRANCH  12  13
ENDBRANCH  11  12
ENDBRANCH  10  11
ENDBRANCH   9  10
ENDBRANCH   1   9
TORSDOF 10
ENDMDL
MODEL 5
REMARK VINA RESULT:    -4.271     14.118     15.515
REMARK INTER + INTRA:          -7.529
REMARK INTER:                  -7.032
REMARK INTRA:                  -0.496
REMARK UNBOUND:                -0.760
REMARK SMILES CCCCCCCCCCCC(=O)[O-]
REMARK SMILES IDX 7 1 8 2 9 3 10 4 11 5 12 6 13 7 14 8 6 9 5 10 4 11 3 12 2 13
REMARK SMILES IDX 1 14
REMARK H PARENT
REMARK Flexibility Score: inf
ROOT
ATOM      1  C   UNL     1      15.535  -6.366 -23.824  1.00  0.00     0.000 C 
ENDROOT
BRANCH   1   2
ATOM      2  C   UNL     1      14.379  -5.380 -23.576  1.00  0.00     0.000 C 
BRANCH   2   3
ATOM      3  C   UNL     1      14.560  -4.571 -22.282  1.00  0.00     0.000 C 
BRANCH   3   4
ATOM      4  C   UNL     1      13.857  -3.202 -22.337  1.00  0.00     0.006 C 
BRANCH   4   5
ATOM      5  C   UNL     1      13.920  -2.465 -20.993  1.00  0.00     0.053 C 
BRANCH   5   6
ATOM      6  C   UNL     1      12.556  -2.244 -20.413  1.00  0.00     0.041 C 
ATOM      7  O   UNL     1      11.545  -2.225 -21.162  1.00  0.00    -0.550 OA
ATOM      8  O   UNL     1      12.407  -2.028 -19.049  1.00  0.00    -0.550 OA
ENDBRANCH   5   6
ENDBRANCH   4   5
ENDBRANCH   3   4
ENDBRANCH   2   3
ENDBRANCH   1   2
BRANCH   1   9
ATOM      9  C   UNL     1      16.625  -6.279 -22.745  1.00  0.00     0.000 C 
BRANCH   9  10
ATOM     10  C   UNL     1      17.003  -7.658 -22.176  1.00  0.00    -0.000 C 
BRANCH  10  11
ATOM     11  C   UNL     1      18.178  -7.585 -21.187  1.00  0.00    -0.000 C 
BRANCH  11  12
ATOM     12  C   UNL     1      19.520  -7.965 -21.837  1.00  0.00    -0.000 C 
BRANCH  12  13
ATOM     13  C   UNL     1      20.446  -6.754 -22.026  1.00  0.00    -0.003 C 
ATOM     14  C   UNL     1      20.865  -6.118 -20.702  1.00  0.00     0.004 C 
ENDBRANCH  12  13
ENDBRANCH  11  12
ENDBRANCH  10  11
ENDBRANCH   9  10
ENDBRANCH   1   9
TORSDOF 10
ENDMDL
MODEL 6
REMARK VINA RESULT:    -4.265      3.928      6.343
REMARK INTER + INTRA:          -7.519
REMARK INTER:                  -6.352
REMARK INTRA:                  -1.167
REMARK UNBOUND:                -0.760
REMARK SMILES CCCCCCCCCCCC(=O)[O-]
REMARK SMILES IDX 7 1 8 2 9 3 10 4 11 5 12 6 13 7 14 8 6 9 5 10 4 11 3 12 2 13
REMARK SMILES IDX 1 14
REMARK H PARENT
REMARK Flexibility Score: inf
ROOT
ATOM      1  C   UNL     1       6.504  -6.862 -31.556  1.00  0.00     0.000 C 
ENDROOT
BRANCH   1   2
ATOM      2  C   UNL     1       5.337  -6.680 -32.544  1.00  0.00     0.000 C 
BRANCH   2   3
ATOM      3  C   UNL     1       5.101  -7.923 -33.415  1.00  0.00     0.000 C 
BRANCH   3   4
ATOM      4  C   UNL     1       4.795  -7.568 -34.882  1.00  0.00     0.006 C 
BRANCH   4   5
ATOM      5  C   UNL     1       5.785  -8.221 -35.854  1.00  0.00     0.053 C 
BRANCH   5   6
ATOM      6  C   UNL     1       6.921  -7.305 -36.194  1.00  0.00     0.041 C 
ATOM      7  O   UNL     1       8.107  -7.644 -35.938  1.00  0.00    -0.550 OA
ATOM      8  O   UNL     1       6.668  -6.064 -36.764  1.00  0.00    -0.550 OA
ENDBRANCH   5   6
ENDBRANCH   4   5
ENDBRANCH   3   4
ENDBRANCH   2   3
ENDBRANCH   1   2
BRANCH   1   9
ATOM      9  C   UNL     1       7.563  -5.757 -31.687  1.00  0.00     0.000 C 
BRANCH   9  10
ATOM     10  C   UNL     1       8.248  -5.755 -33.065  1.00  0.00    -0.000 C 
BRANCH  10  11
ATOM     11  C   UNL     1       8.258  -4.362 -33.716  1.00  0.00    -0.000 C 
BRANCH  11  12
ATOM     12  C   UNL     1       7.055  -3.503 -33.289  1.00  0.00    -0.000 C 
BRANCH  12  13
ATOM     13  C   UNL     1       5.980  -3.411 -34.382  1.00  0.00    -0.003 C 
ATOM     14  C   UNL     1       6.503  -2.784 -35.674  1.00  0.00     0.004 C 
ENDBRANCH  12  13
ENDBRANCH  11  12
ENDBRANCH  10  11
ENDBRANCH   9  10
ENDBRANCH   1   9
TORSDOF 10
ENDMDL
MODEL 7
REMARK VINA RESULT:    -4.227      1.654      3.179
REMARK INTER + INTRA:          -7.459
REMARK INTER:                  -6.309
REMARK INTRA:                  -1.150
REMARK UNBOUND:                -0.760
REMARK SMILES CCCCCCCCCCCC(=O)[O-]
REMARK SMILES IDX 7 1 8 2 9 3 10 4 11 5 12 6 13 7 14 8 6 9 5 10 4 11 3 12 2 13
REMARK SMILES IDX 1 14
REMARK H PARENT
REMARK Flexibility Score: inf
ROOT
ATOM      1  C   UNL     1       7.296  -4.075 -33.128  1.00  0.00     0.000 C 
ENDROOT
BRANCH   1   2
ATOM      2  C   UNL     1       6.932  -2.740 -33.803  1.00  0.00     0.000 C 
BRANCH   2   3
ATOM      3  C   UNL     1       7.900  -2.368 -34.936  1.00  0.00     0.000 C 
BRANCH   3   4
ATOM      4  C   UNL     1       9.358  -2.253 -34.455  1.00  0.00     0.006 C 
BRANCH   4   5
ATOM      5  C   UNL     1      10.280  -1.671 -35.534  1.00  0.00     0.053 C 
BRANCH   5   6
ATOM      6  C   UNL     1      11.726  -1.910 -35.222  1.00  0.00     0.041 C 
ATOM      7  O   UNL     1      12.185  -1.622 -34.086  1.00  0.00    -0.550 OA
ATOM      8  O   UNL     1      12.572  -2.423 -36.197  1.00  0.00    -0.550 OA
ENDBRANCH   5   6
ENDBRANCH   4   5
ENDBRANCH   3   4
ENDBRANCH   2   3
ENDBRANCH   1   2
BRANCH   1   9
ATOM      9  C   UNL     1       6.425  -5.241 -33.621  1.00  0.00     0.000 C 
BRANCH   9  10
ATOM     10  C   UNL     1       7.101  -6.051 -34.740  1.00  0.00    -0.000 C 
BRANCH  10  11
ATOM     11  C   UNL     1       6.415  -5.862 -36.102  1.00  0.00    -0.000 C 
BRANCH  11  12
ATOM     12  C   UNL     1       5.075  -5.115 -35.989  1.00  0.00    -0.000 C 
BRANCH  12  13
ATOM     13  C   UNL     1       5.056  -3.814 -36.806  1.00  0.00    -0.003 C 
ATOM     14  C   UNL     1       4.074  -2.783 -36.252  1.00  0.00     0.004 C 
ENDBRANCH  12  13
ENDBRANCH  11  12
ENDBRANCH  10  11
ENDBRANCH   9  10
ENDBRANCH   1   9
TORSDOF 10
ENDMDL
MODEL 8
REMARK VINA RESULT:    -4.174      4.681      6.604
REMARK INTER + INTRA:          -7.374
REMARK INTER:                  -6.285
REMARK INTRA:                  -1.089
REMARK UNBOUND:                -0.760
REMARK SMILES CCCCCCCCCCCC(=O)[O-]
REMARK SMILES IDX 7 1 8 2 9 3 10 4 11 5 12 6 13 7 14 8 6 9 5 10 4 11 3 12 2 13
REMARK SMILES IDX 1 14
REMARK H PARENT
REMARK Flexibility Score: inf
ROOT
ATOM      1  C   UNL     1       5.006  -6.646 -35.513  1.00  0.00     0.000 C 
ENDROOT
BRANCH   1   2
ATOM      2  C   UNL     1       5.298  -7.578 -34.323  1.00  0.00     0.000 C 
BRANCH   2   3
ATOM      3  C   UNL     1       5.083  -6.889 -32.966  1.00  0.00     0.000 C 
BRANCH   3   4
ATOM      4  C   UNL     1       6.104  -7.339 -31.906  1.00  0.00     0.006 C 
BRANCH   4   5
ATOM      5  C   UNL     1       6.892  -6.159 -31.323  1.00  0.00     0.053 C 
BRANCH   5   6
ATOM      6  C   UNL     1       7.581  -5.365 -32.391  1.00  0.00     0.041 C 
ATOM      7  O   UNL     1       8.488  -5.893 -33.087  1.00  0.00    -0.550 OA
ATOM      8  O   UNL     1       7.243  -4.034 -32.597  1.00  0.00    -0.550 OA
ENDBRANCH   5   6
ENDBRANCH   4   5
ENDBRANCH   3   4
ENDBRANCH   2   3
ENDBRANCH   1   2
BRANCH   1   9
ATOM      9  C   UNL     1       4.004  -7.255 -36.505  1.00  0.00     0.000 C 
BRANCH   9  10
ATOM     10  C   UNL     1       2.555  -6.819 -36.224  1.00  0.00    -0.000 C 
BRANCH  10  11
ATOM     11  C   UNL     1       1.687  -7.969 -35.690  1.00  0.00    -0.000 C 
BRANCH  11  12
ATOM     12  C   UNL     1       0.875  -7.567 -34.446  1.00  0.00    -0.000 C 
BRANCH  12  13
ATOM     13  C   UNL     1       1.195  -8.444 -33.226  1.00  0.00    -0.003 C 
ATOM     14  C   UNL     1       2.249  -9.510 -33.525  1.00  0.00     0.004 C 
ENDBRANCH  12  13
ENDBRANCH  11  12
ENDBRANCH  10  11
ENDBRANCH   9  10
ENDBRANCH   1   9
TORSDOF 10
ENDMDL
MODEL 9
REMARK VINA RESULT:    -4.160      4.395      6.657
REMARK INTER + INTRA:          -7.352
REMARK INTER:                  -6.445
REMARK INTRA:                  -0.907
REMARK UNBOUND:                -0.760
REMARK SMILES CCCCCCCCCCCC(=O)[O-]
REMARK SMILES IDX 7 1 8 2 9 3 10 4 11 5 12 6 13 7 14 8 6 9 5 10 4 11 3 12 2 13
REMARK SMILES IDX 1 14
REMARK H PARENT
REMARK Flexibility Score: inf
ROOT
ATOM      1  C   UNL     1       8.314  -5.788 -33.006  1.00  0.00     0.000 C 
ENDROOT
BRANCH   1   2
ATOM      2  C   UNL     1       7.469  -5.676 -31.724  1.00  0.00     0.000 C 
BRANCH   2   3
ATOM      3  C   UNL     1       6.546  -6.886 -31.516  1.00  0.00     0.000 C 
BRANCH   3   4
ATOM      4  C   UNL     1       5.308  -6.850 -32.431  1.00  0.00     0.006 C 
BRANCH   4   5
ATOM      5  C   UNL     1       5.317  -7.985 -33.463  1.00  0.00     0.053 C 
BRANCH   5   6
ATOM      6  C   UNL     1       5.610  -7.482 -34.844  1.00  0.00     0.041 C 
ATOM      7  O   UNL     1       4.865  -6.616 -35.374  1.00  0.00    -0.550 OA
ATOM      8  O   UNL     1       6.686  -7.994 -35.557  1.00  0.00    -0.550 OA
ENDBRANCH   5   6
ENDBRANCH   4   5
ENDBRANCH   3   4
ENDBRANCH   2   3
ENDBRANCH   1   2
BRANCH   1   9
ATOM      9  C   UNL     1       8.152  -4.568 -33.926  1.00  0.00     0.000 C 
BRANCH   9  10
ATOM     10  C   UNL     1       6.817  -3.835 -33.705  1.00  0.00    -0.000 C 
BRANCH  10  11
ATOM     11  C   UNL     1       6.547  -2.766 -34.776  1.00  0.00    -0.000 C 
BRANCH  11  12
ATOM     12  C   UNL     1       5.794  -3.328 -35.994  1.00  0.00    -0.000 C 
BRANCH  12  13
ATOM     13  C   UNL     1       4.353  -2.805 -36.087  1.00  0.00    -0.003 C 
ATOM     14  C   UNL     1       3.463  -3.681 -36.967  1.00  0.00     0.004 C 
ENDBRANCH  12  13
ENDBRANCH  11  12
ENDBRANCH  10  11
ENDBRANCH   9  10
ENDBRANCH   1   9
TORSDOF 10
ENDMDL
