MODEL 1
REMARK VINA RESULT:    96.119      0.000      0.000
REMARK INTER + INTRA:         105.550
REMARK INTER:                 104.548
REMARK INTRA:                   1.003
REMARK UNBOUND:                 1.003
REMARK SMILES C[C@@H]1[C@H](C)CC[C@@]2(C(=O)[O-])CC[C@@]3(C)C(=CC[C@@H]4[C@@]5(C)CC[C@H](O)C(C)(C)[C@H]5CC[C@]43C)[C@@H]12
REMARK SMILES IDX 7 1 6 2 11 3 33 4 5 5 12 6 15 7 2 8 3 9 13 10 16 11 1 12
REMARK SMILES IDX 4 13 14 14 31 15 17 16 18 17 30 18 32 19 19 20 29 21 28 22
REMARK SMILES IDX 21 23 20 24 25 25 22 26 23 27 26 28 27 29 8 30 9 31 10 32
REMARK SMILES IDX 24 33
REMARK H PARENT 24 34
REMARK Flexibility Score: inf
ROOT
ATOM      1  C   UNL     1       4.162   3.704  10.290  1.00  0.00     0.017 C 
ATOM      2  C   UNL     1       4.065   2.152  10.241  1.00  0.00     0.014 C 
ATOM      3  C   UNL     1       3.125   4.330   9.309  1.00  0.00     0.014 C 
ATOM      4  C   UNL     1       3.951   4.231  11.771  1.00  0.00     0.030 C 
ATOM      5  C   UNL     1       5.045   1.448  11.205  1.00  0.00     0.004 C 
ATOM      6  C   UNL     1       1.646   4.241   9.748  1.00  0.00     0.013 C 
ATOM      7  C   UNL     1       2.698   5.122  11.880  1.00  0.00    -0.063 C 
ATOM      8  C   UNL     1       4.026   3.125  12.870  1.00  0.00    -0.003 C 
ATOM      9  C   UNL     1       5.180   2.121  12.601  1.00  0.00    -0.011 C 
ATOM     10  C   UNL     1       1.355   4.652  11.246  1.00  0.00    -0.006 C 
ATOM     11  C   UNL     1       2.910   6.423  12.231  1.00  0.00    -0.027 C 
ATOM     12  C   UNL     1       4.091   3.733  14.284  1.00  0.00     0.008 C 
ATOM     13  C   UNL     1       6.585   2.723  12.800  1.00  0.00     0.008 C 
ATOM     14  C   UNL     1       0.845   3.378  11.993  1.00  0.00     0.017 C 
ATOM     15  C   UNL     1       0.246   5.816  11.391  1.00  0.00    -0.020 C 
ATOM     16  C   UNL     1       1.971   7.565  11.924  1.00  0.00     0.032 C 
ATOM     17  C   UNL     1       0.889   7.158  10.889  1.00  0.00     0.006 C 
ATOM     18  C   UNL     1      -1.039   5.565  10.560  1.00  0.00     0.008 C 
ATOM     19  C   UNL     1      -0.184   5.902  12.907  1.00  0.00     0.012 C 
ATOM     20  C   UNL     1      -0.121   8.299  10.339  1.00  0.00    -0.025 C 
ATOM     21  C   UNL     1      -2.104   6.650  10.763  1.00  0.00     0.005 C 
ATOM     22  C   UNL     1      -1.590   8.130  10.907  1.00  0.00     0.003 C 
ATOM     23  C   UNL     1      -0.179   8.251   8.762  1.00  0.00     0.010 C 
ATOM     24  C   UNL     1       0.466   9.688  10.723  1.00  0.00     0.012 C 
ATOM     25  C   UNL     1      -2.660   9.203  10.368  1.00  0.00    -0.006 C 
ATOM     26  C   UNL     1      -1.551   8.550   8.120  1.00  0.00     0.033 C 
ATOM     27  C   UNL     1      -2.389   9.600   8.864  1.00  0.00     0.120 C 
ATOM     28  C   UNL     1      -2.679  10.456  11.299  1.00  0.00     0.014 C 
ATOM     29  C   UNL     1      -4.125   8.667  10.463  1.00  0.00     0.014 C 
ENDROOT
BRANCH   1  30
ATOM     30  C   UNL     1       5.529   4.135   9.751  1.00  0.00     0.048 C 
ATOM     31  O   UNL     1       6.573   3.931  10.428  1.00  0.00    -0.550 OA
ATOM     32  O   UNL     1       5.638   4.866   8.572  1.00  0.00    -0.550 OA
ENDBRANCH   1  30
BRANCH  27  33
ATOM     33  O   UNL     1      -1.770  10.856   8.730  1.00  0.00    -0.393 OA
ATOM     34  H   UNL     1      -2.142  11.287   7.916  1.00  0.00     0.210 HD
ENDBRANCH  27  33
TORSDOF 2
ENDMDL
MODEL 2
REMARK VINA RESULT:    96.624      1.828      2.807
REMARK INTER + INTRA:         106.100
REMARK INTER:                 106.271
REMARK INTRA:                  -0.171
REMARK UNBOUND:                 1.003
REMARK SMILES C[C@@H]1[C@H](C)CC[C@@]2(C(=O)[O-])CC[C@@]3(C)C(=CC[C@@H]4[C@@]5(C)CC[C@H](O)C(C)(C)[C@H]5CC[C@]43C)[C@@H]12
REMARK SMILES IDX 7 1 6 2 11 3 33 4 5 5 12 6 15 7 2 8 3 9 13 10 16 11 1 12
REMARK SMILES IDX 4 13 14 14 31 15 17 16 18 17 30 18 32 19 19 20 29 21 28 22
REMARK SMILES IDX 21 23 20 24 25 25 22 26 23 27 26 28 27 29 8 30 9 31 10 32
REMARK SMILES IDX 24 33
REMARK H PARENT 24 34
REMARK Flexibility Score: inf
ROOT
ATOM      1  C   UNL     1       5.073   3.899  12.348  1.00  0.00     0.017 C 
ATOM      2  C   UNL     1       6.190   3.259  11.475  1.00  0.00     0.014 C 
ATOM      3  C   UNL     1       4.703   5.306  11.786  1.00  0.00     0.014 C 
ATOM      4  C   UNL     1       3.805   2.950  12.418  1.00  0.00     0.030 C 
ATOM      5  C   UNL     1       6.603   1.849  11.948  1.00  0.00     0.004 C 
ATOM      6  C   UNL     1       3.904   5.312  10.464  1.00  0.00     0.013 C 
ATOM      7  C   UNL     1       2.564   3.618  11.793  1.00  0.00    -0.063 C 
ATOM      8  C   UNL     1       4.053   1.497  11.907  1.00  0.00    -0.003 C 
ATOM      9  C   UNL     1       5.420   0.939  12.391  1.00  0.00    -0.011 C 
ATOM     10  C   UNL     1       2.677   4.317  10.406  1.00  0.00    -0.006 C 
ATOM     11  C   UNL     1       1.518   3.856  12.635  1.00  0.00    -0.027 C 
ATOM     12  C   UNL     1       2.879   0.563  12.256  1.00  0.00     0.008 C 
ATOM     13  C   UNL     1       5.471   0.651  13.904  1.00  0.00     0.008 C 
ATOM     14  C   UNL     1       2.988   3.248   9.309  1.00  0.00     0.017 C 
ATOM     15  C   UNL     1       1.279   5.039  10.043  1.00  0.00    -0.020 C 
ATOM     16  C   UNL     1       0.450   4.901  12.412  1.00  0.00     0.032 C 
ATOM     17  C   UNL     1       0.843   5.894  11.286  1.00  0.00     0.006 C 
ATOM     18  C   UNL     1       1.362   5.987   8.819  1.00  0.00     0.008 C 
ATOM     19  C   UNL     1       0.221   3.920   9.699  1.00  0.00     0.012 C 
ATOM     20  C   UNL     1      -0.122   7.164  11.005  1.00  0.00    -0.025 C 
ATOM     21  C   UNL     1       0.009   6.612   8.453  1.00  0.00     0.005 C 
ATOM     22  C   UNL     1      -0.928   7.021   9.648  1.00  0.00     0.003 C 
ATOM     23  C   UNL     1       0.734   8.488  10.949  1.00  0.00     0.010 C 
ATOM     24  C   UNL     1      -1.092   7.308  12.212  1.00  0.00     0.012 C 
ATOM     25  C   UNL     1      -1.876   8.268   9.281  1.00  0.00    -0.006 C 
ATOM     26  C   UNL     1       0.277   9.554   9.928  1.00  0.00     0.033 C 
ATOM     27  C   UNL     1      -1.243   9.642   9.733  1.00  0.00     0.120 C 
ATOM     28  C   UNL     1      -3.297   8.060   9.892  1.00  0.00     0.014 C 
ATOM     29  C   UNL     1      -2.158   8.356   7.746  1.00  0.00     0.014 C 
ENDROOT
BRANCH   1  30
ATOM     30  C   UNL     1       5.629   4.166  13.751  1.00  0.00     0.048 C 
ATOM     31  O   UNL     1       5.043   3.700  14.765  1.00  0.00    -0.550 OA
ATOM     32  O   UNL     1       6.709   5.021  13.945  1.00  0.00    -0.550 OA
ENDBRANCH   1  30
BRANCH  27  33
ATOM     33  O   UNL     1      -1.825  10.154  10.908  1.00  0.00    -0.393 OA
ATOM     34  H   UNL     1      -2.531   9.517  11.193  1.00  0.00     0.210 HD
ENDBRANCH  27  33
TORSDOF 2
ENDMDL
MODEL 3
REMARK VINA RESULT:    96.884      1.964      3.531
REMARK INTER + INTRA:         106.383
REMARK INTER:                 106.171
REMARK INTRA:                   0.212
REMARK UNBOUND:                 1.003
REMARK SMILES C[C@@H]1[C@H](C)CC[C@@]2(C(=O)[O-])CC[C@@]3(C)C(=CC[C@@H]4[C@@]5(C)CC[C@H](O)C(C)(C)[C@H]5CC[C@]43C)[C@@H]12
REMARK SMILES IDX 7 1 6 2 11 3 33 4 5 5 12 6 15 7 2 8 3 9 13 10 16 11 1 12
REMARK SMILES IDX 4 13 14 14 31 15 17 16 18 17 30 18 32 19 19 20 29 21 28 22
REMARK SMILES IDX 21 23 20 24 25 25 22 26 23 27 26 28 27 29 8 30 9 31 10 32
REMARK SMILES IDX 24 33
REMARK H PARENT 24 34
REMARK Flexibility Score: inf
ROOT
ATOM      1  C   UNL     1       3.349   3.949  12.321  1.00  0.00     0.017 C 
ATOM      2  C   UNL     1       4.893   4.135  12.280  1.00  0.00     0.014 C 
ATOM      3  C   UNL     1       2.668   5.278  12.770  1.00  0.00     0.014 C 
ATOM      4  C   UNL     1       2.806   3.467  10.912  1.00  0.00     0.030 C 
ATOM      5  C   UNL     1       5.648   2.869  11.820  1.00  0.00     0.004 C 
ATOM      6  C   UNL     1       2.671   6.419  11.729  1.00  0.00     0.013 C 
ATOM      7  C   UNL     1       1.844   4.500  10.293  1.00  0.00    -0.063 C 
ATOM      8  C   UNL     1       3.910   2.975   9.925  1.00  0.00    -0.003 C 
ATOM      9  C   UNL     1       4.980   2.105  10.641  1.00  0.00    -0.011 C 
ATOM     10  C   UNL     1       2.239   6.007  10.266  1.00  0.00    -0.006 C 
ATOM     11  C   UNL     1       0.557   4.092  10.106  1.00  0.00    -0.027 C 
ATOM     12  C   UNL     1       3.303   2.270   8.697  1.00  0.00     0.008 C 
ATOM     13  C   UNL     1       4.458   0.726  11.091  1.00  0.00     0.008 C 
ATOM     14  C   UNL     1       3.479   6.203   9.336  1.00  0.00     0.017 C 
ATOM     15  C   UNL     1       1.013   6.882   9.685  1.00  0.00    -0.020 C 
ATOM     16  C   UNL     1      -0.636   5.012  10.004  1.00  0.00     0.032 C 
ATOM     17  C   UNL     1      -0.288   6.456  10.453  1.00  0.00     0.006 C 
ATOM     18  C   UNL     1       1.194   8.411   9.866  1.00  0.00     0.008 C 
ATOM     19  C   UNL     1       0.898   6.603   8.136  1.00  0.00     0.012 C 
ATOM     20  C   UNL     1      -1.483   7.547  10.541  1.00  0.00    -0.025 C 
ATOM     21  C   UNL     1       0.049   9.226   9.249  1.00  0.00     0.005 C 
ATOM     22  C   UNL     1      -1.400   8.628   9.385  1.00  0.00     0.003 C 
ATOM     23  C   UNL     1      -1.433   8.289  11.933  1.00  0.00     0.010 C 
ATOM     24  C   UNL     1      -2.837   6.783  10.489  1.00  0.00     0.012 C 
ATOM     25  C   UNL     1      -2.531   9.770   9.434  1.00  0.00    -0.006 C 
ATOM     26  C   UNL     1      -1.808   9.787  11.921  1.00  0.00     0.033 C 
ATOM     27  C   UNL     1      -2.906  10.163  10.916  1.00  0.00     0.120 C 
ATOM     28  C   UNL     1      -3.786   9.319   8.623  1.00  0.00     0.014 C 
ATOM     29  C   UNL     1      -2.079  11.072   8.696  1.00  0.00     0.014 C 
ENDROOT
BRANCH   1  30
ATOM     30  C   UNL     1       2.998   2.934  13.413  1.00  0.00     0.048 C 
ATOM     31  O   UNL     1       1.801   2.781  13.777  1.00  0.00    -0.550 OA
ATOM     32  O   UNL     1       3.993   2.254  14.109  1.00  0.00    -0.550 OA
ENDBRANCH   1  30
BRANCH  27  33
ATOM     33  O   UNL     1      -4.125   9.603  11.341  1.00  0.00    -0.393 OA
ATOM     34  H   UNL     1      -3.911   8.881  11.989  1.00  0.00     0.210 HD
ENDBRANCH  27  33
TORSDOF 2
ENDMDL
