MODEL 1
REMARK VINA RESULT:    -5.321      0.000      0.000
REMARK INTER + INTRA:          -6.654
REMARK INTER:                  -6.410
REMARK INTRA:                  -0.244
REMARK UNBOUND:                -0.244
REMARK SMILES O=c1c(O)c(-c2ccc(O)c(O)c2)oc2cc(O)cc(O)c12
REMARK SMILES IDX 5 1 3 2 2 3 1 4 22 5 20 6 19 7 17 8 16 9 15 10 14 11 6 12
REMARK SMILES IDX 7 13 8 14 9 15 13 16 11 17 10 18 12 20 4 22 21 24 18 26
REMARK H PARENT 10 19 12 21 4 23 21 25 18 27
REMARK Flexibility Score: inf
ROOT
ATOM      1  C   UNL     1      -7.293 -20.981 -17.746  1.00  0.00     0.180 A 
ATOM      2  C   UNL     1      -6.156 -21.639 -17.244  1.00  0.00     0.208 A 
ATOM      3  C   UNL     1      -5.691 -22.791 -17.898  1.00  0.00     0.238 A 
ATOM      4  O   UNL     1      -4.707 -23.407 -17.412  1.00  0.00    -0.285 OA
ATOM      5  C   UNL     1      -6.357 -23.261 -19.056  1.00  0.00     0.111 A 
ATOM      6  C   UNL     1      -5.948 -24.394 -19.822  1.00  0.00     0.134 A 
ATOM      7  C   UNL     1      -6.758 -24.845 -20.872  1.00  0.00     0.093 A 
ATOM      8  C   UNL     1      -7.924 -24.168 -21.225  1.00  0.00     0.123 A 
ATOM      9  C   UNL     1      -8.301 -23.023 -20.522  1.00  0.00     0.094 A 
ATOM     10  C   UNL     1      -7.534 -22.570 -19.445  1.00  0.00     0.146 A 
ATOM     11  O   UNL     1      -7.933 -21.484 -18.794  1.00  0.00    -0.452 OA
ENDROOT
BRANCH   1  12
ATOM     12  C   UNL     1      -7.828 -19.748 -17.126  1.00  0.00     0.025 A 
ATOM     13  C   UNL     1      -7.694 -18.496 -17.752  1.00  0.00     0.016 A 
ATOM     14  C   UNL     1      -8.227 -17.349 -17.159  1.00  0.00     0.051 A 
ATOM     15  C   UNL     1      -8.914 -17.437 -15.942  1.00  0.00     0.157 A 
ATOM     16  C   UNL     1      -8.534 -19.833 -15.915  1.00  0.00     0.062 A 
ATOM     17  C   UNL     1      -9.070 -18.682 -15.319  1.00  0.00     0.158 A 
BRANCH  15  18
ATOM     18  O   UNL     1      -9.446 -16.296 -15.346  1.00  0.00    -0.504 OA
ATOM     19  H   UNL     1      -9.639 -15.458 -15.884  1.00  0.00     0.293 HD
ENDBRANCH  15  18
BRANCH  17  20
ATOM     20  O   UNL     1      -9.760 -18.769 -14.112  1.00  0.00    -0.504 OA
ATOM     21  H   UNL     1      -9.522 -18.182 -13.321  1.00  0.00     0.293 HD
ENDBRANCH  17  20
ENDBRANCH   1  12
BRANCH   2  22
ATOM     22  O   UNL     1      -5.527 -21.171 -16.087  1.00  0.00    -0.502 OA
ATOM     23  H   UNL     1      -4.685 -20.609 -16.115  1.00  0.00     0.293 HD
ENDBRANCH   2  22
BRANCH   6  24
ATOM     24  O   UNL     1      -4.754 -25.089 -19.611  1.00  0.00    -0.507 OA
ATOM     25  H   UNL     1      -4.479 -25.506 -18.735  1.00  0.00     0.293 HD
ENDBRANCH   6  24
BRANCH   8  26
ATOM     26  O   UNL     1      -8.697 -24.635 -22.286  1.00  0.00    -0.508 OA
ATOM     27  H   UNL     1      -8.990 -25.603 -22.343  1.00  0.00     0.293 HD
ENDBRANCH   8  26
TORSDOF 6
ENDMDL
MODEL 2
REMARK VINA RESULT:    -5.095      2.146      4.125
REMARK INTER + INTRA:          -6.382
REMARK INTER:                  -6.048
REMARK INTRA:                  -0.333
REMARK UNBOUND:                -0.244
REMARK SMILES O=c1c(O)c(-c2ccc(O)c(O)c2)oc2cc(O)cc(O)c12
REMARK SMILES IDX 5 1 3 2 2 3 1 4 22 5 20 6 19 7 17 8 16 9 15 10 14 11 6 12
REMARK SMILES IDX 7 13 8 14 9 15 13 16 11 17 10 18 12 20 4 22 21 24 18 26
REMARK H PARENT 10 19 12 21 4 23 21 25 18 27
REMARK Flexibility Score: inf
ROOT
ATOM      1  C   UNL     1      -6.795 -20.341 -16.725  1.00  0.00     0.180 A 
ATOM      2  C   UNL     1      -7.183 -21.444 -17.506  1.00  0.00     0.208 A 
ATOM      3  C   UNL     1      -6.232 -22.431 -17.810  1.00  0.00     0.238 A 
ATOM      4  O   UNL     1      -6.570 -23.387 -18.555  1.00  0.00    -0.285 OA
ATOM      5  C   UNL     1      -4.910 -22.312 -17.316  1.00  0.00     0.111 A 
ATOM      6  C   UNL     1      -3.876 -23.273 -17.530  1.00  0.00     0.134 A 
ATOM      7  C   UNL     1      -2.572 -22.988 -17.105  1.00  0.00     0.093 A 
ATOM      8  C   UNL     1      -2.278 -21.811 -16.420  1.00  0.00     0.123 A 
ATOM      9  C   UNL     1      -3.294 -20.891 -16.153  1.00  0.00     0.094 A 
ATOM     10  C   UNL     1      -4.597 -21.130 -16.596  1.00  0.00     0.146 A 
ATOM     11  O   UNL     1      -5.532 -20.226 -16.332  1.00  0.00    -0.452 OA
ENDROOT
BRANCH   1  12
ATOM     12  C   UNL     1      -7.747 -19.274 -16.341  1.00  0.00     0.025 A 
ATOM     13  C   UNL     1      -8.541 -19.381 -15.185  1.00  0.00     0.016 A 
ATOM     14  C   UNL     1      -9.415 -18.351 -14.830  1.00  0.00     0.051 A 
ATOM     15  C   UNL     1      -9.499 -17.194 -15.615  1.00  0.00     0.157 A 
ATOM     16  C   UNL     1      -7.821 -18.103 -17.113  1.00  0.00     0.062 A 
ATOM     17  C   UNL     1      -8.698 -17.068 -16.757  1.00  0.00     0.158 A 
BRANCH  15  18
ATOM     18  O   UNL     1     -10.370 -16.165 -15.265  1.00  0.00    -0.504 OA
ATOM     19  H   UNL     1     -11.179 -16.332 -14.677  1.00  0.00     0.293 HD
ENDBRANCH  15  18
BRANCH  17  20
ATOM     20  O   UNL     1      -8.778 -15.913 -17.532  1.00  0.00    -0.504 OA
ATOM     21  H   UNL     1      -9.188 -15.923 -18.459  1.00  0.00     0.293 HD
ENDBRANCH  17  20
ENDBRANCH   1  12
BRANCH   2  22
ATOM     22  O   UNL     1      -8.486 -21.531 -18.001  1.00  0.00    -0.502 OA
ATOM     23  H   UNL     1      -9.258 -21.015 -17.596  1.00  0.00     0.293 HD
ENDBRANCH   2  22
BRANCH   6  24
ATOM     24  O   UNL     1      -4.081 -24.521 -18.123  1.00  0.00    -0.507 OA
ATOM     25  H   UNL     1      -4.683 -24.689 -18.915  1.00  0.00     0.293 HD
ENDBRANCH   6  24
BRANCH   8  26
ATOM     26  O   UNL     1      -0.972 -21.567 -15.997  1.00  0.00    -0.508 OA
ATOM     27  H   UNL     1      -0.644 -20.629 -15.804  1.00  0.00     0.293 HD
ENDBRANCH   8  26
TORSDOF 6
ENDMDL
MODEL 3
REMARK VINA RESULT:    -5.071      1.713      1.760
REMARK INTER + INTRA:          -6.352
REMARK INTER:                  -6.091
REMARK INTRA:                  -0.261
REMARK UNBOUND:                -0.244
REMARK SMILES O=c1c(O)c(-c2ccc(O)c(O)c2)oc2cc(O)cc(O)c12
REMARK SMILES IDX 5 1 3 2 2 3 1 4 22 5 20 6 19 7 17 8 16 9 15 10 14 11 6 12
REMARK SMILES IDX 7 13 8 14 9 15 13 16 11 17 10 18 12 20 4 22 21 24 18 26
REMARK H PARENT 10 19 12 21 4 23 21 25 18 27
REMARK Flexibility Score: inf
ROOT
ATOM      1  C   UNL     1      -7.391 -20.933 -18.950  1.00  0.00     0.180 A 
ATOM      2  C   UNL     1      -6.044 -20.978 -19.350  1.00  0.00     0.208 A 
ATOM      3  C   UNL     1      -5.655 -21.903 -20.332  1.00  0.00     0.238 A 
ATOM      4  O   UNL     1      -4.438 -21.976 -20.645  1.00  0.00    -0.285 OA
ATOM      5  C   UNL     1      -6.620 -22.759 -20.914  1.00  0.00     0.111 A 
ATOM      6  C   UNL     1      -6.345 -23.707 -21.946  1.00  0.00     0.134 A 
ATOM      7  C   UNL     1      -7.349 -24.593 -22.355  1.00  0.00     0.093 A 
ATOM      8  C   UNL     1      -8.634 -24.523 -21.818  1.00  0.00     0.123 A 
ATOM      9  C   UNL     1      -8.930 -23.561 -20.851  1.00  0.00     0.094 A 
ATOM     10  C   UNL     1      -7.939 -22.687 -20.396  1.00  0.00     0.146 A 
ATOM     11  O   UNL     1      -8.259 -21.794 -19.468  1.00  0.00    -0.452 OA
ENDROOT
BRANCH   1  12
ATOM     12  C   UNL     1      -7.881 -19.969 -17.939  1.00  0.00     0.025 A 
ATOM     13  C   UNL     1      -8.009 -18.600 -18.235  1.00  0.00     0.016 A 
ATOM     14  C   UNL     1      -8.496 -17.712 -17.273  1.00  0.00     0.051 A 
ATOM     15  C   UNL     1      -8.877 -18.179 -16.009  1.00  0.00     0.157 A 
ATOM     16  C   UNL     1      -8.283 -20.434 -16.677  1.00  0.00     0.062 A 
ATOM     17  C   UNL     1      -8.773 -19.543 -15.710  1.00  0.00     0.158 A 
BRANCH  15  18
ATOM     18  O   UNL     1      -9.362 -17.297 -15.046  1.00  0.00    -0.504 OA
ATOM     19  H   UNL     1      -9.342 -17.526 -14.059  1.00  0.00     0.293 HD
ENDBRANCH  15  18
BRANCH  17  20
ATOM     20  O   UNL     1      -9.159 -20.007 -14.455  1.00  0.00    -0.504 OA
ATOM     21  H   UNL     1      -9.386 -19.371 -13.700  1.00  0.00     0.293 HD
ENDBRANCH  17  20
ENDBRANCH   1  12
BRANCH   2  22
ATOM     22  O   UNL     1      -5.104 -20.139 -18.747  1.00  0.00    -0.502 OA
ATOM     23  H   UNL     1      -5.021 -20.047 -17.741  1.00  0.00     0.293 HD
ENDBRANCH   2  22
BRANCH   6  24
ATOM     24  O   UNL     1      -5.121 -23.800 -22.614  1.00  0.00    -0.507 OA
ATOM     25  H   UNL     1      -4.804 -24.610 -23.124  1.00  0.00     0.293 HD
ENDBRANCH   6  24
BRANCH   8  26
ATOM     26  O   UNL     1      -9.614 -25.410 -22.260  1.00  0.00    -0.508 OA
ATOM     27  H   UNL     1     -10.529 -25.448 -21.827  1.00  0.00     0.293 HD
ENDBRANCH   8  26
TORSDOF 6
ENDMDL
MODEL 4
REMARK VINA RESULT:    -4.983      1.711      6.858
REMARK INTER + INTRA:          -6.247
REMARK INTER:                  -5.929
REMARK INTRA:                  -0.318
REMARK UNBOUND:                -0.244
REMARK SMILES O=c1c(O)c(-c2ccc(O)c(O)c2)oc2cc(O)cc(O)c12
REMARK SMILES IDX 5 1 3 2 2 3 1 4 22 5 20 6 19 7 17 8 16 9 15 10 14 11 6 12
REMARK SMILES IDX 7 13 8 14 9 15 13 16 11 17 10 18 12 20 4 22 21 24 18 26
REMARK H PARENT 10 19 12 21 4 23 21 25 18 27
REMARK Flexibility Score: inf
ROOT
ATOM      1  C   UNL     1      -7.828 -21.437 -19.450  1.00  0.00     0.180 A 
ATOM      2  C   UNL     1      -7.428 -21.701 -18.129  1.00  0.00     0.208 A 
ATOM      3  C   UNL     1      -7.665 -20.734 -17.139  1.00  0.00     0.238 A 
ATOM      4  O   UNL     1      -7.255 -20.953 -15.970  1.00  0.00    -0.285 OA
ATOM      5  C   UNL     1      -8.314 -19.523 -17.479  1.00  0.00     0.111 A 
ATOM      6  C   UNL     1      -8.641 -18.490 -16.549  1.00  0.00     0.134 A 
ATOM      7  C   UNL     1      -9.165 -17.279 -17.019  1.00  0.00     0.093 A 
ATOM      8  C   UNL     1      -9.434 -17.088 -18.373  1.00  0.00     0.123 A 
ATOM      9  C   UNL     1      -9.174 -18.113 -19.284  1.00  0.00     0.094 A 
ATOM     10  C   UNL     1      -8.617 -19.319 -18.850  1.00  0.00     0.146 A 
ATOM     11  O   UNL     1      -8.375 -20.265 -19.749  1.00  0.00    -0.452 OA
ENDROOT
BRANCH   1  12
ATOM     12  C   UNL     1      -7.635 -22.417 -20.543  1.00  0.00     0.025 A 
ATOM     13  C   UNL     1      -6.486 -22.393 -21.355  1.00  0.00     0.016 A 
ATOM     14  C   UNL     1      -6.315 -23.343 -22.364  1.00  0.00     0.051 A 
ATOM     15  C   UNL     1      -7.278 -24.338 -22.569  1.00  0.00     0.157 A 
ATOM     16  C   UNL     1      -8.587 -23.430 -20.740  1.00  0.00     0.062 A 
ATOM     17  C   UNL     1      -8.416 -24.384 -21.754  1.00  0.00     0.158 A 
BRANCH  15  18
ATOM     18  O   UNL     1      -7.111 -25.286 -23.576  1.00  0.00    -0.504 OA
ATOM     19  H   UNL     1      -7.865 -25.906 -23.850  1.00  0.00     0.293 HD
ENDBRANCH  15  18
BRANCH  17  20
ATOM     20  O   UNL     1      -9.369 -25.380 -21.954  1.00  0.00    -0.504 OA
ATOM     21  H   UNL     1      -9.938 -25.410 -22.792  1.00  0.00     0.293 HD
ENDBRANCH  17  20
ENDBRANCH   1  12
BRANCH   2  22
ATOM     22  O   UNL     1      -6.769 -22.894 -17.819  1.00  0.00    -0.502 OA
ATOM     23  H   UNL     1      -7.258 -23.777 -17.723  1.00  0.00     0.293 HD
ENDBRANCH   2  22
BRANCH   6  24
ATOM     24  O   UNL     1      -8.497 -18.612 -15.165  1.00  0.00    -0.507 OA
ATOM     25  H   UNL     1      -8.126 -19.424 -14.695  1.00  0.00     0.293 HD
ENDBRANCH   6  24
BRANCH   8  26
ATOM     26  O   UNL     1      -9.971 -15.876 -18.804  1.00  0.00    -0.508 OA
ATOM     27  H   UNL     1     -10.958 -15.669 -18.708  1.00  0.00     0.293 HD
ENDBRANCH   8  26
TORSDOF 6
ENDMDL
MODEL 5
REMARK VINA RESULT:    -4.964      7.838      9.705
REMARK INTER + INTRA:          -6.223
REMARK INTER:                  -5.940
REMARK INTRA:                  -0.284
REMARK UNBOUND:                -0.244
REMARK SMILES O=c1c(O)c(-c2ccc(O)c(O)c2)oc2cc(O)cc(O)c12
REMARK SMILES IDX 5 1 3 2 2 3 1 4 22 5 20 6 19 7 17 8 16 9 15 10 14 11 6 12
REMARK SMILES IDX 7 13 8 14 9 15 13 16 11 17 10 18 12 20 4 22 21 24 18 26
REMARK H PARENT 10 19 12 21 4 23 21 25 18 27
REMARK Flexibility Score: inf
ROOT
ATOM      1  C   UNL     1      -1.313 -22.073 -11.662  1.00  0.00     0.180 A 
ATOM      2  C   UNL     1      -0.123 -22.733 -11.310  1.00  0.00     0.208 A 
ATOM      3  C   UNL     1      -0.199 -23.947 -10.609  1.00  0.00     0.238 A 
ATOM      4  O   UNL     1       0.870 -24.505 -10.249  1.00  0.00    -0.285 OA
ATOM      5  C   UNL     1      -1.464 -24.494 -10.283  1.00  0.00     0.111 A 
ATOM      6  C   UNL     1      -1.659 -25.738  -9.610  1.00  0.00     0.134 A 
ATOM      7  C   UNL     1      -2.951 -26.117  -9.223  1.00  0.00     0.093 A 
ATOM      8  C   UNL     1      -4.058 -25.333  -9.541  1.00  0.00     0.123 A 
ATOM      9  C   UNL     1      -3.885 -24.144 -10.252  1.00  0.00     0.094 A 
ATOM     10  C   UNL     1      -2.604 -23.721 -10.620  1.00  0.00     0.146 A 
ATOM     11  O   UNL     1      -2.481 -22.578 -11.285  1.00  0.00    -0.452 OA
ENDROOT
BRANCH   1  12
ATOM     12  C   UNL     1      -1.314 -20.803 -12.423  1.00  0.00     0.025 A 
ATOM     13  C   UNL     1      -1.025 -19.575 -11.800  1.00  0.00     0.016 A 
ATOM     14  C   UNL     1      -1.008 -18.393 -12.544  1.00  0.00     0.051 A 
ATOM     15  C   UNL     1      -1.266 -18.420 -13.920  1.00  0.00     0.157 A 
ATOM     16  C   UNL     1      -1.552 -20.826 -13.807  1.00  0.00     0.062 A 
ATOM     17  C   UNL     1      -1.536 -19.639 -14.554  1.00  0.00     0.158 A 
BRANCH  15  18
ATOM     18  O   UNL     1      -1.253 -17.242 -14.664  1.00  0.00    -0.504 OA
ATOM     19  H   UNL     1      -2.092 -16.689 -14.795  1.00  0.00     0.293 HD
ENDBRANCH  15  18
BRANCH  17  20
ATOM     20  O   UNL     1      -1.785 -19.665 -15.924  1.00  0.00    -0.504 OA
ATOM     21  H   UNL     1      -2.513 -19.099 -16.342  1.00  0.00     0.293 HD
ENDBRANCH  17  20
ENDBRANCH   1  12
BRANCH   2  22
ATOM     22  O   UNL     1       1.115 -22.165 -11.623  1.00  0.00    -0.502 OA
ATOM     23  H   UNL     1       1.331 -21.805 -12.545  1.00  0.00     0.293 HD
ENDBRANCH   2  22
BRANCH   6  24
ATOM     24  O   UNL     1      -0.631 -26.641  -9.325  1.00  0.00    -0.507 OA
ATOM     25  H   UNL     1       0.187 -26.779  -9.897  1.00  0.00     0.293 HD
ENDBRANCH   6  24
BRANCH   8  26
ATOM     26  O   UNL     1      -5.330 -25.749  -9.155  1.00  0.00    -0.508 OA
ATOM     27  H   UNL     1      -6.151 -25.182  -9.333  1.00  0.00     0.293 HD
ENDBRANCH   8  26
TORSDOF 6
ENDMDL
MODEL 6
REMARK VINA RESULT:    -4.911      2.204      2.613
REMARK INTER + INTRA:          -6.159
REMARK INTER:                  -6.524
REMARK INTRA:                   0.364
REMARK UNBOUND:                -0.244
REMARK SMILES O=c1c(O)c(-c2ccc(O)c(O)c2)oc2cc(O)cc(O)c12
REMARK SMILES IDX 5 1 3 2 2 3 1 4 22 5 20 6 19 7 17 8 16 9 15 10 14 11 6 12
REMARK SMILES IDX 7 13 8 14 9 15 13 16 11 17 10 18 12 20 4 22 21 24 18 26
REMARK H PARENT 10 19 12 21 4 23 21 25 18 27
REMARK Flexibility Score: inf
ROOT
ATOM      1  C   UNL     1      -7.885 -20.561 -19.196  1.00  0.00     0.180 A 
ATOM      2  C   UNL     1      -7.310 -21.829 -18.997  1.00  0.00     0.208 A 
ATOM      3  C   UNL     1      -6.988 -22.614 -20.115  1.00  0.00     0.238 A 
ATOM      4  O   UNL     1      -6.525 -23.770 -19.929  1.00  0.00    -0.285 OA
ATOM      5  C   UNL     1      -7.229 -22.116 -21.418  1.00  0.00     0.111 A 
ATOM      6  C   UNL     1      -6.906 -22.810 -22.623  1.00  0.00     0.134 A 
ATOM      7  C   UNL     1      -7.309 -22.279 -23.855  1.00  0.00     0.093 A 
ATOM      8  C   UNL     1      -7.964 -21.051 -23.930  1.00  0.00     0.123 A 
ATOM      9  C   UNL     1      -8.233 -20.335 -22.762  1.00  0.00     0.094 A 
ATOM     10  C   UNL     1      -7.875 -20.857 -21.516  1.00  0.00     0.146 A 
ATOM     11  O   UNL     1      -8.159 -20.151 -20.428  1.00  0.00    -0.452 OA
ENDROOT
BRANCH   1  12
ATOM     12  C   UNL     1      -8.228 -19.666 -18.068  1.00  0.00     0.025 A 
ATOM     13  C   UNL     1      -8.289 -18.270 -18.233  1.00  0.00     0.016 A 
ATOM     14  C   UNL     1      -8.638 -17.447 -17.161  1.00  0.00     0.051 A 
ATOM     15  C   UNL     1      -8.945 -18.003 -15.913  1.00  0.00     0.157 A 
ATOM     16  C   UNL     1      -8.557 -20.220 -16.821  1.00  0.00     0.062 A 
ATOM     17  C   UNL     1      -8.907 -19.393 -15.742  1.00  0.00     0.158 A 
BRANCH  15  18
ATOM     18  O   UNL     1      -9.291 -17.185 -14.840  1.00  0.00    -0.504 OA
ATOM     19  H   UNL     1      -8.592 -16.824 -14.202  1.00  0.00     0.293 HD
ENDBRANCH  15  18
BRANCH  17  20
ATOM     20  O   UNL     1      -9.220 -19.946 -14.503  1.00  0.00    -0.504 OA
ATOM     21  H   UNL     1      -8.736 -20.761 -14.147  1.00  0.00     0.293 HD
ENDBRANCH  17  20
ENDBRANCH   1  12
BRANCH   2  22
ATOM     22  O   UNL     1      -7.101 -22.310 -17.702  1.00  0.00    -0.502 OA
ATOM     23  H   UNL     1      -7.746 -22.128 -16.942  1.00  0.00     0.293 HD
ENDBRANCH   2  22
BRANCH   6  24
ATOM     24  O   UNL     1      -6.173 -24.000 -22.666  1.00  0.00    -0.507 OA
ATOM     25  H   UNL     1      -5.664 -24.390 -21.888  1.00  0.00     0.293 HD
ENDBRANCH   6  24
BRANCH   8  26
ATOM     26  O   UNL     1      -8.336 -20.545 -25.174  1.00  0.00    -0.508 OA
ATOM     27  H   UNL     1      -8.851 -21.105 -25.843  1.00  0.00     0.293 HD
ENDBRANCH   8  26
TORSDOF 6
ENDMDL
MODEL 7
REMARK VINA RESULT:    -4.852      9.633     12.509
REMARK INTER + INTRA:          -6.089
REMARK INTER:                  -5.903
REMARK INTRA:                  -0.186
REMARK UNBOUND:                -0.244
REMARK SMILES O=c1c(O)c(-c2ccc(O)c(O)c2)oc2cc(O)cc(O)c12
REMARK SMILES IDX 5 1 3 2 2 3 1 4 22 5 20 6 19 7 17 8 16 9 15 10 14 11 6 12
REMARK SMILES IDX 7 13 8 14 9 15 13 16 11 17 10 18 12 20 4 22 21 24 18 26
REMARK H PARENT 10 19 12 21 4 23 21 25 18 27
REMARK Flexibility Score: inf
ROOT
ATOM      1  C   UNL     1       0.411 -20.617 -11.089  1.00  0.00     0.180 A 
ATOM      2  C   UNL     1      -0.577 -19.860 -11.741  1.00  0.00     0.208 A 
ATOM      3  C   UNL     1      -0.271 -18.555 -12.160  1.00  0.00     0.238 A 
ATOM      4  O   UNL     1      -1.177 -17.864 -12.694  1.00  0.00    -0.285 OA
ATOM      5  C   UNL     1       1.025 -18.030 -11.938  1.00  0.00     0.111 A 
ATOM      6  C   UNL     1       1.457 -16.735 -12.356  1.00  0.00     0.134 A 
ATOM      7  C   UNL     1       2.719 -16.271 -11.966  1.00  0.00     0.093 A 
ATOM      8  C   UNL     1       3.589 -17.075 -11.232  1.00  0.00     0.123 A 
ATOM      9  C   UNL     1       3.200 -18.366 -10.869  1.00  0.00     0.094 A 
ATOM     10  C   UNL     1       1.932 -18.844 -11.211  1.00  0.00     0.146 A 
ATOM     11  O   UNL     1       1.596 -20.073 -10.837  1.00  0.00    -0.452 OA
ENDROOT
BRANCH   1  12
ATOM     12  C   UNL     1       0.172 -22.008 -10.641  1.00  0.00     0.025 A 
ATOM     13  C   UNL     1       0.101 -22.335  -9.275  1.00  0.00     0.016 A 
ATOM     14  C   UNL     1      -0.149 -23.650  -8.876  1.00  0.00     0.051 A 
ATOM     15  C   UNL     1      -0.348 -24.653  -9.833  1.00  0.00     0.157 A 
ATOM     16  C   UNL     1      -0.048 -23.013 -11.595  1.00  0.00     0.062 A 
ATOM     17  C   UNL     1      -0.300 -24.335 -11.196  1.00  0.00     0.158 A 
BRANCH  15  18
ATOM     18  O   UNL     1      -0.596 -25.966  -9.439  1.00  0.00    -0.504 OA
ATOM     19  H   UNL     1      -0.970 -26.182  -8.522  1.00  0.00     0.293 HD
ENDBRANCH  15  18
BRANCH  17  20
ATOM     20  O   UNL     1      -0.505 -25.332 -12.146  1.00  0.00    -0.504 OA
ATOM     21  H   UNL     1      -0.873 -25.121 -13.066  1.00  0.00     0.293 HD
ENDBRANCH  17  20
ENDBRANCH   1  12
BRANCH   2  22
ATOM     22  O   UNL     1      -1.856 -20.390 -11.932  1.00  0.00    -0.502 OA
ATOM     23  H   UNL     1      -2.025 -21.384 -12.031  1.00  0.00     0.293 HD
ENDBRANCH   2  22
BRANCH   6  24
ATOM     24  O   UNL     1       0.702 -15.886 -13.169  1.00  0.00    -0.507 OA
ATOM     25  H   UNL     1       1.024 -15.486 -14.038  1.00  0.00     0.293 HD
ENDBRANCH   6  24
BRANCH   8  26
ATOM     26  O   UNL     1       4.844 -16.586 -10.875  1.00  0.00    -0.508 OA
ATOM     27  H   UNL     1       5.374 -15.985 -11.494  1.00  0.00     0.293 HD
ENDBRANCH   8  26
TORSDOF 6
ENDMDL
MODEL 8
REMARK VINA RESULT:    -4.806      2.103      7.321
REMARK INTER + INTRA:          -6.033
REMARK INTER:                  -5.709
REMARK INTRA:                  -0.325
REMARK UNBOUND:                -0.244
REMARK SMILES O=c1c(O)c(-c2ccc(O)c(O)c2)oc2cc(O)cc(O)c12
REMARK SMILES IDX 5 1 3 2 2 3 1 4 22 5 20 6 19 7 17 8 16 9 15 10 14 11 6 12
REMARK SMILES IDX 7 13 8 14 9 15 13 16 11 17 10 18 12 20 4 22 21 24 18 26
REMARK H PARENT 10 19 12 21 4 23 21 25 18 27
REMARK Flexibility Score: inf
ROOT
ATOM      1  C   UNL     1      -7.883 -20.441 -19.855  1.00  0.00     0.180 A 
ATOM      2  C   UNL     1      -8.219 -19.205 -20.435  1.00  0.00     0.208 A 
ATOM      3  C   UNL     1      -8.652 -18.158 -19.606  1.00  0.00     0.238 A 
ATOM      4  O   UNL     1      -9.004 -17.073 -20.136  1.00  0.00    -0.285 OA
ATOM      5  C   UNL     1      -8.727 -18.354 -18.205  1.00  0.00     0.111 A 
ATOM      6  C   UNL     1      -9.114 -17.351 -17.267  1.00  0.00     0.134 A 
ATOM      7  C   UNL     1      -9.279 -17.694 -15.919  1.00  0.00     0.093 A 
ATOM      8  C   UNL     1      -9.009 -18.984 -15.465  1.00  0.00     0.123 A 
ATOM      9  C   UNL     1      -8.572 -19.958 -16.364  1.00  0.00     0.094 A 
ATOM     10  C   UNL     1      -8.433 -19.655 -17.722  1.00  0.00     0.146 A 
ATOM     11  O   UNL     1      -8.026 -20.613 -18.546  1.00  0.00    -0.452 OA
ENDROOT
BRANCH   1  12
ATOM     12  C   UNL     1      -7.394 -21.583 -20.661  1.00  0.00     0.025 A 
ATOM     13  C   UNL     1      -6.041 -21.697 -21.025  1.00  0.00     0.016 A 
ATOM     14  C   UNL     1      -5.598 -22.796 -21.765  1.00  0.00     0.051 A 
ATOM     15  C   UNL     1      -6.496 -23.802 -22.140  1.00  0.00     0.157 A 
ATOM     16  C   UNL     1      -8.286 -22.605 -21.022  1.00  0.00     0.062 A 
ATOM     17  C   UNL     1      -7.843 -23.709 -21.766  1.00  0.00     0.158 A 
BRANCH  15  18
ATOM     18  O   UNL     1      -6.060 -24.899 -22.881  1.00  0.00    -0.504 OA
ATOM     19  H   UNL     1      -5.900 -25.801 -22.447  1.00  0.00     0.293 HD
ENDBRANCH  15  18
BRANCH  17  20
ATOM     20  O   UNL     1      -8.733 -24.716 -22.134  1.00  0.00    -0.504 OA
ATOM     21  H   UNL     1      -8.445 -25.685 -22.189  1.00  0.00     0.293 HD
ENDBRANCH  17  20
ENDBRANCH   1  12
BRANCH   2  22
ATOM     22  O   UNL     1      -8.158 -19.040 -21.821  1.00  0.00    -0.502 OA
ATOM     23  H   UNL     1      -8.438 -19.767 -22.469  1.00  0.00     0.293 HD
ENDBRANCH   2  22
BRANCH   6  24
ATOM     24  O   UNL     1      -9.320 -16.009 -17.599  1.00  0.00    -0.507 OA
ATOM     25  H   UNL     1      -9.821 -15.689 -18.414  1.00  0.00     0.293 HD
ENDBRANCH   6  24
BRANCH   8  26
ATOM     26  O   UNL     1      -9.169 -19.286 -14.114  1.00  0.00    -0.508 OA
ATOM     27  H   UNL     1     -10.008 -19.031 -13.609  1.00  0.00     0.293 HD
ENDBRANCH   8  26
TORSDOF 6
ENDMDL
