MODEL 1
REMARK VINA RESULT:    -2.634      0.000      0.000
REMARK INTER + INTRA:          -5.391
REMARK INTER:                  -4.097
REMARK INTRA:                  -1.294
REMARK UNBOUND:                -1.294
REMARK SMILES COc1cc(CNC(=O)CCCCC=CC(C)C)ccc1O
REMARK SMILES IDX 11 1 12 2 13 3 14 4 15 5 16 6 17 7 18 8 10 9 8 10 9 11 7 12
REMARK SMILES IDX 6 14 5 15 4 16 19 17 3 18 20 19 21 20 2 21 1 22 22 23
REMARK H PARENT 7 13 22 24
REMARK Flexibility Score: inf
ROOT
ATOM      1  C   UNL     1      11.466 -34.329  13.203  1.00  0.00     0.010 C 
ENDROOT
BRANCH   1   2
ATOM      2  C   UNL     1      11.497 -35.858  13.041  1.00  0.00     0.005 C 
BRANCH   2   3
ATOM      3  C   UNL     1      10.089 -36.461  12.959  1.00  0.00     0.027 C 
BRANCH   3   4
ATOM      4  C   UNL     1       9.030 -35.389  12.875  1.00  0.00    -0.031 C 
ATOM      5  C   UNL     1       7.787 -35.482  13.391  1.00  0.00    -0.028 C 
BRANCH   5   6
ATOM      6  C   UNL     1       7.262 -36.664  14.179  1.00  0.00     0.005 C 
ATOM      7  C   UNL     1       5.898 -37.103  13.632  1.00  0.00     0.012 C 
ATOM      8  C   UNL     1       7.142 -36.307  15.668  1.00  0.00     0.012 C 
ENDBRANCH   5   6
ENDBRANCH   3   4
ENDBRANCH   2   3
ENDBRANCH   1   2
BRANCH   1   9
ATOM      9  C   UNL     1      12.841 -33.688  12.954  1.00  0.00     0.100 C 
BRANCH   9  10
ATOM     10  C   UNL     1      12.880 -32.282  13.480  1.00  0.00     0.220 C 
ATOM     11  O   UNL     1      13.997 -31.739  13.703  1.00  0.00    -0.275 OA
ATOM     12  N   UNL     1      11.666 -31.590  13.803  1.00  0.00    -0.352 N 
ATOM     13  H   UNL     1      10.763 -31.973  13.443  1.00  0.00     0.163 HD
BRANCH  12  14
ATOM     14  C   UNL     1      11.606 -30.622  14.897  1.00  0.00     0.151 C 
BRANCH  14  15
ATOM     15  C   UNL     1      10.632 -31.104  15.939  1.00  0.00    -0.025 A 
ATOM     16  C   UNL     1       9.523 -31.878  15.563  1.00  0.00     0.056 A 
ATOM     17  C   UNL     1      10.758 -30.681  17.269  1.00  0.00     0.009 A 
ATOM     18  C   UNL     1       8.542 -32.232  16.510  1.00  0.00     0.160 A 
ATOM     19  C   UNL     1       9.794 -31.039  18.214  1.00  0.00     0.050 A 
ATOM     20  C   UNL     1       8.688 -31.810  17.839  1.00  0.00     0.157 A 
BRANCH  18  21
ATOM     21  O   UNL     1       7.406 -32.980  16.167  1.00  0.00    -0.493 OA
ATOM     22  C   UNL     1       6.444 -32.585  15.193  1.00  0.00     0.278 C 
ENDBRANCH  18  21
BRANCH  20  23
ATOM     23  O   UNL     1       7.719 -32.153  18.781  1.00  0.00    -0.504 OA
ATOM     24  H   UNL     1       7.826 -32.964  19.379  1.00  0.00     0.293 HD
ENDBRANCH  20  23
ENDBRANCH  14  15
ENDBRANCH  12  14
ENDBRANCH   9  10
ENDBRANCH   1   9
TORSDOF 10
ENDMDL
MODEL 2
REMARK VINA RESULT:    -1.812      2.304      6.049
REMARK INTER + INTRA:          -4.112
REMARK INTER:                  -3.779
REMARK INTRA:                  -0.333
REMARK UNBOUND:                -1.294
REMARK SMILES COc1cc(CNC(=O)CCCCC=CC(C)C)ccc1O
REMARK SMILES IDX 11 1 12 2 13 3 14 4 15 5 16 6 17 7 18 8 10 9 8 10 9 11 7 12
REMARK SMILES IDX 6 14 5 15 4 16 19 17 3 18 20 19 21 20 2 21 1 22 22 23
REMARK H PARENT 7 13 22 24
REMARK Flexibility Score: inf
ROOT
ATOM      1  C   UNL     1       7.165 -37.020  16.571  1.00  0.00     0.010 C 
ENDROOT
BRANCH   1   2
ATOM      2  C   UNL     1       6.878 -35.686  17.281  1.00  0.00     0.005 C 
BRANCH   2   3
ATOM      3  C   UNL     1       8.078 -34.733  17.230  1.00  0.00     0.027 C 
BRANCH   3   4
ATOM      4  C   UNL     1       7.762 -33.480  16.451  1.00  0.00    -0.031 C 
ATOM      5  C   UNL     1       8.268 -32.256  16.706  1.00  0.00    -0.028 C 
BRANCH   5   6
ATOM      6  C   UNL     1       9.274 -31.944  17.795  1.00  0.00     0.005 C 
ATOM      7  C   UNL     1       8.551 -31.494  19.071  1.00  0.00     0.012 C 
ATOM      8  C   UNL     1      10.249 -30.853  17.330  1.00  0.00     0.012 C 
ENDBRANCH   5   6
ENDBRANCH   3   4
ENDBRANCH   2   3
ENDBRANCH   1   2
BRANCH   1   9
ATOM      9  C   UNL     1       6.480 -37.109  15.198  1.00  0.00     0.100 C 
BRANCH   9  10
ATOM     10  C   UNL     1       7.075 -36.122  14.235  1.00  0.00     0.220 C 
ATOM     11  O   UNL     1       6.317 -35.497  13.445  1.00  0.00    -0.275 OA
ATOM     12  N   UNL     1       8.497 -35.949  14.156  1.00  0.00    -0.352 N 
ATOM     13  H   UNL     1       9.089 -36.325  14.931  1.00  0.00     0.163 HD
BRANCH  12  14
ATOM     14  C   UNL     1       9.158 -35.619  12.895  1.00  0.00     0.151 C 
BRANCH  14  15
ATOM     15  C   UNL     1       9.784 -34.254  13.001  1.00  0.00    -0.025 A 
ATOM     16  C   UNL     1      11.181 -34.122  13.051  1.00  0.00     0.056 A 
ATOM     17  C   UNL     1       8.978 -33.121  13.175  1.00  0.00     0.009 A 
ATOM     18  C   UNL     1      11.773 -32.862  13.272  1.00  0.00     0.160 A 
ATOM     19  C   UNL     1       9.561 -31.869  13.383  1.00  0.00     0.050 A 
ATOM     20  C   UNL     1      10.953 -31.737  13.434  1.00  0.00     0.157 A 
BRANCH  18  21
ATOM     21  O   UNL     1      13.164 -32.694  13.356  1.00  0.00    -0.493 OA
ATOM     22  C   UNL     1      13.807 -31.631  14.054  1.00  0.00     0.278 C 
ENDBRANCH  18  21
BRANCH  20  23
ATOM     23  O   UNL     1      11.533 -30.488  13.656  1.00  0.00    -0.504 OA
ATOM     24  H   UNL     1      12.459 -30.265  13.309  1.00  0.00     0.293 HD
ENDBRANCH  20  23
ENDBRANCH  14  15
ENDBRANCH  12  14
ENDBRANCH   9  10
ENDBRANCH   1   9
TORSDOF 10
ENDMDL
MODEL 3
REMARK VINA RESULT:    -1.568      2.602      5.802
REMARK INTER + INTRA:          -3.732
REMARK INTER:                  -3.110
REMARK INTRA:                  -0.623
REMARK UNBOUND:                -1.294
REMARK SMILES COc1cc(CNC(=O)CCCCC=CC(C)C)ccc1O
REMARK SMILES IDX 11 1 12 2 13 3 14 4 15 5 16 6 17 7 18 8 10 9 8 10 9 11 7 12
REMARK SMILES IDX 6 14 5 15 4 16 19 17 3 18 20 19 21 20 2 21 1 22 22 23
REMARK H PARENT 7 13 22 24
REMARK Flexibility Score: inf
ROOT
ATOM      1  C   UNL     1       9.166 -32.305  14.321  1.00  0.00     0.010 C 
ENDROOT
BRANCH   1   2
ATOM      2  C   UNL     1      10.369 -33.262  14.278  1.00  0.00     0.005 C 
BRANCH   2   3
ATOM      3  C   UNL     1      11.189 -33.104  12.992  1.00  0.00     0.027 C 
BRANCH   3   4
ATOM      4  C   UNL     1      12.662 -33.310  13.243  1.00  0.00    -0.031 C 
ATOM      5  C   UNL     1      13.532 -32.347  13.612  1.00  0.00    -0.028 C 
BRANCH   5   6
ATOM      6  C   UNL     1      13.162 -30.903  13.879  1.00  0.00     0.005 C 
ATOM      7  C   UNL     1      14.390 -30.001  13.705  1.00  0.00     0.012 C 
ATOM      8  C   UNL     1      12.591 -30.746  15.297  1.00  0.00     0.012 C 
ENDBRANCH   5   6
ENDBRANCH   3   4
ENDBRANCH   2   3
ENDBRANCH   1   2
BRANCH   1   9
ATOM      9  C   UNL     1       8.426 -32.237  12.976  1.00  0.00     0.100 C 
BRANCH   9  10
ATOM     10  C   UNL     1       7.243 -33.161  12.966  1.00  0.00     0.220 C 
ATOM     11  O   UNL     1       6.082 -32.676  12.882  1.00  0.00    -0.275 OA
ATOM     12  N   UNL     1       7.422 -34.575  13.132  1.00  0.00    -0.352 N 
ATOM     13  H   UNL     1       8.381 -34.974  13.013  1.00  0.00     0.163 HD
BRANCH  12  14
ATOM     14  C   UNL     1       6.424 -35.396  13.815  1.00  0.00     0.151 C 
BRANCH  14  15
ATOM     15  C   UNL     1       6.789 -35.520  15.270  1.00  0.00    -0.025 A 
ATOM     16  C   UNL     1       7.484 -34.485  15.913  1.00  0.00     0.056 A 
ATOM     17  C   UNL     1       6.546 -36.718  15.956  1.00  0.00     0.009 A 
ATOM     18  C   UNL     1       7.936 -34.641  17.239  1.00  0.00     0.160 A 
ATOM     19  C   UNL     1       6.982 -36.873  17.274  1.00  0.00     0.050 A 
ATOM     20  C   UNL     1       7.677 -35.841  17.915  1.00  0.00     0.157 A 
BRANCH  18  21
ATOM     21  O   UNL     1       8.659 -33.641  17.906  1.00  0.00    -0.493 OA
ATOM     22  C   UNL     1       8.502 -32.243  17.677  1.00  0.00     0.278 C 
ENDBRANCH  18  21
BRANCH  20  23
ATOM     23  O   UNL     1       8.124 -36.004  19.226  1.00  0.00    -0.504 OA
ATOM     24  H   UNL     1       8.603 -35.259  19.718  1.00  0.00     0.293 HD
ENDBRANCH  20  23
ENDBRANCH  14  15
ENDBRANCH  12  14
ENDBRANCH   9  10
ENDBRANCH   1   9
TORSDOF 10
ENDMDL
MODEL 4
REMARK VINA RESULT:    -1.444      2.364      6.318
REMARK INTER + INTRA:          -3.539
REMARK INTER:                  -3.092
REMARK INTRA:                  -0.448
REMARK UNBOUND:                -1.294
REMARK SMILES COc1cc(CNC(=O)CCCCC=CC(C)C)ccc1O
REMARK SMILES IDX 11 1 12 2 13 3 14 4 15 5 16 6 17 7 18 8 10 9 8 10 9 11 7 12
REMARK SMILES IDX 6 14 5 15 4 16 19 17 3 18 20 19 21 20 2 21 1 22 22 23
REMARK H PARENT 7 13 22 24
REMARK Flexibility Score: inf
ROOT
ATOM      1  C   UNL     1       6.376 -34.492  15.878  1.00  0.00     0.010 C 
ENDROOT
BRANCH   1   2
ATOM      2  C   UNL     1       6.538 -33.404  14.803  1.00  0.00     0.005 C 
BRANCH   2   3
ATOM      3  C   UNL     1       6.963 -32.057  15.402  1.00  0.00     0.027 C 
BRANCH   3   4
ATOM      4  C   UNL     1       8.459 -31.974  15.579  1.00  0.00    -0.031 C 
ATOM      5  C   UNL     1       9.103 -31.961  16.764  1.00  0.00    -0.028 C 
BRANCH   5   6
ATOM      6  C   UNL     1       8.431 -32.070  18.117  1.00  0.00     0.005 C 
ATOM      7  C   UNL     1       9.162 -31.196  19.144  1.00  0.00     0.012 C 
ATOM      8  C   UNL     1       8.408 -33.531  18.590  1.00  0.00     0.012 C 
ENDBRANCH   5   6
ENDBRANCH   3   4
ENDBRANCH   2   3
ENDBRANCH   1   2
BRANCH   1   9
ATOM      9  C   UNL     1       5.884 -35.824  15.291  1.00  0.00     0.100 C 
BRANCH   9  10
ATOM     10  C   UNL     1       6.621 -36.159  14.027  1.00  0.00     0.220 C 
ATOM     11  O   UNL     1       6.185 -37.081  13.284  1.00  0.00    -0.275 OA
ATOM     12  N   UNL     1       7.852 -35.497  13.704  1.00  0.00    -0.352 N 
ATOM     13  H   UNL     1       8.098 -34.622  14.220  1.00  0.00     0.163 HD
BRANCH  12  14
ATOM     14  C   UNL     1       8.921 -36.182  12.980  1.00  0.00     0.151 C 
BRANCH  14  15
ATOM     15  C   UNL     1      10.190 -35.378  13.084  1.00  0.00    -0.025 A 
ATOM     16  C   UNL     1      10.131 -33.986  13.253  1.00  0.00     0.056 A 
ATOM     17  C   UNL     1      11.432 -35.996  12.888  1.00  0.00     0.009 A 
ATOM     18  C   UNL     1      11.307 -33.211  13.229  1.00  0.00     0.160 A 
ATOM     19  C   UNL     1      12.602 -35.234  12.875  1.00  0.00     0.050 A 
ATOM     20  C   UNL     1      12.543 -33.845  13.043  1.00  0.00     0.157 A 
BRANCH  18  21
ATOM     21  O   UNL     1      11.287 -31.814  13.367  1.00  0.00    -0.493 OA
ATOM     22  C   UNL     1      11.780 -31.108  14.502  1.00  0.00     0.278 C 
ENDBRANCH  18  21
BRANCH  20  23
ATOM     23  O   UNL     1      13.711 -33.084  13.015  1.00  0.00    -0.504 OA
ATOM     24  H   UNL     1      14.179 -32.864  12.144  1.00  0.00     0.293 HD
ENDBRANCH  20  23
ENDBRANCH  14  15
ENDBRANCH  12  14
ENDBRANCH   9  10
ENDBRANCH   1   9
TORSDOF 10
ENDMDL
MODEL 5
REMARK VINA RESULT:    -1.016      2.053      5.534
REMARK INTER + INTRA:          -2.874
REMARK INTER:                  -2.840
REMARK INTRA:                  -0.034
REMARK UNBOUND:                -1.294
REMARK SMILES COc1cc(CNC(=O)CCCCC=CC(C)C)ccc1O
REMARK SMILES IDX 11 1 12 2 13 3 14 4 15 5 16 6 17 7 18 8 10 9 8 10 9 11 7 12
REMARK SMILES IDX 6 14 5 15 4 16 19 17 3 18 20 19 21 20 2 21 1 22 22 23
REMARK H PARENT 7 13 22 24
REMARK Flexibility Score: inf
ROOT
ATOM      1  C   UNL     1       7.236 -34.850  15.549  1.00  0.00     0.010 C 
ENDROOT
BRANCH   1   2
ATOM      2  C   UNL     1       6.226 -33.716  15.307  1.00  0.00     0.005 C 
BRANCH   2   3
ATOM      3  C   UNL     1       6.739 -32.364  15.819  1.00  0.00     0.027 C 
BRANCH   3   4
ATOM      4  C   UNL     1       8.238 -32.368  15.994  1.00  0.00    -0.031 C 
ATOM      5  C   UNL     1       8.885 -32.199  17.165  1.00  0.00    -0.028 C 
BRANCH   5   6
ATOM      6  C   UNL     1       8.211 -32.018  18.509  1.00  0.00     0.005 C 
ATOM      7  C   UNL     1       9.149 -31.286  19.478  1.00  0.00     0.012 C 
ATOM      8  C   UNL     1       7.807 -33.379  19.095  1.00  0.00     0.012 C 
ENDBRANCH   5   6
ENDBRANCH   3   4
ENDBRANCH   2   3
ENDBRANCH   1   2
BRANCH   1   9
ATOM      9  C   UNL     1       7.828 -35.394  14.239  1.00  0.00     0.100 C 
BRANCH   9  10
ATOM     10  C   UNL     1       8.805 -34.420  13.647  1.00  0.00     0.220 C 
ATOM     11  O   UNL     1       8.383 -33.513  12.879  1.00  0.00    -0.275 OA
ATOM     12  N   UNL     1      10.212 -34.566  13.883  1.00  0.00    -0.352 N 
ATOM     13  H   UNL     1      10.526 -35.194  14.657  1.00  0.00     0.163 HD
BRANCH  12  14
ATOM     14  C   UNL     1      11.200 -34.185  12.875  1.00  0.00     0.151 C 
BRANCH  14  15
ATOM     15  C   UNL     1      12.108 -33.125  13.439  1.00  0.00    -0.025 A 
ATOM     16  C   UNL     1      11.601 -32.161  14.324  1.00  0.00     0.056 A 
ATOM     17  C   UNL     1      13.432 -33.021  12.991  1.00  0.00     0.009 A 
ATOM     18  C   UNL     1      12.411 -31.094  14.762  1.00  0.00     0.160 A 
ATOM     19  C   UNL     1      14.242 -31.973  13.431  1.00  0.00     0.050 A 
ATOM     20  C   UNL     1      13.736 -31.010  14.312  1.00  0.00     0.157 A 
BRANCH  18  21
ATOM     21  O   UNL     1      11.932 -30.095  15.623  1.00  0.00    -0.493 OA
ATOM     22  C   UNL     1      11.020 -30.322  16.694  1.00  0.00     0.278 C 
ENDBRANCH  18  21
BRANCH  20  23
ATOM     23  O   UNL     1      14.543 -29.955  14.739  1.00  0.00    -0.504 OA
ATOM     24  H   UNL     1      15.487 -30.112  15.071  1.00  0.00     0.293 HD
ENDBRANCH  20  23
ENDBRANCH  14  15
ENDBRANCH  12  14
ENDBRANCH   9  10
ENDBRANCH   1   9
TORSDOF 10
ENDMDL
MODEL 6
REMARK VINA RESULT:     0.166      2.454      5.204
REMARK INTER + INTRA:          -1.035
REMARK INTER:                  -3.124
REMARK INTRA:                   2.089
REMARK UNBOUND:                -1.294
REMARK SMILES COc1cc(CNC(=O)CCCCC=CC(C)C)ccc1O
REMARK SMILES IDX 11 1 12 2 13 3 14 4 15 5 16 6 17 7 18 8 10 9 8 10 9 11 7 12
REMARK SMILES IDX 6 14 5 15 4 16 19 17 3 18 20 19 21 20 2 21 1 22 22 23
REMARK H PARENT 7 13 22 24
REMARK Flexibility Score: inf
ROOT
ATOM      1  C   UNL     1       8.932 -32.261  14.211  1.00  0.00     0.010 C 
ENDROOT
BRANCH   1   2
ATOM      2  C   UNL     1      10.270 -31.714  13.687  1.00  0.00     0.005 C 
BRANCH   2   3
ATOM      3  C   UNL     1      11.473 -32.452  14.289  1.00  0.00     0.027 C 
BRANCH   3   4
ATOM      4  C   UNL     1      12.367 -33.026  13.218  1.00  0.00    -0.031 C 
ATOM      5  C   UNL     1      12.434 -34.329  12.876  1.00  0.00    -0.028 C 
BRANCH   5   6
ATOM      6  C   UNL     1      11.589 -35.429  13.483  1.00  0.00     0.005 C 
ATOM      7  C   UNL     1      12.236 -36.796  13.229  1.00  0.00     0.012 C 
ATOM      8  C   UNL     1      10.169 -35.402  12.898  1.00  0.00     0.012 C 
ENDBRANCH   5   6
ENDBRANCH   3   4
ENDBRANCH   2   3
ENDBRANCH   1   2
BRANCH   1   9
ATOM      9  C   UNL     1       7.819 -32.189  13.153  1.00  0.00     0.100 C 
BRANCH   9  10
ATOM     10  C   UNL     1       6.685 -33.109  13.503  1.00  0.00     0.220 C 
ATOM     11  O   UNL     1       5.875 -32.771  14.409  1.00  0.00    -0.275 OA
ATOM     12  N   UNL     1       6.567 -34.393  12.875  1.00  0.00    -0.352 N 
ATOM     13  H   UNL     1       7.123 -34.577  12.009  1.00  0.00     0.163 HD
BRANCH  12  14
ATOM     14  C   UNL     1       6.016 -35.544  13.587  1.00  0.00     0.151 C 
BRANCH  14  15
ATOM     15  C   UNL     1       6.524 -35.546  15.004  1.00  0.00    -0.025 A 
ATOM     16  C   UNL     1       7.377 -34.524  15.449  1.00  0.00     0.056 A 
ATOM     17  C   UNL     1       6.248 -36.629  15.849  1.00  0.00     0.009 A 
ATOM     18  C   UNL     1       7.954 -34.581  16.733  1.00  0.00     0.160 A 
ATOM     19  C   UNL     1       6.807 -36.685  17.127  1.00  0.00     0.050 A 
ATOM     20  C   UNL     1       7.660 -35.666  17.570  1.00  0.00     0.157 A 
BRANCH  18  21
ATOM     21  O   UNL     1       8.834 -33.594  17.203  1.00  0.00    -0.493 OA
ATOM     22  C   UNL     1       8.489 -32.594  18.157  1.00  0.00     0.278 C 
ENDBRANCH  18  21
BRANCH  20  23
ATOM     23  O   UNL     1       8.230 -35.730  18.841  1.00  0.00    -0.504 OA
ATOM     24  H   UNL     1       9.234 -35.719  18.973  1.00  0.00     0.293 HD
ENDBRANCH  20  23
ENDBRANCH  14  15
ENDBRANCH  12  14
ENDBRANCH   9  10
ENDBRANCH   1   9
TORSDOF 10
ENDMDL
