MODEL 1
REMARK VINA RESULT:    -9.193      0.000      0.000
REMARK INTER + INTRA:         -11.113
REMARK INTER:                 -10.806
REMARK INTRA:                  -0.307
REMARK UNBOUND:                -0.307
REMARK SMILES O=c1cc(-c2ccc(O)c(O)c2)oc2cc(O)cc(O)c12
REMARK SMILES IDX 4 1 3 2 2 3 1 4 21 5 19 6 18 7 16 8 15 9 14 10 13 11 5 12
REMARK SMILES IDX 6 13 7 14 8 15 12 16 10 17 9 18 11 20 20 22 17 24
REMARK H PARENT 9 19 11 21 20 23 17 25
REMARK Flexibility Score: inf
ROOT
ATOM      1  C   UNL     1     139.966 -18.612  80.746  1.00  0.00     0.138 A 
ATOM      2  C   UNL     1     139.491 -17.298  80.636  1.00  0.00     0.100 A 
ATOM      3  C   UNL     1     139.382 -16.707  79.377  1.00  0.00     0.197 A 
ATOM      4  O   UNL     1     139.012 -15.505  79.315  1.00  0.00    -0.289 OA
ATOM      5  C   UNL     1     139.718 -17.449  78.220  1.00  0.00     0.107 A 
ATOM      6  C   UNL     1     139.607 -16.963  76.882  1.00  0.00     0.134 A 
ATOM      7  C   UNL     1     140.080 -17.746  75.822  1.00  0.00     0.093 A 
ATOM      8  C   UNL     1     140.605 -19.021  76.047  1.00  0.00     0.123 A 
ATOM      9  C   UNL     1     140.669 -19.526  77.343  1.00  0.00     0.094 A 
ATOM     10  C   UNL     1     140.236 -18.755  78.425  1.00  0.00     0.146 A 
ATOM     11  O   UNL     1     140.327 -19.267  79.648  1.00  0.00    -0.456 OA
ENDROOT
BRANCH   1  12
ATOM     12  C   UNL     1     140.102 -19.290  82.060  1.00  0.00     0.021 A 
ATOM     13  C   UNL     1     140.314 -18.565  83.247  1.00  0.00     0.016 A 
ATOM     14  C   UNL     1     140.428 -19.228  84.469  1.00  0.00     0.051 A 
ATOM     15  C   UNL     1     140.328 -20.620  84.540  1.00  0.00     0.157 A 
ATOM     16  C   UNL     1     139.987 -20.688  82.134  1.00  0.00     0.062 A 
ATOM     17  C   UNL     1     140.102 -21.361  83.357  1.00  0.00     0.158 A 
BRANCH  15  18
ATOM     18  O   UNL     1     140.453 -21.222  85.795  1.00  0.00    -0.504 OA
ATOM     19  H   UNL     1     139.699 -21.303  86.461  1.00  0.00     0.293 HD
ENDBRANCH  15  18
BRANCH  17  20
ATOM     20  O   UNL     1     139.985 -22.752  83.349  1.00  0.00    -0.504 OA
ATOM     21  H   UNL     1     140.760 -23.384  83.211  1.00  0.00     0.293 HD
ENDBRANCH  17  20
ENDBRANCH   1  12
BRANCH   6  22
ATOM     22  O   UNL     1     139.021 -15.740  76.541  1.00  0.00    -0.507 OA
ATOM     23  H   UNL     1     139.526 -14.932  76.212  1.00  0.00     0.293 HD
ENDBRANCH   6  22
BRANCH   8  24
ATOM     24  O   UNL     1     141.060 -19.799  74.984  1.00  0.00    -0.508 OA
ATOM     25  H   UNL     1     141.827 -19.496  74.396  1.00  0.00     0.293 HD
ENDBRANCH   8  24
TORSDOF 5
ENDMDL
MODEL 2
REMARK VINA RESULT:    -8.782      1.178      1.178
REMARK INTER + INTRA:         -10.629
REMARK INTER:                 -10.313
REMARK INTRA:                  -0.317
REMARK UNBOUND:                -0.307
REMARK SMILES O=c1cc(-c2ccc(O)c(O)c2)oc2cc(O)cc(O)c12
REMARK SMILES IDX 4 1 3 2 2 3 1 4 21 5 19 6 18 7 16 8 15 9 14 10 13 11 5 12
REMARK SMILES IDX 6 13 7 14 8 15 12 16 10 17 9 18 11 20 20 22 17 24
REMARK H PARENT 9 19 11 21 20 23 17 25
REMARK Flexibility Score: inf
ROOT
ATOM      1  C   UNL     1     139.826 -18.431  80.854  1.00  0.00     0.138 A 
ATOM      2  C   UNL     1     140.152 -17.074  80.722  1.00  0.00     0.100 A 
ATOM      3  C   UNL     1     139.929 -16.426  79.507  1.00  0.00     0.197 A 
ATOM      4  O   UNL     1     140.290 -15.224  79.401  1.00  0.00    -0.289 OA
ATOM      5  C   UNL     1     139.346 -17.133  78.429  1.00  0.00     0.107 A 
ATOM      6  C   UNL     1     139.035 -16.564  77.158  1.00  0.00     0.134 A 
ATOM      7  C   UNL     1     138.567 -17.389  76.128  1.00  0.00     0.093 A 
ATOM      8  C   UNL     1     138.342 -18.751  76.343  1.00  0.00     0.123 A 
ATOM      9  C   UNL     1     138.592 -19.306  77.595  1.00  0.00     0.094 A 
ATOM     10  C   UNL     1     139.092 -18.515  78.633  1.00  0.00     0.146 A 
ATOM     11  O   UNL     1     139.330 -19.086  79.809  1.00  0.00    -0.456 OA
ENDROOT
BRANCH   1  12
ATOM     12  C   UNL     1     140.041 -19.170  82.124  1.00  0.00     0.021 A 
ATOM     13  C   UNL     1     140.324 -18.502  83.329  1.00  0.00     0.016 A 
ATOM     14  C   UNL     1     140.512 -19.223  84.509  1.00  0.00     0.051 A 
ATOM     15  C   UNL     1     140.416 -20.617  84.519  1.00  0.00     0.157 A 
ATOM     16  C   UNL     1     139.931 -20.571  82.137  1.00  0.00     0.062 A 
ATOM     17  C   UNL     1     140.119 -21.302  83.317  1.00  0.00     0.158 A 
BRANCH  15  18
ATOM     18  O   UNL     1     140.617 -21.278  85.734  1.00  0.00    -0.504 OA
ATOM     19  H   UNL     1     140.293 -22.214  85.928  1.00  0.00     0.293 HD
ENDBRANCH  15  18
BRANCH  17  20
ATOM     20  O   UNL     1     140.002 -22.691  83.250  1.00  0.00    -0.504 OA
ATOM     21  H   UNL     1     140.725 -23.302  82.898  1.00  0.00     0.293 HD
ENDBRANCH  17  20
ENDBRANCH   1  12
BRANCH   6  22
ATOM     22  O   UNL     1     139.142 -15.200  76.864  1.00  0.00    -0.507 OA
ATOM     23  H   UNL     1     139.914 -14.776  76.375  1.00  0.00     0.293 HD
ENDBRANCH   6  22
BRANCH   8  24
ATOM     24  O   UNL     1     137.862 -19.562  75.316  1.00  0.00    -0.508 OA
ATOM     25  H   UNL     1     136.921 -19.460  74.956  1.00  0.00     0.293 HD
ENDBRANCH   8  24
TORSDOF 5
ENDMDL
MODEL 3
REMARK VINA RESULT:    -8.735      1.013      1.634
REMARK INTER + INTRA:         -10.574
REMARK INTER:                 -10.288
REMARK INTRA:                  -0.287
REMARK UNBOUND:                -0.307
REMARK SMILES O=c1cc(-c2ccc(O)c(O)c2)oc2cc(O)cc(O)c12
REMARK SMILES IDX 4 1 3 2 2 3 1 4 21 5 19 6 18 7 16 8 15 9 14 10 13 11 5 12
REMARK SMILES IDX 6 13 7 14 8 15 12 16 10 17 9 18 11 20 20 22 17 24
REMARK H PARENT 9 19 11 21 20 23 17 25
REMARK Flexibility Score: inf
ROOT
ATOM      1  C   UNL     1     140.324 -18.759  80.842  1.00  0.00     0.138 A 
ATOM      2  C   UNL     1     140.473 -17.365  80.837  1.00  0.00     0.100 A 
ATOM      3  C   UNL     1     140.633 -16.692  79.625  1.00  0.00     0.197 A 
ATOM      4  O   UNL     1     140.826 -15.449  79.658  1.00  0.00    -0.289 OA
ATOM      5  C   UNL     1     140.610 -17.417  78.410  1.00  0.00     0.107 A 
ATOM      6  C   UNL     1     140.721 -16.832  77.113  1.00  0.00     0.134 A 
ATOM      7  C   UNL     1     140.803 -17.660  75.987  1.00  0.00     0.093 A 
ATOM      8  C   UNL     1     140.717 -19.050  76.107  1.00  0.00     0.123 A 
ATOM      9  C   UNL     1     140.554 -19.628  77.363  1.00  0.00     0.094 A 
ATOM     10  C   UNL     1     140.503 -18.830  78.509  1.00  0.00     0.146 A 
ATOM     11  O   UNL     1     140.362 -19.421  79.690  1.00  0.00    -0.456 OA
ENDROOT
BRANCH   1  12
ATOM     12  C   UNL     1     140.151 -19.525  82.102  1.00  0.00     0.021 A 
ATOM     13  C   UNL     1     139.484 -20.763  82.128  1.00  0.00     0.016 A 
ATOM     14  C   UNL     1     139.345 -21.467  83.325  1.00  0.00     0.051 A 
ATOM     15  C   UNL     1     139.870 -20.960  84.517  1.00  0.00     0.157 A 
ATOM     16  C   UNL     1     140.691 -19.024  83.298  1.00  0.00     0.062 A 
ATOM     17  C   UNL     1     140.555 -19.723  84.504  1.00  0.00     0.158 A 
BRANCH  15  18
ATOM     18  O   UNL     1     139.694 -21.713  85.681  1.00  0.00    -0.504 OA
ATOM     19  H   UNL     1     139.272 -22.630  85.702  1.00  0.00     0.293 HD
ENDBRANCH  15  18
BRANCH  17  20
ATOM     20  O   UNL     1     141.111 -19.156  85.652  1.00  0.00    -0.504 OA
ATOM     21  H   UNL     1     140.847 -18.255  86.023  1.00  0.00     0.293 HD
ENDBRANCH  17  20
ENDBRANCH   1  12
BRANCH   6  22
ATOM     22  O   UNL     1     140.730 -15.454  76.876  1.00  0.00    -0.507 OA
ATOM     23  H   UNL     1     140.838 -14.747  77.587  1.00  0.00     0.293 HD
ENDBRANCH   6  22
BRANCH   8  24
ATOM     24  O   UNL     1     140.784 -19.865  74.979  1.00  0.00    -0.508 OA
ATOM     25  H   UNL     1     141.324 -19.599  74.165  1.00  0.00     0.293 HD
ENDBRANCH   8  24
TORSDOF 5
ENDMDL
MODEL 4
REMARK VINA RESULT:    -8.508      1.607      2.674
REMARK INTER + INTRA:         -10.307
REMARK INTER:                 -10.018
REMARK INTRA:                  -0.289
REMARK UNBOUND:                -0.307
REMARK SMILES O=c1cc(-c2ccc(O)c(O)c2)oc2cc(O)cc(O)c12
REMARK SMILES IDX 4 1 3 2 2 3 1 4 21 5 19 6 18 7 16 8 15 9 14 10 13 11 5 12
REMARK SMILES IDX 6 13 7 14 8 15 12 16 10 17 9 18 11 20 20 22 17 24
REMARK H PARENT 9 19 11 21 20 23 17 25
REMARK Flexibility Score: inf
ROOT
ATOM      1  C   UNL     1     139.848 -18.485  80.807  1.00  0.00     0.138 A 
ATOM      2  C   UNL     1     139.104 -19.023  79.748  1.00  0.00     0.100 A 
ATOM      3  C   UNL     1     138.952 -18.293  78.569  1.00  0.00     0.197 A 
ATOM      4  O   UNL     1     138.226 -18.775  77.661  1.00  0.00    -0.289 OA
ATOM      5  C   UNL     1     139.578 -17.030  78.439  1.00  0.00     0.107 A 
ATOM      6  C   UNL     1     139.526 -16.215  77.269  1.00  0.00     0.134 A 
ATOM      7  C   UNL     1     140.086 -14.932  77.296  1.00  0.00     0.093 A 
ATOM      8  C   UNL     1     140.748 -14.459  78.432  1.00  0.00     0.123 A 
ATOM      9  C   UNL     1     140.850 -15.267  79.562  1.00  0.00     0.094 A 
ATOM     10  C   UNL     1     140.272 -16.539  79.576  1.00  0.00     0.146 A 
ATOM     11  O   UNL     1     140.379 -17.273  80.679  1.00  0.00    -0.456 OA
ENDROOT
BRANCH   1  12
ATOM     12  C   UNL     1     140.042 -19.219  82.083  1.00  0.00     0.021 A 
ATOM     13  C   UNL     1     140.314 -18.546  83.288  1.00  0.00     0.016 A 
ATOM     14  C   UNL     1     140.481 -19.262  84.475  1.00  0.00     0.051 A 
ATOM     15  C   UNL     1     140.375 -20.655  84.491  1.00  0.00     0.157 A 
ATOM     16  C   UNL     1     139.921 -20.619  82.103  1.00  0.00     0.062 A 
ATOM     17  C   UNL     1     140.089 -21.344  83.289  1.00  0.00     0.158 A 
BRANCH  15  18
ATOM     18  O   UNL     1     140.556 -21.310  85.712  1.00  0.00    -0.504 OA
ATOM     19  H   UNL     1     140.169 -20.989  86.588  1.00  0.00     0.293 HD
ENDBRANCH  15  18
BRANCH  17  20
ATOM     20  O   UNL     1     139.962 -22.733  83.228  1.00  0.00    -0.504 OA
ATOM     21  H   UNL     1     140.401 -23.310  82.525  1.00  0.00     0.293 HD
ENDBRANCH  17  20
ENDBRANCH   1  12
BRANCH   6  22
ATOM     22  O   UNL     1     138.964 -16.625  76.055  1.00  0.00    -0.507 OA
ATOM     23  H   UNL     1     138.716 -17.574  75.827  1.00  0.00     0.293 HD
ENDBRANCH   6  22
BRANCH   8  24
ATOM     24  O   UNL     1     141.315 -13.186  78.446  1.00  0.00    -0.508 OA
ATOM     25  H   UNL     1     141.751 -12.792  77.621  1.00  0.00     0.293 HD
ENDBRANCH   8  24
TORSDOF 5
ENDMDL
MODEL 5
REMARK VINA RESULT:    -8.305      2.289      7.149
REMARK INTER + INTRA:         -10.069
REMARK INTER:                  -9.783
REMARK INTRA:                  -0.286
REMARK UNBOUND:                -0.307
REMARK SMILES O=c1cc(-c2ccc(O)c(O)c2)oc2cc(O)cc(O)c12
REMARK SMILES IDX 4 1 3 2 2 3 1 4 21 5 19 6 18 7 16 8 15 9 14 10 13 11 5 12
REMARK SMILES IDX 6 13 7 14 8 15 12 16 10 17 9 18 11 20 20 22 17 24
REMARK H PARENT 9 19 11 21 20 23 17 25
REMARK Flexibility Score: inf
ROOT
ATOM      1  C   UNL     1     139.881 -17.471  80.114  1.00  0.00     0.138 A 
ATOM      2  C   UNL     1     139.416 -18.653  79.522  1.00  0.00     0.100 A 
ATOM      3  C   UNL     1     139.313 -19.815  80.288  1.00  0.00     0.197 A 
ATOM      4  O   UNL     1     138.952 -20.875  79.713  1.00  0.00    -0.289 OA
ATOM      5  C   UNL     1     139.648 -19.783  81.662  1.00  0.00     0.107 A 
ATOM      6  C   UNL     1     139.543 -20.896  82.550  1.00  0.00     0.134 A 
ATOM      7  C   UNL     1     140.013 -20.777  83.864  1.00  0.00     0.093 A 
ATOM      8  C   UNL     1     140.529 -19.569  84.338  1.00  0.00     0.123 A 
ATOM      9  C   UNL     1     140.586 -18.461  83.495  1.00  0.00     0.094 A 
ATOM     10  C   UNL     1     140.156 -18.558  82.169  1.00  0.00     0.146 A 
ATOM     11  O   UNL     1     140.241 -17.482  81.394  1.00  0.00    -0.456 OA
ENDROOT
BRANCH   1  12
ATOM     12  C   UNL     1     140.010 -16.206  79.347  1.00  0.00     0.021 A 
ATOM     13  C   UNL     1     138.928 -15.663  78.631  1.00  0.00     0.016 A 
ATOM     14  C   UNL     1     139.075 -14.467  77.927  1.00  0.00     0.051 A 
ATOM     15  C   UNL     1     140.295 -13.784  77.924  1.00  0.00     0.157 A 
ATOM     16  C   UNL     1     141.231 -15.512  79.356  1.00  0.00     0.062 A 
ATOM     17  C   UNL     1     141.388 -14.312  78.650  1.00  0.00     0.158 A 
BRANCH  15  18
ATOM     18  O   UNL     1     140.376 -12.593  77.197  1.00  0.00    -0.504 OA
ATOM     19  H   UNL     1     140.395 -12.547  76.189  1.00  0.00     0.293 HD
ENDBRANCH  15  18
BRANCH  17  20
ATOM     20  O   UNL     1     142.634 -13.684  78.700  1.00  0.00    -0.504 OA
ATOM     21  H   UNL     1     142.848 -12.901  79.300  1.00  0.00     0.293 HD
ENDBRANCH  17  20
ENDBRANCH   1  12
BRANCH   6  22
ATOM     22  O   UNL     1     138.966 -22.121  82.202  1.00  0.00    -0.507 OA
ATOM     23  H   UNL     1     138.139 -22.511  82.627  1.00  0.00     0.293 HD
ENDBRANCH   6  22
BRANCH   8  24
ATOM     24  O   UNL     1     140.981 -19.456  85.651  1.00  0.00    -0.508 OA
ATOM     25  H   UNL     1     140.729 -18.665  86.232  1.00  0.00     0.293 HD
ENDBRANCH   8  24
TORSDOF 5
ENDMDL
MODEL 6
REMARK VINA RESULT:    -8.258      1.412      1.982
REMARK INTER + INTRA:         -10.014
REMARK INTER:                  -9.749
REMARK INTRA:                  -0.264
REMARK UNBOUND:                -0.307
REMARK SMILES O=c1cc(-c2ccc(O)c(O)c2)oc2cc(O)cc(O)c12
REMARK SMILES IDX 4 1 3 2 2 3 1 4 21 5 19 6 18 7 16 8 15 9 14 10 13 11 5 12
REMARK SMILES IDX 6 13 7 14 8 15 12 16 10 17 9 18 11 20 20 22 17 24
REMARK H PARENT 9 19 11 21 20 23 17 25
REMARK Flexibility Score: inf
ROOT
ATOM      1  C   UNL     1     139.960 -19.348  80.179  1.00  0.00     0.138 A 
ATOM      2  C   UNL     1     139.891 -17.962  80.379  1.00  0.00     0.100 A 
ATOM      3  C   UNL     1     140.335 -17.097  79.378  1.00  0.00     0.197 A 
ATOM      4  O   UNL     1     140.319 -15.860  79.611  1.00  0.00    -0.289 OA
ATOM      5  C   UNL     1     140.820 -17.624  78.157  1.00  0.00     0.107 A 
ATOM      6  C   UNL     1     141.261 -16.838  77.051  1.00  0.00     0.134 A 
ATOM      7  C   UNL     1     141.830 -17.469  75.938  1.00  0.00     0.093 A 
ATOM      8  C   UNL     1     141.919 -18.862  75.868  1.00  0.00     0.123 A 
ATOM      9  C   UNL     1     141.442 -19.641  76.919  1.00  0.00     0.094 A 
ATOM     10  C   UNL     1     140.901 -19.039  78.058  1.00  0.00     0.146 A 
ATOM     11  O   UNL     1     140.471 -19.817  79.045  1.00  0.00    -0.456 OA
ENDROOT
BRANCH   1  12
ATOM     12  C   UNL     1     139.501 -20.313  81.209  1.00  0.00     0.021 A 
ATOM     13  C   UNL     1     138.395 -21.155  80.992  1.00  0.00     0.016 A 
ATOM     14  C   UNL     1     137.993 -22.060  81.976  1.00  0.00     0.051 A 
ATOM     15  C   UNL     1     138.682 -22.153  83.188  1.00  0.00     0.157 A 
ATOM     16  C   UNL     1     140.202 -20.417  82.422  1.00  0.00     0.062 A 
ATOM     17  C   UNL     1     139.804 -21.322  83.415  1.00  0.00     0.158 A 
BRANCH  15  18
ATOM     18  O   UNL     1     138.225 -23.079  84.130  1.00  0.00    -0.504 OA
ATOM     19  H   UNL     1     137.406 -23.655  84.005  1.00  0.00     0.293 HD
ENDBRANCH  15  18
BRANCH  17  20
ATOM     20  O   UNL     1     140.545 -21.362  84.597  1.00  0.00    -0.504 OA
ATOM     21  H   UNL     1     141.530 -21.581  84.639  1.00  0.00     0.293 HD
ENDBRANCH  17  20
ENDBRANCH   1  12
BRANCH   6  22
ATOM     22  O   UNL     1     141.140 -15.446  76.984  1.00  0.00    -0.507 OA
ATOM     23  H   UNL     1     140.903 -14.850  77.762  1.00  0.00     0.293 HD
ENDBRANCH   6  22
BRANCH   8  24
ATOM     24  O   UNL     1     142.473 -19.482  74.750  1.00  0.00    -0.508 OA
ATOM     25  H   UNL     1     142.283 -20.454  74.534  1.00  0.00     0.293 HD
ENDBRANCH   8  24
TORSDOF 5
ENDMDL
MODEL 7
REMARK VINA RESULT:    -8.113      1.558      2.335
REMARK INTER + INTRA:          -9.843
REMARK INTER:                  -9.552
REMARK INTRA:                  -0.291
REMARK UNBOUND:                -0.307
REMARK SMILES O=c1cc(-c2ccc(O)c(O)c2)oc2cc(O)cc(O)c12
REMARK SMILES IDX 4 1 3 2 2 3 1 4 21 5 19 6 18 7 16 8 15 9 14 10 13 11 5 12
REMARK SMILES IDX 6 13 7 14 8 15 12 16 10 17 9 18 11 20 20 22 17 24
REMARK H PARENT 9 19 11 21 20 23 17 25
REMARK Flexibility Score: inf
ROOT
ATOM      1  C   UNL     1     139.767 -19.574  80.112  1.00  0.00     0.138 A 
ATOM      2  C   UNL     1     138.841 -20.325  79.375  1.00  0.00     0.100 A 
ATOM      3  C   UNL     1     138.701 -20.097  78.005  1.00  0.00     0.197 A 
ATOM      4  O   UNL     1     137.817 -20.743  77.383  1.00  0.00    -0.289 OA
ATOM      5  C   UNL     1     139.517 -19.134  77.365  1.00  0.00     0.107 A 
ATOM      6  C   UNL     1     139.491 -18.847  75.968  1.00  0.00     0.134 A 
ATOM      7  C   UNL     1     140.261 -17.791  75.466  1.00  0.00     0.093 A 
ATOM      8  C   UNL     1     141.103 -17.052  76.301  1.00  0.00     0.123 A 
ATOM      9  C   UNL     1     141.176 -17.360  77.658  1.00  0.00     0.094 A 
ATOM     10  C   UNL     1     140.393 -18.385  78.194  1.00  0.00     0.146 A 
ATOM     11  O   UNL     1     140.482 -18.637  79.496  1.00  0.00    -0.456 OA
ENDROOT
BRANCH   1  12
ATOM     12  C   UNL     1     139.957 -19.775  81.570  1.00  0.00     0.021 A 
ATOM     13  C   UNL     1     140.536 -18.783  82.383  1.00  0.00     0.016 A 
ATOM     14  C   UNL     1     140.693 -18.996  83.754  1.00  0.00     0.051 A 
ATOM     15  C   UNL     1     140.274 -20.191  84.345  1.00  0.00     0.157 A 
ATOM     16  C   UNL     1     139.523 -20.970  82.168  1.00  0.00     0.062 A 
ATOM     17  C   UNL     1     139.678 -21.192  83.542  1.00  0.00     0.158 A 
BRANCH  15  18
ATOM     18  O   UNL     1     140.462 -20.341  85.722  1.00  0.00    -0.504 OA
ATOM     19  H   UNL     1     139.715 -20.512  86.379  1.00  0.00     0.293 HD
ENDBRANCH  15  18
BRANCH  17  20
ATOM     20  O   UNL     1     139.230 -22.407  84.061  1.00  0.00    -0.504 OA
ATOM     21  H   UNL     1     138.334 -22.818  83.844  1.00  0.00     0.293 HD
ENDBRANCH  17  20
ENDBRANCH   1  12
BRANCH   6  22
ATOM     22  O   UNL     1     138.750 -19.578  75.033  1.00  0.00    -0.507 OA
ATOM     23  H   UNL     1     138.880 -19.536  74.035  1.00  0.00     0.293 HD
ENDBRANCH   6  22
BRANCH   8  24
ATOM     24  O   UNL     1     141.877 -16.013  75.790  1.00  0.00    -0.508 OA
ATOM     25  H   UNL     1     141.481 -15.308  75.181  1.00  0.00     0.293 HD
ENDBRANCH   8  24
TORSDOF 5
ENDMDL
MODEL 8
REMARK VINA RESULT:    -7.976      3.125      4.705
REMARK INTER + INTRA:          -9.683
REMARK INTER:                  -9.383
REMARK INTRA:                  -0.299
REMARK UNBOUND:                -0.307
REMARK SMILES O=c1cc(-c2ccc(O)c(O)c2)oc2cc(O)cc(O)c12
REMARK SMILES IDX 4 1 3 2 2 3 1 4 21 5 19 6 18 7 16 8 15 9 14 10 13 11 5 12
REMARK SMILES IDX 6 13 7 14 8 15 12 16 10 17 9 18 11 20 20 22 17 24
REMARK H PARENT 9 19 11 21 20 23 17 25
REMARK Flexibility Score: inf
ROOT
ATOM      1  C   UNL     1     139.154 -20.184  78.326  1.00  0.00     0.138 A 
ATOM      2  C   UNL     1     140.316 -20.279  77.548  1.00  0.00     0.100 A 
ATOM      3  C   UNL     1     140.977 -19.116  77.151  1.00  0.00     0.197 A 
ATOM      4  O   UNL     1     141.982 -19.231  76.401  1.00  0.00    -0.289 OA
ATOM      5  C   UNL     1     140.490 -17.853  77.564  1.00  0.00     0.107 A 
ATOM      6  C   UNL     1     141.106 -16.604  77.254  1.00  0.00     0.134 A 
ATOM      7  C   UNL     1     140.469 -15.411  77.619  1.00  0.00     0.093 A 
ATOM      8  C   UNL     1     139.269 -15.425  78.334  1.00  0.00     0.123 A 
ATOM      9  C   UNL     1     138.687 -16.640  78.689  1.00  0.00     0.094 A 
ATOM     10  C   UNL     1     139.281 -17.846  78.309  1.00  0.00     0.146 A 
ATOM     11  O   UNL     1     138.686 -18.984  78.654  1.00  0.00    -0.456 OA
ENDROOT
BRANCH   1  12
ATOM     12  C   UNL     1     138.411 -21.388  78.777  1.00  0.00     0.021 A 
ATOM     13  C   UNL     1     138.282 -22.526  77.960  1.00  0.00     0.016 A 
ATOM     14  C   UNL     1     137.586 -23.647  78.413  1.00  0.00     0.051 A 
ATOM     15  C   UNL     1     137.011 -23.665  79.687  1.00  0.00     0.157 A 
ATOM     16  C   UNL     1     137.845 -21.412  80.063  1.00  0.00     0.062 A 
ATOM     17  C   UNL     1     137.144 -22.533  80.525  1.00  0.00     0.158 A 
BRANCH  15  18
ATOM     18  O   UNL     1     136.326 -24.818  80.079  1.00  0.00    -0.504 OA
ATOM     19  H   UNL     1     135.985 -25.518  79.437  1.00  0.00     0.293 HD
ENDBRANCH  15  18
BRANCH  17  20
ATOM     20  O   UNL     1     136.602 -22.479  81.810  1.00  0.00    -0.504 OA
ATOM     21  H   UNL     1     137.044 -22.014  82.591  1.00  0.00     0.293 HD
ENDBRANCH  17  20
ENDBRANCH   1  12
BRANCH   6  22
ATOM     22  O   UNL     1     142.345 -16.480  76.618  1.00  0.00    -0.507 OA
ATOM     23  H   UNL     1     143.164 -16.059  77.028  1.00  0.00     0.293 HD
ENDBRANCH   6  22
BRANCH   8  24
ATOM     24  O   UNL     1     138.649 -14.234  78.706  1.00  0.00    -0.508 OA
ATOM     25  H   UNL     1     139.126 -13.544  79.274  1.00  0.00     0.293 HD
ENDBRANCH   8  24
TORSDOF 5
ENDMDL
MODEL 9
REMARK VINA RESULT:    -7.880      2.331      6.759
REMARK INTER + INTRA:          -9.570
REMARK INTER:                  -9.273
REMARK INTRA:                  -0.297
REMARK UNBOUND:                -0.307
REMARK SMILES O=c1cc(-c2ccc(O)c(O)c2)oc2cc(O)cc(O)c12
REMARK SMILES IDX 4 1 3 2 2 3 1 4 21 5 19 6 18 7 16 8 15 9 14 10 13 11 5 12
REMARK SMILES IDX 6 13 7 14 8 15 12 16 10 17 9 18 11 20 20 22 17 24
REMARK H PARENT 9 19 11 21 20 23 17 25
REMARK Flexibility Score: inf
ROOT
ATOM      1  C   UNL     1     139.818 -19.636  79.994  1.00  0.00     0.138 A 
ATOM      2  C   UNL     1     140.262 -19.533  81.320  1.00  0.00     0.100 A 
ATOM      3  C   UNL     1     139.756 -20.402  82.287  1.00  0.00     0.197 A 
ATOM      4  O   UNL     1     140.127 -20.245  83.479  1.00  0.00    -0.289 OA
ATOM      5  C   UNL     1     138.824 -21.401  81.916  1.00  0.00     0.107 A 
ATOM      6  C   UNL     1     138.272 -22.368  82.809  1.00  0.00     0.134 A 
ATOM      7  C   UNL     1     137.269 -23.234  82.355  1.00  0.00     0.093 A 
ATOM      8  C   UNL     1     136.843 -23.207  81.024  1.00  0.00     0.123 A 
ATOM      9  C   UNL     1     137.414 -22.303  80.132  1.00  0.00     0.094 A 
ATOM     10  C   UNL     1     138.391 -21.403  80.564  1.00  0.00     0.146 A 
ATOM     11  O   UNL     1     138.900 -20.547  79.685  1.00  0.00    -0.456 OA
ENDROOT
BRANCH   1  12
ATOM     12  C   UNL     1     140.323 -18.738  78.925  1.00  0.00     0.021 A 
ATOM     13  C   UNL     1     140.549 -17.369  79.156  1.00  0.00     0.016 A 
ATOM     14  C   UNL     1     141.034 -16.550  78.135  1.00  0.00     0.051 A 
ATOM     15  C   UNL     1     141.311 -17.074  76.869  1.00  0.00     0.157 A 
ATOM     16  C   UNL     1     140.615 -19.266  77.657  1.00  0.00     0.062 A 
ATOM     17  C   UNL     1     141.101 -18.452  76.626  1.00  0.00     0.158 A 
BRANCH  15  18
ATOM     18  O   UNL     1     141.792 -16.200  75.891  1.00  0.00    -0.504 OA
ATOM     19  H   UNL     1     141.358 -16.066  74.989  1.00  0.00     0.293 HD
ENDBRANCH  15  18
BRANCH  17  20
ATOM     20  O   UNL     1     141.359 -19.047  75.391  1.00  0.00    -0.504 OA
ATOM     21  H   UNL     1     140.826 -18.865  74.553  1.00  0.00     0.293 HD
ENDBRANCH  17  20
ENDBRANCH   1  12
BRANCH   6  22
ATOM     22  O   UNL     1     138.687 -22.535  84.134  1.00  0.00    -0.507 OA
ATOM     23  H   UNL     1     139.620 -22.358  84.472  1.00  0.00     0.293 HD
ENDBRANCH   6  22
BRANCH   8  24
ATOM     24  O   UNL     1     135.855 -24.082  80.577  1.00  0.00    -0.508 OA
ATOM     25  H   UNL     1     135.330 -24.661  81.221  1.00  0.00     0.293 HD
ENDBRANCH   8  24
TORSDOF 5
ENDMDL
