MODEL 1
REMARK VINA RESULT:    -4.017      0.000      0.000
REMARK INTER + INTRA:          -8.496
REMARK INTER:                  -7.070
REMARK INTRA:                  -1.426
REMARK UNBOUND:                -1.426
REMARK SMILES CCCCCCCCCCCCCCC(=O)[O-]
REMARK SMILES IDX 9 1 10 2 11 3 12 4 13 5 14 6 15 7 16 8 17 9 8 10 7 11 6 12
REMARK SMILES IDX 5 13 4 14 3 15 2 16 1 17
REMARK H PARENT
REMARK Flexibility Score: inf
ROOT
ATOM      1  C   UNL     1      23.137 -15.366  -1.862  1.00  0.00     0.000 C 
ENDROOT
BRANCH   1   2
ATOM      2  C   UNL     1      23.174 -16.512  -2.891  1.00  0.00     0.000 C 
BRANCH   2   3
ATOM      3  C   UNL     1      24.204 -16.296  -4.022  1.00  0.00     0.000 C 
BRANCH   3   4
ATOM      4  C   UNL     1      25.527 -17.035  -3.761  1.00  0.00     0.000 C 
BRANCH   4   5
ATOM      5  C   UNL     1      26.750 -16.099  -3.749  1.00  0.00     0.006 C 
BRANCH   5   6
ATOM      6  C   UNL     1      27.812 -16.471  -2.698  1.00  0.00     0.053 C 
BRANCH   6   7
ATOM      7  C   UNL     1      29.110 -15.750  -2.909  1.00  0.00     0.041 C 
ATOM      8  O   UNL     1      30.172 -16.400  -3.093  1.00  0.00    -0.550 OA
ATOM      9  O   UNL     1      29.141 -14.361  -2.941  1.00  0.00    -0.550 OA
ENDBRANCH   6   7
ENDBRANCH   5   6
ENDBRANCH   4   5
ENDBRANCH   3   4
ENDBRANCH   2   3
ENDBRANCH   1   2
BRANCH   1  10
ATOM     10  C   UNL     1      23.975 -14.127  -2.235  1.00  0.00     0.000 C 
BRANCH  10  11
ATOM     11  C   UNL     1      24.671 -13.431  -1.050  1.00  0.00    -0.000 C 
BRANCH  11  12
ATOM     12  C   UNL     1      26.199 -13.588  -1.076  1.00  0.00    -0.000 C 
BRANCH  12  13
ATOM     13  C   UNL     1      26.776 -13.577   0.347  1.00  0.00    -0.000 C 
BRANCH  13  14
ATOM     14  C   UNL     1      28.011 -14.484   0.502  1.00  0.00    -0.000 C 
BRANCH  14  15
ATOM     15  C   UNL     1      29.115 -13.928   1.421  1.00  0.00    -0.000 C 
BRANCH  15  16
ATOM     16  C   UNL     1      29.452 -12.457   1.134  1.00  0.00    -0.003 C 
ATOM     17  C   UNL     1      30.177 -12.308  -0.201  1.00  0.00     0.004 C 
ENDBRANCH  15  16
ENDBRANCH  14  15
ENDBRANCH  13  14
ENDBRANCH  12  13
ENDBRANCH  11  12
ENDBRANCH  10  11
ENDBRANCH   1  10
TORSDOF 13
ENDMDL
MODEL 2
REMARK VINA RESULT:    -3.939      2.129      4.862
REMARK INTER + INTRA:          -8.360
REMARK INTER:                  -6.510
REMARK INTRA:                  -1.850
REMARK UNBOUND:                -1.426
REMARK SMILES CCCCCCCCCCCCCCC(=O)[O-]
REMARK SMILES IDX 9 1 10 2 11 3 12 4 13 5 14 6 15 7 16 8 17 9 8 10 7 11 6 12
REMARK SMILES IDX 5 13 4 14 3 15 2 16 1 17
REMARK H PARENT
REMARK Flexibility Score: inf
ROOT
ATOM      1  C   UNL     1      27.819 -14.662   0.649  1.00  0.00     0.000 C 
ENDROOT
BRANCH   1   2
ATOM      2  C   UNL     1      26.912 -13.506   0.185  1.00  0.00     0.000 C 
BRANCH   2   3
ATOM      3  C   UNL     1      26.245 -13.754  -1.186  1.00  0.00     0.000 C 
BRANCH   3   4
ATOM      4  C   UNL     1      24.725 -13.523  -1.150  1.00  0.00     0.000 C 
BRANCH   4   5
ATOM      5  C   UNL     1      24.021 -13.929  -2.458  1.00  0.00     0.006 C 
BRANCH   5   6
ATOM      6  C   UNL     1      24.875 -14.822  -3.376  1.00  0.00     0.053 C 
BRANCH   6   7
ATOM      7  C   UNL     1      24.432 -16.255  -3.360  1.00  0.00     0.041 C 
ATOM      8  O   UNL     1      23.258 -16.551  -3.014  1.00  0.00    -0.550 OA
ATOM      9  O   UNL     1      25.302 -17.260  -3.762  1.00  0.00    -0.550 OA
ENDBRANCH   6   7
ENDBRANCH   5   6
ENDBRANCH   4   5
ENDBRANCH   3   4
ENDBRANCH   2   3
ENDBRANCH   1   2
BRANCH   1  10
ATOM     10  C   UNL     1      28.983 -14.248   1.570  1.00  0.00     0.000 C 
BRANCH  10  11
ATOM     11  C   UNL     1      29.324 -12.746   1.552  1.00  0.00    -0.000 C 
BRANCH  11  12
ATOM     12  C   UNL     1      30.577 -12.425   0.723  1.00  0.00    -0.000 C 
BRANCH  12  13
ATOM     13  C   UNL     1      30.204 -12.095  -0.729  1.00  0.00    -0.000 C 
BRANCH  13  14
ATOM     14  C   UNL     1      30.755 -13.118  -1.740  1.00  0.00    -0.000 C 
BRANCH  14  15
ATOM     15  C   UNL     1      29.686 -13.898  -2.526  1.00  0.00    -0.000 C 
BRANCH  15  16
ATOM     16  C   UNL     1      29.813 -15.421  -2.365  1.00  0.00    -0.003 C 
ATOM     17  C   UNL     1      28.513 -16.125  -2.744  1.00  0.00     0.004 C 
ENDBRANCH  15  16
ENDBRANCH  14  15
ENDBRANCH  13  14
ENDBRANCH  12  13
ENDBRANCH  11  12
ENDBRANCH  10  11
ENDBRANCH   1  10
TORSDOF 13
ENDMDL
MODEL 3
REMARK VINA RESULT:    -3.924      1.610      4.505
REMARK INTER + INTRA:          -8.332
REMARK INTER:                  -6.623
REMARK INTRA:                  -1.709
REMARK UNBOUND:                -1.426
REMARK SMILES CCCCCCCCCCCCCCC(=O)[O-]
REMARK SMILES IDX 9 1 10 2 11 3 12 4 13 5 14 6 15 7 16 8 17 9 8 10 7 11 6 12
REMARK SMILES IDX 5 13 4 14 3 15 2 16 1 17
REMARK H PARENT
REMARK Flexibility Score: inf
ROOT
ATOM      1  C   UNL     1      24.043 -14.003  -1.493  1.00  0.00     0.000 C 
ENDROOT
BRANCH   1   2
ATOM      2  C   UNL     1      25.060 -13.138  -0.724  1.00  0.00     0.000 C 
BRANCH   2   3
ATOM      3  C   UNL     1      26.531 -13.524  -0.994  1.00  0.00     0.000 C 
BRANCH   3   4
ATOM      4  C   UNL     1      27.358 -13.625   0.298  1.00  0.00     0.000 C 
BRANCH   4   5
ATOM      5  C   UNL     1      28.085 -14.975   0.447  1.00  0.00     0.006 C 
BRANCH   5   6
ATOM      6  C   UNL     1      29.427 -14.882   1.195  1.00  0.00     0.053 C 
BRANCH   6   7
ATOM      7  C   UNL     1      30.270 -13.733   0.727  1.00  0.00     0.041 C 
ATOM      8  O   UNL     1      30.562 -12.799   1.518  1.00  0.00    -0.550 OA
ATOM      9  O   UNL     1      30.764 -13.711  -0.572  1.00  0.00    -0.550 OA
ENDBRANCH   6   7
ENDBRANCH   5   6
ENDBRANCH   4   5
ENDBRANCH   3   4
ENDBRANCH   2   3
ENDBRANCH   1   2
BRANCH   1  10
ATOM     10  C   UNL     1      23.741 -13.534  -2.929  1.00  0.00     0.000 C 
BRANCH  10  11
ATOM     11  C   UNL     1      23.958 -14.599  -4.021  1.00  0.00    -0.000 C 
BRANCH  11  12
ATOM     12  C   UNL     1      23.801 -16.035  -3.498  1.00  0.00    -0.000 C 
BRANCH  12  13
ATOM     13  C   UNL     1      25.027 -16.887  -3.859  1.00  0.00    -0.000 C 
BRANCH  13  14
ATOM     14  C   UNL     1      26.326 -16.066  -3.948  1.00  0.00    -0.000 C 
BRANCH  14  15
ATOM     15  C   UNL     1      27.404 -16.437  -2.913  1.00  0.00    -0.000 C 
BRANCH  15  16
ATOM     16  C   UNL     1      28.725 -15.681  -3.123  1.00  0.00    -0.003 C 
ATOM     17  C   UNL     1      29.909 -16.482  -2.588  1.00  0.00     0.004 C 
ENDBRANCH  15  16
ENDBRANCH  14  15
ENDBRANCH  13  14
ENDBRANCH  12  13
ENDBRANCH  11  12
ENDBRANCH  10  11
ENDBRANCH   1  10
TORSDOF 13
ENDMDL
MODEL 4
REMARK VINA RESULT:    -3.912      1.351      2.324
REMARK INTER + INTRA:          -8.311
REMARK INTER:                  -6.647
REMARK INTRA:                  -1.664
REMARK UNBOUND:                -1.426
REMARK SMILES CCCCCCCCCCCCCCC(=O)[O-]
REMARK SMILES IDX 9 1 10 2 11 3 12 4 13 5 14 6 15 7 16 8 17 9 8 10 7 11 6 12
REMARK SMILES IDX 5 13 4 14 3 15 2 16 1 17
REMARK H PARENT
REMARK Flexibility Score: inf
ROOT
ATOM      1  C   UNL     1      23.903 -16.056  -3.412  1.00  0.00     0.000 C 
ENDROOT
BRANCH   1   2
ATOM      2  C   UNL     1      25.184 -16.859  -3.710  1.00  0.00     0.000 C 
BRANCH   2   3
ATOM      3  C   UNL     1      26.456 -15.987  -3.795  1.00  0.00     0.000 C 
BRANCH   3   4
ATOM      4  C   UNL     1      27.594 -16.521  -2.909  1.00  0.00     0.000 C 
BRANCH   4   5
ATOM      5  C   UNL     1      28.912 -15.744  -3.084  1.00  0.00     0.006 C 
BRANCH   5   6
ATOM      6  C   UNL     1      30.174 -16.597  -2.864  1.00  0.00     0.053 C 
BRANCH   6   7
ATOM      7  C   UNL     1      30.194 -17.259  -1.518  1.00  0.00     0.041 C 
ATOM      8  O   UNL     1      30.066 -16.571  -0.472  1.00  0.00    -0.550 OA
ATOM      9  O   UNL     1      30.318 -18.640  -1.420  1.00  0.00    -0.550 OA
ENDBRANCH   6   7
ENDBRANCH   5   6
ENDBRANCH   4   5
ENDBRANCH   3   4
ENDBRANCH   2   3
ENDBRANCH   1   2
BRANCH   1  10
ATOM     10  C   UNL     1      23.892 -14.617  -3.965  1.00  0.00     0.000 C 
BRANCH  10  11
ATOM     11  C   UNL     1      23.950 -13.509  -2.897  1.00  0.00    -0.000 C 
BRANCH  11  12
ATOM     12  C   UNL     1      24.180 -14.054  -1.479  1.00  0.00    -0.000 C 
BRANCH  12  13
ATOM     13  C   UNL     1      25.148 -13.156  -0.696  1.00  0.00    -0.000 C 
BRANCH  13  14
ATOM     14  C   UNL     1      26.628 -13.506  -0.942  1.00  0.00    -0.000 C 
BRANCH  14  15
ATOM     15  C   UNL     1      27.369 -14.093   0.273  1.00  0.00    -0.000 C 
BRANCH  15  16
ATOM     16  C   UNL     1      28.680 -13.357   0.590  1.00  0.00    -0.003 C 
ATOM     17  C   UNL     1      29.429 -12.991  -0.688  1.00  0.00     0.004 C 
ENDBRANCH  15  16
ENDBRANCH  14  15
ENDBRANCH  13  14
ENDBRANCH  12  13
ENDBRANCH  11  12
ENDBRANCH  10  11
ENDBRANCH   1  10
TORSDOF 13
ENDMDL
MODEL 5
REMARK VINA RESULT:    -3.806      1.994      5.257
REMARK INTER + INTRA:          -8.126
REMARK INTER:                  -6.812
REMARK INTRA:                  -1.313
REMARK UNBOUND:                -1.426
REMARK SMILES CCCCCCCCCCCCCCC(=O)[O-]
REMARK SMILES IDX 9 1 10 2 11 3 12 4 13 5 14 6 15 7 16 8 17 9 8 10 7 11 6 12
REMARK SMILES IDX 5 13 4 14 3 15 2 16 1 17
REMARK H PARENT
REMARK Flexibility Score: inf
ROOT
ATOM      1  C   UNL     1      27.805 -16.233  -2.507  1.00  0.00     0.000 C 
ENDROOT
BRANCH   1   2
ATOM      2  C   UNL     1      29.289 -16.440  -2.867  1.00  0.00     0.000 C 
BRANCH   2   3
ATOM      3  C   UNL     1      30.052 -17.329  -1.860  1.00  0.00     0.000 C 
BRANCH   3   4
ATOM      4  C   UNL     1      31.063 -16.530  -1.020  1.00  0.00     0.000 C 
BRANCH   4   5
ATOM      5  C   UNL     1      30.553 -16.212   0.398  1.00  0.00     0.006 C 
BRANCH   5   6
ATOM      6  C   UNL     1      30.300 -14.714   0.649  1.00  0.00     0.053 C 
BRANCH   6   7
ATOM      7  C   UNL     1      28.929 -14.445   1.196  1.00  0.00     0.041 C 
ATOM      8  O   UNL     1      28.016 -15.301   1.064  1.00  0.00    -0.550 OA
ATOM      9  O   UNL     1      28.671 -13.267   1.885  1.00  0.00    -0.550 OA
ENDBRANCH   6   7
ENDBRANCH   5   6
ENDBRANCH   4   5
ENDBRANCH   3   4
ENDBRANCH   2   3
ENDBRANCH   1   2
BRANCH   1  10
ATOM     10  C   UNL     1      26.862 -16.051  -3.712  1.00  0.00     0.000 C 
BRANCH  10  11
ATOM     11  C   UNL     1      25.654 -17.007  -3.743  1.00  0.00    -0.000 C 
BRANCH  11  12
ATOM     12  C   UNL     1      24.335 -16.296  -4.083  1.00  0.00    -0.000 C 
BRANCH  12  13
ATOM     13  C   UNL     1      23.262 -16.594  -3.025  1.00  0.00    -0.000 C 
BRANCH  13  14
ATOM     14  C   UNL     1      23.071 -15.443  -2.020  1.00  0.00    -0.000 C 
BRANCH  14  15
ATOM     15  C   UNL     1      23.876 -14.168  -2.328  1.00  0.00    -0.000 C 
BRANCH  15  16
ATOM     16  C   UNL     1      24.410 -13.474  -1.066  1.00  0.00    -0.003 C 
ATOM     17  C   UNL     1      25.937 -13.466  -1.047  1.00  0.00     0.004 C 
ENDBRANCH  15  16
ENDBRANCH  14  15
ENDBRANCH  13  14
ENDBRANCH  12  13
ENDBRANCH  11  12
ENDBRANCH  10  11
ENDBRANCH   1  10
TORSDOF 13
ENDMDL
MODEL 6
REMARK VINA RESULT:    -3.800      1.664      4.886
REMARK INTER + INTRA:          -8.114
REMARK INTER:                  -6.291
REMARK INTRA:                  -1.823
REMARK UNBOUND:                -1.426
REMARK SMILES CCCCCCCCCCCCCCC(=O)[O-]
REMARK SMILES IDX 9 1 10 2 11 3 12 4 13 5 14 6 15 7 16 8 17 9 8 10 7 11 6 12
REMARK SMILES IDX 5 13 4 14 3 15 2 16 1 17
REMARK H PARENT
REMARK Flexibility Score: inf
ROOT
ATOM      1  C   UNL     1      27.468 -15.389  -3.916  1.00  0.00     0.000 C 
ENDROOT
BRANCH   1   2
ATOM      2  C   UNL     1      28.950 -15.046  -3.670  1.00  0.00     0.000 C 
BRANCH   2   3
ATOM      3  C   UNL     1      29.158 -13.839  -2.728  1.00  0.00     0.000 C 
BRANCH   3   4
ATOM      4  C   UNL     1      30.257 -14.094  -1.682  1.00  0.00     0.000 C 
BRANCH   4   5
ATOM      5  C   UNL     1      29.702 -14.285  -0.258  1.00  0.00     0.006 C 
BRANCH   5   6
ATOM      6  C   UNL     1      29.044 -15.657  -0.023  1.00  0.00     0.053 C 
BRANCH   6   7
ATOM      7  C   UNL     1      30.001 -16.796  -0.214  1.00  0.00     0.041 C 
ATOM      8  O   UNL     1      30.809 -17.104   0.701  1.00  0.00    -0.550 OA
ATOM      9  O   UNL     1      29.976 -17.541  -1.387  1.00  0.00    -0.550 OA
ENDBRANCH   6   7
ENDBRANCH   5   6
ENDBRANCH   4   5
ENDBRANCH   3   4
ENDBRANCH   2   3
ENDBRANCH   1   2
BRANCH   1  10
ATOM     10  C   UNL     1      26.917 -16.548  -3.063  1.00  0.00     0.000 C 
BRANCH  10  11
ATOM     11  C   UNL     1      25.683 -17.259  -3.650  1.00  0.00    -0.000 C 
BRANCH  11  12
ATOM     12  C   UNL     1      24.528 -16.295  -3.962  1.00  0.00    -0.000 C 
BRANCH  12  13
ATOM     13  C   UNL     1      23.358 -16.506  -2.990  1.00  0.00    -0.000 C 
BRANCH  13  14
ATOM     14  C   UNL     1      23.058 -15.264  -2.130  1.00  0.00    -0.000 C 
BRANCH  14  15
ATOM     15  C   UNL     1      24.043 -14.094  -2.308  1.00  0.00    -0.000 C 
BRANCH  15  16
ATOM     16  C   UNL     1      24.533 -13.513  -0.973  1.00  0.00    -0.003 C 
ATOM     17  C   UNL     1      26.056 -13.556  -0.879  1.00  0.00     0.004 C 
ENDBRANCH  15  16
ENDBRANCH  14  15
ENDBRANCH  13  14
ENDBRANCH  12  13
ENDBRANCH  11  12
ENDBRANCH  10  11
ENDBRANCH   1  10
TORSDOF 13
ENDMDL
MODEL 7
REMARK VINA RESULT:    -3.766      1.461      5.347
REMARK INTER + INTRA:          -8.054
REMARK INTER:                  -6.313
REMARK INTRA:                  -1.741
REMARK UNBOUND:                -1.426
REMARK SMILES CCCCCCCCCCCCCCC(=O)[O-]
REMARK SMILES IDX 9 1 10 2 11 3 12 4 13 5 14 6 15 7 16 8 17 9 8 10 7 11 6 12
REMARK SMILES IDX 5 13 4 14 3 15 2 16 1 17
REMARK H PARENT
REMARK Flexibility Score: inf
ROOT
ATOM      1  C   UNL     1      26.801 -13.773  -0.642  1.00  0.00     0.000 C 
ENDROOT
BRANCH   1   2
ATOM      2  C   UNL     1      27.871 -13.517   0.437  1.00  0.00     0.000 C 
BRANCH   2   3
ATOM      3  C   UNL     1      28.339 -14.799   1.161  1.00  0.00     0.000 C 
BRANCH   3   4
ATOM      4  C   UNL     1      29.816 -15.125   0.880  1.00  0.00     0.000 C 
BRANCH   4   5
ATOM      5  C   UNL     1      30.004 -16.417   0.063  1.00  0.00     0.006 C 
BRANCH   5   6
ATOM      6  C   UNL     1      30.778 -16.217  -1.253  1.00  0.00     0.053 C 
BRANCH   6   7
ATOM      7  C   UNL     1      30.634 -17.379  -2.189  1.00  0.00     0.041 C 
ATOM      8  O   UNL     1      30.593 -17.189  -3.433  1.00  0.00    -0.550 OA
ATOM      9  O   UNL     1      30.583 -18.676  -1.692  1.00  0.00    -0.550 OA
ENDBRANCH   6   7
ENDBRANCH   5   6
ENDBRANCH   4   5
ENDBRANCH   3   4
ENDBRANCH   2   3
ENDBRANCH   1   2
BRANCH   1  10
ATOM     10  C   UNL     1      27.352 -14.177  -2.023  1.00  0.00     0.000 C 
BRANCH  10  11
ATOM     11  C   UNL     1      27.267 -15.682  -2.342  1.00  0.00    -0.000 C 
BRANCH  11  12
ATOM     12  C   UNL     1      26.765 -15.965  -3.766  1.00  0.00    -0.000 C 
BRANCH  12  13
ATOM     13  C   UNL     1      25.627 -16.997  -3.752  1.00  0.00    -0.000 C 
BRANCH  13  14
ATOM     14  C   UNL     1      24.247 -16.375  -4.036  1.00  0.00    -0.000 C 
BRANCH  14  15
ATOM     15  C   UNL     1      23.264 -16.403  -2.852  1.00  0.00    -0.000 C 
BRANCH  15  16
ATOM     16  C   UNL     1      23.293 -15.116  -2.014  1.00  0.00    -0.003 C 
ATOM     17  C   UNL     1      23.668 -13.910  -2.872  1.00  0.00     0.004 C 
ENDBRANCH  15  16
ENDBRANCH  14  15
ENDBRANCH  13  14
ENDBRANCH  12  13
ENDBRANCH  11  12
ENDBRANCH  10  11
ENDBRANCH   1  10
TORSDOF 13
ENDMDL
MODEL 8
REMARK VINA RESULT:    -3.743      2.369      5.845
REMARK INTER + INTRA:          -8.014
REMARK INTER:                  -6.580
REMARK INTRA:                  -1.434
REMARK UNBOUND:                -1.426
REMARK SMILES CCCCCCCCCCCCCCC(=O)[O-]
REMARK SMILES IDX 9 1 10 2 11 3 12 4 13 5 14 6 15 7 16 8 17 9 8 10 7 11 6 12
REMARK SMILES IDX 5 13 4 14 3 15 2 16 1 17
REMARK H PARENT
REMARK Flexibility Score: inf
ROOT
ATOM      1  C   UNL     1      28.225 -14.237  -2.429  1.00  0.00     0.000 C 
ENDROOT
BRANCH   1   2
ATOM      2  C   UNL     1      29.482 -14.832  -1.765  1.00  0.00     0.000 C 
BRANCH   2   3
ATOM      3  C   UNL     1      29.174 -15.957  -0.753  1.00  0.00     0.000 C 
BRANCH   3   4
ATOM      4  C   UNL     1      29.634 -15.605   0.672  1.00  0.00     0.000 C 
BRANCH   4   5
ATOM      5  C   UNL     1      30.048 -14.130   0.828  1.00  0.00     0.006 C 
BRANCH   5   6
ATOM      6  C   UNL     1      29.223 -13.357   1.872  1.00  0.00     0.053 C 
BRANCH   6   7
ATOM      7  C   UNL     1      29.645 -11.923   1.994  1.00  0.00     0.041 C 
ATOM      8  O   UNL     1      29.557 -11.328   3.100  1.00  0.00    -0.550 OA
ATOM      9  O   UNL     1      30.171 -11.253   0.896  1.00  0.00    -0.550 OA
ENDBRANCH   6   7
ENDBRANCH   5   6
ENDBRANCH   4   5
ENDBRANCH   3   4
ENDBRANCH   2   3
ENDBRANCH   1   2
BRANCH   1  10
ATOM     10  C   UNL     1      26.901 -14.529  -1.696  1.00  0.00     0.000 C 
BRANCH  10  11
ATOM     11  C   UNL     1      26.494 -13.480  -0.644  1.00  0.00    -0.000 C 
BRANCH  11  12
ATOM     12  C   UNL     1      25.051 -12.984  -0.818  1.00  0.00    -0.000 C 
BRANCH  12  13
ATOM     13  C   UNL     1      24.183 -14.051  -1.502  1.00  0.00    -0.000 C 
BRANCH  13  14
ATOM     14  C   UNL     1      23.710 -13.633  -2.906  1.00  0.00    -0.000 C 
BRANCH  14  15
ATOM     15  C   UNL     1      23.842 -14.720  -3.989  1.00  0.00    -0.000 C 
BRANCH  15  16
ATOM     16  C   UNL     1      23.878 -16.143  -3.411  1.00  0.00    -0.003 C 
ATOM     17  C   UNL     1      25.137 -16.884  -3.852  1.00  0.00     0.004 C 
ENDBRANCH  15  16
ENDBRANCH  14  15
ENDBRANCH  13  14
ENDBRANCH  12  13
ENDBRANCH  11  12
ENDBRANCH  10  11
ENDBRANCH   1  10
TORSDOF 13
ENDMDL
MODEL 9
REMARK VINA RESULT:    -3.695      2.364      5.641
REMARK INTER + INTRA:          -7.929
REMARK INTER:                  -6.677
REMARK INTRA:                  -1.252
REMARK UNBOUND:                -1.426
REMARK SMILES CCCCCCCCCCCCCCC(=O)[O-]
REMARK SMILES IDX 9 1 10 2 11 3 12 4 13 5 14 6 15 7 16 8 17 9 8 10 7 11 6 12
REMARK SMILES IDX 5 13 4 14 3 15 2 16 1 17
REMARK H PARENT
REMARK Flexibility Score: inf
ROOT
ATOM      1  C   UNL     1      26.669 -13.500  -0.075  1.00  0.00     0.000 C 
ENDROOT
BRANCH   1   2
ATOM      2  C   UNL     1      27.824 -14.351  -0.638  1.00  0.00     0.000 C 
BRANCH   2   3
ATOM      3  C   UNL     1      28.379 -15.384   0.368  1.00  0.00     0.000 C 
BRANCH   3   4
ATOM      4  C   UNL     1      29.916 -15.403   0.402  1.00  0.00     0.000 C 
BRANCH   4   5
ATOM      5  C   UNL     1      30.547 -14.068  -0.036  1.00  0.00     0.006 C 
BRANCH   5   6
ATOM      6  C   UNL     1      31.125 -13.239   1.125  1.00  0.00     0.053 C 
BRANCH   6   7
ATOM      7  C   UNL     1      30.182 -12.173   1.598  1.00  0.00     0.041 C 
ATOM      8  O   UNL     1      29.397 -12.402   2.556  1.00  0.00    -0.550 OA
ATOM      9  O   UNL     1      30.194 -10.916   1.007  1.00  0.00    -0.550 OA
ENDBRANCH   6   7
ENDBRANCH   5   6
ENDBRANCH   4   5
ENDBRANCH   3   4
ENDBRANCH   2   3
ENDBRANCH   1   2
BRANCH   1  10
ATOM     10  C   UNL     1      25.579 -13.123  -1.097  1.00  0.00     0.000 C 
BRANCH  10  11
ATOM     11  C   UNL     1      24.228 -13.837  -0.901  1.00  0.00    -0.000 C 
BRANCH  11  12
ATOM     12  C   UNL     1      23.636 -14.371  -2.214  1.00  0.00    -0.000 C 
BRANCH  12  13
ATOM     13  C   UNL     1      22.858 -15.674  -1.975  1.00  0.00    -0.000 C 
BRANCH  13  14
ATOM     14  C   UNL     1      23.225 -16.787  -2.974  1.00  0.00    -0.000 C 
BRANCH  14  15
ATOM     15  C   UNL     1      24.271 -16.393  -4.033  1.00  0.00    -0.000 C 
BRANCH  15  16
ATOM     16  C   UNL     1      25.667 -16.965  -3.741  1.00  0.00    -0.003 C 
ATOM     17  C   UNL     1      26.726 -15.865  -3.754  1.00  0.00     0.004 C 
ENDBRANCH  15  16
ENDBRANCH  14  15
ENDBRANCH  13  14
ENDBRANCH  12  13
ENDBRANCH  11  12
ENDBRANCH  10  11
ENDBRANCH   1  10
TORSDOF 13
ENDMDL
