MODEL 1
REMARK VINA RESULT:    -4.976      0.000      0.000
REMARK INTER + INTRA:         -10.368
REMARK INTER:                  -9.340
REMARK INTRA:                  -1.028
REMARK UNBOUND:                -1.028
REMARK SMILES O=C([O-])CCCCCCCCCCCCCCC(=O)[O-]
REMARK SMILES IDX 10 1 9 2 8 3 7 4 6 5 5 6 4 7 2 8 1 9 3 10 11 11 12 12 13 13
REMARK SMILES IDX 14 14 15 15 16 16 17 17 18 18 19 19 20 20
REMARK H PARENT
REMARK Flexibility Score: inf
ROOT
ATOM      1  C   UNL     1       1.059  -4.593   9.655  1.00  0.00     0.000 C 
ENDROOT
BRANCH   1   2
ATOM      2  C   UNL     1      -0.203  -5.059   8.918  1.00  0.00     0.000 C 
BRANCH   2   3
ATOM      3  C   UNL     1       0.141  -5.593   7.519  1.00  0.00     0.000 C 
BRANCH   3   4
ATOM      4  C   UNL     1      -0.717  -6.803   7.118  1.00  0.00     0.000 C 
BRANCH   4   5
ATOM      5  C   UNL     1      -1.715  -7.212   8.213  1.00  0.00     0.000 C 
BRANCH   5   6
ATOM      6  C   UNL     1      -2.306  -8.600   7.925  1.00  0.00     0.006 C 
BRANCH   6   7
ATOM      7  C   UNL     1      -3.632  -8.831   8.662  1.00  0.00     0.053 C 
BRANCH   7   8
ATOM      8  C   UNL     1      -4.546  -7.651   8.546  1.00  0.00     0.041 C 
ATOM      9  O   UNL     1      -4.936  -7.261   7.415  1.00  0.00    -0.550 OA
ATOM     10  O   UNL     1      -4.941  -6.960   9.686  1.00  0.00    -0.550 OA
ENDBRANCH   7   8
ENDBRANCH   6   7
ENDBRANCH   5   6
ENDBRANCH   4   5
ENDBRANCH   3   4
ENDBRANCH   2   3
ENDBRANCH   1   2
BRANCH   1  11
ATOM     11  C   UNL     1       1.098  -3.061   9.764  1.00  0.00     0.000 C 
BRANCH  11  12
ATOM     12  C   UNL     1      -0.255  -2.410   9.438  1.00  0.00     0.000 C 
BRANCH  12  13
ATOM     13  C   UNL     1      -0.351  -0.962   9.941  1.00  0.00     0.000 C 
BRANCH  13  14
ATOM     14  C   UNL     1      -0.207   0.032   8.781  1.00  0.00     0.000 C 
BRANCH  14  15
ATOM     15  C   UNL     1      -1.482   0.067   7.924  1.00  0.00     0.000 C 
BRANCH  15  16
ATOM     16  C   UNL     1      -1.199  -0.162   6.432  1.00  0.00     0.006 C 
BRANCH  16  17
ATOM     17  C   UNL     1      -1.286  -1.641   6.033  1.00  0.00     0.053 C 
BRANCH  17  18
ATOM     18  C   UNL     1      -1.500  -1.772   4.558  1.00  0.00     0.041 C 
ATOM     19  O   UNL     1      -1.839  -0.769   3.876  1.00  0.00    -0.550 OA
ATOM     20  O   UNL     1      -1.373  -3.011   3.944  1.00  0.00    -0.550 OA
ENDBRANCH  17  18
ENDBRANCH  16  17
ENDBRANCH  15  16
ENDBRANCH  14  15
ENDBRANCH  13  14
ENDBRANCH  12  13
ENDBRANCH  11  12
ENDBRANCH   1  11
TORSDOF 15
ENDMDL
MODEL 2
REMARK VINA RESULT:    -4.898      1.045      6.835
REMARK INTER + INTRA:         -10.221
REMARK INTER:                  -9.114
REMARK INTRA:                  -1.107
REMARK UNBOUND:                -1.028
REMARK SMILES O=C([O-])CCCCCCCCCCCCCCC(=O)[O-]
REMARK SMILES IDX 10 1 9 2 8 3 7 4 6 5 5 6 4 7 2 8 1 9 3 10 11 11 12 12 13 13
REMARK SMILES IDX 14 14 15 15 16 16 17 17 18 18 19 19 20 20
REMARK H PARENT
REMARK Flexibility Score: inf
ROOT
ATOM      1  C   UNL     1       0.007  -3.414   9.665  1.00  0.00     0.000 C 
ENDROOT
BRANCH   1   2
ATOM      2  C   UNL     1      -0.675  -2.063   9.914  1.00  0.00     0.000 C 
BRANCH   2   3
ATOM      3  C   UNL     1      -0.121  -0.984   8.972  1.00  0.00     0.000 C 
BRANCH   3   4
ATOM      4  C   UNL     1      -1.192   0.025   8.531  1.00  0.00     0.000 C 
BRANCH   4   5
ATOM      5  C   UNL     1      -1.263   0.187   7.005  1.00  0.00     0.000 C 
BRANCH   5   6
ATOM      6  C   UNL     1      -1.189  -1.177   6.303  1.00  0.00     0.006 C 
BRANCH   6   7
ATOM      7  C   UNL     1      -1.570  -1.089   4.819  1.00  0.00     0.053 C 
BRANCH   7   8
ATOM      8  C   UNL     1      -1.570  -2.434   4.163  1.00  0.00     0.041 C 
ATOM      9  O   UNL     1      -1.870  -3.462   4.825  1.00  0.00    -0.550 OA
ATOM     10  O   UNL     1      -1.205  -2.559   2.828  1.00  0.00    -0.550 OA
ENDBRANCH   7   8
ENDBRANCH   6   7
ENDBRANCH   5   6
ENDBRANCH   4   5
ENDBRANCH   3   4
ENDBRANCH   2   3
ENDBRANCH   1   2
BRANCH   1  11
ATOM     11  C   UNL     1      -0.033  -3.783   8.174  1.00  0.00     0.000 C 
BRANCH  11  12
ATOM     12  C   UNL     1       0.438  -5.221   7.907  1.00  0.00     0.000 C 
BRANCH  12  13
ATOM     13  C   UNL     1      -0.417  -5.937   6.849  1.00  0.00     0.000 C 
BRANCH  13  14
ATOM     14  C   UNL     1      -1.062  -7.201   7.430  1.00  0.00     0.000 C 
BRANCH  14  15
ATOM     15  C   UNL     1      -1.548  -6.961   8.868  1.00  0.00     0.000 C 
BRANCH  15  16
ATOM     16  C   UNL     1      -2.583  -8.000   9.324  1.00  0.00     0.006 C 
BRANCH  16  17
ATOM     17  C   UNL     1      -3.456  -8.511   8.171  1.00  0.00     0.053 C 
BRANCH  17  18
ATOM     18  C   UNL     1      -4.839  -7.951   8.276  1.00  0.00     0.041 C 
ATOM     19  O   UNL     1      -5.640  -8.397   9.140  1.00  0.00    -0.550 OA
ATOM     20  O   UNL     1      -5.261  -6.969   7.390  1.00  0.00    -0.550 OA
ENDBRANCH  17  18
ENDBRANCH  16  17
ENDBRANCH  15  16
ENDBRANCH  14  15
ENDBRANCH  13  14
ENDBRANCH  12  13
ENDBRANCH  11  12
ENDBRANCH   1  11
TORSDOF 15
ENDMDL
MODEL 3
REMARK VINA RESULT:    -4.897      1.410      2.123
REMARK INTER + INTRA:         -10.220
REMARK INTER:                  -9.596
REMARK INTRA:                  -0.624
REMARK UNBOUND:                -1.028
REMARK SMILES O=C([O-])CCCCCCCCCCCCCCC(=O)[O-]
REMARK SMILES IDX 10 1 9 2 8 3 7 4 6 5 5 6 4 7 2 8 1 9 3 10 11 11 12 12 13 13
REMARK SMILES IDX 14 14 15 15 16 16 17 17 18 18 19 19 20 20
REMARK H PARENT
REMARK Flexibility Score: inf
ROOT
ATOM      1  C   UNL     1       1.760  -3.060   9.900  1.00  0.00     0.000 C 
ENDROOT
BRANCH   1   2
ATOM      2  C   UNL     1       1.784  -4.412   9.176  1.00  0.00     0.000 C 
BRANCH   2   3
ATOM      3  C   UNL     1       1.019  -5.479   9.973  1.00  0.00     0.000 C 
BRANCH   3   4
ATOM      4  C   UNL     1      -0.292  -5.901   9.294  1.00  0.00     0.000 C 
BRANCH   4   5
ATOM      5  C   UNL     1      -0.149  -6.061   7.772  1.00  0.00     0.000 C 
BRANCH   5   6
ATOM      6  C   UNL     1      -1.253  -6.967   7.209  1.00  0.00     0.006 C 
BRANCH   6   7
ATOM      7  C   UNL     1      -2.071  -7.645   8.317  1.00  0.00     0.053 C 
BRANCH   7   8
ATOM      8  C   UNL     1      -2.373  -9.074   7.992  1.00  0.00     0.041 C 
ATOM      9  O   UNL     1      -1.469  -9.827   7.546  1.00  0.00    -0.550 OA
ATOM     10  O   UNL     1      -3.663  -9.568   8.150  1.00  0.00    -0.550 OA
ENDBRANCH   7   8
ENDBRANCH   6   7
ENDBRANCH   5   6
ENDBRANCH   4   5
ENDBRANCH   3   4
ENDBRANCH   2   3
ENDBRANCH   1   2
BRANCH   1  11
ATOM     11  C   UNL     1       0.317  -2.582  10.122  1.00  0.00     0.000 C 
BRANCH  11  12
ATOM     12  C   UNL     1      -0.281  -1.905   8.880  1.00  0.00     0.000 C 
BRANCH  12  13
ATOM     13  C   UNL     1      -0.290  -0.372   8.988  1.00  0.00     0.000 C 
BRANCH  13  14
ATOM     14  C   UNL     1      -1.435   0.229   8.164  1.00  0.00     0.000 C 
BRANCH  14  15
ATOM     15  C   UNL     1      -1.123   0.168   6.660  1.00  0.00     0.000 C 
BRANCH  15  16
ATOM     16  C   UNL     1      -1.403  -1.216   6.053  1.00  0.00     0.006 C 
BRANCH  16  17
ATOM     17  C   UNL     1      -1.489  -1.183   4.521  1.00  0.00     0.053 C 
BRANCH  17  18
ATOM     18  C   UNL     1      -1.530  -2.573   3.971  1.00  0.00     0.041 C 
ATOM     19  O   UNL     1      -1.719  -3.553   4.740  1.00  0.00    -0.550 OA
ATOM     20  O   UNL     1      -1.314  -2.792   2.617  1.00  0.00    -0.550 OA
ENDBRANCH  17  18
ENDBRANCH  16  17
ENDBRANCH  15  16
ENDBRANCH  14  15
ENDBRANCH  13  14
ENDBRANCH  12  13
ENDBRANCH  11  12
ENDBRANCH   1  11
TORSDOF 15
ENDMDL
MODEL 4
REMARK VINA RESULT:    -4.315     16.490     19.517
REMARK INTER + INTRA:          -9.127
REMARK INTER:                  -6.907
REMARK INTRA:                  -2.220
REMARK UNBOUND:                -1.028
REMARK SMILES O=C([O-])CCCCCCCCCCCCCCC(=O)[O-]
REMARK SMILES IDX 10 1 9 2 8 3 7 4 6 5 5 6 4 7 2 8 1 9 3 10 11 11 12 12 13 13
REMARK SMILES IDX 14 14 15 15 16 16 17 17 18 18 19 19 20 20
REMARK H PARENT
REMARK Flexibility Score: inf
ROOT
ATOM      1  C   UNL     1       7.024   5.872  -4.125  1.00  0.00     0.000 C 
ENDROOT
BRANCH   1   2
ATOM      2  C   UNL     1       7.680   6.201  -5.472  1.00  0.00     0.000 C 
BRANCH   2   3
ATOM      3  C   UNL     1       6.919   7.321  -6.198  1.00  0.00     0.000 C 
BRANCH   3   4
ATOM      4  C   UNL     1       7.432   7.558  -7.626  1.00  0.00     0.000 C 
BRANCH   4   5
ATOM      5  C   UNL     1       6.385   7.220  -8.698  1.00  0.00     0.000 C 
BRANCH   5   6
ATOM      6  C   UNL     1       5.112   8.058  -8.505  1.00  0.00     0.006 C 
BRANCH   6   7
ATOM      7  C   UNL     1       3.837   7.253  -8.791  1.00  0.00     0.053 C 
BRANCH   7   8
ATOM      8  C   UNL     1       2.644   7.832  -8.096  1.00  0.00     0.041 C 
ATOM      9  O   UNL     1       1.827   7.078  -7.506  1.00  0.00    -0.550 OA
ATOM     10  O   UNL     1       2.416   9.202  -8.126  1.00  0.00    -0.550 OA
ENDBRANCH   7   8
ENDBRANCH   6   7
ENDBRANCH   5   6
ENDBRANCH   4   5
ENDBRANCH   3   4
ENDBRANCH   2   3
ENDBRANCH   1   2
BRANCH   1  11
ATOM     11  C   UNL     1       5.515   5.634  -4.293  1.00  0.00     0.000 C 
BRANCH  11  12
ATOM     12  C   UNL     1       5.123   4.161  -4.101  1.00  0.00     0.000 C 
BRANCH  12  13
ATOM     13  C   UNL     1       4.419   3.570  -5.333  1.00  0.00     0.000 C 
BRANCH  13  14
ATOM     14  C   UNL     1       4.494   4.535  -6.523  1.00  0.00     0.000 C 
BRANCH  14  15
ATOM     15  C   UNL     1       5.180   3.871  -7.727  1.00  0.00     0.000 C 
BRANCH  15  16
ATOM     16  C   UNL     1       6.583   3.341  -7.391  1.00  0.00     0.006 C 
BRANCH  16  17
ATOM     17  C   UNL     1       6.907   2.027  -8.115  1.00  0.00     0.053 C 
BRANCH  17  18
ATOM     18  C   UNL     1       6.682   0.861  -7.206  1.00  0.00     0.041 C 
ATOM     19  O   UNL     1       5.517   0.564  -6.833  1.00  0.00    -0.550 OA
ATOM     20  O   UNL     1       7.763   0.130  -6.731  1.00  0.00    -0.550 OA
ENDBRANCH  17  18
ENDBRANCH  16  17
ENDBRANCH  15  16
ENDBRANCH  14  15
ENDBRANCH  13  14
ENDBRANCH  12  13
ENDBRANCH  11  12
ENDBRANCH   1  11
TORSDOF 15
ENDMDL
MODEL 5
REMARK VINA RESULT:    -4.306     17.004     19.018
REMARK INTER + INTRA:          -9.111
REMARK INTER:                  -6.767
REMARK INTRA:                  -2.344
REMARK UNBOUND:                -1.028
REMARK SMILES O=C([O-])CCCCCCCCCCCCCCC(=O)[O-]
REMARK SMILES IDX 10 1 9 2 8 3 7 4 6 5 5 6 4 7 2 8 1 9 3 10 11 11 12 12 13 13
REMARK SMILES IDX 14 14 15 15 16 16 17 17 18 18 19 19 20 20
REMARK H PARENT
REMARK Flexibility Score: inf
ROOT
ATOM      1  C   UNL     1       7.145   7.359  -5.944  1.00  0.00     0.000 C 
ENDROOT
BRANCH   1   2
ATOM      2  C   UNL     1       7.777   6.749  -7.201  1.00  0.00     0.000 C 
BRANCH   2   3
ATOM      3  C   UNL     1       8.807   5.671  -6.833  1.00  0.00     0.000 C 
BRANCH   3   4
ATOM      4  C   UNL     1       8.758   4.457  -7.773  1.00  0.00     0.000 C 
BRANCH   4   5
ATOM      5  C   UNL     1       7.474   4.409  -8.615  1.00  0.00     0.000 C 
BRANCH   5   6
ATOM      6  C   UNL     1       6.906   2.983  -8.668  1.00  0.00     0.006 C 
BRANCH   6   7
ATOM      7  C   UNL     1       7.858   1.954  -8.045  1.00  0.00     0.053 C 
BRANCH   7   8
ATOM      8  C   UNL     1       7.116   0.805  -7.435  1.00  0.00     0.041 C 
ATOM      9  O   UNL     1       5.952   0.526  -7.825  1.00  0.00    -0.550 OA
ATOM     10  O   UNL     1       7.696   0.064  -6.413  1.00  0.00    -0.550 OA
ENDBRANCH   7   8
ENDBRANCH   6   7
ENDBRANCH   5   6
ENDBRANCH   4   5
ENDBRANCH   3   4
ENDBRANCH   2   3
ENDBRANCH   1   2
BRANCH   1  11
ATOM     11  C   UNL     1       7.194   6.371  -4.769  1.00  0.00     0.000 C 
BRANCH  11  12
ATOM     12  C   UNL     1       5.832   6.204  -4.078  1.00  0.00     0.000 C 
BRANCH  12  13
ATOM     13  C   UNL     1       5.280   4.775  -4.195  1.00  0.00     0.000 C 
BRANCH  13  14
ATOM     14  C   UNL     1       5.452   4.235  -5.620  1.00  0.00     0.000 C 
BRANCH  14  15
ATOM     15  C   UNL     1       4.088   4.032  -6.300  1.00  0.00     0.000 C 
BRANCH  15  16
ATOM     16  C   UNL     1       3.932   4.874  -7.575  1.00  0.00     0.006 C 
BRANCH  16  17
ATOM     17  C   UNL     1       3.796   6.374  -7.281  1.00  0.00     0.053 C 
BRANCH  17  18
ATOM     18  C   UNL     1       2.496   6.893  -7.809  1.00  0.00     0.041 C 
ATOM     19  O   UNL     1       1.986   7.937  -7.323  1.00  0.00    -0.550 OA
ATOM     20  O   UNL     1       1.824   6.200  -8.807  1.00  0.00    -0.550 OA
ENDBRANCH  17  18
ENDBRANCH  16  17
ENDBRANCH  15  16
ENDBRANCH  14  15
ENDBRANCH  13  14
ENDBRANCH  12  13
ENDBRANCH  11  12
ENDBRANCH   1  11
TORSDOF 15
ENDMDL
MODEL 6
REMARK VINA RESULT:    -4.280      2.315      3.809
REMARK INTER + INTRA:          -9.062
REMARK INTER:                  -7.841
REMARK INTRA:                  -1.221
REMARK UNBOUND:                -1.028
REMARK SMILES O=C([O-])CCCCCCCCCCCCCCC(=O)[O-]
REMARK SMILES IDX 10 1 9 2 8 3 7 4 6 5 5 6 4 7 2 8 1 9 3 10 11 11 12 12 13 13
REMARK SMILES IDX 14 14 15 15 16 16 17 17 18 18 19 19 20 20
REMARK H PARENT
REMARK Flexibility Score: inf
ROOT
ATOM      1  C   UNL     1      -1.689  -2.943   4.949  1.00  0.00     0.000 C 
ENDROOT
BRANCH   1   2
ATOM      2  C   UNL     1      -1.292  -4.364   5.369  1.00  0.00     0.000 C 
BRANCH   2   3
ATOM      3  C   UNL     1      -0.398  -4.341   6.618  1.00  0.00     0.000 C 
BRANCH   3   4
ATOM      4  C   UNL     1      -0.007  -5.748   7.093  1.00  0.00     0.000 C 
BRANCH   4   5
ATOM      5  C   UNL     1      -1.060  -6.378   8.018  1.00  0.00     0.000 C 
BRANCH   5   6
ATOM      6  C   UNL     1      -1.471  -7.769   7.514  1.00  0.00     0.006 C 
BRANCH   6   7
ATOM      7  C   UNL     1      -2.332  -8.526   8.534  1.00  0.00     0.053 C 
BRANCH   7   8
ATOM      8  C   UNL     1      -3.786  -8.199   8.389  1.00  0.00     0.041 C 
ATOM      9  O   UNL     1      -4.502  -8.845   7.580  1.00  0.00    -0.550 OA
ATOM     10  O   UNL     1      -4.343  -7.158   9.120  1.00  0.00    -0.550 OA
ENDBRANCH   7   8
ENDBRANCH   6   7
ENDBRANCH   5   6
ENDBRANCH   4   5
ENDBRANCH   3   4
ENDBRANCH   2   3
ENDBRANCH   1   2
BRANCH   1  11
ATOM     11  C   UNL     1      -1.154  -1.906   5.948  1.00  0.00     0.000 C 
BRANCH  11  12
ATOM     12  C   UNL     1      -1.145  -0.481   5.373  1.00  0.00     0.000 C 
BRANCH  12  13
ATOM     13  C   UNL     1      -1.143   0.598   6.467  1.00  0.00     0.000 C 
BRANCH  13  14
ATOM     14  C   UNL     1      -1.521   0.001   7.828  1.00  0.00     0.000 C 
BRANCH  14  15
ATOM     15  C   UNL     1      -0.340   0.072   8.809  1.00  0.00     0.000 C 
BRANCH  15  16
ATOM     16  C   UNL     1      -0.370  -1.053   9.855  1.00  0.00     0.006 C 
BRANCH  16  17
ATOM     17  C   UNL     1       0.991  -1.741  10.022  1.00  0.00     0.053 C 
BRANCH  17  18
ATOM     18  C   UNL     1       0.836  -3.227   9.959  1.00  0.00     0.041 C 
ATOM     19  O   UNL     1       1.831  -3.959   9.712  1.00  0.00    -0.550 OA
ATOM     20  O   UNL     1      -0.417  -3.804  10.125  1.00  0.00    -0.550 OA
ENDBRANCH  17  18
ENDBRANCH  16  17
ENDBRANCH  15  16
ENDBRANCH  14  15
ENDBRANCH  13  14
ENDBRANCH  12  13
ENDBRANCH  11  12
ENDBRANCH   1  11
TORSDOF 15
ENDMDL
MODEL 7
REMARK VINA RESULT:    -4.218      2.331      7.164
REMARK INTER + INTRA:          -8.944
REMARK INTER:                  -8.067
REMARK INTRA:                  -0.877
REMARK UNBOUND:                -1.028
REMARK SMILES O=C([O-])CCCCCCCCCCCCCCC(=O)[O-]
REMARK SMILES IDX 10 1 9 2 8 3 7 4 6 5 5 6 4 7 2 8 1 9 3 10 11 11 12 12 13 13
REMARK SMILES IDX 14 14 15 15 16 16 17 17 18 18 19 19 20 20
REMARK H PARENT
REMARK Flexibility Score: inf
ROOT
ATOM      1  C   UNL     1      -1.833  -6.591  10.004  1.00  0.00     0.000 C 
ENDROOT
BRANCH   1   2
ATOM      2  C   UNL     1      -0.411  -6.017   9.996  1.00  0.00     0.000 C 
BRANCH   2   3
ATOM      3  C   UNL     1      -0.276  -4.888   8.963  1.00  0.00     0.000 C 
BRANCH   3   4
ATOM      4  C   UNL     1       0.279  -5.378   7.618  1.00  0.00     0.000 C 
BRANCH   4   5
ATOM      5  C   UNL     1      -0.651  -5.055   6.438  1.00  0.00     0.000 C 
BRANCH   5   6
ATOM      6  C   UNL     1      -0.850  -3.539   6.296  1.00  0.00     0.006 C 
BRANCH   6   7
ATOM      7  C   UNL     1      -1.605  -3.170   5.011  1.00  0.00     0.053 C 
BRANCH   7   8
ATOM      8  C   UNL     1      -1.494  -1.710   4.699  1.00  0.00     0.041 C 
ATOM      9  O   UNL     1      -1.562  -1.310   3.508  1.00  0.00    -0.550 OA
ATOM     10  O   UNL     1      -1.281  -0.793   5.721  1.00  0.00    -0.550 OA
ENDBRANCH   7   8
ENDBRANCH   6   7
ENDBRANCH   5   6
ENDBRANCH   4   5
ENDBRANCH   3   4
ENDBRANCH   2   3
ENDBRANCH   1   2
BRANCH   1  11
ATOM     11  C   UNL     1      -2.098  -7.417   8.736  1.00  0.00     0.000 C 
BRANCH  11  12
ATOM     12  C   UNL     1      -2.401  -8.892   9.042  1.00  0.00     0.000 C 
BRANCH  12  13
ATOM     13  C   UNL     1      -3.405  -9.508   8.055  1.00  0.00     0.000 C 
BRANCH  13  14
ATOM     14  C   UNL     1      -4.838  -9.396   8.590  1.00  0.00     0.000 C 
BRANCH  14  15
ATOM     15  C   UNL     1      -5.589  -8.238   7.913  1.00  0.00     0.000 C 
BRANCH  15  16
ATOM     16  C   UNL     1      -5.671  -6.987   8.801  1.00  0.00     0.006 C 
BRANCH  16  17
ATOM     17  C   UNL     1      -7.084  -6.742   9.349  1.00  0.00     0.053 C 
BRANCH  17  18
ATOM     18  C   UNL     1      -7.898  -5.966   8.363  1.00  0.00     0.041 C 
ATOM     19  O   UNL     1      -7.452  -4.891   7.880  1.00  0.00    -0.550 OA
ATOM     20  O   UNL     1      -9.169  -6.401   8.014  1.00  0.00    -0.550 OA
ENDBRANCH  17  18
ENDBRANCH  16  17
ENDBRANCH  15  16
ENDBRANCH  14  15
ENDBRANCH  13  14
ENDBRANCH  12  13
ENDBRANCH  11  12
ENDBRANCH   1  11
TORSDOF 15
ENDMDL
MODEL 8
REMARK VINA RESULT:    -4.172     17.487     19.199
REMARK INTER + INTRA:          -8.858
REMARK INTER:                  -6.304
REMARK INTRA:                  -2.554
REMARK UNBOUND:                -1.028
REMARK SMILES O=C([O-])CCCCCCCCCCCCCCC(=O)[O-]
REMARK SMILES IDX 10 1 9 2 8 3 7 4 6 5 5 6 4 7 2 8 1 9 3 10 11 11 12 12 13 13
REMARK SMILES IDX 14 14 15 15 16 16 17 17 18 18 19 19 20 20
REMARK H PARENT
REMARK Flexibility Score: inf
ROOT
ATOM      1  C   UNL     1       6.722   6.357  -4.400  1.00  0.00     0.000 C 
ENDROOT
BRANCH   1   2
ATOM      2  C   UNL     1       5.623   5.288  -4.439  1.00  0.00     0.000 C 
BRANCH   2   3
ATOM      3  C   UNL     1       4.676   5.513  -5.627  1.00  0.00     0.000 C 
BRANCH   3   4
ATOM      4  C   UNL     1       4.380   4.221  -6.403  1.00  0.00     0.000 C 
BRANCH   4   5
ATOM      5  C   UNL     1       5.580   3.262  -6.442  1.00  0.00     0.000 C 
BRANCH   5   6
ATOM      6  C   UNL     1       6.275   3.308  -7.810  1.00  0.00     0.006 C 
BRANCH   6   7
ATOM      7  C   UNL     1       7.449   2.323  -7.899  1.00  0.00     0.053 C 
BRANCH   7   8
ATOM      8  C   UNL     1       7.007   0.909  -7.679  1.00  0.00     0.041 C 
ATOM      9  O   UNL     1       6.108   0.407  -8.402  1.00  0.00    -0.550 OA
ATOM     10  O   UNL     1       7.564   0.157  -6.652  1.00  0.00    -0.550 OA
ENDBRANCH   7   8
ENDBRANCH   6   7
ENDBRANCH   5   6
ENDBRANCH   4   5
ENDBRANCH   3   4
ENDBRANCH   2   3
ENDBRANCH   1   2
BRANCH   1  11
ATOM     11  C   UNL     1       7.931   5.932  -5.248  1.00  0.00     0.000 C 
BRANCH  11  12
ATOM     12  C   UNL     1       7.985   6.651  -6.604  1.00  0.00     0.000 C 
BRANCH  12  13
ATOM     13  C   UNL     1       7.340   8.045  -6.562  1.00  0.00     0.000 C 
BRANCH  13  14
ATOM     14  C   UNL     1       6.472   8.284  -7.803  1.00  0.00     0.000 C 
BRANCH  14  15
ATOM     15  C   UNL     1       6.285   6.986  -8.604  1.00  0.00     0.000 C 
BRANCH  15  16
ATOM     16  C   UNL     1       4.896   6.886  -9.254  1.00  0.00     0.006 C 
BRANCH  16  17
ATOM     17  C   UNL     1       3.825   7.669  -8.483  1.00  0.00     0.053 C 
BRANCH  17  18
ATOM     18  C   UNL     1       2.591   6.841  -8.319  1.00  0.00     0.041 C 
ATOM     19  O   UNL     1       1.704   7.183  -7.492  1.00  0.00    -0.550 OA
ATOM     20  O   UNL     1       2.438   5.668  -9.045  1.00  0.00    -0.550 OA
ENDBRANCH  17  18
ENDBRANCH  16  17
ENDBRANCH  15  16
ENDBRANCH  14  15
ENDBRANCH  13  14
ENDBRANCH  12  13
ENDBRANCH  11  12
ENDBRANCH   1  11
TORSDOF 15
ENDMDL
MODEL 9
REMARK VINA RESULT:    -4.155     17.089     19.537
REMARK INTER + INTRA:          -8.827
REMARK INTER:                  -6.349
REMARK INTRA:                  -2.478
REMARK UNBOUND:                -1.028
REMARK SMILES O=C([O-])CCCCCCCCCCCCCCC(=O)[O-]
REMARK SMILES IDX 10 1 9 2 8 3 7 4 6 5 5 6 4 7 2 8 1 9 3 10 11 11 12 12 13 13
REMARK SMILES IDX 14 14 15 15 16 16 17 17 18 18 19 19 20 20
REMARK H PARENT
REMARK Flexibility Score: inf
ROOT
ATOM      1  C   UNL     1       5.444   6.005  -4.341  1.00  0.00     0.000 C 
ENDROOT
BRANCH   1   2
ATOM      2  C   UNL     1       5.435   4.475  -4.445  1.00  0.00     0.000 C 
BRANCH   2   3
ATOM      3  C   UNL     1       4.671   4.011  -5.695  1.00  0.00     0.000 C 
BRANCH   3   4
ATOM      4  C   UNL     1       4.198   5.182  -6.569  1.00  0.00     0.000 C 
BRANCH   4   5
ATOM      5  C   UNL     1       4.062   4.801  -8.051  1.00  0.00     0.000 C 
BRANCH   5   6
ATOM      6  C   UNL     1       4.307   6.017  -8.956  1.00  0.00     0.006 C 
BRANCH   6   7
ATOM      7  C   UNL     1       4.200   7.343  -8.189  1.00  0.00     0.053 C 
BRANCH   7   8
ATOM      8  C   UNL     1       2.842   7.958  -8.328  1.00  0.00     0.041 C 
ATOM      9  O   UNL     1       2.626   8.822  -9.218  1.00  0.00    -0.550 OA
ATOM     10  O   UNL     1       1.823   7.603  -7.452  1.00  0.00    -0.550 OA
ENDBRANCH   7   8
ENDBRANCH   6   7
ENDBRANCH   5   6
ENDBRANCH   4   5
ENDBRANCH   3   4
ENDBRANCH   2   3
ENDBRANCH   1   2
BRANCH   1  11
ATOM     11  C   UNL     1       6.882   6.546  -4.326  1.00  0.00     0.000 C 
BRANCH  11  12
ATOM     12  C   UNL     1       7.759   5.928  -5.425  1.00  0.00     0.000 C 
BRANCH  12  13
ATOM     13  C   UNL     1       7.575   6.618  -6.786  1.00  0.00     0.000 C 
BRANCH  13  14
ATOM     14  C   UNL     1       7.722   5.612  -7.935  1.00  0.00     0.000 C 
BRANCH  14  15
ATOM     15  C   UNL     1       7.975   4.195  -7.396  1.00  0.00     0.000 C 
BRANCH  15  16
ATOM     16  C   UNL     1       7.426   3.102  -8.326  1.00  0.00     0.006 C 
BRANCH  16  17
ATOM     17  C   UNL     1       8.222   1.793  -8.234  1.00  0.00     0.053 C 
BRANCH  17  18
ATOM     18  C   UNL     1       7.474   0.784  -7.421  1.00  0.00     0.041 C 
ATOM     19  O   UNL     1       8.100  -0.032  -6.693  1.00  0.00    -0.550 OA
ATOM     20  O   UNL     1       6.090   0.712  -7.503  1.00  0.00    -0.550 OA
ENDBRANCH  17  18
ENDBRANCH  16  17
ENDBRANCH  15  16
ENDBRANCH  14  15
ENDBRANCH  13  14
ENDBRANCH  12  13
ENDBRANCH  11  12
ENDBRANCH   1  11
TORSDOF 15
ENDMDL
