MODEL 1
REMARK VINA RESULT:    -5.113      0.000      0.000
REMARK INTER + INTRA:          -6.133
REMARK INTER:                  -6.010
REMARK INTRA:                  -0.123
REMARK UNBOUND:                -0.123
REMARK SMILES O=C([O-])C=Cc1ccc(O)c(O)c1
REMARK SMILES IDX 6 1 13 2 7 3 11 4 8 5 9 6 5 7 4 8 2 9 1 10 3 11 12 12 10 14
REMARK H PARENT 12 13 10 15
REMARK Flexibility Score: inf
ROOT
ATOM      1  C   UNL     1       7.936  -6.836  -7.842  1.00  0.00    -0.022 A 
ATOM      2  C   UNL     1       7.860  -5.693  -7.021  1.00  0.00     0.058 A 
ATOM      3  C   UNL     1       7.940  -8.105  -7.241  1.00  0.00     0.012 A 
ATOM      4  C   UNL     1       7.815  -5.822  -5.625  1.00  0.00     0.157 A 
ATOM      5  C   UNL     1       7.896  -8.232  -5.850  1.00  0.00     0.051 A 
ATOM      6  C   UNL     1       7.837  -7.093  -5.038  1.00  0.00     0.157 A 
ENDROOT
BRANCH   1   7
ATOM      7  C   UNL     1       7.974  -6.754  -9.324  1.00  0.00     0.010 C 
ATOM      8  C   UNL     1       8.292  -5.639  -9.999  1.00  0.00     0.025 C 
BRANCH   8   9
ATOM      9  C   UNL     1       8.331  -5.598 -11.471  1.00  0.00     0.064 C 
ATOM     10  O   UNL     1       8.921  -6.492 -12.134  1.00  0.00    -0.545 OA
ATOM     11  O   UNL     1       7.702  -4.556 -12.141  1.00  0.00    -0.545 OA
ENDBRANCH   8   9
ENDBRANCH   1   7
BRANCH   4  12
ATOM     12  O   UNL     1       7.744  -4.691  -4.813  1.00  0.00    -0.504 OA
ATOM     13  H   UNL     1       7.440  -4.749  -3.847  1.00  0.00     0.293 HD
ENDBRANCH   4  12
BRANCH   6  14
ATOM     14  O   UNL     1       7.796  -7.216  -3.651  1.00  0.00    -0.504 OA
ATOM     15  H   UNL     1       8.640  -7.342  -3.104  1.00  0.00     0.293 HD
ENDBRANCH   6  14
TORSDOF 4
ENDMDL
MODEL 2
REMARK VINA RESULT:    -5.054     14.097     17.450
REMARK INTER + INTRA:          -6.064
REMARK INTER:                  -5.927
REMARK INTRA:                  -0.137
REMARK UNBOUND:                -0.123
REMARK SMILES O=C([O-])C=Cc1ccc(O)c(O)c1
REMARK SMILES IDX 6 1 13 2 7 3 11 4 8 5 9 6 5 7 4 8 2 9 1 10 3 11 12 12 10 14
REMARK H PARENT 12 13 10 15
REMARK Flexibility Score: inf
ROOT
ATOM      1  C   UNL     1      19.555  -0.983 -18.406  1.00  0.00    -0.022 A 
ATOM      2  C   UNL     1      19.110  -0.982 -19.743  1.00  0.00     0.058 A 
ATOM      3  C   UNL     1      20.717  -0.266 -18.076  1.00  0.00     0.012 A 
ATOM      4  C   UNL     1      19.831  -0.297 -20.733  1.00  0.00     0.157 A 
ATOM      5  C   UNL     1      21.436   0.414 -19.063  1.00  0.00     0.051 A 
ATOM      6  C   UNL     1      20.998   0.399 -20.393  1.00  0.00     0.157 A 
ENDROOT
BRANCH   1   7
ATOM      7  C   UNL     1      18.822  -1.682 -17.321  1.00  0.00     0.010 C 
ATOM      8  C   UNL     1      18.427  -1.085 -16.186  1.00  0.00     0.025 C 
BRANCH   8   9
ATOM      9  C   UNL     1      17.690  -1.808 -15.135  1.00  0.00     0.064 C 
ATOM     10  O   UNL     1      16.574  -1.397 -14.720  1.00  0.00    -0.545 OA
ATOM     11  O   UNL     1      18.235  -2.965 -14.593  1.00  0.00    -0.545 OA
ENDBRANCH   8   9
ENDBRANCH   1   7
BRANCH   4  12
ATOM     12  O   UNL     1      19.393  -0.300 -22.056  1.00  0.00    -0.504 OA
ATOM     13  H   UNL     1      19.475  -1.125 -22.640  1.00  0.00     0.293 HD
ENDBRANCH   4  12
BRANCH   6  14
ATOM     14  O   UNL     1      21.713   1.075 -21.379  1.00  0.00    -0.504 OA
ATOM     15  H   UNL     1      21.823   2.082 -21.359  1.00  0.00     0.293 HD
ENDBRANCH   6  14
TORSDOF 4
ENDMDL
MODEL 3
REMARK VINA RESULT:    -4.897     14.010     17.206
REMARK INTER + INTRA:          -5.879
REMARK INTER:                  -5.756
REMARK INTRA:                  -0.123
REMARK UNBOUND:                -0.123
REMARK SMILES O=C([O-])C=Cc1ccc(O)c(O)c1
REMARK SMILES IDX 6 1 13 2 7 3 11 4 8 5 9 6 5 7 4 8 2 9 1 10 3 11 12 12 10 14
REMARK H PARENT 12 13 10 15
REMARK Flexibility Score: inf
ROOT
ATOM      1  C   UNL     1      19.449  -1.017 -18.204  1.00  0.00    -0.022 A 
ATOM      2  C   UNL     1      20.640  -0.306 -17.953  1.00  0.00     0.058 A 
ATOM      3  C   UNL     1      18.972  -1.098 -19.522  1.00  0.00     0.012 A 
ATOM      4  C   UNL     1      21.323   0.331 -19.000  1.00  0.00     0.157 A 
ATOM      5  C   UNL     1      19.652  -0.462 -20.564  1.00  0.00     0.051 A 
ATOM      6  C   UNL     1      20.827   0.256 -20.307  1.00  0.00     0.157 A 
ENDROOT
BRANCH   1   7
ATOM      7  C   UNL     1      18.696  -1.717 -17.133  1.00  0.00     0.010 C 
ATOM      8  C   UNL     1      18.307  -1.130 -15.992  1.00  0.00     0.025 C 
BRANCH   8   9
ATOM      9  C   UNL     1      17.550  -1.854 -14.956  1.00  0.00     0.064 C 
ATOM     10  O   UNL     1      17.966  -2.946 -14.486  1.00  0.00    -0.545 OA
ATOM     11  O   UNL     1      16.355  -1.322 -14.488  1.00  0.00    -0.545 OA
ENDBRANCH   8   9
ENDBRANCH   1   7
BRANCH   4  12
ATOM     12  O   UNL     1      22.499   1.037 -18.750  1.00  0.00    -0.504 OA
ATOM     13  H   UNL     1      22.820   1.215 -17.804  1.00  0.00     0.293 HD
ENDBRANCH   4  12
BRANCH   6  14
ATOM     14  O   UNL     1      21.507   0.893 -21.343  1.00  0.00    -0.504 OA
ATOM     15  H   UNL     1      22.187   0.402 -21.911  1.00  0.00     0.293 HD
ENDBRANCH   6  14
TORSDOF 4
ENDMDL
MODEL 4
REMARK VINA RESULT:    -4.895      2.313      2.799
REMARK INTER + INTRA:          -5.876
REMARK INTER:                  -5.751
REMARK INTRA:                  -0.125
REMARK UNBOUND:                -0.123
REMARK SMILES O=C([O-])C=Cc1ccc(O)c(O)c1
REMARK SMILES IDX 6 1 13 2 7 3 11 4 8 5 9 6 5 7 4 8 2 9 1 10 3 11 12 12 10 14
REMARK H PARENT 12 13 10 15
REMARK Flexibility Score: inf
ROOT
ATOM      1  C   UNL     1       9.254  -6.905  -8.122  1.00  0.00    -0.022 A 
ATOM      2  C   UNL     1      10.141  -6.167  -7.314  1.00  0.00     0.058 A 
ATOM      3  C   UNL     1       7.883  -6.883  -7.820  1.00  0.00     0.012 A 
ATOM      4  C   UNL     1       9.665  -5.445  -6.209  1.00  0.00     0.157 A 
ATOM      5  C   UNL     1       7.409  -6.165  -6.720  1.00  0.00     0.051 A 
ATOM      6  C   UNL     1       8.297  -5.446  -5.909  1.00  0.00     0.157 A 
ENDROOT
BRANCH   1   7
ATOM      7  C   UNL     1       9.707  -7.675  -9.308  1.00  0.00     0.010 C 
ATOM      8  C   UNL     1      10.754  -7.324 -10.068  1.00  0.00     0.025 C 
BRANCH   8   9
ATOM      9  C   UNL     1      11.182  -8.120 -11.231  1.00  0.00     0.064 C 
ATOM     10  O   UNL     1      12.045  -9.031 -11.117  1.00  0.00    -0.545 OA
ATOM     11  O   UNL     1      10.623  -7.863 -12.476  1.00  0.00    -0.545 OA
ENDBRANCH   8   9
ENDBRANCH   1   7
BRANCH   4  12
ATOM     12  O   UNL     1      10.544  -4.719  -5.407  1.00  0.00    -0.504 OA
ATOM     13  H   UNL     1      10.397  -3.734  -5.215  1.00  0.00     0.293 HD
ENDBRANCH   4  12
BRANCH   6  14
ATOM     14  O   UNL     1       7.828  -4.731  -4.810  1.00  0.00    -0.504 OA
ATOM     15  H   UNL     1       7.146  -3.988  -4.912  1.00  0.00     0.293 HD
ENDBRANCH   6  14
TORSDOF 4
ENDMDL
MODEL 5
REMARK VINA RESULT:    -4.843      1.349      1.570
REMARK INTER + INTRA:          -5.816
REMARK INTER:                  -5.691
REMARK INTRA:                  -0.125
REMARK UNBOUND:                -0.123
REMARK SMILES O=C([O-])C=Cc1ccc(O)c(O)c1
REMARK SMILES IDX 6 1 13 2 7 3 11 4 8 5 9 6 5 7 4 8 2 9 1 10 3 11 12 12 10 14
REMARK H PARENT 12 13 10 15
REMARK Flexibility Score: inf
ROOT
ATOM      1  C   UNL     1       8.537  -6.608  -7.578  1.00  0.00    -0.022 A 
ATOM      2  C   UNL     1       8.517  -5.624  -6.571  1.00  0.00     0.058 A 
ATOM      3  C   UNL     1       8.148  -7.919  -7.255  1.00  0.00     0.012 A 
ATOM      4  C   UNL     1       8.139  -5.953  -5.260  1.00  0.00     0.157 A 
ATOM      5  C   UNL     1       7.773  -8.247  -5.950  1.00  0.00     0.051 A 
ATOM      6  C   UNL     1       7.770  -7.267  -4.948  1.00  0.00     0.157 A 
ENDROOT
BRANCH   1   7
ATOM      7  C   UNL     1       8.918  -6.308  -8.981  1.00  0.00     0.010 C 
ATOM      8  C   UNL     1      10.183  -6.120  -9.385  1.00  0.00     0.025 C 
BRANCH   8   9
ATOM      9  C   UNL     1      10.524  -5.835 -10.789  1.00  0.00     0.064 C 
ATOM     10  O   UNL     1      11.288  -4.881 -11.095  1.00  0.00    -0.545 OA
ATOM     11  O   UNL     1       9.996  -6.635 -11.795  1.00  0.00    -0.545 OA
ENDBRANCH   8   9
ENDBRANCH   1   7
BRANCH   4  12
ATOM     12  O   UNL     1       8.123  -4.979  -4.263  1.00  0.00    -0.504 OA
ATOM     13  H   UNL     1       8.729  -4.167  -4.306  1.00  0.00     0.293 HD
ENDBRANCH   4  12
BRANCH   6  14
ATOM     14  O   UNL     1       7.398  -7.591  -3.645  1.00  0.00    -0.504 OA
ATOM     15  H   UNL     1       7.916  -7.247  -2.845  1.00  0.00     0.293 HD
ENDBRANCH   6  14
TORSDOF 4
ENDMDL
MODEL 6
REMARK VINA RESULT:    -4.808      2.254      2.768
REMARK INTER + INTRA:          -5.774
REMARK INTER:                  -5.625
REMARK INTRA:                  -0.149
REMARK UNBOUND:                -0.123
REMARK SMILES O=C([O-])C=Cc1ccc(O)c(O)c1
REMARK SMILES IDX 6 1 13 2 7 3 11 4 8 5 9 6 5 7 4 8 2 9 1 10 3 11 12 12 10 14
REMARK H PARENT 12 13 10 15
REMARK Flexibility Score: inf
ROOT
ATOM      1  C   UNL     1       8.356  -6.994  -8.597  1.00  0.00    -0.022 A 
ATOM      2  C   UNL     1       7.622  -6.336  -7.590  1.00  0.00     0.058 A 
ATOM      3  C   UNL     1       9.759  -6.948  -8.555  1.00  0.00     0.012 A 
ATOM      4  C   UNL     1       8.283  -5.625  -6.577  1.00  0.00     0.157 A 
ATOM      5  C   UNL     1      10.417  -6.238  -7.547  1.00  0.00     0.051 A 
ATOM      6  C   UNL     1       9.682  -5.573  -6.557  1.00  0.00     0.157 A 
ENDROOT
BRANCH   1   7
ATOM      7  C   UNL     1       7.705  -7.769  -9.683  1.00  0.00     0.010 C 
ATOM      8  C   UNL     1       8.248  -7.951 -10.896  1.00  0.00     0.025 C 
BRANCH   8   9
ATOM      9  C   UNL     1       7.577  -8.736 -11.946  1.00  0.00     0.064 C 
ATOM     10  O   UNL     1       6.386  -9.123 -11.812  1.00  0.00    -0.545 OA
ATOM     11  O   UNL     1       8.271  -9.056 -13.106  1.00  0.00    -0.545 OA
ENDBRANCH   8   9
ENDBRANCH   1   7
BRANCH   4  12
ATOM     12  O   UNL     1       7.556  -4.970  -5.584  1.00  0.00    -0.504 OA
ATOM     13  H   UNL     1       7.290  -5.440  -4.725  1.00  0.00     0.293 HD
ENDBRANCH   4  12
BRANCH   6  14
ATOM     14  O   UNL     1      10.334  -4.863  -5.552  1.00  0.00    -0.504 OA
ATOM     15  H   UNL     1      10.381  -3.850  -5.562  1.00  0.00     0.293 HD
ENDBRANCH   6  14
TORSDOF 4
ENDMDL
MODEL 7
REMARK VINA RESULT:    -4.781     15.163     17.742
REMARK INTER + INTRA:          -5.743
REMARK INTER:                  -5.593
REMARK INTRA:                  -0.150
REMARK UNBOUND:                -0.123
REMARK SMILES O=C([O-])C=Cc1ccc(O)c(O)c1
REMARK SMILES IDX 6 1 13 2 7 3 11 4 8 5 9 6 5 7 4 8 2 9 1 10 3 11 12 12 10 14
REMARK H PARENT 12 13 10 15
REMARK Flexibility Score: inf
ROOT
ATOM      1  C   UNL     1      11.840   5.936 -19.310  1.00  0.00    -0.022 A 
ATOM      2  C   UNL     1      11.166   5.099 -20.220  1.00  0.00     0.058 A 
ATOM      3  C   UNL     1      12.549   5.353 -18.247  1.00  0.00     0.012 A 
ATOM      4  C   UNL     1      11.181   3.706 -20.052  1.00  0.00     0.157 A 
ATOM      5  C   UNL     1      12.563   3.966 -18.079  1.00  0.00     0.051 A 
ATOM      6  C   UNL     1      11.878   3.139 -18.979  1.00  0.00     0.157 A 
ENDROOT
BRANCH   1   7
ATOM      7  C   UNL     1      11.863   7.414 -19.450  1.00  0.00     0.010 C 
ATOM      8  C   UNL     1      12.772   8.203 -18.859  1.00  0.00     0.025 C 
BRANCH   8   9
ATOM      9  C   UNL     1      12.772   9.666 -19.030  1.00  0.00     0.064 C 
ATOM     10  O   UNL     1      13.836  10.296 -19.273  1.00  0.00    -0.545 OA
ATOM     11  O   UNL     1      11.575  10.365 -18.925  1.00  0.00    -0.545 OA
ENDBRANCH   8   9
ENDBRANCH   1   7
BRANCH   4  12
ATOM     12  O   UNL     1      10.510   2.878 -20.951  1.00  0.00    -0.504 OA
ATOM     13  H   UNL     1      10.914   2.634 -21.849  1.00  0.00     0.293 HD
ENDBRANCH   4  12
BRANCH   6  14
ATOM     14  O   UNL     1      11.888   1.755 -18.814  1.00  0.00    -0.504 OA
ATOM     15  H   UNL     1      11.661   1.128 -19.577  1.00  0.00     0.293 HD
ENDBRANCH   6  14
TORSDOF 4
ENDMDL
MODEL 8
REMARK VINA RESULT:    -4.642      2.590      3.319
REMARK INTER + INTRA:          -5.579
REMARK INTER:                  -5.429
REMARK INTRA:                  -0.150
REMARK UNBOUND:                -0.123
REMARK SMILES O=C([O-])C=Cc1ccc(O)c(O)c1
REMARK SMILES IDX 6 1 13 2 7 3 11 4 8 5 9 6 5 7 4 8 2 9 1 10 3 11 12 12 10 14
REMARK H PARENT 12 13 10 15
REMARK Flexibility Score: inf
ROOT
ATOM      1  C   UNL     1       9.404  -6.124  -9.079  1.00  0.00    -0.022 A 
ATOM      2  C   UNL     1       8.092  -5.611  -9.122  1.00  0.00     0.058 A 
ATOM      3  C   UNL     1      10.034  -6.273  -7.833  1.00  0.00     0.012 A 
ATOM      4  C   UNL     1       7.437  -5.232  -7.941  1.00  0.00     0.157 A 
ATOM      5  C   UNL     1       9.382  -5.894  -6.657  1.00  0.00     0.051 A 
ATOM      6  C   UNL     1       8.084  -5.370  -6.707  1.00  0.00     0.157 A 
ENDROOT
BRANCH   1   7
ATOM      7  C   UNL     1      10.136  -6.550 -10.299  1.00  0.00     0.010 C 
ATOM      8  C   UNL     1      11.134  -7.446 -10.292  1.00  0.00     0.025 C 
BRANCH   8   9
ATOM      9  C   UNL     1      11.829  -7.855 -11.525  1.00  0.00     0.064 C 
ATOM     10  O   UNL     1      11.201  -8.025 -12.603  1.00  0.00    -0.545 OA
ATOM     11  O   UNL     1      13.204  -8.053 -11.498  1.00  0.00    -0.545 OA
ENDBRANCH   8   9
ENDBRANCH   1   7
BRANCH   4  12
ATOM     12  O   UNL     1       6.141  -4.721  -7.985  1.00  0.00    -0.504 OA
ATOM     13  H   UNL     1       5.962  -3.724  -7.941  1.00  0.00     0.293 HD
ENDBRANCH   4  12
BRANCH   6  14
ATOM     14  O   UNL     1       7.431  -4.989  -5.537  1.00  0.00    -0.504 OA
ATOM     15  H   UNL     1       6.512  -4.561  -5.557  1.00  0.00     0.293 HD
ENDBRANCH   6  14
TORSDOF 4
ENDMDL
MODEL 9
REMARK VINA RESULT:    -4.595      1.228      2.167
REMARK INTER + INTRA:          -5.523
REMARK INTER:                  -5.370
REMARK INTRA:                  -0.153
REMARK UNBOUND:                -0.123
REMARK SMILES O=C([O-])C=Cc1ccc(O)c(O)c1
REMARK SMILES IDX 6 1 13 2 7 3 11 4 8 5 9 6 5 7 4 8 2 9 1 10 3 11 12 12 10 14
REMARK H PARENT 12 13 10 15
REMARK Flexibility Score: inf
ROOT
ATOM      1  C   UNL     1       7.949  -7.111  -7.482  1.00  0.00    -0.022 A 
ATOM      2  C   UNL     1       7.676  -7.896  -6.345  1.00  0.00     0.058 A 
ATOM      3  C   UNL     1       8.358  -5.779  -7.306  1.00  0.00     0.012 A 
ATOM      4  C   UNL     1       7.786  -7.348  -5.058  1.00  0.00     0.157 A 
ATOM      5  C   UNL     1       8.465  -5.233  -6.024  1.00  0.00     0.051 A 
ATOM      6  C   UNL     1       8.177  -6.013  -4.897  1.00  0.00     0.157 A 
ENDROOT
BRANCH   1   7
ATOM      7  C   UNL     1       7.859  -7.647  -8.864  1.00  0.00     0.010 C 
ATOM      8  C   UNL     1       8.203  -6.949  -9.956  1.00  0.00     0.025 C 
BRANCH   8   9
ATOM      9  C   UNL     1       8.111  -7.519 -11.312  1.00  0.00     0.064 C 
ATOM     10  O   UNL     1       7.333  -8.476 -11.567  1.00  0.00    -0.545 OA
ATOM     11  O   UNL     1       8.896  -6.989 -12.328  1.00  0.00    -0.545 OA
ENDBRANCH   8   9
ENDBRANCH   1   7
BRANCH   4  12
ATOM     12  O   UNL     1       7.511  -8.124  -3.933  1.00  0.00    -0.504 OA
ATOM     13  H   UNL     1       8.197  -8.767  -3.552  1.00  0.00     0.293 HD
ENDBRANCH   4  12
BRANCH   6  14
ATOM     14  O   UNL     1       8.282  -5.472  -3.618  1.00  0.00    -0.504 OA
ATOM     15  H   UNL     1       9.167  -5.136  -3.255  1.00  0.00     0.293 HD
ENDBRANCH   6  14
TORSDOF 4
ENDMDL
