MODEL 1
REMARK VINA RESULT:    -3.941      0.000      0.000
REMARK INTER + INTRA:          -6.895
REMARK INTER:                  -6.014
REMARK INTRA:                  -0.881
REMARK UNBOUND:                -0.881
REMARK SMILES O=C([O-])CCCCCCCCC(=O)[O-]
REMARK SMILES IDX 7 1 6 2 5 3 4 4 2 5 1 6 3 7 8 8 9 9 10 10 11 11 12 12 13 13
REMARK SMILES IDX 14 14
REMARK H PARENT
REMARK Flexibility Score: inf
ROOT
ATOM      1  C   UNL     1      50.866  24.199  36.205  1.00  0.00     0.000 C 
ENDROOT
BRANCH   1   2
ATOM      2  C   UNL     1      49.764  25.261  36.109  1.00  0.00     0.000 C 
BRANCH   2   3
ATOM      3  C   UNL     1      50.286  26.537  35.439  1.00  0.00     0.006 C 
BRANCH   3   4
ATOM      4  C   UNL     1      50.013  26.518  33.933  1.00  0.00     0.053 C 
BRANCH   4   5
ATOM      5  C   UNL     1      51.180  25.941  33.195  1.00  0.00     0.041 C 
ATOM      6  O   UNL     1      51.009  25.007  32.369  1.00  0.00    -0.550 OA
ATOM      7  O   UNL     1      52.451  26.470  33.383  1.00  0.00    -0.550 OA
ENDBRANCH   4   5
ENDBRANCH   3   4
ENDBRANCH   2   3
ENDBRANCH   1   2
BRANCH   1   8
ATOM      8  C   UNL     1      50.539  22.985  35.326  1.00  0.00     0.000 C 
BRANCH   8   9
ATOM      9  C   UNL     1      49.027  22.766  35.146  1.00  0.00     0.000 C 
BRANCH   9  10
ATOM     10  C   UNL     1      48.567  22.800  33.673  1.00  0.00     0.006 C 
BRANCH  10  11
ATOM     11  C   UNL     1      47.282  23.618  33.485  1.00  0.00     0.053 C 
BRANCH  11  12
ATOM     12  C   UNL     1      46.183  22.752  32.958  1.00  0.00     0.041 C 
ATOM     13  O   UNL     1      46.401  21.961  32.002  1.00  0.00    -0.550 OA
ATOM     14  O   UNL     1      44.903  22.852  33.489  1.00  0.00    -0.550 OA
ENDBRANCH  11  12
ENDBRANCH  10  11
ENDBRANCH   9  10
ENDBRANCH   8   9
ENDBRANCH   1   8
TORSDOF 9
ENDMDL
MODEL 2
REMARK VINA RESULT:    -3.924      3.257      4.706
REMARK INTER + INTRA:          -6.869
REMARK INTER:                  -6.036
REMARK INTRA:                  -0.833
REMARK UNBOUND:                -0.881
REMARK SMILES O=C([O-])CCCCCCCCC(=O)[O-]
REMARK SMILES IDX 7 1 6 2 5 3 4 4 2 5 1 6 3 7 8 8 9 9 10 10 11 11 12 12 13 13
REMARK SMILES IDX 14 14
REMARK H PARENT
REMARK Flexibility Score: inf
ROOT
ATOM      1  C   UNL     1      52.827  26.255  34.472  1.00  0.00     0.000 C 
ENDROOT
BRANCH   1   2
ATOM      2  C   UNL     1      54.121  26.954  34.041  1.00  0.00     0.000 C 
BRANCH   2   3
ATOM      3  C   UNL     1      53.944  28.477  34.019  1.00  0.00     0.006 C 
BRANCH   3   4
ATOM      4  C   UNL     1      52.895  28.923  35.041  1.00  0.00     0.053 C 
BRANCH   4   5
ATOM      5  C   UNL     1      53.553  29.576  36.216  1.00  0.00     0.041 C 
ATOM      6  O   UNL     1      53.206  30.732  36.575  1.00  0.00    -0.550 OA
ATOM      7  O   UNL     1      54.513  28.888  36.945  1.00  0.00    -0.550 OA
ENDBRANCH   4   5
ENDBRANCH   3   4
ENDBRANCH   2   3
ENDBRANCH   1   2
BRANCH   1   8
ATOM      8  C   UNL     1      52.255  25.402  33.331  1.00  0.00     0.000 C 
BRANCH   8   9
ATOM      9  C   UNL     1      50.844  25.841  32.905  1.00  0.00     0.000 C 
BRANCH   9  10
ATOM     10  C   UNL     1      50.124  26.715  33.954  1.00  0.00     0.006 C 
BRANCH  10  11
ATOM     11  C   UNL     1      48.890  26.016  34.542  1.00  0.00     0.053 C 
BRANCH  11  12
ATOM     12  C   UNL     1      49.284  24.741  35.219  1.00  0.00     0.041 C 
ATOM     13  O   UNL     1      48.800  23.643  34.836  1.00  0.00    -0.550 OA
ATOM     14  O   UNL     1      50.149  24.769  36.306  1.00  0.00    -0.550 OA
ENDBRANCH  11  12
ENDBRANCH  10  11
ENDBRANCH   9  10
ENDBRANCH   8   9
ENDBRANCH   1   8
TORSDOF 9
ENDMDL
MODEL 3
REMARK VINA RESULT:    -3.887      3.599      7.050
REMARK INTER + INTRA:          -6.814
REMARK INTER:                  -6.102
REMARK INTRA:                  -0.712
REMARK UNBOUND:                -0.881
REMARK SMILES O=C([O-])CCCCCCCCC(=O)[O-]
REMARK SMILES IDX 7 1 6 2 5 3 4 4 2 5 1 6 3 7 8 8 9 9 10 10 11 11 12 12 13 13
REMARK SMILES IDX 14 14
REMARK H PARENT
REMARK Flexibility Score: inf
ROOT
ATOM      1  C   UNL     1      52.585  25.625  33.605  1.00  0.00     0.000 C 
ENDROOT
BRANCH   1   2
ATOM      2  C   UNL     1      51.218  26.220  33.252  1.00  0.00     0.000 C 
BRANCH   2   3
ATOM      3  C   UNL     1      50.137  25.133  33.215  1.00  0.00     0.006 C 
BRANCH   3   4
ATOM      4  C   UNL     1      48.986  25.469  34.166  1.00  0.00     0.053 C 
BRANCH   4   5
ATOM      5  C   UNL     1      49.472  25.521  35.580  1.00  0.00     0.041 C 
ATOM      6  O   UNL     1      49.965  24.495  36.119  1.00  0.00    -0.550 OA
ATOM      7  O   UNL     1      49.426  26.715  36.287  1.00  0.00    -0.550 OA
ENDBRANCH   4   5
ENDBRANCH   3   4
ENDBRANCH   2   3
ENDBRANCH   1   2
BRANCH   1   8
ATOM      8  C   UNL     1      53.277  26.446  34.702  1.00  0.00     0.000 C 
BRANCH   8   9
ATOM      9  C   UNL     1      52.503  27.722  35.073  1.00  0.00     0.000 C 
BRANCH   9  10
ATOM     10  C   UNL     1      53.239  29.025  34.696  1.00  0.00     0.006 C 
BRANCH  10  11
ATOM     11  C   UNL     1      52.883  30.185  35.636  1.00  0.00     0.053 C 
BRANCH  11  12
ATOM     12  C   UNL     1      53.658  30.081  36.911  1.00  0.00     0.041 C 
ATOM     13  O   UNL     1      54.837  29.636  36.903  1.00  0.00    -0.550 OA
ATOM     14  O   UNL     1      53.063  30.428  38.117  1.00  0.00    -0.550 OA
ENDBRANCH  11  12
ENDBRANCH  10  11
ENDBRANCH   9  10
ENDBRANCH   8   9
ENDBRANCH   1   8
TORSDOF 9
ENDMDL
MODEL 4
REMARK VINA RESULT:    -3.864      3.318      5.946
REMARK INTER + INTRA:          -6.779
REMARK INTER:                  -5.891
REMARK INTRA:                  -0.888
REMARK UNBOUND:                -0.881
REMARK SMILES O=C([O-])CCCCCCCCC(=O)[O-]
REMARK SMILES IDX 7 1 6 2 5 3 4 4 2 5 1 6 3 7 8 8 9 9 10 10 11 11 12 12 13 13
REMARK SMILES IDX 14 14
REMARK H PARENT
REMARK Flexibility Score: inf
ROOT
ATOM      1  C   UNL     1      48.693  25.742  34.632  1.00  0.00     0.000 C 
ENDROOT
BRANCH   1   2
ATOM      2  C   UNL     1      48.863  24.317  34.094  1.00  0.00     0.000 C 
BRANCH   2   3
ATOM      3  C   UNL     1      49.185  23.335  35.227  1.00  0.00     0.006 C 
BRANCH   3   4
ATOM      4  C   UNL     1      50.543  22.665  35.004  1.00  0.00     0.053 C 
BRANCH   4   5
ATOM      5  C   UNL     1      51.618  23.399  35.742  1.00  0.00     0.041 C 
ATOM      6  O   UNL     1      51.316  24.243  36.626  1.00  0.00    -0.550 OA
ATOM      7  O   UNL     1      52.953  23.114  35.489  1.00  0.00    -0.550 OA
ENDBRANCH   4   5
ENDBRANCH   3   4
ENDBRANCH   2   3
ENDBRANCH   1   2
BRANCH   1   8
ATOM      8  C   UNL     1      49.517  26.744  33.810  1.00  0.00     0.000 C 
BRANCH   8   9
ATOM      9  C   UNL     1      50.844  26.154  33.304  1.00  0.00     0.000 C 
BRANCH   9  10
ATOM     10  C   UNL     1      52.069  26.571  34.146  1.00  0.00     0.006 C 
BRANCH  10  11
ATOM     11  C   UNL     1      51.734  27.690  35.142  1.00  0.00     0.053 C 
BRANCH  11  12
ATOM     12  C   UNL     1      52.722  28.807  35.024  1.00  0.00     0.041 C 
ATOM     13  O   UNL     1      53.582  28.800  34.104  1.00  0.00    -0.550 OA
ATOM     14  O   UNL     1      52.726  29.833  35.961  1.00  0.00    -0.550 OA
ENDBRANCH  11  12
ENDBRANCH  10  11
ENDBRANCH   9  10
ENDBRANCH   8   9
ENDBRANCH   1   8
TORSDOF 9
ENDMDL
MODEL 5
REMARK VINA RESULT:    -3.861      4.160      5.650
REMARK INTER + INTRA:          -6.774
REMARK INTER:                  -6.120
REMARK INTRA:                  -0.654
REMARK UNBOUND:                -0.881
REMARK SMILES O=C([O-])CCCCCCCCC(=O)[O-]
REMARK SMILES IDX 7 1 6 2 5 3 4 4 2 5 1 6 3 7 8 8 9 9 10 10 11 11 12 12 13 13
REMARK SMILES IDX 14 14
REMARK H PARENT
REMARK Flexibility Score: inf
ROOT
ATOM      1  C   UNL     1      53.010  27.599  35.332  1.00  0.00     0.000 C 
ENDROOT
BRANCH   1   2
ATOM      2  C   UNL     1      52.266  28.938  35.366  1.00  0.00     0.000 C 
BRANCH   2   3
ATOM      3  C   UNL     1      53.030  29.972  36.201  1.00  0.00     0.006 C 
BRANCH   3   4
ATOM      4  C   UNL     1      54.354  29.397  36.711  1.00  0.00     0.053 C 
BRANCH   4   5
ATOM      5  C   UNL     1      55.086  30.413  37.531  1.00  0.00     0.041 C 
ATOM      6  O   UNL     1      54.781  31.632  37.450  1.00  0.00    -0.550 OA
ATOM      7  O   UNL     1      56.071  30.007  38.422  1.00  0.00    -0.550 OA
ENDBRANCH   4   5
ENDBRANCH   3   4
ENDBRANCH   2   3
ENDBRANCH   1   2
BRANCH   1   8
ATOM      8  C   UNL     1      52.971  26.982  33.926  1.00  0.00     0.000 C 
BRANCH   8   9
ATOM      9  C   UNL     1      52.055  25.750  33.838  1.00  0.00     0.000 C 
BRANCH   9  10
ATOM     10  C   UNL     1      50.796  25.975  32.974  1.00  0.00     0.006 C 
BRANCH  10  11
ATOM     11  C   UNL     1      49.726  26.792  33.710  1.00  0.00     0.053 C 
BRANCH  11  12
ATOM     12  C   UNL     1      49.254  26.061  34.926  1.00  0.00     0.041 C 
ATOM     13  O   UNL     1      49.463  26.537  36.074  1.00  0.00    -0.550 OA
ATOM     14  O   UNL     1      48.626  24.829  34.797  1.00  0.00    -0.550 OA
ENDBRANCH  11  12
ENDBRANCH  10  11
ENDBRANCH   9  10
ENDBRANCH   8   9
ENDBRANCH   1   8
TORSDOF 9
ENDMDL
MODEL 6
REMARK VINA RESULT:    -3.837      4.451      8.133
REMARK INTER + INTRA:          -6.737
REMARK INTER:                  -6.238
REMARK INTRA:                  -0.499
REMARK UNBOUND:                -0.881
REMARK SMILES O=C([O-])CCCCCCCCC(=O)[O-]
REMARK SMILES IDX 7 1 6 2 5 3 4 4 2 5 1 6 3 7 8 8 9 9 10 10 11 11 12 12 13 13
REMARK SMILES IDX 14 14
REMARK H PARENT
REMARK Flexibility Score: inf
ROOT
ATOM      1  C   UNL     1      53.471  27.099  33.990  1.00  0.00     0.000 C 
ENDROOT
BRANCH   1   2
ATOM      2  C   UNL     1      52.210  26.410  34.523  1.00  0.00     0.000 C 
BRANCH   2   3
ATOM      3  C   UNL     1      51.175  26.216  33.409  1.00  0.00     0.006 C 
BRANCH   3   4
ATOM      4  C   UNL     1      49.784  26.659  33.867  1.00  0.00     0.053 C 
BRANCH   4   5
ATOM      5  C   UNL     1      49.399  25.957  35.131  1.00  0.00     0.041 C 
ATOM      6  O   UNL     1      49.330  26.594  36.215  1.00  0.00    -0.550 OA
ATOM      7  O   UNL     1      49.069  24.608  35.103  1.00  0.00    -0.550 OA
ENDBRANCH   4   5
ENDBRANCH   3   4
ENDBRANCH   2   3
ENDBRANCH   1   2
BRANCH   1   8
ATOM      8  C   UNL     1      53.498  28.582  34.387  1.00  0.00     0.000 C 
BRANCH   8   9
ATOM      9  C   UNL     1      52.546  28.908  35.550  1.00  0.00     0.000 C 
BRANCH   9  10
ATOM     10  C   UNL     1      53.020  30.086  36.427  1.00  0.00     0.006 C 
BRANCH  10  11
ATOM     11  C   UNL     1      54.384  29.813  37.076  1.00  0.00     0.053 C 
BRANCH  11  12
ATOM     12  C   UNL     1      54.814  30.985  37.901  1.00  0.00     0.041 C 
ATOM     13  O   UNL     1      54.960  32.117  37.368  1.00  0.00    -0.550 OA
ATOM     14  O   UNL     1      55.103  30.817  39.249  1.00  0.00    -0.550 OA
ENDBRANCH  11  12
ENDBRANCH  10  11
ENDBRANCH   9  10
ENDBRANCH   8   9
ENDBRANCH   1   8
TORSDOF 9
ENDMDL
MODEL 7
REMARK VINA RESULT:    -3.810      3.396      6.892
REMARK INTER + INTRA:          -6.696
REMARK INTER:                  -5.896
REMARK INTRA:                  -0.800
REMARK UNBOUND:                -0.881
REMARK SMILES O=C([O-])CCCCCCCCC(=O)[O-]
REMARK SMILES IDX 7 1 6 2 5 3 4 4 2 5 1 6 3 7 8 8 9 9 10 10 11 11 12 12 13 13
REMARK SMILES IDX 14 14
REMARK H PARENT
REMARK Flexibility Score: inf
ROOT
ATOM      1  C   UNL     1      52.777  25.728  35.347  1.00  0.00     0.000 C 
ENDROOT
BRANCH   1   2
ATOM      2  C   UNL     1      51.630  24.725  35.184  1.00  0.00     0.000 C 
BRANCH   2   3
ATOM      3  C   UNL     1      50.535  24.963  36.231  1.00  0.00     0.006 C 
BRANCH   3   4
ATOM      4  C   UNL     1      49.669  26.169  35.857  1.00  0.00     0.053 C 
BRANCH   4   5
ATOM      5  C   UNL     1      49.084  25.990  34.491  1.00  0.00     0.041 C 
ATOM      6  O   UNL     1      48.256  25.067  34.272  1.00  0.00    -0.550 OA
ATOM      7  O   UNL     1      49.414  26.875  33.473  1.00  0.00    -0.550 OA
ENDBRANCH   4   5
ENDBRANCH   3   4
ENDBRANCH   2   3
ENDBRANCH   1   2
BRANCH   1   8
ATOM      8  C   UNL     1      53.123  26.392  34.007  1.00  0.00     0.000 C 
BRANCH   8   9
ATOM      9  C   UNL     1      53.225  27.924  34.107  1.00  0.00     0.000 C 
BRANCH   9  10
ATOM     10  C   UNL     1      52.429  28.522  35.287  1.00  0.00     0.006 C 
BRANCH  10  11
ATOM     11  C   UNL     1      52.877  29.951  35.622  1.00  0.00     0.053 C 
BRANCH  11  12
ATOM     12  C   UNL     1      53.755  29.954  36.833  1.00  0.00     0.041 C 
ATOM     13  O   UNL     1      54.324  28.894  37.206  1.00  0.00    -0.550 OA
ATOM     14  O   UNL     1      53.907  31.116  37.580  1.00  0.00    -0.550 OA
ENDBRANCH  11  12
ENDBRANCH  10  11
ENDBRANCH   9  10
ENDBRANCH   8   9
ENDBRANCH   1   8
TORSDOF 9
ENDMDL
MODEL 8
REMARK VINA RESULT:    -3.792      3.051      6.635
REMARK INTER + INTRA:          -6.667
REMARK INTER:                  -5.940
REMARK INTRA:                  -0.727
REMARK UNBOUND:                -0.881
REMARK SMILES O=C([O-])CCCCCCCCC(=O)[O-]
REMARK SMILES IDX 7 1 6 2 5 3 4 4 2 5 1 6 3 7 8 8 9 9 10 10 11 11 12 12 13 13
REMARK SMILES IDX 14 14
REMARK H PARENT
REMARK Flexibility Score: inf
ROOT
ATOM      1  C   UNL     1      51.780  25.833  34.928  1.00  0.00     0.000 C 
ENDROOT
BRANCH   1   2
ATOM      2  C   UNL     1      50.823  26.741  35.707  1.00  0.00     0.000 C 
BRANCH   2   3
ATOM      3  C   UNL     1      49.382  26.222  35.628  1.00  0.00     0.006 C 
BRANCH   3   4
ATOM      4  C   UNL     1      49.342  24.793  35.080  1.00  0.00     0.053 C 
BRANCH   4   5
ATOM      5  C   UNL     1      48.483  24.724  33.857  1.00  0.00     0.041 C 
ATOM      6  O   UNL     1      48.677  25.520  32.901  1.00  0.00    -0.550 OA
ATOM      7  O   UNL     1      47.502  23.747  33.751  1.00  0.00    -0.550 OA
ENDBRANCH   4   5
ENDBRANCH   3   4
ENDBRANCH   2   3
ENDBRANCH   1   2
BRANCH   1   8
ATOM      8  C   UNL     1      52.433  26.590  33.763  1.00  0.00     0.000 C 
BRANCH   8   9
ATOM      9  C   UNL     1      53.952  26.756  33.934  1.00  0.00     0.000 C 
BRANCH   9  10
ATOM     10  C   UNL     1      54.391  28.212  34.199  1.00  0.00     0.006 C 
BRANCH  10  11
ATOM     11  C   UNL     1      54.300  28.584  35.685  1.00  0.00     0.053 C 
BRANCH  11  12
ATOM     12  C   UNL     1      53.242  29.620  35.901  1.00  0.00     0.041 C 
ATOM     13  O   UNL     1      52.985  30.031  37.064  1.00  0.00    -0.550 OA
ATOM     14  O   UNL     1      52.505  30.096  34.824  1.00  0.00    -0.550 OA
ENDBRANCH  11  12
ENDBRANCH  10  11
ENDBRANCH   9  10
ENDBRANCH   8   9
ENDBRANCH   1   8
TORSDOF 9
ENDMDL
MODEL 9
REMARK VINA RESULT:    -3.747      2.781      4.275
REMARK INTER + INTRA:          -6.599
REMARK INTER:                  -5.638
REMARK INTRA:                  -0.961
REMARK UNBOUND:                -0.881
REMARK SMILES O=C([O-])CCCCCCCCC(=O)[O-]
REMARK SMILES IDX 7 1 6 2 5 3 4 4 2 5 1 6 3 7 8 8 9 9 10 10 11 11 12 12 13 13
REMARK SMILES IDX 14 14
REMARK H PARENT
REMARK Flexibility Score: inf
ROOT
ATOM      1  C   UNL     1      52.983  24.903  35.143  1.00  0.00     0.000 C 
ENDROOT
BRANCH   1   2
ATOM      2  C   UNL     1      53.545  25.692  33.955  1.00  0.00     0.000 C 
BRANCH   2   3
ATOM      3  C   UNL     1      53.059  27.147  33.980  1.00  0.00     0.006 C 
BRANCH   3   4
ATOM      4  C   UNL     1      54.240  28.120  34.015  1.00  0.00     0.053 C 
BRANCH   4   5
ATOM      5  C   UNL     1      54.599  28.459  35.428  1.00  0.00     0.041 C 
ATOM      6  O   UNL     1      55.721  28.130  35.893  1.00  0.00    -0.550 OA
ATOM      7  O   UNL     1      53.713  29.184  36.215  1.00  0.00    -0.550 OA
ENDBRANCH   4   5
ENDBRANCH   3   4
ENDBRANCH   2   3
ENDBRANCH   1   2
BRANCH   1   8
ATOM      8  C   UNL     1      51.982  25.748  35.943  1.00  0.00     0.000 C 
BRANCH   8   9
ATOM      9  C   UNL     1      50.583  25.115  36.011  1.00  0.00     0.000 C 
BRANCH   9  10
ATOM     10  C   UNL     1      49.437  26.110  35.731  1.00  0.00     0.006 C 
BRANCH  10  11
ATOM     11  C   UNL     1      49.436  26.600  34.277  1.00  0.00     0.053 C 
BRANCH  11  12
ATOM     12  C   UNL     1      49.336  25.443  33.335  1.00  0.00     0.041 C 
ATOM     13  O   UNL     1      48.287  24.746  33.296  1.00  0.00    -0.550 OA
ATOM     14  O   UNL     1      50.418  25.102  32.534  1.00  0.00    -0.550 OA
ENDBRANCH  11  12
ENDBRANCH  10  11
ENDBRANCH   9  10
ENDBRANCH   8   9
ENDBRANCH   1   8
TORSDOF 9
ENDMDL
