MODEL 1
REMARK VINA RESULT:    -3.738      0.000      0.000
REMARK INTER + INTRA:          -4.796
REMARK INTER:                  -4.612
REMARK INTRA:                  -0.184
REMARK UNBOUND:                -0.184
REMARK SMILES CCCCCC(=O)[O-]
REMARK SMILES IDX 4 1 5 2 6 3 7 4 8 5 3 6 2 7 1 8
REMARK H PARENT
REMARK Flexibility Score: inf
ROOT
ATOM      1  C   UNL     1     -17.883   7.765  30.141  1.00  0.00     0.006 C 
ENDROOT
BRANCH   1   2
ATOM      2  C   UNL     1     -18.094   8.793  31.256  1.00  0.00     0.053 C 
BRANCH   2   3
ATOM      3  C   UNL     1     -16.893   8.857  32.145  1.00  0.00     0.041 C 
ATOM      4  O   UNL     1     -16.652   7.922  32.954  1.00  0.00    -0.550 OA
ATOM      5  O   UNL     1     -16.011   9.926  32.047  1.00  0.00    -0.550 OA
ENDBRANCH   2   3
ENDBRANCH   1   2
BRANCH   1   6
ATOM      6  C   UNL     1     -17.950   8.433  28.760  1.00  0.00     0.000 C 
BRANCH   6   7
ATOM      7  C   UNL     1     -16.665   8.226  27.942  1.00  0.00    -0.003 C 
ATOM      8  C   UNL     1     -15.469   8.984  28.518  1.00  0.00     0.004 C 
ENDBRANCH   6   7
ENDBRANCH   1   6
TORSDOF 4
ENDMDL
MODEL 2
REMARK VINA RESULT:    -3.706     12.186     12.510
REMARK INTER + INTRA:          -4.756
REMARK INTER:                  -4.657
REMARK INTRA:                  -0.099
REMARK UNBOUND:                -0.184
REMARK SMILES CCCCCC(=O)[O-]
REMARK SMILES IDX 4 1 5 2 6 3 7 4 8 5 3 6 2 7 1 8
REMARK H PARENT
REMARK Flexibility Score: inf
ROOT
ATOM      1  C   UNL     1     -22.679   0.870  24.089  1.00  0.00     0.006 C 
ENDROOT
BRANCH   1   2
ATOM      2  C   UNL     1     -22.629  -0.383  24.970  1.00  0.00     0.053 C 
BRANCH   2   3
ATOM      3  C   UNL     1     -23.997  -0.970  25.123  1.00  0.00     0.041 C 
ATOM      4  O   UNL     1     -24.186  -1.943  25.900  1.00  0.00    -0.550 OA
ATOM      5  O   UNL     1     -25.073  -0.412  24.446  1.00  0.00    -0.550 OA
ENDBRANCH   2   3
ENDBRANCH   1   2
BRANCH   1   6
ATOM      6  C   UNL     1     -21.604   0.813  22.994  1.00  0.00     0.000 C 
BRANCH   6   7
ATOM      7  C   UNL     1     -21.749   1.947  21.967  1.00  0.00    -0.003 C 
ATOM      8  C   UNL     1     -23.194   2.414  21.802  1.00  0.00     0.004 C 
ENDBRANCH   6   7
ENDBRANCH   1   6
TORSDOF 4
ENDMDL
MODEL 3
REMARK VINA RESULT:    -3.679      1.230      2.074
REMARK INTER + INTRA:          -4.723
REMARK INTER:                  -4.524
REMARK INTRA:                  -0.199
REMARK UNBOUND:                -0.184
REMARK SMILES CCCCCC(=O)[O-]
REMARK SMILES IDX 4 1 5 2 6 3 7 4 8 5 3 6 2 7 1 8
REMARK H PARENT
REMARK Flexibility Score: inf
ROOT
ATOM      1  C   UNL     1     -15.216   9.038  29.890  1.00  0.00     0.006 C 
ENDROOT
BRANCH   1   2
ATOM      2  C   UNL     1     -16.466   9.538  30.619  1.00  0.00     0.053 C 
BRANCH   2   3
ATOM      3  C   UNL     1     -16.970   8.499  31.569  1.00  0.00     0.041 C 
ATOM      4  O   UNL     1     -17.635   7.518  31.142  1.00  0.00    -0.550 OA
ATOM      5  O   UNL     1     -16.666   8.586  32.922  1.00  0.00    -0.550 OA
ENDBRANCH   2   3
ENDBRANCH   1   2
BRANCH   1   6
ATOM      6  C   UNL     1     -15.446   8.996  28.373  1.00  0.00     0.000 C 
BRANCH   6   7
ATOM      7  C   UNL     1     -16.936   9.042  28.001  1.00  0.00    -0.003 C 
ATOM      8  C   UNL     1     -17.471   7.689  27.534  1.00  0.00     0.004 C 
ENDBRANCH   6   7
ENDBRANCH   1   6
TORSDOF 4
ENDMDL
MODEL 4
REMARK VINA RESULT:    -3.673      1.945      3.621
REMARK INTER + INTRA:          -4.716
REMARK INTER:                  -4.492
REMARK INTRA:                  -0.224
REMARK UNBOUND:                -0.184
REMARK SMILES CCCCCC(=O)[O-]
REMARK SMILES IDX 4 1 5 2 6 3 7 4 8 5 3 6 2 7 1 8
REMARK H PARENT
REMARK Flexibility Score: inf
ROOT
ATOM      1  C   UNL     1     -17.744   7.748  30.387  1.00  0.00     0.006 C 
ENDROOT
BRANCH   1   2
ATOM      2  C   UNL     1     -17.449   7.973  28.901  1.00  0.00     0.053 C 
BRANCH   2   3
ATOM      3  C   UNL     1     -16.431   9.056  28.728  1.00  0.00     0.041 C 
ATOM      4  O   UNL     1     -16.737  10.125  28.136  1.00  0.00    -0.550 OA
ATOM      5  O   UNL     1     -15.158   8.906  29.263  1.00  0.00    -0.550 OA
ENDBRANCH   2   3
ENDBRANCH   1   2
BRANCH   1   6
ATOM      6  C   UNL     1     -18.449   8.968  30.997  1.00  0.00     0.000 C 
BRANCH   6   7
ATOM      7  C   UNL     1     -17.768   9.461  32.283  1.00  0.00    -0.003 C 
ATOM      8  C   UNL     1     -16.854   8.407  32.910  1.00  0.00     0.004 C 
ENDBRANCH   6   7
ENDBRANCH   1   6
TORSDOF 4
ENDMDL
MODEL 5
REMARK VINA RESULT:    -3.667      9.545     10.624
REMARK INTER + INTRA:          -4.708
REMARK INTER:                  -4.589
REMARK INTRA:                  -0.119
REMARK UNBOUND:                -0.184
REMARK SMILES CCCCCC(=O)[O-]
REMARK SMILES IDX 4 1 5 2 6 3 7 4 8 5 3 6 2 7 1 8
REMARK H PARENT
REMARK Flexibility Score: inf
ROOT
ATOM      1  C   UNL     1     -18.525   0.571  36.238  1.00  0.00     0.006 C 
ENDROOT
BRANCH   1   2
ATOM      2  C   UNL     1     -17.908   1.930  36.580  1.00  0.00     0.053 C 
BRANCH   2   3
ATOM      3  C   UNL     1     -18.057   2.221  38.040  1.00  0.00     0.041 C 
ATOM      4  O   UNL     1     -19.175   2.083  38.603  1.00  0.00    -0.550 OA
ATOM      5  O   UNL     1     -16.951   2.598  38.791  1.00  0.00    -0.550 OA
ENDBRANCH   2   3
ENDBRANCH   1   2
BRANCH   1   6
ATOM      6  C   UNL     1     -17.517  -0.316  35.492  1.00  0.00     0.000 C 
BRANCH   6   7
ATOM      7  C   UNL     1     -17.139  -1.576  36.287  1.00  0.00    -0.003 C 
ATOM      8  C   UNL     1     -17.339  -1.407  37.793  1.00  0.00     0.004 C 
ENDBRANCH   6   7
ENDBRANCH   1   6
TORSDOF 4
ENDMDL
MODEL 6
REMARK VINA RESULT:    -3.624     11.967     12.899
REMARK INTER + INTRA:          -4.656
REMARK INTER:                  -4.539
REMARK INTRA:                  -0.117
REMARK UNBOUND:                -0.184
REMARK SMILES CCCCCC(=O)[O-]
REMARK SMILES IDX 4 1 5 2 6 3 7 4 8 5 3 6 2 7 1 8
REMARK H PARENT
REMARK Flexibility Score: inf
ROOT
ATOM      1  C   UNL     1     -22.317   0.347  23.918  1.00  0.00     0.006 C 
ENDROOT
BRANCH   1   2
ATOM      2  C   UNL     1     -23.185   1.555  23.553  1.00  0.00     0.053 C 
BRANCH   2   3
ATOM      3  C   UNL     1     -22.740   2.148  22.254  1.00  0.00     0.041 C 
ATOM      4  O   UNL     1     -23.504   2.916  21.612  1.00  0.00    -0.550 OA
ATOM      5  O   UNL     1     -21.462   1.891  21.774  1.00  0.00    -0.550 OA
ENDBRANCH   2   3
ENDBRANCH   1   2
BRANCH   1   6
ATOM      6  C   UNL     1     -23.015  -0.534  24.964  1.00  0.00     0.000 C 
BRANCH   6   7
ATOM      7  C   UNL     1     -24.481  -0.823  24.607  1.00  0.00    -0.003 C 
ATOM      8  C   UNL     1     -24.632  -1.969  23.607  1.00  0.00     0.004 C 
ENDBRANCH   6   7
ENDBRANCH   1   6
TORSDOF 4
ENDMDL
MODEL 7
REMARK VINA RESULT:    -3.510      2.730      4.008
REMARK INTER + INTRA:          -4.515
REMARK INTER:                  -4.293
REMARK INTRA:                  -0.222
REMARK UNBOUND:                -0.184
REMARK SMILES CCCCCC(=O)[O-]
REMARK SMILES IDX 4 1 5 2 6 3 7 4 8 5 3 6 2 7 1 8
REMARK H PARENT
REMARK Flexibility Score: inf
ROOT
ATOM      1  C   UNL     1     -15.360   8.997  29.494  1.00  0.00     0.006 C 
ENDROOT
BRANCH   1   2
ATOM      2  C   UNL     1     -16.385   9.176  28.370  1.00  0.00     0.053 C 
BRANCH   2   3
ATOM      3  C   UNL     1     -17.216   7.942  28.217  1.00  0.00     0.041 C 
ATOM      4  O   UNL     1     -17.687   7.365  29.233  1.00  0.00    -0.550 OA
ATOM      5  O   UNL     1     -17.512   7.455  26.951  1.00  0.00    -0.550 OA
ENDBRANCH   2   3
ENDBRANCH   1   2
BRANCH   1   6
ATOM      6  C   UNL     1     -15.479  10.125  30.530  1.00  0.00     0.000 C 
BRANCH   6   7
ATOM      7  C   UNL     1     -16.828  10.109  31.266  1.00  0.00    -0.003 C 
ATOM      8  C   UNL     1     -16.948   8.953  32.258  1.00  0.00     0.004 C 
ENDBRANCH   6   7
ENDBRANCH   1   6
TORSDOF 4
ENDMDL
MODEL 8
REMARK VINA RESULT:    -3.476      2.955      4.274
REMARK INTER + INTRA:          -4.473
REMARK INTER:                  -4.325
REMARK INTRA:                  -0.147
REMARK UNBOUND:                -0.184
REMARK SMILES CCCCCC(=O)[O-]
REMARK SMILES IDX 4 1 5 2 6 3 7 4 8 5 3 6 2 7 1 8
REMARK H PARENT
REMARK Flexibility Score: inf
ROOT
ATOM      1  C   UNL     1     -18.620   8.889  30.452  1.00  0.00     0.006 C 
ENDROOT
BRANCH   1   2
ATOM      2  C   UNL     1     -17.886   7.771  29.706  1.00  0.00     0.053 C 
BRANCH   2   3
ATOM      3  C   UNL     1     -17.313   8.285  28.424  1.00  0.00     0.041 C 
ATOM      4  O   UNL     1     -16.482   9.231  28.435  1.00  0.00    -0.550 OA
ATOM      5  O   UNL     1     -17.659   7.687  27.218  1.00  0.00    -0.550 OA
ENDBRANCH   2   3
ENDBRANCH   1   2
BRANCH   1   6
ATOM      6  C   UNL     1     -19.882   9.319  29.691  1.00  0.00     0.000 C 
BRANCH   6   7
ATOM      7  C   UNL     1     -21.021   9.746  30.631  1.00  0.00    -0.003 C 
ATOM      8  C   UNL     1     -20.535  10.052  32.048  1.00  0.00     0.004 C 
ENDBRANCH   6   7
ENDBRANCH   1   6
TORSDOF 4
ENDMDL
MODEL 9
REMARK VINA RESULT:    -3.461     10.260     10.871
REMARK INTER + INTRA:          -4.455
REMARK INTER:                  -4.338
REMARK INTRA:                  -0.116
REMARK UNBOUND:                -0.184
REMARK SMILES CCCCCC(=O)[O-]
REMARK SMILES IDX 4 1 5 2 6 3 7 4 8 5 3 6 2 7 1 8
REMARK H PARENT
REMARK Flexibility Score: inf
ROOT
ATOM      1  C   UNL     1     -16.882  -1.361  32.781  1.00  0.00     0.006 C 
ENDROOT
BRANCH   1   2
ATOM      2  C   UNL     1     -17.702  -1.852  33.978  1.00  0.00     0.053 C 
BRANCH   2   3
ATOM      3  C   UNL     1     -17.230  -1.200  35.239  1.00  0.00     0.041 C 
ATOM      4  O   UNL     1     -17.576  -0.020  35.511  1.00  0.00    -0.550 OA
ATOM      5  O   UNL     1     -16.447  -1.911  36.139  1.00  0.00    -0.550 OA
ENDBRANCH   2   3
ENDBRANCH   1   2
BRANCH   1   6
ATOM      6  C   UNL     1     -17.484  -1.865  31.461  1.00  0.00     0.000 C 
BRANCH   6   7
ATOM      7  C   UNL     1     -18.814  -2.607  31.665  1.00  0.00    -0.003 C 
ATOM      8  C   UNL     1     -19.981  -1.940  30.936  1.00  0.00     0.004 C 
ENDBRANCH   6   7
ENDBRANCH   1   6
TORSDOF 4
ENDMDL
