MODEL 1
REMARK VINA RESULT:    23.238      0.000      0.000
REMARK INTER + INTRA:          25.032
REMARK INTER:                  25.275
REMARK INTRA:                  -0.244
REMARK UNBOUND:                -0.244
REMARK SMILES CC1=C2C[C@H](C(C)(C)O)CC[C@]2(C)CCC1
REMARK SMILES IDX 6 1 7 2 8 3 5 4 1 5 2 6 3 7 16 8 4 9 12 10 15 11 11 12 14 13
REMARK SMILES IDX 13 14 10 15 9 16
REMARK H PARENT 9 17
REMARK Flexibility Score: inf
ROOT
ATOM      1  C   UNL     1     -33.005  25.516   6.915  1.00  0.00     0.062 C 
ATOM      2  C   UNL     1     -33.360  26.685   7.869  1.00  0.00     0.042 C 
ATOM      3  C   UNL     1     -32.929  26.101   5.488  1.00  0.00     0.042 C 
ENDROOT
BRANCH   1   4
ATOM      4  C   UNL     1     -34.090  24.374   6.974  1.00  0.00     0.024 C 
ATOM      5  C   UNL     1     -38.255  25.858   7.388  1.00  0.00     0.039 C 
ATOM      6  C   UNL     1     -37.940  24.418   7.040  1.00  0.00    -0.074 C 
ATOM      7  C   UNL     1     -36.648  23.968   6.975  1.00  0.00    -0.065 C 
ATOM      8  C   UNL     1     -39.125  23.562   6.630  1.00  0.00     0.031 C 
ATOM      9  C   UNL     1     -35.501  24.924   7.299  1.00  0.00     0.038 C 
ATOM     10  C   UNL     1     -36.330  22.480   6.737  1.00  0.00    -0.011 C 
ATOM     11  C   UNL     1     -38.845  22.064   6.637  1.00  0.00     0.005 C 
ATOM     12  C   UNL     1     -35.022  22.279   5.890  1.00  0.00     0.011 C 
ATOM     13  C   UNL     1     -37.496  21.777   5.990  1.00  0.00     0.011 C 
ATOM     14  C   UNL     1     -36.139  21.811   8.124  1.00  0.00     0.016 C 
ATOM     15  C   UNL     1     -34.181  23.546   5.678  1.00  0.00     0.008 C 
ENDBRANCH   1   4
BRANCH   1  16
ATOM     16  O   UNL     1     -31.728  25.010   7.233  1.00  0.00    -0.390 OA
ATOM     17  H   UNL     1     -31.673  24.890   8.216  1.00  0.00     0.211 HD
ENDBRANCH   1  16
TORSDOF 2
ENDMDL
