MODEL 1
REMARK VINA RESULT:    -5.327      0.000      0.000
REMARK INTER + INTRA:         -11.881
REMARK INTER:                  -9.687
REMARK INTRA:                  -2.193
REMARK UNBOUND:                -2.193
REMARK SMILES CCCCCC=CCC=CCCCCCCCC(=O)[O-]
REMARK SMILES IDX 11 1 12 2 13 3 14 4 15 5 16 6 17 7 18 8 19 9 20 10 10 11
REMARK SMILES IDX 9 12 8 13 7 14 6 15 5 16 4 17 3 18 2 19 1 20
REMARK H PARENT
REMARK Flexibility Score: inf
ROOT
ATOM      1  C   UNL     1     -12.196 -28.003 -34.846  1.00  0.00     0.027 C 
ENDROOT
BRANCH   1   2
ATOM      2  C   UNL     1     -13.576 -27.643 -35.428  1.00  0.00     0.004 C 
BRANCH   2   3
ATOM      3  C   UNL     1     -13.701 -26.196 -35.944  1.00  0.00     0.000 C 
BRANCH   3   4
ATOM      4  C   UNL     1     -12.672 -25.207 -35.366  1.00  0.00     0.000 C 
BRANCH   4   5
ATOM      5  C   UNL     1     -12.673 -23.815 -36.027  1.00  0.00     0.000 C 
BRANCH   5   6
ATOM      6  C   UNL     1     -12.721 -22.651 -35.015  1.00  0.00     0.006 C 
BRANCH   6   7
ATOM      7  C   UNL     1     -12.431 -21.293 -35.668  1.00  0.00     0.053 C 
BRANCH   7   8
ATOM      8  C   UNL     1     -13.566 -20.346 -35.437  1.00  0.00     0.041 C 
ATOM      9  O   UNL     1     -14.521 -20.676 -34.686  1.00  0.00    -0.550 OA
ATOM     10  O   UNL     1     -13.590 -19.117 -36.085  1.00  0.00    -0.550 OA
ENDBRANCH   7   8
ENDBRANCH   6   7
ENDBRANCH   5   6
ENDBRANCH   4   5
ENDBRANCH   3   4
ENDBRANCH   2   3
ENDBRANCH   1   2
BRANCH   1  11
ATOM     11  C   UNL     1     -12.250 -28.376 -33.388  1.00  0.00    -0.031 C 
ATOM     12  C   UNL     1     -13.231 -27.938 -32.584  1.00  0.00    -0.027 C 
BRANCH  12  13
ATOM     13  C   UNL     1     -13.264 -28.277 -31.120  1.00  0.00     0.054 C 
BRANCH  13  14
ATOM     14  C   UNL     1     -11.926 -28.805 -30.672  1.00  0.00    -0.027 C 
ATOM     15  C   UNL     1     -10.913 -28.042 -30.222  1.00  0.00    -0.031 C 
BRANCH  15  16
ATOM     16  C   UNL     1     -10.965 -26.541 -30.058  1.00  0.00     0.027 C 
BRANCH  16  17
ATOM     17  C   UNL     1     -10.041 -25.832 -31.057  1.00  0.00     0.004 C 
BRANCH  17  18
ATOM     18  C   UNL     1     -10.819 -25.230 -32.238  1.00  0.00     0.000 C 
BRANCH  18  19
ATOM     19  C   UNL     1     -12.068 -24.455 -31.789  1.00  0.00    -0.003 C 
ATOM     20  C   UNL     1     -11.760 -23.008 -31.401  1.00  0.00     0.004 C 
ENDBRANCH  18  19
ENDBRANCH  17  18
ENDBRANCH  16  17
ENDBRANCH  15  16
ENDBRANCH  13  14
ENDBRANCH  12  13
ENDBRANCH   1  11
TORSDOF 14
ENDMDL
MODEL 2
REMARK VINA RESULT:    -4.777      1.959      5.120
REMARK INTER + INTRA:         -10.880
REMARK INTER:                  -8.969
REMARK INTRA:                  -1.911
REMARK UNBOUND:                -2.193
REMARK SMILES CCCCCC=CCC=CCCCCCCCC(=O)[O-]
REMARK SMILES IDX 11 1 12 2 13 3 14 4 15 5 16 6 17 7 18 8 19 9 20 10 10 11
REMARK SMILES IDX 9 12 8 13 7 14 6 15 5 16 4 17 3 18 2 19 1 20
REMARK H PARENT
REMARK Flexibility Score: inf
ROOT
ATOM      1  C   UNL     1     -11.217 -27.969 -29.915  1.00  0.00     0.027 C 
ENDROOT
BRANCH   1   2
ATOM      2  C   UNL     1     -12.035 -28.953 -30.772  1.00  0.00     0.004 C 
BRANCH   2   3
ATOM      3  C   UNL     1     -13.318 -28.358 -31.388  1.00  0.00     0.000 C 
BRANCH   3   4
ATOM      4  C   UNL     1     -13.219 -28.003 -32.883  1.00  0.00     0.000 C 
BRANCH   4   5
ATOM      5  C   UNL     1     -11.899 -28.419 -33.559  1.00  0.00     0.000 C 
BRANCH   5   6
ATOM      6  C   UNL     1     -11.760 -27.908 -35.009  1.00  0.00     0.006 C 
BRANCH   6   7
ATOM      7  C   UNL     1     -11.387 -26.421 -35.073  1.00  0.00     0.053 C 
BRANCH   7   8
ATOM      8  C   UNL     1     -12.517 -25.620 -35.638  1.00  0.00     0.041 C 
ATOM      9  O   UNL     1     -12.380 -24.384 -35.835  1.00  0.00    -0.550 OA
ATOM     10  O   UNL     1     -13.736 -26.230 -35.907  1.00  0.00    -0.550 OA
ENDBRANCH   7   8
ENDBRANCH   6   7
ENDBRANCH   5   6
ENDBRANCH   4   5
ENDBRANCH   3   4
ENDBRANCH   2   3
ENDBRANCH   1   2
BRANCH   1  11
ATOM     11  C   UNL     1     -11.263 -26.556 -30.435  1.00  0.00    -0.031 C 
ATOM     12  C   UNL     1     -10.180 -25.964 -30.962  1.00  0.00    -0.027 C 
BRANCH  12  13
ATOM     13  C   UNL     1     -10.214 -24.540 -31.444  1.00  0.00     0.054 C 
BRANCH  13  14
ATOM     14  C   UNL     1     -11.479 -24.277 -32.218  1.00  0.00    -0.027 C 
ATOM     15  C   UNL     1     -11.957 -23.055 -32.514  1.00  0.00    -0.031 C 
BRANCH  15  16
ATOM     16  C   UNL     1     -11.285 -21.751 -32.152  1.00  0.00     0.027 C 
BRANCH  16  17
ATOM     17  C   UNL     1     -11.324 -20.753 -33.317  1.00  0.00     0.004 C 
BRANCH  17  18
ATOM     18  C   UNL     1     -12.437 -21.083 -34.324  1.00  0.00     0.000 C 
BRANCH  18  19
ATOM     19  C   UNL     1     -12.016 -20.816 -35.778  1.00  0.00    -0.003 C 
ATOM     20  C   UNL     1     -10.715 -20.018 -35.881  1.00  0.00     0.004 C 
ENDBRANCH  18  19
ENDBRANCH  17  18
ENDBRANCH  16  17
ENDBRANCH  15  16
ENDBRANCH  13  14
ENDBRANCH  12  13
ENDBRANCH   1  11
TORSDOF 14
ENDMDL
MODEL 3
REMARK VINA RESULT:    -4.764      1.263      2.166
REMARK INTER + INTRA:         -10.857
REMARK INTER:                  -9.087
REMARK INTRA:                  -1.769
REMARK UNBOUND:                -2.193
REMARK SMILES CCCCCC=CCC=CCCCCCCCC(=O)[O-]
REMARK SMILES IDX 11 1 12 2 13 3 14 4 15 5 16 6 17 7 18 8 19 9 20 10 10 11
REMARK SMILES IDX 9 12 8 13 7 14 6 15 5 16 4 17 3 18 2 19 1 20
REMARK H PARENT
REMARK Flexibility Score: inf
ROOT
ATOM      1  C   UNL     1     -13.729 -26.418 -35.887  1.00  0.00     0.027 C 
ENDROOT
BRANCH   1   2
ATOM      2  C   UNL     1     -13.248 -25.065 -36.444  1.00  0.00     0.004 C 
BRANCH   2   3
ATOM      3  C   UNL     1     -12.362 -24.250 -35.481  1.00  0.00     0.000 C 
BRANCH   3   4
ATOM      4  C   UNL     1     -12.630 -22.734 -35.474  1.00  0.00     0.000 C 
BRANCH   4   5
ATOM      5  C   UNL     1     -12.622 -22.083 -34.078  1.00  0.00     0.000 C 
BRANCH   5   6
ATOM      6  C   UNL     1     -12.807 -20.551 -34.109  1.00  0.00     0.006 C 
BRANCH   6   7
ATOM      7  C   UNL     1     -13.288 -20.047 -35.476  1.00  0.00     0.053 C 
BRANCH   7   8
ATOM      8  C   UNL     1     -12.164 -19.399 -36.221  1.00  0.00     0.041 C 
ATOM      9  O   UNL     1     -12.370 -18.876 -37.348  1.00  0.00    -0.550 OA
ATOM     10  O   UNL     1     -10.880 -19.409 -35.691  1.00  0.00    -0.550 OA
ENDBRANCH   7   8
ENDBRANCH   6   7
ENDBRANCH   5   6
ENDBRANCH   4   5
ENDBRANCH   3   4
ENDBRANCH   2   3
ENDBRANCH   1   2
BRANCH   1  11
ATOM     11  C   UNL     1     -12.923 -26.888 -34.704  1.00  0.00    -0.031 C 
ATOM     12  C   UNL     1     -12.981 -28.156 -34.271  1.00  0.00    -0.027 C 
BRANCH  12  13
ATOM     13  C   UNL     1     -12.208 -28.616 -33.065  1.00  0.00     0.054 C 
BRANCH  13  14
ATOM     14  C   UNL     1     -12.999 -28.370 -31.808  1.00  0.00    -0.027 C 
ATOM     15  C   UNL     1     -12.462 -28.169 -30.591  1.00  0.00    -0.031 C 
BRANCH  15  16
ATOM     16  C   UNL     1     -10.982 -28.119 -30.295  1.00  0.00     0.027 C 
BRANCH  16  17
ATOM     17  C   UNL     1     -10.484 -26.676 -30.147  1.00  0.00     0.004 C 
BRANCH  17  18
ATOM     18  C   UNL     1     -10.352 -25.967 -31.504  1.00  0.00     0.000 C 
BRANCH  18  19
ATOM     19  C   UNL     1     -11.027 -24.587 -31.519  1.00  0.00    -0.003 C 
ATOM     20  C   UNL     1     -12.536 -24.668 -31.753  1.00  0.00     0.004 C 
ENDBRANCH  18  19
ENDBRANCH  17  18
ENDBRANCH  16  17
ENDBRANCH  15  16
ENDBRANCH  13  14
ENDBRANCH  12  13
ENDBRANCH   1  11
TORSDOF 14
ENDMDL
MODEL 4
REMARK VINA RESULT:    -4.730      2.327      6.017
REMARK INTER + INTRA:         -10.795
REMARK INTER:                  -9.226
REMARK INTRA:                  -1.569
REMARK UNBOUND:                -2.193
REMARK SMILES CCCCCC=CCC=CCCCCCCCC(=O)[O-]
REMARK SMILES IDX 11 1 12 2 13 3 14 4 15 5 16 6 17 7 18 8 19 9 20 10 10 11
REMARK SMILES IDX 9 12 8 13 7 14 6 15 5 16 4 17 3 18 2 19 1 20
REMARK H PARENT
REMARK Flexibility Score: inf
ROOT
ATOM      1  C   UNL     1     -10.125 -26.480 -30.993  1.00  0.00     0.027 C 
ENDROOT
BRANCH   1   2
ATOM      2  C   UNL     1     -10.711 -27.826 -30.529  1.00  0.00     0.004 C 
BRANCH   2   3
ATOM      3  C   UNL     1     -12.241 -27.827 -30.327  1.00  0.00     0.000 C 
BRANCH   3   4
ATOM      4  C   UNL     1     -13.035 -28.626 -31.375  1.00  0.00     0.000 C 
BRANCH   4   5
ATOM      5  C   UNL     1     -12.636 -28.348 -32.837  1.00  0.00     0.000 C 
BRANCH   5   6
ATOM      6  C   UNL     1     -13.709 -27.576 -33.634  1.00  0.00     0.006 C 
BRANCH   6   7
ATOM      7  C   UNL     1     -13.417 -27.553 -35.141  1.00  0.00     0.053 C 
BRANCH   7   8
ATOM      8  C   UNL     1     -12.515 -26.410 -35.483  1.00  0.00     0.041 C 
ATOM      9  O   UNL     1     -11.267 -26.530 -35.361  1.00  0.00    -0.550 OA
ATOM     10  O   UNL     1     -13.053 -25.197 -35.895  1.00  0.00    -0.550 OA
ENDBRANCH   7   8
ENDBRANCH   6   7
ENDBRANCH   5   6
ENDBRANCH   4   5
ENDBRANCH   3   4
ENDBRANCH   2   3
ENDBRANCH   1   2
BRANCH   1  11
ATOM     11  C   UNL     1     -11.179 -25.440 -31.264  1.00  0.00    -0.031 C 
ATOM     12  C   UNL     1     -11.254 -24.801 -32.442  1.00  0.00    -0.027 C 
BRANCH  12  13
ATOM     13  C   UNL     1     -12.281 -23.734 -32.699  1.00  0.00     0.054 C 
BRANCH  13  14
ATOM     14  C   UNL     1     -11.676 -22.367 -32.518  1.00  0.00    -0.027 C 
ATOM     15  C   UNL     1     -11.954 -21.298 -33.287  1.00  0.00    -0.031 C 
BRANCH  15  16
ATOM     16  C   UNL     1     -12.942 -21.285 -34.429  1.00  0.00     0.027 C 
BRANCH  16  17
ATOM     17  C   UNL     1     -12.234 -21.213 -35.788  1.00  0.00     0.004 C 
BRANCH  17  18
ATOM     18  C   UNL     1     -12.131 -19.772 -36.311  1.00  0.00     0.000 C 
BRANCH  18  19
ATOM     19  C   UNL     1     -10.874 -19.047 -35.805  1.00  0.00    -0.003 C 
ATOM     20  C   UNL     1      -9.580 -19.664 -36.338  1.00  0.00     0.004 C 
ENDBRANCH  18  19
ENDBRANCH  17  18
ENDBRANCH  16  17
ENDBRANCH  15  16
ENDBRANCH  13  14
ENDBRANCH  12  13
ENDBRANCH   1  11
TORSDOF 14
ENDMDL
MODEL 5
REMARK VINA RESULT:    -4.705      2.662      6.036
REMARK INTER + INTRA:         -10.749
REMARK INTER:                  -8.966
REMARK INTRA:                  -1.782
REMARK UNBOUND:                -2.193
REMARK SMILES CCCCCC=CCC=CCCCCCCCC(=O)[O-]
REMARK SMILES IDX 11 1 12 2 13 3 14 4 15 5 16 6 17 7 18 8 19 9 20 10 10 11
REMARK SMILES IDX 9 12 8 13 7 14 6 15 5 16 4 17 3 18 2 19 1 20
REMARK H PARENT
REMARK Flexibility Score: inf
ROOT
ATOM      1  C   UNL     1     -11.189 -27.343 -35.115  1.00  0.00     0.027 C 
ENDROOT
BRANCH   1   2
ATOM      2  C   UNL     1     -11.662 -28.295 -34.001  1.00  0.00     0.004 C 
BRANCH   2   3
ATOM      3  C   UNL     1     -12.989 -27.890 -33.327  1.00  0.00     0.000 C 
BRANCH   3   4
ATOM      4  C   UNL     1     -13.076 -28.200 -31.822  1.00  0.00     0.000 C 
BRANCH   4   5
ATOM      5  C   UNL     1     -13.005 -26.966 -30.903  1.00  0.00     0.000 C 
BRANCH   5   6
ATOM      6  C   UNL     1     -12.910 -25.630 -31.669  1.00  0.00     0.006 C 
BRANCH   6   7
ATOM      7  C   UNL     1     -12.076 -24.582 -30.920  1.00  0.00     0.053 C 
BRANCH   7   8
ATOM      8  C   UNL     1     -10.628 -24.715 -31.272  1.00  0.00     0.041 C 
ATOM      9  O   UNL     1      -9.831 -23.769 -31.037  1.00  0.00    -0.550 OA
ATOM     10  O   UNL     1     -10.167 -25.866 -31.898  1.00  0.00    -0.550 OA
ENDBRANCH   7   8
ENDBRANCH   6   7
ENDBRANCH   5   6
ENDBRANCH   4   5
ENDBRANCH   3   4
ENDBRANCH   2   3
ENDBRANCH   1   2
BRANCH   1  11
ATOM     11  C   UNL     1     -11.741 -25.949 -34.972  1.00  0.00    -0.031 C 
ATOM     12  C   UNL     1     -12.305 -25.305 -36.004  1.00  0.00    -0.027 C 
BRANCH  12  13
ATOM     13  C   UNL     1     -12.820 -23.898 -35.872  1.00  0.00     0.054 C 
BRANCH  13  14
ATOM     14  C   UNL     1     -12.433 -23.320 -34.537  1.00  0.00    -0.027 C 
ATOM     15  C   UNL     1     -12.812 -22.110 -34.086  1.00  0.00    -0.031 C 
BRANCH  15  16
ATOM     16  C   UNL     1     -13.716 -21.153 -34.828  1.00  0.00     0.027 C 
BRANCH  16  17
ATOM     17  C   UNL     1     -13.138 -19.732 -34.847  1.00  0.00     0.004 C 
BRANCH  17  18
ATOM     18  C   UNL     1     -12.997 -19.184 -36.276  1.00  0.00     0.000 C 
BRANCH  18  19
ATOM     19  C   UNL     1     -11.538 -18.885 -36.654  1.00  0.00    -0.003 C 
ATOM     20  C   UNL     1     -10.540 -19.772 -35.909  1.00  0.00     0.004 C 
ENDBRANCH  18  19
ENDBRANCH  17  18
ENDBRANCH  16  17
ENDBRANCH  15  16
ENDBRANCH  13  14
ENDBRANCH  12  13
ENDBRANCH   1  11
TORSDOF 14
ENDMDL
MODEL 6
REMARK VINA RESULT:    -4.617      1.633      3.913
REMARK INTER + INTRA:         -10.588
REMARK INTER:                  -8.940
REMARK INTRA:                  -1.648
REMARK UNBOUND:                -2.193
REMARK SMILES CCCCCC=CCC=CCCCCCCCC(=O)[O-]
REMARK SMILES IDX 11 1 12 2 13 3 14 4 15 5 16 6 17 7 18 8 19 9 20 10 10 11
REMARK SMILES IDX 9 12 8 13 7 14 6 15 5 16 4 17 3 18 2 19 1 20
REMARK H PARENT
REMARK Flexibility Score: inf
ROOT
ATOM      1  C   UNL     1     -10.357 -24.144 -31.380  1.00  0.00     0.027 C 
ENDROOT
BRANCH   1   2
ATOM      2  C   UNL     1     -11.764 -23.564 -31.618  1.00  0.00     0.004 C 
BRANCH   2   3
ATOM      3  C   UNL     1     -11.825 -22.432 -32.664  1.00  0.00     0.000 C 
BRANCH   3   4
ATOM      4  C   UNL     1     -12.577 -22.783 -33.961  1.00  0.00     0.000 C 
BRANCH   4   5
ATOM      5  C   UNL     1     -13.244 -21.587 -34.665  1.00  0.00     0.000 C 
BRANCH   5   6
ATOM      6  C   UNL     1     -12.590 -21.221 -36.015  1.00  0.00     0.006 C 
BRANCH   6   7
ATOM      7  C   UNL     1     -11.983 -19.812 -36.009  1.00  0.00     0.053 C 
BRANCH   7   8
ATOM      8  C   UNL     1     -10.579 -19.848 -35.493  1.00  0.00     0.041 C 
ATOM      9  O   UNL     1     -10.343 -19.589 -34.284  1.00  0.00    -0.550 OA
ATOM     10  O   UNL     1      -9.526 -20.126 -36.357  1.00  0.00    -0.550 OA
ENDBRANCH   7   8
ENDBRANCH   6   7
ENDBRANCH   5   6
ENDBRANCH   4   5
ENDBRANCH   3   4
ENDBRANCH   2   3
ENDBRANCH   1   2
BRANCH   1  11
ATOM     11  C   UNL     1     -10.326 -25.649 -31.420  1.00  0.00    -0.031 C 
ATOM     12  C   UNL     1     -10.814 -26.391 -30.414  1.00  0.00    -0.027 C 
BRANCH  12  13
ATOM     13  C   UNL     1     -10.747 -27.893 -30.436  1.00  0.00     0.054 C 
BRANCH  13  14
ATOM     14  C   UNL     1     -12.127 -28.483 -30.309  1.00  0.00    -0.027 C 
ATOM     15  C   UNL     1     -12.979 -28.667 -31.334  1.00  0.00    -0.031 C 
BRANCH  15  16
ATOM     16  C   UNL     1     -12.677 -28.347 -32.779  1.00  0.00     0.027 C 
BRANCH  16  17
ATOM     17  C   UNL     1     -13.202 -26.959 -33.171  1.00  0.00     0.004 C 
BRANCH  17  18
ATOM     18  C   UNL     1     -12.559 -26.443 -34.468  1.00  0.00     0.000 C 
BRANCH  18  19
ATOM     19  C   UNL     1     -13.544 -26.418 -35.647  1.00  0.00    -0.003 C 
ATOM     20  C   UNL     1     -14.559 -27.560 -35.595  1.00  0.00     0.004 C 
ENDBRANCH  18  19
ENDBRANCH  17  18
ENDBRANCH  16  17
ENDBRANCH  15  16
ENDBRANCH  13  14
ENDBRANCH  12  13
ENDBRANCH   1  11
TORSDOF 14
ENDMDL
MODEL 7
REMARK VINA RESULT:    -4.541      1.646      4.371
REMARK INTER + INTRA:         -10.450
REMARK INTER:                  -8.345
REMARK INTRA:                  -2.106
REMARK UNBOUND:                -2.193
REMARK SMILES CCCCCC=CCC=CCCCCCCCC(=O)[O-]
REMARK SMILES IDX 11 1 12 2 13 3 14 4 15 5 16 6 17 7 18 8 19 9 20 10 10 11
REMARK SMILES IDX 9 12 8 13 7 14 6 15 5 16 4 17 3 18 2 19 1 20
REMARK H PARENT
REMARK Flexibility Score: inf
ROOT
ATOM      1  C   UNL     1     -11.918 -23.139 -32.599  1.00  0.00     0.027 C 
ENDROOT
BRANCH   1   2
ATOM      2  C   UNL     1     -11.017 -22.154 -31.830  1.00  0.00     0.004 C 
BRANCH   2   3
ATOM      3  C   UNL     1     -11.084 -20.696 -32.327  1.00  0.00     0.000 C 
BRANCH   3   4
ATOM      4  C   UNL     1     -12.442 -20.000 -32.126  1.00  0.00     0.000 C 
BRANCH   4   5
ATOM      5  C   UNL     1     -12.959 -19.225 -33.352  1.00  0.00     0.000 C 
BRANCH   5   6
ATOM      6  C   UNL     1     -13.865 -20.066 -34.277  1.00  0.00     0.006 C 
BRANCH   6   7
ATOM      7  C   UNL     1     -13.343 -20.118 -35.719  1.00  0.00     0.053 C 
BRANCH   7   8
ATOM      8  C   UNL     1     -12.196 -21.073 -35.827  1.00  0.00     0.041 C 
ATOM      9  O   UNL     1     -11.017 -20.639 -35.911  1.00  0.00    -0.550 OA
ATOM     10  O   UNL     1     -12.432 -22.442 -35.879  1.00  0.00    -0.550 OA
ENDBRANCH   7   8
ENDBRANCH   6   7
ENDBRANCH   5   6
ENDBRANCH   4   5
ENDBRANCH   3   4
ENDBRANCH   2   3
ENDBRANCH   1   2
BRANCH   1  11
ATOM     11  C   UNL     1     -11.857 -24.541 -32.055  1.00  0.00    -0.031 C 
ATOM     12  C   UNL     1     -10.692 -25.193 -31.912  1.00  0.00    -0.027 C 
BRANCH  12  13
ATOM     13  C   UNL     1     -10.635 -26.608 -31.406  1.00  0.00     0.054 C 
BRANCH  13  14
ATOM     14  C   UNL     1     -11.883 -26.940 -30.633  1.00  0.00    -0.027 C 
ATOM     15  C   UNL     1     -12.879 -27.724 -31.085  1.00  0.00    -0.031 C 
BRANCH  15  16
ATOM     16  C   UNL     1     -12.891 -28.424 -32.423  1.00  0.00     0.027 C 
BRANCH  16  17
ATOM     17  C   UNL     1     -13.642 -27.606 -33.482  1.00  0.00     0.004 C 
BRANCH  17  18
ATOM     18  C   UNL     1     -13.034 -27.776 -34.883  1.00  0.00     0.000 C 
BRANCH  18  19
ATOM     19  C   UNL     1     -11.527 -27.477 -34.914  1.00  0.00    -0.003 C 
ATOM     20  C   UNL     1     -11.208 -26.097 -35.489  1.00  0.00     0.004 C 
ENDBRANCH  18  19
ENDBRANCH  17  18
ENDBRANCH  16  17
ENDBRANCH  15  16
ENDBRANCH  13  14
ENDBRANCH  12  13
ENDBRANCH   1  11
TORSDOF 14
ENDMDL
MODEL 8
REMARK VINA RESULT:    -4.508      2.989      5.769
REMARK INTER + INTRA:         -10.391
REMARK INTER:                  -8.170
REMARK INTRA:                  -2.221
REMARK UNBOUND:                -2.193
REMARK SMILES CCCCCC=CCC=CCCCCCCCC(=O)[O-]
REMARK SMILES IDX 11 1 12 2 13 3 14 4 15 5 16 6 17 7 18 8 19 9 20 10 10 11
REMARK SMILES IDX 9 12 8 13 7 14 6 15 5 16 4 17 3 18 2 19 1 20
REMARK H PARENT
REMARK Flexibility Score: inf
ROOT
ATOM      1  C   UNL     1     -11.510 -25.736 -34.908  1.00  0.00     0.027 C 
ENDROOT
BRANCH   1   2
ATOM      2  C   UNL     1     -12.883 -25.386 -35.510  1.00  0.00     0.004 C 
BRANCH   2   3
ATOM      3  C   UNL     1     -13.813 -26.594 -35.742  1.00  0.00     0.000 C 
BRANCH   3   4
ATOM      4  C   UNL     1     -13.426 -27.871 -34.975  1.00  0.00     0.000 C 
BRANCH   4   5
ATOM      5  C   UNL     1     -13.762 -27.848 -33.472  1.00  0.00     0.000 C 
BRANCH   5   6
ATOM      6  C   UNL     1     -12.649 -28.440 -32.581  1.00  0.00     0.006 C 
BRANCH   6   7
ATOM      7  C   UNL     1     -13.098 -28.621 -31.124  1.00  0.00     0.053 C 
BRANCH   7   8
ATOM      8  C   UNL     1     -12.806 -27.388 -30.329  1.00  0.00     0.041 C 
ATOM      9  O   UNL     1     -11.645 -27.180 -29.888  1.00  0.00    -0.550 OA
ATOM     10  O   UNL     1     -13.825 -26.490 -30.037  1.00  0.00    -0.550 OA
ENDBRANCH   7   8
ENDBRANCH   6   7
ENDBRANCH   5   6
ENDBRANCH   4   5
ENDBRANCH   3   4
ENDBRANCH   2   3
ENDBRANCH   1   2
BRANCH   1  11
ATOM     11  C   UNL     1     -11.341 -25.238 -33.497  1.00  0.00    -0.031 C 
ATOM     12  C   UNL     1     -12.255 -24.447 -32.915  1.00  0.00    -0.027 C 
BRANCH  12  13
ATOM     13  C   UNL     1     -12.067 -23.915 -31.520  1.00  0.00     0.054 C 
BRANCH  13  14
ATOM     14  C   UNL     1     -10.802 -23.103 -31.433  1.00  0.00    -0.027 C 
ATOM     15  C   UNL     1     -10.736 -21.769 -31.592  1.00  0.00    -0.031 C 
BRANCH  15  16
ATOM     16  C   UNL     1     -11.920 -20.866 -31.847  1.00  0.00     0.027 C 
BRANCH  16  17
ATOM     17  C   UNL     1     -11.975 -20.408 -33.310  1.00  0.00     0.004 C 
BRANCH  17  18
ATOM     18  C   UNL     1     -12.982 -21.226 -34.135  1.00  0.00     0.000 C 
BRANCH  18  19
ATOM     19  C   UNL     1     -12.451 -21.579 -35.533  1.00  0.00    -0.003 C 
ATOM     20  C   UNL     1     -11.237 -20.741 -35.936  1.00  0.00     0.004 C 
ENDBRANCH  18  19
ENDBRANCH  17  18
ENDBRANCH  16  17
ENDBRANCH  15  16
ENDBRANCH  13  14
ENDBRANCH  12  13
ENDBRANCH   1  11
TORSDOF 14
ENDMDL
MODEL 9
REMARK VINA RESULT:    -4.457      1.563      4.667
REMARK INTER + INTRA:         -10.298
REMARK INTER:                  -7.885
REMARK INTRA:                  -2.412
REMARK UNBOUND:                -2.193
REMARK SMILES CCCCCC=CCC=CCCCCCCCC(=O)[O-]
REMARK SMILES IDX 11 1 12 2 13 3 14 4 15 5 16 6 17 7 18 8 19 9 20 10 10 11
REMARK SMILES IDX 9 12 8 13 7 14 6 15 5 16 4 17 3 18 2 19 1 20
REMARK H PARENT
REMARK Flexibility Score: inf
ROOT
ATOM      1  C   UNL     1     -11.018 -24.677 -31.163  1.00  0.00     0.027 C 
ENDROOT
BRANCH   1   2
ATOM      2  C   UNL     1     -12.351 -24.172 -30.580  1.00  0.00     0.004 C 
BRANCH   2   3
ATOM      3  C   UNL     1     -12.299 -22.746 -29.992  1.00  0.00     0.000 C 
BRANCH   3   4
ATOM      4  C   UNL     1     -11.518 -21.723 -30.835  1.00  0.00     0.000 C 
BRANCH   4   5
ATOM      5  C   UNL     1     -12.274 -20.412 -31.124  1.00  0.00     0.000 C 
BRANCH   5   6
ATOM      6  C   UNL     1     -12.140 -19.930 -32.584  1.00  0.00     0.006 C 
BRANCH   6   7
ATOM      7  C   UNL     1     -11.526 -20.997 -33.500  1.00  0.00     0.053 C 
BRANCH   7   8
ATOM      8  C   UNL     1     -12.351 -21.164 -34.737  1.00  0.00     0.041 C 
ATOM      9  O   UNL     1     -11.815 -21.076 -35.872  1.00  0.00    -0.550 OA
ATOM     10  O   UNL     1     -13.722 -21.374 -34.637  1.00  0.00    -0.550 OA
ENDBRANCH   7   8
ENDBRANCH   6   7
ENDBRANCH   5   6
ENDBRANCH   4   5
ENDBRANCH   3   4
ENDBRANCH   2   3
ENDBRANCH   1   2
BRANCH   1  11
ATOM     11  C   UNL     1     -11.115 -25.047 -32.619  1.00  0.00    -0.031 C 
ATOM     12  C   UNL     1     -12.109 -24.592 -33.398  1.00  0.00    -0.027 C 
BRANCH  12  13
ATOM     13  C   UNL     1     -12.229 -24.993 -34.842  1.00  0.00     0.054 C 
BRANCH  13  14
ATOM     14  C   UNL     1     -11.388 -26.211 -35.121  1.00  0.00    -0.027 C 
ATOM     15  C   UNL     1     -11.851 -27.474 -35.141  1.00  0.00    -0.031 C 
BRANCH  15  16
ATOM     16  C   UNL     1     -13.292 -27.872 -34.925  1.00  0.00     0.027 C 
BRANCH  16  17
ATOM     17  C   UNL     1     -13.659 -27.875 -33.435  1.00  0.00     0.004 C 
BRANCH  17  18
ATOM     18  C   UNL     1     -12.557 -28.505 -32.569  1.00  0.00     0.000 C 
BRANCH  18  19
ATOM     19  C   UNL     1     -12.706 -28.158 -31.079  1.00  0.00    -0.003 C 
ATOM     20  C   UNL     1     -11.395 -28.295 -30.304  1.00  0.00     0.004 C 
ENDBRANCH  18  19
ENDBRANCH  17  18
ENDBRANCH  16  17
ENDBRANCH  15  16
ENDBRANCH  13  14
ENDBRANCH  12  13
ENDBRANCH   1  11
TORSDOF 14
ENDMDL
