MODEL 1
REMARK VINA RESULT:    -4.252      0.000      0.000
REMARK INTER + INTRA:          -4.643
REMARK INTER:                  -4.625
REMARK INTRA:                  -0.018
REMARK UNBOUND:                -0.018
REMARK SMILES OCc1ccccc1
REMARK SMILES IDX 2 1 3 2 6 3 5 4 7 5 4 6 8 7 1 8
REMARK H PARENT 1 9
REMARK Flexibility Score: inf
ROOT
ATOM      1  C   UNL     1      60.542  -4.957  74.953  1.00  0.00     0.191 C 
ENDROOT
BRANCH   1   2
ATOM      2  C   UNL     1      59.359  -4.121  74.547  1.00  0.00    -0.023 A 
ATOM      3  C   UNL     1      57.113  -2.627  73.777  1.00  0.00     0.000 A 
ATOM      4  C   UNL     1      57.284  -2.991  75.115  1.00  0.00     0.000 A 
ATOM      5  C   UNL     1      58.054  -3.015  72.821  1.00  0.00     0.000 A 
ATOM      6  C   UNL     1      58.400  -3.741  75.501  1.00  0.00     0.006 A 
ATOM      7  C   UNL     1      59.173  -3.764  73.202  1.00  0.00     0.006 A 
ENDBRANCH   1   2
BRANCH   1   8
ATOM      8  O   UNL     1      60.242  -5.683  76.113  1.00  0.00    -0.392 OA
ATOM      9  H   UNL     1      59.683  -5.091  76.681  1.00  0.00     0.211 HD
ENDBRANCH   1   8
TORSDOF 2
ENDMDL
MODEL 2
REMARK VINA RESULT:    -4.230     15.886     17.243
REMARK INTER + INTRA:          -4.619
REMARK INTER:                  -4.603
REMARK INTRA:                  -0.016
REMARK UNBOUND:                -0.018
REMARK SMILES OCc1ccccc1
REMARK SMILES IDX 2 1 3 2 6 3 5 4 7 5 4 6 8 7 1 8
REMARK H PARENT 1 9
REMARK Flexibility Score: inf
ROOT
ATOM      1  C   UNL     1      72.416  -3.777  67.099  1.00  0.00     0.191 C 
ENDROOT
BRANCH   1   2
ATOM      2  C   UNL     1      73.751  -3.423  67.695  1.00  0.00    -0.023 A 
ATOM      3  C   UNL     1      76.217  -2.688  68.813  1.00  0.00     0.000 A 
ATOM      4  C   UNL     1      75.172  -3.107  69.641  1.00  0.00     0.000 A 
ATOM      5  C   UNL     1      76.031  -2.625  67.430  1.00  0.00     0.000 A 
ATOM      6  C   UNL     1      73.940  -3.468  69.087  1.00  0.00     0.006 A 
ATOM      7  C   UNL     1      74.801  -2.986  66.871  1.00  0.00     0.006 A 
ENDBRANCH   1   2
BRANCH   1   8
ATOM      8  O   UNL     1      72.589  -4.304  65.812  1.00  0.00    -0.392 OA
ATOM      9  H   UNL     1      72.752  -5.277  65.924  1.00  0.00     0.211 HD
ENDBRANCH   1   8
TORSDOF 2
ENDMDL
MODEL 3
REMARK VINA RESULT:    -4.204     20.493     21.169
REMARK INTER + INTRA:          -4.591
REMARK INTER:                  -4.575
REMARK INTRA:                  -0.016
REMARK UNBOUND:                -0.018
REMARK SMILES OCc1ccccc1
REMARK SMILES IDX 2 1 3 2 6 3 5 4 7 5 4 6 8 7 1 8
REMARK H PARENT 1 9
REMARK Flexibility Score: inf
ROOT
ATOM      1  C   UNL     1      73.938   9.425  76.389  1.00  0.00     0.191 C 
ENDROOT
BRANCH   1   2
ATOM      2  C   UNL     1      74.920   8.973  75.343  1.00  0.00    -0.023 A 
ATOM      3  C   UNL     1      76.794   8.194  73.406  1.00  0.00     0.000 A 
ATOM      4  C   UNL     1      76.960   7.799  74.737  1.00  0.00     0.000 A 
ATOM      5  C   UNL     1      75.702   8.984  73.042  1.00  0.00     0.000 A 
ATOM      6  C   UNL     1      76.030   8.191  75.705  1.00  0.00     0.006 A 
ATOM      7  C   UNL     1      74.769   9.378  74.008  1.00  0.00     0.006 A 
ENDBRANCH   1   2
BRANCH   1   8
ATOM      8  O   UNL     1      74.617   9.808  77.553  1.00  0.00    -0.392 OA
ATOM      9  H   UNL     1      75.343   9.145  77.688  1.00  0.00     0.211 HD
ENDBRANCH   1   8
TORSDOF 2
ENDMDL
MODEL 4
REMARK VINA RESULT:    -4.198     11.906     12.216
REMARK INTER + INTRA:          -4.584
REMARK INTER:                  -4.565
REMARK INTRA:                  -0.020
REMARK UNBOUND:                -0.018
REMARK SMILES OCc1ccccc1
REMARK SMILES IDX 2 1 3 2 6 3 5 4 7 5 4 6 8 7 1 8
REMARK H PARENT 1 9
REMARK Flexibility Score: inf
ROOT
ATOM      1  C   UNL     1      61.379   5.216  77.999  1.00  0.00     0.191 C 
ENDROOT
BRANCH   1   2
ATOM      2  C   UNL     1      62.118   6.523  77.900  1.00  0.00    -0.023 A 
ATOM      3  C   UNL     1      63.465   8.981  77.784  1.00  0.00     0.000 A 
ATOM      4  C   UNL     1      64.084   7.872  78.368  1.00  0.00     0.000 A 
ATOM      5  C   UNL     1      62.173   8.868  77.267  1.00  0.00     0.000 A 
ATOM      6  C   UNL     1      63.412   6.647  78.433  1.00  0.00     0.006 A 
ATOM      7  C   UNL     1      61.497   7.645  77.328  1.00  0.00     0.006 A 
ENDBRANCH   1   2
BRANCH   1   8
ATOM      8  O   UNL     1      62.134   4.292  78.733  1.00  0.00    -0.392 OA
ATOM      9  H   UNL     1      61.506   3.848  79.360  1.00  0.00     0.211 HD
ENDBRANCH   1   8
TORSDOF 2
ENDMDL
MODEL 5
REMARK VINA RESULT:    -4.193     18.364     18.906
REMARK INTER + INTRA:          -4.579
REMARK INTER:                  -4.560
REMARK INTRA:                  -0.019
REMARK UNBOUND:                -0.018
REMARK SMILES OCc1ccccc1
REMARK SMILES IDX 2 1 3 2 6 3 5 4 7 5 4 6 8 7 1 8
REMARK H PARENT 1 9
REMARK Flexibility Score: inf
ROOT
ATOM      1  C   UNL     1      72.727   6.450  67.945  1.00  0.00     0.191 C 
ENDROOT
BRANCH   1   2
ATOM      2  C   UNL     1      72.141   7.733  68.469  1.00  0.00    -0.023 A 
ATOM      3  C   UNL     1      71.081  10.163  69.386  1.00  0.00     0.000 A 
ATOM      4  C   UNL     1      70.359   9.386  68.475  1.00  0.00     0.000 A 
ATOM      5  C   UNL     1      72.334   9.735  69.831  1.00  0.00     0.000 A 
ATOM      6  C   UNL     1      70.888   8.177  68.012  1.00  0.00     0.006 A 
ATOM      7  C   UNL     1      72.866   8.526  69.371  1.00  0.00     0.006 A 
ENDBRANCH   1   2
BRANCH   1   8
ATOM      8  O   UNL     1      72.013   6.019  66.820  1.00  0.00    -0.392 OA
ATOM      9  H   UNL     1      71.054   6.188  67.011  1.00  0.00     0.211 HD
ENDBRANCH   1   8
TORSDOF 2
ENDMDL
MODEL 6
REMARK VINA RESULT:    -4.188     13.570     14.300
REMARK INTER + INTRA:          -4.573
REMARK INTER:                  -4.558
REMARK INTRA:                  -0.015
REMARK UNBOUND:                -0.018
REMARK SMILES OCc1ccccc1
REMARK SMILES IDX 2 1 3 2 6 3 5 4 7 5 4 6 8 7 1 8
REMARK H PARENT 1 9
REMARK Flexibility Score: inf
ROOT
ATOM      1  C   UNL     1      60.764  10.733  71.290  1.00  0.00     0.191 C 
ENDROOT
BRANCH   1   2
ATOM      2  C   UNL     1      59.700  10.103  72.146  1.00  0.00    -0.023 A 
ATOM      3  C   UNL     1      57.689   9.000  73.761  1.00  0.00     0.000 A 
ATOM      4  C   UNL     1      57.444   9.237  72.406  1.00  0.00     0.000 A 
ATOM      5  C   UNL     1      58.931   9.321  74.314  1.00  0.00     0.000 A 
ATOM      6  C   UNL     1      58.443   9.793  71.600  1.00  0.00     0.006 A 
ATOM      7  C   UNL     1      59.933   9.876  73.512  1.00  0.00     0.006 A 
ENDBRANCH   1   2
BRANCH   1   8
ATOM      8  O   UNL     1      60.208  11.747  70.500  1.00  0.00    -0.392 OA
ATOM      9  H   UNL     1      60.865  11.939  69.781  1.00  0.00     0.211 HD
ENDBRANCH   1   8
TORSDOF 2
ENDMDL
MODEL 7
REMARK VINA RESULT:    -4.181     13.223     14.098
REMARK INTER + INTRA:          -4.566
REMARK INTER:                  -4.547
REMARK INTRA:                  -0.019
REMARK UNBOUND:                -0.018
REMARK SMILES OCc1ccccc1
REMARK SMILES IDX 2 1 3 2 6 3 5 4 7 5 4 6 8 7 1 8
REMARK H PARENT 1 9
REMARK Flexibility Score: inf
ROOT
ATOM      1  C   UNL     1      57.467   8.723  73.620  1.00  0.00     0.191 C 
ENDROOT
BRANCH   1   2
ATOM      2  C   UNL     1      58.645   9.573  73.230  1.00  0.00    -0.023 A 
ATOM      3  C   UNL     1      60.888  11.094  72.505  1.00  0.00     0.000 A 
ATOM      4  C   UNL     1      60.087  10.517  71.517  1.00  0.00     0.000 A 
ATOM      5  C   UNL     1      60.579  10.905  73.854  1.00  0.00     0.000 A 
ATOM      6  C   UNL     1      58.972   9.753  71.875  1.00  0.00     0.006 A 
ATOM      7  C   UNL     1      59.464  10.143  74.218  1.00  0.00     0.006 A 
ENDBRANCH   1   2
BRANCH   1   8
ATOM      8  O   UNL     1      57.610   8.280  74.941  1.00  0.00    -0.392 OA
ATOM      9  H   UNL     1      58.121   7.430  74.902  1.00  0.00     0.211 HD
ENDBRANCH   1   8
TORSDOF 2
ENDMDL
MODEL 8
REMARK VINA RESULT:    -4.164     12.503     13.679
REMARK INTER + INTRA:          -4.547
REMARK INTER:                  -4.528
REMARK INTRA:                  -0.020
REMARK UNBOUND:                -0.018
REMARK SMILES OCc1ccccc1
REMARK SMILES IDX 2 1 3 2 6 3 5 4 7 5 4 6 8 7 1 8
REMARK H PARENT 1 9
REMARK Flexibility Score: inf
ROOT
ATOM      1  C   UNL     1      73.409  -1.092  75.194  1.00  0.00     0.191 C 
ENDROOT
BRANCH   1   2
ATOM      2  C   UNL     1      72.596  -2.308  74.844  1.00  0.00    -0.023 A 
ATOM      3  C   UNL     1      71.124  -4.619  74.242  1.00  0.00     0.000 A 
ATOM      4  C   UNL     1      70.725  -3.792  75.295  1.00  0.00     0.000 A 
ATOM      5  C   UNL     1      72.262  -4.302  73.496  1.00  0.00     0.000 A 
ATOM      6  C   UNL     1      71.461  -2.642  75.602  1.00  0.00     0.006 A 
ATOM      7  C   UNL     1      73.000  -3.153  73.798  1.00  0.00     0.006 A 
ENDBRANCH   1   2
BRANCH   1   8
ATOM      8  O   UNL     1      72.958  -0.542  76.401  1.00  0.00    -0.392 OA
ATOM      9  H   UNL     1      73.663  -0.723  77.076  1.00  0.00     0.211 HD
ENDBRANCH   1   8
TORSDOF 2
ENDMDL
MODEL 9
REMARK VINA RESULT:    -4.152     20.716     21.105
REMARK INTER + INTRA:          -4.534
REMARK INTER:                  -4.516
REMARK INTRA:                  -0.018
REMARK UNBOUND:                -0.018
REMARK SMILES OCc1ccccc1
REMARK SMILES IDX 2 1 3 2 6 3 5 4 7 5 4 6 8 7 1 8
REMARK H PARENT 1 9
REMARK Flexibility Score: inf
ROOT
ATOM      1  C   UNL     1      76.775   7.907  73.133  1.00  0.00     0.191 C 
ENDROOT
BRANCH   1   2
ATOM      2  C   UNL     1      75.722   8.844  73.658  1.00  0.00    -0.023 A 
ATOM      3  C   UNL     1      73.701  10.541  74.610  1.00  0.00     0.000 A 
ATOM      4  C   UNL     1      74.234   9.554  75.443  1.00  0.00     0.000 A 
ATOM      5  C   UNL     1      74.167  10.677  73.300  1.00  0.00     0.000 A 
ATOM      6  C   UNL     1      75.237   8.702  74.969  1.00  0.00     0.006 A 
ATOM      7  C   UNL     1      75.171   9.828  72.822  1.00  0.00     0.006 A 
ENDBRANCH   1   2
BRANCH   1   8
ATOM      8  O   UNL     1      76.712   7.847  71.735  1.00  0.00    -0.392 OA
ATOM      9  H   UNL     1      77.577   7.468  71.428  1.00  0.00     0.211 HD
ENDBRANCH   1   8
TORSDOF 2
ENDMDL
