MODEL 1
REMARK VINA RESULT:    -8.462      0.000      0.000
REMARK INTER + INTRA:          -9.633
REMARK INTER:                  -9.698
REMARK INTRA:                   0.065
REMARK UNBOUND:                 0.065
REMARK SMILES C=C(C)[C@@H]1CC[C@@]2(C(=O)[O-])CC[C@@]3(C)[C@@H](CC[C@H]4[C@]5(C)CC[C@H](O)C(C)(C)[C@@H]5CC[C@@]43C)[C@H]12
REMARK SMILES IDX 7 1 6 2 33 3 11 4 5 5 15 6 4 7 12 8 16 9 13 10 17 11 31 12
REMARK SMILES IDX 14 13 18 14 30 15 32 16 19 17 29 18 21 19 20 20 28 21 22 22
REMARK SMILES IDX 25 23 23 24 26 25 27 26 8 27 9 28 10 29 2 30 3 31 1 32 24 33
REMARK H PARENT 24 34
REMARK Flexibility Score: inf
ROOT
ATOM      1  C   UNL     1      37.400  57.689   0.072  1.00  0.00     0.014 C 
ATOM      2  C   UNL     1      36.259  56.943  -0.643  1.00  0.00     0.014 C 
ATOM      3  C   UNL     1      37.784  56.658   1.149  1.00  0.00     0.012 C 
ATOM      4  C   UNL     1      36.943  58.996   0.778  1.00  0.00     0.014 C 
ATOM      5  C   UNL     1      36.718  55.469  -0.696  1.00  0.00     0.009 C 
ATOM      6  C   UNL     1      38.953  57.129   2.048  1.00  0.00     0.000 C 
ATOM      7  C   UNL     1      37.696  55.261   0.482  1.00  0.00     0.018 C 
ATOM      8  C   UNL     1      37.995  59.539   1.792  1.00  0.00     0.008 C 
ATOM      9  C   UNL     1      39.430  56.038   3.035  1.00  0.00     0.005 C 
ATOM     10  C   UNL     1      38.580  58.476   2.808  1.00  0.00    -0.024 C 
ATOM     11  C   UNL     1      40.604  56.513   3.911  1.00  0.00     0.005 C 
ATOM     12  C   UNL     1      39.924  58.999   3.557  1.00  0.00    -0.024 C 
ATOM     13  C   UNL     1      37.394  58.214   3.829  1.00  0.00     0.012 C 
ATOM     14  C   UNL     1      40.359  57.895   4.606  1.00  0.00     0.002 C 
ATOM     15  C   UNL     1      39.669  60.354   4.286  1.00  0.00     0.008 C 
ATOM     16  C   UNL     1      41.085  59.261   2.527  1.00  0.00     0.012 C 
ATOM     17  C   UNL     1      41.462  58.286   5.682  1.00  0.00    -0.026 C 
ATOM     18  C   UNL     1      40.754  60.770   5.296  1.00  0.00     0.005 C 
ATOM     19  C   UNL     1      41.522  57.145   6.762  1.00  0.00     0.010 C 
ATOM     20  C   UNL     1      42.900  58.363   5.071  1.00  0.00     0.012 C 
ATOM     21  C   UNL     1      41.138  59.691   6.353  1.00  0.00     0.003 C 
ATOM     22  C   UNL     1      41.779  57.664   8.170  1.00  0.00     0.033 C 
ATOM     23  C   UNL     1      40.258  59.707   7.691  1.00  0.00    -0.006 C 
ATOM     24  C   UNL     1      40.567  58.473   8.638  1.00  0.00     0.120 C 
ATOM     25  C   UNL     1      38.739  59.795   7.399  1.00  0.00     0.014 C 
ATOM     26  C   UNL     1      40.612  60.990   8.502  1.00  0.00     0.014 C 
ENDROOT
BRANCH   1  27
ATOM     27  C   UNL     1      38.508  58.000  -0.944  1.00  0.00     0.048 C 
ATOM     28  O   UNL     1      38.234  58.354  -2.122  1.00  0.00    -0.550 OA
ATOM     29  O   UNL     1      39.853  57.909  -0.589  1.00  0.00    -0.550 OA
ENDBRANCH   1  27
BRANCH   7  30
ATOM     30  C   UNL     1      38.965  54.515   0.062  1.00  0.00    -0.077 C 
ATOM     31  C   UNL     1      39.377  54.562  -1.390  1.00  0.00     0.039 C 
ATOM     32  C   UNL     1      39.782  53.875   0.913  1.00  0.00     0.008 C 
ENDBRANCH   7  30
BRANCH  24  33
ATOM     33  O   UNL     1      39.450  57.616   8.751  1.00  0.00    -0.393 OA
ATOM     34  H   UNL     1      38.867  57.784   7.962  1.00  0.00     0.210 HD
ENDBRANCH  24  33
TORSDOF 3
ENDMDL
MODEL 2
REMARK VINA RESULT:    -8.272      1.811      7.709
REMARK INTER + INTRA:          -9.416
REMARK INTER:                  -9.300
REMARK INTRA:                  -0.115
REMARK UNBOUND:                 0.065
REMARK SMILES C=C(C)[C@@H]1CC[C@@]2(C(=O)[O-])CC[C@@]3(C)[C@@H](CC[C@H]4[C@]5(C)CC[C@H](O)C(C)(C)[C@@H]5CC[C@@]43C)[C@H]12
REMARK SMILES IDX 7 1 6 2 33 3 11 4 5 5 15 6 4 7 12 8 16 9 13 10 17 11 31 12
REMARK SMILES IDX 14 13 18 14 30 15 32 16 19 17 29 18 21 19 20 20 28 21 22 22
REMARK SMILES IDX 25 23 23 24 26 25 27 26 8 27 9 28 10 29 2 30 3 31 1 32 24 33
REMARK H PARENT 24 34
REMARK Flexibility Score: inf
ROOT
ATOM      1  C   UNL     1      40.532  59.399   7.104  1.00  0.00     0.014 C 
ATOM      2  C   UNL     1      40.015  60.293   8.247  1.00  0.00     0.014 C 
ATOM      3  C   UNL     1      39.989  60.160   5.881  1.00  0.00     0.012 C 
ATOM      4  C   UNL     1      39.924  57.970   7.108  1.00  0.00     0.014 C 
ATOM      5  C   UNL     1      40.184  61.738   7.731  1.00  0.00     0.009 C 
ATOM      6  C   UNL     1      40.371  59.494   4.536  1.00  0.00     0.000 C 
ATOM      7  C   UNL     1      40.145  61.672   6.188  1.00  0.00     0.018 C 
ATOM      8  C   UNL     1      40.154  57.207   5.768  1.00  0.00     0.008 C 
ATOM      9  C   UNL     1      39.947  60.333   3.308  1.00  0.00     0.005 C 
ATOM     10  C   UNL     1      39.798  58.013   4.452  1.00  0.00    -0.024 C 
ATOM     11  C   UNL     1      40.348  59.668   1.977  1.00  0.00     0.005 C 
ATOM     12  C   UNL     1      40.416  57.329   3.113  1.00  0.00    -0.024 C 
ATOM     13  C   UNL     1      38.212  58.042   4.427  1.00  0.00     0.012 C 
ATOM     14  C   UNL     1      39.919  58.166   1.864  1.00  0.00     0.002 C 
ATOM     15  C   UNL     1      39.954  55.845   2.976  1.00  0.00     0.008 C 
ATOM     16  C   UNL     1      41.988  57.300   3.162  1.00  0.00     0.012 C 
ATOM     17  C   UNL     1      40.127  57.538   0.419  1.00  0.00    -0.026 C 
ATOM     18  C   UNL     1      40.193  55.208   1.596  1.00  0.00     0.005 C 
ATOM     19  C   UNL     1      39.321  58.407  -0.615  1.00  0.00     0.010 C 
ATOM     20  C   UNL     1      41.616  57.595  -0.056  1.00  0.00     0.012 C 
ATOM     21  C   UNL     1      39.656  56.019   0.378  1.00  0.00     0.003 C 
ATOM     22  C   UNL     1      38.694  57.583  -1.732  1.00  0.00     0.033 C 
ATOM     23  C   UNL     1      38.140  55.706  -0.032  1.00  0.00    -0.006 C 
ATOM     24  C   UNL     1      37.594  56.694  -1.146  1.00  0.00     0.120 C 
ATOM     25  C   UNL     1      37.187  55.692   1.190  1.00  0.00     0.014 C 
ATOM     26  C   UNL     1      38.077  54.272  -0.638  1.00  0.00     0.014 C 
ENDROOT
BRANCH   1  27
ATOM     27  C   UNL     1      42.063  59.321   7.185  1.00  0.00     0.048 C 
ATOM     28  O   UNL     1      42.678  59.626   8.242  1.00  0.00    -0.550 OA
ATOM     29  O   UNL     1      42.818  58.900   6.091  1.00  0.00    -0.550 OA
ENDBRANCH   1  27
BRANCH   7  30
ATOM     30  C   UNL     1      41.267  62.488   5.540  1.00  0.00    -0.077 C 
ATOM     31  C   UNL     1      40.890  63.686   4.701  1.00  0.00     0.039 C 
ATOM     32  C   UNL     1      42.576  62.254   5.725  1.00  0.00     0.008 C 
ENDBRANCH   7  30
BRANCH  24  33
ATOM     33  O   UNL     1      36.552  57.507  -0.649  1.00  0.00    -0.393 OA
ATOM     34  H   UNL     1      36.233  58.073  -1.402  1.00  0.00     0.210 HD
ENDBRANCH  24  33
TORSDOF 3
ENDMDL
MODEL 3
REMARK VINA RESULT:    -8.270      2.447      3.908
REMARK INTER + INTRA:          -9.414
REMARK INTER:                  -9.267
REMARK INTRA:                  -0.147
REMARK UNBOUND:                 0.065
REMARK SMILES C=C(C)[C@@H]1CC[C@@]2(C(=O)[O-])CC[C@@]3(C)[C@@H](CC[C@H]4[C@]5(C)CC[C@H](O)C(C)(C)[C@@H]5CC[C@@]43C)[C@H]12
REMARK SMILES IDX 7 1 6 2 33 3 11 4 5 5 15 6 4 7 12 8 16 9 13 10 17 11 31 12
REMARK SMILES IDX 14 13 18 14 30 15 32 16 19 17 29 18 21 19 20 20 28 21 22 22
REMARK SMILES IDX 25 23 23 24 26 25 27 26 8 27 9 28 10 29 2 30 3 31 1 32 24 33
REMARK H PARENT 24 34
REMARK Flexibility Score: inf
ROOT
ATOM      1  C   UNL     1      40.608  57.703   1.040  1.00  0.00     0.014 C 
ATOM      2  C   UNL     1      39.672  57.069  -0.006  1.00  0.00     0.014 C 
ATOM      3  C   UNL     1      39.638  57.876   2.222  1.00  0.00     0.012 C 
ATOM      4  C   UNL     1      41.142  59.103   0.628  1.00  0.00     0.014 C 
ATOM      5  C   UNL     1      38.785  56.091   0.794  1.00  0.00     0.009 C 
ATOM      6  C   UNL     1      40.312  58.496   3.471  1.00  0.00     0.000 C 
ATOM      7  C   UNL     1      38.733  56.617   2.247  1.00  0.00     0.018 C 
ATOM      8  C   UNL     1      41.771  59.888   1.820  1.00  0.00     0.008 C 
ATOM      9  C   UNL     1      39.374  58.538   4.701  1.00  0.00     0.005 C 
ATOM     10  C   UNL     1      40.903  59.935   3.143  1.00  0.00    -0.024 C 
ATOM     11  C   UNL     1      40.062  59.141   5.941  1.00  0.00     0.005 C 
ATOM     12  C   UNL     1      41.760  60.415   4.438  1.00  0.00    -0.024 C 
ATOM     13  C   UNL     1      39.725  60.943   2.804  1.00  0.00     0.012 C 
ATOM     14  C   UNL     1      40.770  60.511   5.670  1.00  0.00     0.002 C 
ATOM     15  C   UNL     1      42.431  61.801   4.185  1.00  0.00     0.008 C 
ATOM     16  C   UNL     1      42.928  59.408   4.752  1.00  0.00     0.012 C 
ATOM     17  C   UNL     1      41.286  61.246   6.982  1.00  0.00    -0.026 C 
ATOM     18  C   UNL     1      42.979  62.502   5.440  1.00  0.00     0.005 C 
ATOM     19  C   UNL     1      40.059  61.456   7.943  1.00  0.00     0.010 C 
ATOM     20  C   UNL     1      42.311  60.387   7.792  1.00  0.00     0.012 C 
ATOM     21  C   UNL     1      41.979  62.634   6.629  1.00  0.00     0.003 C 
ATOM     22  C   UNL     1      40.115  62.770   8.710  1.00  0.00     0.033 C 
ATOM     23  C   UNL     1      41.070  63.952   6.610  1.00  0.00    -0.006 C 
ATOM     24  C   UNL     1      39.947  63.934   7.729  1.00  0.00     0.120 C 
ATOM     25  C   UNL     1      40.439  64.216   5.219  1.00  0.00     0.014 C 
ATOM     26  C   UNL     1      41.977  65.184   6.907  1.00  0.00     0.014 C 
ENDROOT
BRANCH   1  27
ATOM     27  C   UNL     1      41.781  56.748   1.304  1.00  0.00     0.048 C 
ATOM     28  O   UNL     1      42.063  55.822   0.498  1.00  0.00    -0.550 OA
ATOM     29  O   UNL     1      42.576  56.887   2.440  1.00  0.00    -0.550 OA
ENDBRANCH   1  27
BRANCH   7  30
ATOM     30  C   UNL     1      38.964  55.508   3.277  1.00  0.00    -0.077 C 
ATOM     31  C   UNL     1      37.934  55.314   4.364  1.00  0.00     0.039 C 
ATOM     32  C   UNL     1      39.990  54.645   3.241  1.00  0.00     0.008 C 
ENDBRANCH   7  30
BRANCH  24  33
ATOM     33  O   UNL     1      38.654  63.884   7.164  1.00  0.00    -0.393 OA
ATOM     34  H   UNL     1      38.764  63.773   6.181  1.00  0.00     0.210 HD
ENDBRANCH  24  33
TORSDOF 3
ENDMDL
MODEL 4
REMARK VINA RESULT:    -8.219      1.894      7.625
REMARK INTER + INTRA:          -9.356
REMARK INTER:                  -9.196
REMARK INTRA:                  -0.160
REMARK UNBOUND:                 0.065
REMARK SMILES C=C(C)[C@@H]1CC[C@@]2(C(=O)[O-])CC[C@@]3(C)[C@@H](CC[C@H]4[C@]5(C)CC[C@H](O)C(C)(C)[C@@H]5CC[C@@]43C)[C@H]12
REMARK SMILES IDX 7 1 6 2 33 3 11 4 5 5 15 6 4 7 12 8 16 9 13 10 17 11 31 12
REMARK SMILES IDX 14 13 18 14 30 15 32 16 19 17 29 18 21 19 20 20 28 21 22 22
REMARK SMILES IDX 25 23 23 24 26 25 27 26 8 27 9 28 10 29 2 30 3 31 1 32 24 33
REMARK H PARENT 24 34
REMARK Flexibility Score: inf
ROOT
ATOM      1  C   UNL     1      42.139  58.436   5.956  1.00  0.00     0.014 C 
ATOM      2  C   UNL     1      42.632  57.977   7.341  1.00  0.00     0.014 C 
ATOM      3  C   UNL     1      40.724  57.831   5.943  1.00  0.00     0.012 C 
ATOM      4  C   UNL     1      42.948  57.830   4.775  1.00  0.00     0.014 C 
ATOM      5  C   UNL     1      41.406  58.118   8.268  1.00  0.00     0.009 C 
ATOM      6  C   UNL     1      39.944  58.145   4.643  1.00  0.00     0.000 C 
ATOM      7  C   UNL     1      40.150  58.001   7.374  1.00  0.00     0.018 C 
ATOM      8  C   UNL     1      42.231  57.993   3.401  1.00  0.00     0.008 C 
ATOM      9  C   UNL     1      38.476  57.658   4.689  1.00  0.00     0.005 C 
ATOM     10  C   UNL     1      40.706  57.571   3.370  1.00  0.00    -0.024 C 
ATOM     11  C   UNL     1      37.707  57.992   3.397  1.00  0.00     0.005 C 
ATOM     12  C   UNL     1      39.930  58.120   2.051  1.00  0.00    -0.024 C 
ATOM     13  C   UNL     1      40.736  55.985   3.423  1.00  0.00     0.012 C 
ATOM     14  C   UNL     1      38.449  57.559   2.087  1.00  0.00     0.002 C 
ATOM     15  C   UNL     1      40.644  57.653   0.745  1.00  0.00     0.008 C 
ATOM     16  C   UNL     1      39.918  59.693   2.012  1.00  0.00     0.012 C 
ATOM     17  C   UNL     1      37.572  57.695   0.768  1.00  0.00    -0.026 C 
ATOM     18  C   UNL     1      39.824  57.823  -0.547  1.00  0.00     0.005 C 
ATOM     19  C   UNL     1      36.267  56.836   0.956  1.00  0.00     0.010 C 
ATOM     20  C   UNL     1      37.079  59.158   0.518  1.00  0.00     0.012 C 
ATOM     21  C   UNL     1      38.385  57.223  -0.514  1.00  0.00     0.003 C 
ATOM     22  C   UNL     1      35.808  56.155  -0.325  1.00  0.00     0.033 C 
ATOM     23  C   UNL     1      38.278  55.689  -0.960  1.00  0.00    -0.006 C 
ATOM     24  C   UNL     1      36.830  55.086  -0.723  1.00  0.00     0.120 C 
ATOM     25  C   UNL     1      39.349  54.799  -0.281  1.00  0.00     0.014 C 
ATOM     26  C   UNL     1      38.554  55.597  -2.491  1.00  0.00     0.014 C 
ENDROOT
BRANCH   1  27
ATOM     27  C   UNL     1      42.184  59.970   5.894  1.00  0.00     0.048 C 
ATOM     28  O   UNL     1      43.074  60.622   6.500  1.00  0.00    -0.550 OA
ATOM     29  O   UNL     1      41.244  60.684   5.153  1.00  0.00    -0.550 OA
ENDBRANCH   1  27
BRANCH   7  30
ATOM     30  C   UNL     1      39.115  59.088   7.676  1.00  0.00    -0.077 C 
ATOM     31  C   UNL     1      37.655  58.706   7.677  1.00  0.00     0.039 C 
ATOM     32  C   UNL     1      39.421  60.351   8.011  1.00  0.00     0.008 C 
ENDBRANCH   7  30
BRANCH  24  33
ATOM     33  O   UNL     1      36.848  54.070   0.258  1.00  0.00    -0.393 OA
ATOM     34  H   UNL     1      35.943  53.659   0.276  1.00  0.00     0.210 HD
ENDBRANCH  24  33
TORSDOF 3
ENDMDL
MODEL 5
REMARK VINA RESULT:    -8.163      1.359      7.449
REMARK INTER + INTRA:          -9.291
REMARK INTER:                  -9.142
REMARK INTRA:                  -0.149
REMARK UNBOUND:                 0.065
REMARK SMILES C=C(C)[C@@H]1CC[C@@]2(C(=O)[O-])CC[C@@]3(C)[C@@H](CC[C@H]4[C@]5(C)CC[C@H](O)C(C)(C)[C@@H]5CC[C@@]43C)[C@H]12
REMARK SMILES IDX 7 1 6 2 33 3 11 4 5 5 15 6 4 7 12 8 16 9 13 10 17 11 31 12
REMARK SMILES IDX 14 13 18 14 30 15 32 16 19 17 29 18 21 19 20 20 28 21 22 22
REMARK SMILES IDX 25 23 23 24 26 25 27 26 8 27 9 28 10 29 2 30 3 31 1 32 24 33
REMARK H PARENT 24 34
REMARK Flexibility Score: inf
ROOT
ATOM      1  C   UNL     1      40.358  59.917   6.232  1.00  0.00     0.014 C 
ATOM      2  C   UNL     1      41.297  61.041   6.709  1.00  0.00     0.014 C 
ATOM      3  C   UNL     1      41.126  59.411   4.997  1.00  0.00     0.012 C 
ATOM      4  C   UNL     1      38.963  60.426   5.774  1.00  0.00     0.014 C 
ATOM      5  C   UNL     1      42.722  60.488   6.496  1.00  0.00     0.009 C 
ATOM      6  C   UNL     1      40.418  58.231   4.287  1.00  0.00     0.000 C 
ATOM      7  C   UNL     1      42.633  59.439   5.364  1.00  0.00     0.018 C 
ATOM      8  C   UNL     1      38.167  59.362   4.958  1.00  0.00     0.008 C 
ATOM      9  C   UNL     1      41.257  57.633   3.134  1.00  0.00     0.005 C 
ATOM     10  C   UNL     1      38.968  58.655   3.790  1.00  0.00    -0.024 C 
ATOM     11  C   UNL     1      40.549  56.449   2.447  1.00  0.00     0.005 C 
ATOM     12  C   UNL     1      38.229  57.312   3.247  1.00  0.00    -0.024 C 
ATOM     13  C   UNL     1      39.081  59.767   2.663  1.00  0.00     0.012 C 
ATOM     14  C   UNL     1      39.070  56.751   2.028  1.00  0.00     0.002 C 
ATOM     15  C   UNL     1      36.770  57.620   2.789  1.00  0.00     0.008 C 
ATOM     16  C   UNL     1      38.118  56.227   4.381  1.00  0.00     0.012 C 
ATOM     17  C   UNL     1      38.408  55.623   1.126  1.00  0.00    -0.026 C 
ATOM     18  C   UNL     1      36.098  56.516   1.954  1.00  0.00     0.005 C 
ATOM     19  C   UNL     1      39.301  55.431  -0.155  1.00  0.00     0.010 C 
ATOM     20  C   UNL     1      38.377  54.227   1.829  1.00  0.00     0.012 C 
ATOM     21  C   UNL     1      36.916  56.007   0.729  1.00  0.00     0.003 C 
ATOM     22  C   UNL     1      38.492  55.138  -1.411  1.00  0.00     0.033 C 
ATOM     23  C   UNL     1      36.677  56.816  -0.632  1.00  0.00    -0.006 C 
ATOM     24  C   UNL     1      37.673  56.377  -1.785  1.00  0.00     0.120 C 
ATOM     25  C   UNL     1      36.735  58.351  -0.426  1.00  0.00     0.014 C 
ATOM     26  C   UNL     1      35.238  56.508  -1.146  1.00  0.00     0.014 C 
ENDROOT
BRANCH   1  27
ATOM     27  C   UNL     1      40.200  58.887   7.358  1.00  0.00     0.048 C 
ATOM     28  O   UNL     1      39.796  57.717   7.122  1.00  0.00    -0.550 OA
ATOM     29  O   UNL     1      40.511  59.214   8.677  1.00  0.00    -0.550 OA
ENDBRANCH   1  27
BRANCH   7  30
ATOM     30  C   UNL     1      43.377  58.145   5.707  1.00  0.00    -0.077 C 
ATOM     31  C   UNL     1      44.492  57.697   4.793  1.00  0.00     0.039 C 
ATOM     32  C   UNL     1      43.152  57.414   6.809  1.00  0.00     0.008 C 
ENDBRANCH   7  30
BRANCH  24  33
ATOM     33  O   UNL     1      38.550  57.426  -2.138  1.00  0.00    -0.393 OA
ATOM     34  H   UNL     1      38.752  57.935  -1.307  1.00  0.00     0.210 HD
ENDBRANCH  24  33
TORSDOF 3
ENDMDL
MODEL 6
REMARK VINA RESULT:    -8.086      1.714      7.452
REMARK INTER + INTRA:          -9.203
REMARK INTER:                  -9.033
REMARK INTRA:                  -0.170
REMARK UNBOUND:                 0.065
REMARK SMILES C=C(C)[C@@H]1CC[C@@]2(C(=O)[O-])CC[C@@]3(C)[C@@H](CC[C@H]4[C@]5(C)CC[C@H](O)C(C)(C)[C@@H]5CC[C@@]43C)[C@H]12
REMARK SMILES IDX 7 1 6 2 33 3 11 4 5 5 15 6 4 7 12 8 16 9 13 10 17 11 31 12
REMARK SMILES IDX 14 13 18 14 30 15 32 16 19 17 29 18 21 19 20 20 28 21 22 22
REMARK SMILES IDX 25 23 23 24 26 25 27 26 8 27 9 28 10 29 2 30 3 31 1 32 24 33
REMARK H PARENT 24 34
REMARK Flexibility Score: inf
ROOT
ATOM      1  C   UNL     1      41.096  61.084   5.602  1.00  0.00     0.014 C 
ATOM      2  C   UNL     1      42.278  61.646   6.413  1.00  0.00     0.014 C 
ATOM      3  C   UNL     1      41.505  59.604   5.492  1.00  0.00     0.012 C 
ATOM      4  C   UNL     1      40.987  61.676   4.169  1.00  0.00     0.014 C 
ATOM      5  C   UNL     1      42.605  60.552   7.452  1.00  0.00     0.009 C 
ATOM      6  C   UNL     1      40.473  58.747   4.718  1.00  0.00     0.000 C 
ATOM      7  C   UNL     1      42.127  59.208   6.856  1.00  0.00     0.018 C 
ATOM      8  C   UNL     1      40.043  60.852   3.241  1.00  0.00     0.008 C 
ATOM      9  C   UNL     1      40.814  57.239   4.729  1.00  0.00     0.005 C 
ATOM     10  C   UNL     1      40.284  59.288   3.234  1.00  0.00    -0.024 C 
ATOM     11  C   UNL     1      39.771  56.396   3.971  1.00  0.00     0.005 C 
ATOM     12  C   UNL     1      39.048  58.467   2.571  1.00  0.00    -0.024 C 
ATOM     13  C   UNL     1      41.629  59.102   2.411  1.00  0.00     0.012 C 
ATOM     14  C   UNL     1      39.443  56.934   2.536  1.00  0.00     0.002 C 
ATOM     15  C   UNL     1      38.748  58.971   1.126  1.00  0.00     0.008 C 
ATOM     16  C   UNL     1      37.723  58.671   3.396  1.00  0.00     0.012 C 
ATOM     17  C   UNL     1      38.543  55.954   1.666  1.00  0.00    -0.026 C 
ATOM     18  C   UNL     1      37.838  58.057   0.287  1.00  0.00     0.005 C 
ATOM     19  C   UNL     1      39.281  54.568   1.566  1.00  0.00     0.010 C 
ATOM     20  C   UNL     1      37.163  55.648   2.334  1.00  0.00     0.012 C 
ATOM     21  C   UNL     1      38.267  56.559   0.221  1.00  0.00     0.003 C 
ATOM     22  C   UNL     1      39.103  53.891   0.214  1.00  0.00     0.033 C 
ATOM     23  C   UNL     1      39.282  56.194  -0.961  1.00  0.00    -0.006 C 
ATOM     24  C   UNL     1      39.827  54.708  -0.859  1.00  0.00     0.120 C 
ATOM     25  C   UNL     1      40.461  57.194  -1.060  1.00  0.00     0.014 C 
ATOM     26  C   UNL     1      38.521  56.297  -2.318  1.00  0.00     0.014 C 
ENDROOT
BRANCH   1  27
ATOM     27  C   UNL     1      39.794  61.335   6.376  1.00  0.00     0.048 C 
ATOM     28  O   UNL     1      39.653  62.355   7.102  1.00  0.00    -0.550 OA
ATOM     29  O   UNL     1      38.725  60.445   6.289  1.00  0.00    -0.550 OA
ENDBRANCH   1  27
BRANCH   7  30
ATOM     30  C   UNL     1      41.334  58.371   7.863  1.00  0.00    -0.077 C 
ATOM     31  C   UNL     1      41.587  56.884   7.915  1.00  0.00     0.039 C 
ATOM     32  C   UNL     1      40.474  58.881   8.758  1.00  0.00     0.008 C 
ENDBRANCH   7  30
BRANCH  24  33
ATOM     33  O   UNL     1      41.216  54.683  -0.606  1.00  0.00    -0.393 OA
ATOM     34  H   UNL     1      41.367  55.143   0.263  1.00  0.00     0.210 HD
ENDBRANCH  24  33
TORSDOF 3
ENDMDL
MODEL 7
REMARK VINA RESULT:    -7.996      2.110      7.669
REMARK INTER + INTRA:          -9.100
REMARK INTER:                  -8.962
REMARK INTRA:                  -0.138
REMARK UNBOUND:                 0.065
REMARK SMILES C=C(C)[C@@H]1CC[C@@]2(C(=O)[O-])CC[C@@]3(C)[C@@H](CC[C@H]4[C@]5(C)CC[C@H](O)C(C)(C)[C@@H]5CC[C@@]43C)[C@H]12
REMARK SMILES IDX 7 1 6 2 33 3 11 4 5 5 15 6 4 7 12 8 16 9 13 10 17 11 31 12
REMARK SMILES IDX 14 13 18 14 30 15 32 16 19 17 29 18 21 19 20 20 28 21 22 22
REMARK SMILES IDX 25 23 23 24 26 25 27 26 8 27 9 28 10 29 2 30 3 31 1 32 24 33
REMARK H PARENT 24 34
REMARK Flexibility Score: inf
ROOT
ATOM      1  C   UNL     1      41.325  56.416   5.322  1.00  0.00     0.014 C 
ATOM      2  C   UNL     1      41.533  56.578   6.839  1.00  0.00     0.014 C 
ATOM      3  C   UNL     1      40.159  57.393   5.089  1.00  0.00     0.012 C 
ATOM      4  C   UNL     1      40.868  54.991   4.906  1.00  0.00     0.014 C 
ATOM      5  C   UNL     1      41.337  58.085   7.110  1.00  0.00     0.009 C 
ATOM      6  C   UNL     1      39.720  57.467   3.606  1.00  0.00     0.000 C 
ATOM      7  C   UNL     1      40.422  58.628   5.989  1.00  0.00     0.018 C 
ATOM      8  C   UNL     1      40.310  54.933   3.451  1.00  0.00     0.008 C 
ATOM      9  C   UNL     1      38.645  58.550   3.350  1.00  0.00     0.005 C 
ATOM     10  C   UNL     1      39.243  56.042   3.083  1.00  0.00    -0.024 C 
ATOM     11  C   UNL     1      38.230  58.625   1.869  1.00  0.00     0.005 C 
ATOM     12  C   UNL     1      38.999  56.170   1.481  1.00  0.00    -0.024 C 
ATOM     13  C   UNL     1      37.928  55.593   3.849  1.00  0.00     0.012 C 
ATOM     14  C   UNL     1      37.854  57.238   1.245  1.00  0.00     0.002 C 
ATOM     15  C   UNL     1      38.582  54.798   0.865  1.00  0.00     0.008 C 
ATOM     16  C   UNL     1      40.316  56.608   0.738  1.00  0.00     0.012 C 
ATOM     17  C   UNL     1      37.213  57.331  -0.207  1.00  0.00    -0.026 C 
ATOM     18  C   UNL     1      38.005  54.868  -0.560  1.00  0.00     0.005 C 
ATOM     19  C   UNL     1      35.937  58.246  -0.123  1.00  0.00     0.010 C 
ATOM     20  C   UNL     1      38.159  58.024  -1.241  1.00  0.00     0.012 C 
ATOM     21  C   UNL     1      36.845  55.889  -0.766  1.00  0.00     0.003 C 
ATOM     22  C   UNL     1      34.806  57.784  -1.031  1.00  0.00     0.033 C 
ATOM     23  C   UNL     1      35.377  55.316  -0.482  1.00  0.00    -0.006 C 
ATOM     24  C   UNL     1      34.264  56.446  -0.522  1.00  0.00     0.120 C 
ATOM     25  C   UNL     1      35.296  54.528   0.850  1.00  0.00     0.014 C 
ATOM     26  C   UNL     1      35.016  54.296  -1.603  1.00  0.00     0.014 C 
ENDROOT
BRANCH   1  27
ATOM     27  C   UNL     1      42.628  56.785   4.598  1.00  0.00     0.048 C 
ATOM     28  O   UNL     1      42.643  57.022   3.361  1.00  0.00    -0.550 OA
ATOM     29  O   UNL     1      43.832  56.879   5.294  1.00  0.00    -0.550 OA
ENDBRANCH   1  27
BRANCH   7  30
ATOM     30  C   UNL     1      40.948  59.935   5.388  1.00  0.00    -0.077 C 
ATOM     31  C   UNL     1      40.076  61.164   5.471  1.00  0.00     0.039 C 
ATOM     32  C   UNL     1      42.169  60.082   4.852  1.00  0.00     0.008 C 
ENDBRANCH   7  30
BRANCH  24  33
ATOM     33  O   UNL     1      33.674  56.634   0.747  1.00  0.00    -0.393 OA
ATOM     34  H   UNL     1      33.403  55.739   1.085  1.00  0.00     0.210 HD
ENDBRANCH  24  33
TORSDOF 3
ENDMDL
MODEL 8
REMARK VINA RESULT:    -7.745      1.859      3.595
REMARK INTER + INTRA:          -8.812
REMARK INTER:                  -8.886
REMARK INTRA:                   0.074
REMARK UNBOUND:                 0.065
REMARK SMILES C=C(C)[C@@H]1CC[C@@]2(C(=O)[O-])CC[C@@]3(C)[C@@H](CC[C@H]4[C@]5(C)CC[C@H](O)C(C)(C)[C@@H]5CC[C@@]43C)[C@H]12
REMARK SMILES IDX 7 1 6 2 33 3 11 4 5 5 15 6 4 7 12 8 16 9 13 10 17 11 31 12
REMARK SMILES IDX 14 13 18 14 30 15 32 16 19 17 29 18 21 19 20 20 28 21 22 22
REMARK SMILES IDX 25 23 23 24 26 25 27 26 8 27 9 28 10 29 2 30 3 31 1 32 24 33
REMARK H PARENT 24 34
REMARK Flexibility Score: inf
ROOT
ATOM      1  C   UNL     1      39.752  56.762  -0.087  1.00  0.00     0.014 C 
ATOM      2  C   UNL     1      39.639  57.080  -1.590  1.00  0.00     0.014 C 
ATOM      3  C   UNL     1      39.093  58.015   0.518  1.00  0.00     0.012 C 
ATOM      4  C   UNL     1      41.218  56.679   0.423  1.00  0.00     0.014 C 
ATOM      5  C   UNL     1      38.253  57.738  -1.755  1.00  0.00     0.009 C 
ATOM      6  C   UNL     1      39.040  57.983   2.065  1.00  0.00     0.000 C 
ATOM      7  C   UNL     1      37.891  58.374  -0.394  1.00  0.00     0.018 C 
ATOM      8  C   UNL     1      41.324  56.730   1.977  1.00  0.00     0.008 C 
ATOM      9  C   UNL     1      38.254  59.172   2.665  1.00  0.00     0.005 C 
ATOM     10  C   UNL     1      40.503  57.885   2.682  1.00  0.00    -0.024 C 
ATOM     11  C   UNL     1      38.194  59.118   4.204  1.00  0.00     0.005 C 
ATOM     12  C   UNL     1      40.341  57.651   4.282  1.00  0.00    -0.024 C 
ATOM     13  C   UNL     1      41.322  59.204   2.355  1.00  0.00     0.012 C 
ATOM     14  C   UNL     1      39.589  58.907   4.886  1.00  0.00     0.002 C 
ATOM     15  C   UNL     1      41.731  57.483   4.970  1.00  0.00     0.008 C 
ATOM     16  C   UNL     1      39.535  56.334   4.586  1.00  0.00     0.012 C 
ATOM     17  C   UNL     1      39.570  59.074   6.466  1.00  0.00    -0.026 C 
ATOM     18  C   UNL     1      41.722  57.594   6.505  1.00  0.00     0.005 C 
ATOM     19  C   UNL     1      39.019  60.508   6.803  1.00  0.00     0.010 C 
ATOM     20  C   UNL     1      38.594  58.073   7.168  1.00  0.00     0.012 C 
ATOM     21  C   UNL     1      41.020  58.861   7.084  1.00  0.00     0.003 C 
ATOM     22  C   UNL     1      39.696  61.143   8.009  1.00  0.00     0.033 C 
ATOM     23  C   UNL     1      41.966  60.140   7.259  1.00  0.00    -0.006 C 
ATOM     24  C   UNL     1      41.158  61.443   7.667  1.00  0.00     0.120 C 
ATOM     25  C   UNL     1      42.831  60.415   6.004  1.00  0.00     0.014 C 
ATOM     26  C   UNL     1      42.971  59.859   8.417  1.00  0.00     0.014 C 
ENDROOT
BRANCH   1  27
ATOM     27  C   UNL     1      39.017  55.446   0.202  1.00  0.00     0.048 C 
ATOM     28  O   UNL     1      39.077  54.475  -0.600  1.00  0.00    -0.550 OA
ATOM     29  O   UNL     1      38.271  55.282   1.368  1.00  0.00    -0.550 OA
ENDBRANCH   1  27
BRANCH   7  30
ATOM     30  C   UNL     1      36.459  58.052   0.039  1.00  0.00    -0.077 C 
ATOM     31  C   UNL     1      35.790  56.832  -0.548  1.00  0.00     0.039 C 
ATOM     32  C   UNL     1      35.775  58.743   0.964  1.00  0.00     0.008 C 
ENDBRANCH   7  30
BRANCH  24  33
ATOM     33  O   UNL     1      41.208  62.421   6.650  1.00  0.00    -0.393 OA
ATOM     34  H   UNL     1      41.272  63.308   7.094  1.00  0.00     0.210 HD
ENDBRANCH  24  33
TORSDOF 3
ENDMDL
MODEL 9
REMARK VINA RESULT:    -7.664      1.882      7.809
REMARK INTER + INTRA:          -8.720
REMARK INTER:                  -8.726
REMARK INTRA:                   0.006
REMARK UNBOUND:                 0.065
REMARK SMILES C=C(C)[C@@H]1CC[C@@]2(C(=O)[O-])CC[C@@]3(C)[C@@H](CC[C@H]4[C@]5(C)CC[C@H](O)C(C)(C)[C@@H]5CC[C@@]43C)[C@H]12
REMARK SMILES IDX 7 1 6 2 33 3 11 4 5 5 15 6 4 7 12 8 16 9 13 10 17 11 31 12
REMARK SMILES IDX 14 13 18 14 30 15 32 16 19 17 29 18 21 19 20 20 28 21 22 22
REMARK SMILES IDX 25 23 23 24 26 25 27 26 8 27 9 28 10 29 2 30 3 31 1 32 24 33
REMARK H PARENT 24 34
REMARK Flexibility Score: inf
ROOT
ATOM      1  C   UNL     1      41.654  56.859   6.602  1.00  0.00     0.014 C 
ATOM      2  C   UNL     1      41.261  56.909   8.090  1.00  0.00     0.014 C 
ATOM      3  C   UNL     1      40.480  57.630   5.972  1.00  0.00     0.012 C 
ATOM      4  C   UNL     1      41.676  55.422   6.012  1.00  0.00     0.014 C 
ATOM      5  C   UNL     1      40.681  58.324   8.303  1.00  0.00     0.009 C 
ATOM      6  C   UNL     1      40.602  57.767   4.435  1.00  0.00     0.000 C 
ATOM      7  C   UNL     1      40.145  58.800   6.934  1.00  0.00     0.018 C 
ATOM      8  C   UNL     1      41.705  55.405   4.453  1.00  0.00     0.008 C 
ATOM      9  C   UNL     1      39.498  58.660   3.821  1.00  0.00     0.005 C 
ATOM     10  C   UNL     1      40.644  56.337   3.739  1.00  0.00    -0.024 C 
ATOM     11  C   UNL     1      39.641  58.801   2.294  1.00  0.00     0.005 C 
ATOM     12  C   UNL     1      40.976  56.573   2.165  1.00  0.00    -0.024 C 
ATOM     13  C   UNL     1      39.261  55.588   3.948  1.00  0.00     0.012 C 
ATOM     14  C   UNL     1      39.804  57.436   1.542  1.00  0.00     0.002 C 
ATOM     15  C   UNL     1      41.096  55.214   1.407  1.00  0.00     0.008 C 
ATOM     16  C   UNL     1      42.355  57.308   1.979  1.00  0.00     0.012 C 
ATOM     17  C   UNL     1      39.727  57.553  -0.041  1.00  0.00    -0.026 C 
ATOM     18  C   UNL     1      41.072  55.316  -0.129  1.00  0.00     0.005 C 
ATOM     19  C   UNL     1      38.350  58.213  -0.419  1.00  0.00     0.010 C 
ATOM     20  C   UNL     1      40.823  58.500  -0.631  1.00  0.00     0.012 C 
ATOM     21  C   UNL     1      39.885  56.129  -0.731  1.00  0.00     0.003 C 
ATOM     22  C   UNL     1      37.743  57.646  -1.694  1.00  0.00     0.033 C 
ATOM     23  C   UNL     1      38.561  55.279  -1.028  1.00  0.00    -0.006 C 
ATOM     24  C   UNL     1      37.335  56.190  -1.455  1.00  0.00     0.120 C 
ATOM     25  C   UNL     1      38.165  54.364   0.159  1.00  0.00     0.014 C 
ATOM     26  C   UNL     1      38.844  54.323  -2.226  1.00  0.00     0.014 C 
ENDROOT
BRANCH   1  27
ATOM     27  C   UNL     1      43.028  57.523   6.426  1.00  0.00     0.048 C 
ATOM     28  O   UNL     1      43.927  57.403   7.299  1.00  0.00    -0.550 OA
ATOM     29  O   UNL     1      43.322  58.269   5.286  1.00  0.00    -0.550 OA
ENDBRANCH   1  27
BRANCH   7  30
ATOM     30  C   UNL     1      40.578  60.231   6.603  1.00  0.00    -0.077 C 
ATOM     31  C   UNL     1      41.898  60.724   7.146  1.00  0.00     0.039 C 
ATOM     32  C   UNL     1      39.894  61.061   5.800  1.00  0.00     0.008 C 
ENDBRANCH   7  30
BRANCH  24  33
ATOM     33  O   UNL     1      36.301  56.147  -0.494  1.00  0.00    -0.393 OA
ATOM     34  H   UNL     1      35.849  55.265  -0.584  1.00  0.00     0.210 HD
ENDBRANCH  24  33
TORSDOF 3
ENDMDL
