MODEL 1
REMARK VINA RESULT:    -4.567      0.000      0.000
REMARK INTER + INTRA:         -15.310
REMARK INTER:                 -11.508
REMARK INTRA:                  -3.802
REMARK UNBOUND:                -3.802
REMARK SMILES CCCCCCCCCCCCCCCCCCCCCCCCCCCC(=O)[O-]
REMARK SMILES IDX 15 1 16 2 17 3 18 4 19 5 20 6 21 7 22 8 23 9 24 10 25 11
REMARK SMILES IDX 26 12 27 13 28 14 29 15 30 16 14 17 13 18 12 19 11 20 10 21
REMARK SMILES IDX 9 22 8 23 7 24 6 25 5 26 4 27 3 28 2 29 1 30
REMARK H PARENT
REMARK Flexibility Score: inf
ROOT
ATOM      1  C   UNL     1      12.465  12.964 161.509  1.00  0.00     0.000 C 
ENDROOT
BRANCH   1   2
ATOM      2  C   UNL     1      11.029  12.425 161.456  1.00  0.00     0.000 C 
BRANCH   2   3
ATOM      3  C   UNL     1      10.452  12.287 162.872  1.00  0.00     0.000 C 
BRANCH   3   4
ATOM      4  C   UNL     1      11.292  13.011 163.941  1.00  0.00     0.000 C 
BRANCH   4   5
ATOM      5  C   UNL     1      10.838  14.445 164.269  1.00  0.00     0.000 C 
BRANCH   5   6
ATOM      6  C   UNL     1      11.169  14.945 165.689  1.00  0.00     0.000 C 
BRANCH   6   7
ATOM      7  C   UNL     1      10.314  16.136 166.168  1.00  0.00     0.000 C 
BRANCH   7   8
ATOM      8  C   UNL     1       9.340  16.650 165.090  1.00  0.00     0.000 C 
BRANCH   8   9
ATOM      9  C   UNL     1       9.263  18.185 165.046  1.00  0.00     0.000 C 
BRANCH   9  10
ATOM     10  C   UNL     1       8.383  18.758 166.167  1.00  0.00     0.000 C 
BRANCH  10  11
ATOM     11  C   UNL     1       6.894  18.589 165.840  1.00  0.00     0.000 C 
BRANCH  11  12
ATOM     12  C   UNL     1       6.104  18.175 167.087  1.00  0.00     0.006 C 
BRANCH  12  13
ATOM     13  C   UNL     1       7.005  17.459 168.099  1.00  0.00     0.053 C 
BRANCH  13  14
ATOM     14  C   UNL     1       6.862  15.975 167.967  1.00  0.00     0.041 C 
ATOM     15  O   UNL     1       7.534  15.204 168.702  1.00  0.00    -0.550 OA
ATOM     16  O   UNL     1       6.017  15.442 166.999  1.00  0.00    -0.550 OA
ENDBRANCH  13  14
ENDBRANCH  12  13
ENDBRANCH  11  12
ENDBRANCH  10  11
ENDBRANCH   9  10
ENDBRANCH   8   9
ENDBRANCH   7   8
ENDBRANCH   6   7
ENDBRANCH   5   6
ENDBRANCH   4   5
ENDBRANCH   3   4
ENDBRANCH   2   3
ENDBRANCH   1   2
BRANCH   1  17
ATOM     17  C   UNL     1      12.611  14.248 160.677  1.00  0.00     0.000 C 
BRANCH  17  18
ATOM     18  C   UNL     1      11.377  15.171 160.770  1.00  0.00     0.000 C 
BRANCH  18  19
ATOM     19  C   UNL     1      11.422  16.397 159.837  1.00  0.00     0.000 C 
BRANCH  19  20
ATOM     20  C   UNL     1      11.200  17.765 160.510  1.00  0.00     0.000 C 
BRANCH  20  21
ATOM     21  C   UNL     1      11.170  17.737 162.051  1.00  0.00     0.000 C 
BRANCH  21  22
ATOM     22  C   UNL     1      12.013  18.837 162.720  1.00  0.00    -0.000 C 
BRANCH  22  23
ATOM     23  C   UNL     1      13.410  18.353 163.165  1.00  0.00    -0.000 C 
BRANCH  23  24
ATOM     24  C   UNL     1      13.396  16.964 163.834  1.00  0.00    -0.000 C 
BRANCH  24  25
ATOM     25  C   UNL     1      14.307  15.936 163.139  1.00  0.00    -0.000 C 
BRANCH  25  26
ATOM     26  C   UNL     1      14.273  14.556 163.810  1.00  0.00    -0.000 C 
BRANCH  26  27
ATOM     27  C   UNL     1      15.476  13.702 163.383  1.00  0.00    -0.000 C 
BRANCH  27  28
ATOM     28  C   UNL     1      16.561  14.520 162.656  1.00  0.00    -0.000 C 
BRANCH  28  29
ATOM     29  C   UNL     1      17.873  13.757 162.385  1.00  0.00    -0.003 C 
ATOM     30  C   UNL     1      19.105  14.661 162.419  1.00  0.00     0.004 C 
ENDBRANCH  28  29
ENDBRANCH  27  28
ENDBRANCH  26  27
ENDBRANCH  25  26
ENDBRANCH  24  25
ENDBRANCH  23  24
ENDBRANCH  22  23
ENDBRANCH  21  22
ENDBRANCH  20  21
ENDBRANCH  19  20
ENDBRANCH  18  19
ENDBRANCH  17  18
ENDBRANCH   1  17
TORSDOF 26
ENDMDL
MODEL 2
REMARK VINA RESULT:    -4.516      1.121      2.212
REMARK INTER + INTRA:         -15.183
REMARK INTER:                 -11.065
REMARK INTRA:                  -4.118
REMARK UNBOUND:                -3.802
REMARK SMILES CCCCCCCCCCCCCCCCCCCCCCCCCCCC(=O)[O-]
REMARK SMILES IDX 15 1 16 2 17 3 18 4 19 5 20 6 21 7 22 8 23 9 24 10 25 11
REMARK SMILES IDX 26 12 27 13 28 14 29 15 30 16 14 17 13 18 12 19 11 20 10 21
REMARK SMILES IDX 9 22 8 23 7 24 6 25 5 26 4 27 3 28 2 29 1 30
REMARK H PARENT
REMARK Flexibility Score: inf
ROOT
ATOM      1  C   UNL     1      11.599  12.834 162.810  1.00  0.00     0.000 C 
ENDROOT
BRANCH   1   2
ATOM      2  C   UNL     1      11.273  12.752 164.308  1.00  0.00     0.000 C 
BRANCH   2   3
ATOM      3  C   UNL     1      11.817  13.984 165.046  1.00  0.00     0.000 C 
BRANCH   3   4
ATOM      4  C   UNL     1      10.756  14.685 165.916  1.00  0.00     0.000 C 
BRANCH   4   5
ATOM      5  C   UNL     1      10.717  16.219 165.793  1.00  0.00     0.000 C 
BRANCH   5   6
ATOM      6  C   UNL     1       9.473  16.803 165.095  1.00  0.00     0.000 C 
BRANCH   6   7
ATOM      7  C   UNL     1       9.523  18.328 164.860  1.00  0.00     0.000 C 
BRANCH   7   8
ATOM      8  C   UNL     1       8.224  19.045 165.277  1.00  0.00     0.000 C 
BRANCH   8   9
ATOM      9  C   UNL     1       7.913  18.880 166.774  1.00  0.00     0.000 C 
BRANCH   9  10
ATOM     10  C   UNL     1       6.411  19.004 167.074  1.00  0.00     0.000 C 
BRANCH  10  11
ATOM     11  C   UNL     1       5.599  18.001 166.246  1.00  0.00     0.000 C 
BRANCH  11  12
ATOM     12  C   UNL     1       6.163  16.583 166.397  1.00  0.00     0.006 C 
BRANCH  12  13
ATOM     13  C   UNL     1       5.745  15.963 167.735  1.00  0.00     0.053 C 
BRANCH  13  14
ATOM     14  C   UNL     1       6.948  15.687 168.581  1.00  0.00     0.041 C 
ATOM     15  O   UNL     1       8.084  15.563 168.051  1.00  0.00    -0.550 OA
ATOM     16  O   UNL     1       6.806  15.520 169.955  1.00  0.00    -0.550 OA
ENDBRANCH  13  14
ENDBRANCH  12  13
ENDBRANCH  11  12
ENDBRANCH  10  11
ENDBRANCH   9  10
ENDBRANCH   8   9
ENDBRANCH   7   8
ENDBRANCH   6   7
ENDBRANCH   5   6
ENDBRANCH   4   5
ENDBRANCH   3   4
ENDBRANCH   2   3
ENDBRANCH   1   2
BRANCH   1  17
ATOM     17  C   UNL     1      10.326  12.733 161.955  1.00  0.00     0.000 C 
BRANCH  17  18
ATOM     18  C   UNL     1       9.475  14.021 161.985  1.00  0.00     0.000 C 
BRANCH  18  19
ATOM     19  C   UNL     1      10.291  15.329 161.965  1.00  0.00     0.000 C 
BRANCH  19  20
ATOM     20  C   UNL     1      10.648  15.879 160.571  1.00  0.00     0.000 C 
BRANCH  20  21
ATOM     21  C   UNL     1      11.244  17.301 160.563  1.00  0.00     0.000 C 
BRANCH  21  22
ATOM     22  C   UNL     1      10.766  18.192 161.722  1.00  0.00    -0.000 C 
BRANCH  22  23
ATOM     23  C   UNL     1      11.867  19.125 162.272  1.00  0.00    -0.000 C 
BRANCH  23  24
ATOM     24  C   UNL     1      13.162  18.383 162.663  1.00  0.00    -0.000 C 
BRANCH  24  25
ATOM     25  C   UNL     1      12.943  17.258 163.689  1.00  0.00    -0.000 C 
BRANCH  25  26
ATOM     26  C   UNL     1      13.972  16.126 163.566  1.00  0.00    -0.000 C 
BRANCH  26  27
ATOM     27  C   UNL     1      13.869  15.431 162.200  1.00  0.00    -0.000 C 
BRANCH  27  28
ATOM     28  C   UNL     1      14.854  14.254 162.052  1.00  0.00    -0.000 C 
BRANCH  28  29
ATOM     29  C   UNL     1      15.988  14.225 163.095  1.00  0.00    -0.003 C 
ATOM     30  C   UNL     1      17.377  14.140 162.461  1.00  0.00     0.004 C 
ENDBRANCH  28  29
ENDBRANCH  27  28
ENDBRANCH  26  27
ENDBRANCH  25  26
ENDBRANCH  24  25
ENDBRANCH  23  24
ENDBRANCH  22  23
ENDBRANCH  21  22
ENDBRANCH  20  21
ENDBRANCH  19  20
ENDBRANCH  18  19
ENDBRANCH  17  18
ENDBRANCH   1  17
TORSDOF 26
ENDMDL
MODEL 3
REMARK VINA RESULT:    -4.352      2.860      7.555
REMARK INTER + INTRA:         -14.768
REMARK INTER:                 -10.704
REMARK INTRA:                  -4.064
REMARK UNBOUND:                -3.802
REMARK SMILES CCCCCCCCCCCCCCCCCCCCCCCCCCCC(=O)[O-]
REMARK SMILES IDX 15 1 16 2 17 3 18 4 19 5 20 6 21 7 22 8 23 9 24 10 25 11
REMARK SMILES IDX 26 12 27 13 28 14 29 15 30 16 14 17 13 18 12 19 11 20 10 21
REMARK SMILES IDX 9 22 8 23 7 24 6 25 5 26 4 27 3 28 2 29 1 30
REMARK H PARENT
REMARK Flexibility Score: inf
ROOT
ATOM      1  C   UNL     1      11.839  12.634 162.102  1.00  0.00     0.000 C 
ENDROOT
BRANCH   1   2
ATOM      2  C   UNL     1      11.261  13.526 160.995  1.00  0.00     0.000 C 
BRANCH   2   3
ATOM      3  C   UNL     1      10.052  14.318 161.516  1.00  0.00     0.000 C 
BRANCH   3   4
ATOM      4  C   UNL     1      10.140  15.825 161.212  1.00  0.00     0.000 C 
BRANCH   4   5
ATOM      5  C   UNL     1      11.368  16.257 160.390  1.00  0.00     0.000 C 
BRANCH   5   6
ATOM      6  C   UNL     1      11.176  17.502 159.501  1.00  0.00     0.000 C 
BRANCH   6   7
ATOM      7  C   UNL     1      11.606  18.832 160.155  1.00  0.00     0.000 C 
BRANCH   7   8
ATOM      8  C   UNL     1      11.193  18.936 161.636  1.00  0.00     0.000 C 
BRANCH   8   9
ATOM      9  C   UNL     1      12.401  19.036 162.581  1.00  0.00     0.000 C 
BRANCH   9  10
ATOM     10  C   UNL     1      12.547  17.795 163.476  1.00  0.00     0.000 C 
BRANCH  10  11
ATOM     11  C   UNL     1      13.870  17.070 163.201  1.00  0.00     0.000 C 
BRANCH  11  12
ATOM     12  C   UNL     1      13.637  15.568 162.989  1.00  0.00     0.006 C 
BRANCH  12  13
ATOM     13  C   UNL     1      14.706  14.969 162.070  1.00  0.00     0.053 C 
BRANCH  13  14
ATOM     14  C   UNL     1      15.750  14.261 162.876  1.00  0.00     0.041 C 
ATOM     15  O   UNL     1      15.436  13.658 163.936  1.00  0.00    -0.550 OA
ATOM     16  O   UNL     1      17.083  14.307 162.478  1.00  0.00    -0.550 OA
ENDBRANCH  13  14
ENDBRANCH  12  13
ENDBRANCH  11  12
ENDBRANCH  10  11
ENDBRANCH   9  10
ENDBRANCH   8   9
ENDBRANCH   7   8
ENDBRANCH   6   7
ENDBRANCH   5   6
ENDBRANCH   4   5
ENDBRANCH   3   4
ENDBRANCH   2   3
ENDBRANCH   1   2
BRANCH   1  17
ATOM     17  C   UNL     1      10.855  12.491 163.274  1.00  0.00     0.000 C 
BRANCH  17  18
ATOM     18  C   UNL     1      11.469  12.894 164.631  1.00  0.00     0.000 C 
BRANCH  18  19
ATOM     19  C   UNL     1      11.486  14.412 164.902  1.00  0.00     0.000 C 
BRANCH  19  20
ATOM     20  C   UNL     1      10.773  14.875 166.187  1.00  0.00     0.000 C 
BRANCH  20  21
ATOM     21  C   UNL     1      10.279  16.334 166.170  1.00  0.00     0.000 C 
BRANCH  21  22
ATOM     22  C   UNL     1       9.445  16.705 164.931  1.00  0.00    -0.000 C 
BRANCH  22  23
ATOM     23  C   UNL     1       9.441  18.218 164.625  1.00  0.00    -0.000 C 
BRANCH  23  24
ATOM     24  C   UNL     1       8.681  19.056 165.674  1.00  0.00    -0.000 C 
BRANCH  24  25
ATOM     25  C   UNL     1       7.151  19.002 165.515  1.00  0.00    -0.000 C 
BRANCH  25  26
ATOM     26  C   UNL     1       6.446  18.370 166.723  1.00  0.00    -0.000 C 
BRANCH  26  27
ATOM     27  C   UNL     1       5.722  17.075 166.327  1.00  0.00    -0.000 C 
BRANCH  27  28
ATOM     28  C   UNL     1       6.017  15.906 167.287  1.00  0.00    -0.000 C 
BRANCH  28  29
ATOM     29  C   UNL     1       7.234  16.118 168.209  1.00  0.00    -0.003 C 
ATOM     30  C   UNL     1       7.082  15.426 169.564  1.00  0.00     0.004 C 
ENDBRANCH  28  29
ENDBRANCH  27  28
ENDBRANCH  26  27
ENDBRANCH  25  26
ENDBRANCH  24  25
ENDBRANCH  23  24
ENDBRANCH  22  23
ENDBRANCH  21  22
ENDBRANCH  20  21
ENDBRANCH  19  20
ENDBRANCH  18  19
ENDBRANCH  17  18
ENDBRANCH   1  17
TORSDOF 26
ENDMDL
MODEL 4
REMARK VINA RESULT:    -4.196      3.389      8.126
REMARK INTER + INTRA:         -14.377
REMARK INTER:                 -10.724
REMARK INTRA:                  -3.653
REMARK UNBOUND:                -3.802
REMARK SMILES CCCCCCCCCCCCCCCCCCCCCCCCCCCC(=O)[O-]
REMARK SMILES IDX 15 1 16 2 17 3 18 4 19 5 20 6 21 7 22 8 23 9 24 10 25 11
REMARK SMILES IDX 26 12 27 13 28 14 29 15 30 16 14 17 13 18 12 19 11 20 10 21
REMARK SMILES IDX 9 22 8 23 7 24 6 25 5 26 4 27 3 28 2 29 1 30
REMARK H PARENT
REMARK Flexibility Score: inf
ROOT
ATOM      1  C   UNL     1      10.282  14.665 161.163  1.00  0.00     0.000 C 
ENDROOT
BRANCH   1   2
ATOM      2  C   UNL     1      11.755  14.714 160.734  1.00  0.00     0.000 C 
BRANCH   2   3
ATOM      3  C   UNL     1      12.047  16.006 159.955  1.00  0.00     0.000 C 
BRANCH   3   4
ATOM      4  C   UNL     1      10.912  17.043 160.057  1.00  0.00     0.000 C 
BRANCH   4   5
ATOM      5  C   UNL     1      11.370  18.493 160.298  1.00  0.00     0.000 C 
BRANCH   5   6
ATOM      6  C   UNL     1      10.953  19.112 161.646  1.00  0.00     0.000 C 
BRANCH   6   7
ATOM      7  C   UNL     1      11.379  18.299 162.887  1.00  0.00     0.000 C 
BRANCH   7   8
ATOM      8  C   UNL     1      12.902  18.083 162.971  1.00  0.00     0.000 C 
BRANCH   8   9
ATOM      9  C   UNL     1      13.279  16.840 163.794  1.00  0.00     0.000 C 
BRANCH   9  10
ATOM     10  C   UNL     1      14.381  16.007 163.122  1.00  0.00     0.000 C 
BRANCH  10  11
ATOM     11  C   UNL     1      14.217  14.516 163.441  1.00  0.00     0.000 C 
BRANCH  11  12
ATOM     12  C   UNL     1      15.559  13.782 163.330  1.00  0.00     0.006 C 
BRANCH  12  13
ATOM     13  C   UNL     1      16.518  14.525 162.396  1.00  0.00     0.053 C 
BRANCH  13  14
ATOM     14  C   UNL     1      17.878  13.900 162.437  1.00  0.00     0.041 C 
ATOM     15  O   UNL     1      18.001  12.646 162.454  1.00  0.00    -0.550 OA
ATOM     16  O   UNL     1      19.010  14.705 162.504  1.00  0.00    -0.550 OA
ENDBRANCH  13  14
ENDBRANCH  12  13
ENDBRANCH  11  12
ENDBRANCH  10  11
ENDBRANCH   9  10
ENDBRANCH   8   9
ENDBRANCH   7   8
ENDBRANCH   6   7
ENDBRANCH   5   6
ENDBRANCH   4   5
ENDBRANCH   3   4
ENDBRANCH   2   3
ENDBRANCH   1   2
BRANCH   1  17
ATOM     17  C   UNL     1       9.892  13.264 161.661  1.00  0.00     0.000 C 
BRANCH  17  18
ATOM     18  C   UNL     1      11.068  12.505 162.310  1.00  0.00     0.000 C 
BRANCH  18  19
ATOM     19  C   UNL     1      11.236  12.755 163.823  1.00  0.00     0.000 C 
BRANCH  19  20
ATOM     20  C   UNL     1      11.058  14.213 164.288  1.00  0.00     0.000 C 
BRANCH  20  21
ATOM     21  C   UNL     1      11.252  14.444 165.799  1.00  0.00     0.000 C 
BRANCH  21  22
ATOM     22  C   UNL     1      10.664  15.769 166.316  1.00  0.00    -0.000 C 
BRANCH  22  23
ATOM     23  C   UNL     1       9.792  16.501 165.273  1.00  0.00    -0.000 C 
BRANCH  23  24
ATOM     24  C   UNL     1       9.081  17.750 165.834  1.00  0.00    -0.000 C 
BRANCH  24  25
ATOM     25  C   UNL     1       7.577  17.797 165.514  1.00  0.00    -0.000 C 
BRANCH  25  26
ATOM     26  C   UNL     1       6.815  18.820 166.369  1.00  0.00    -0.000 C 
BRANCH  26  27
ATOM     27  C   UNL     1       6.295  18.182 167.665  1.00  0.00    -0.000 C 
BRANCH  27  28
ATOM     28  C   UNL     1       5.909  16.700 167.488  1.00  0.00    -0.000 C 
BRANCH  28  29
ATOM     29  C   UNL     1       6.400  15.765 168.611  1.00  0.00    -0.003 C 
ATOM     30  C   UNL     1       7.881  15.408 168.483  1.00  0.00     0.004 C 
ENDBRANCH  28  29
ENDBRANCH  27  28
ENDBRANCH  26  27
ENDBRANCH  25  26
ENDBRANCH  24  25
ENDBRANCH  23  24
ENDBRANCH  22  23
ENDBRANCH  21  22
ENDBRANCH  20  21
ENDBRANCH  19  20
ENDBRANCH  18  19
ENDBRANCH  17  18
ENDBRANCH   1  17
TORSDOF 26
ENDMDL
MODEL 5
REMARK VINA RESULT:    -3.989      2.866      7.607
REMARK INTER + INTRA:         -13.854
REMARK INTER:                 -10.649
REMARK INTRA:                  -3.206
REMARK UNBOUND:                -3.802
REMARK SMILES CCCCCCCCCCCCCCCCCCCCCCCCCCCC(=O)[O-]
REMARK SMILES IDX 15 1 16 2 17 3 18 4 19 5 20 6 21 7 22 8 23 9 24 10 25 11
REMARK SMILES IDX 26 12 27 13 28 14 29 15 30 16 14 17 13 18 12 19 11 20 10 21
REMARK SMILES IDX 9 22 8 23 7 24 6 25 5 26 4 27 3 28 2 29 1 30
REMARK H PARENT
REMARK Flexibility Score: inf
ROOT
ATOM      1  C   UNL     1      14.308  15.106 162.127  1.00  0.00     0.000 C 
ENDROOT
BRANCH   1   2
ATOM      2  C   UNL     1      14.104  16.139 163.244  1.00  0.00     0.000 C 
BRANCH   2   3
ATOM      3  C   UNL     1      13.568  17.457 162.667  1.00  0.00     0.000 C 
BRANCH   3   4
ATOM      4  C   UNL     1      12.217  17.879 163.275  1.00  0.00     0.000 C 
BRANCH   4   5
ATOM      5  C   UNL     1      11.004  17.735 162.336  1.00  0.00     0.000 C 
BRANCH   5   6
ATOM      6  C   UNL     1      11.282  17.982 160.841  1.00  0.00     0.000 C 
BRANCH   6   7
ATOM      7  C   UNL     1      11.052  16.755 159.933  1.00  0.00     0.000 C 
BRANCH   7   8
ATOM      8  C   UNL     1      11.120  15.419 160.697  1.00  0.00     0.000 C 
BRANCH   8   9
ATOM      9  C   UNL     1       9.857  15.150 161.531  1.00  0.00     0.000 C 
BRANCH   9  10
ATOM     10  C   UNL     1       9.671  13.657 161.845  1.00  0.00     0.000 C 
BRANCH  10  11
ATOM     11  C   UNL     1      10.596  12.793 160.978  1.00  0.00     0.000 C 
BRANCH  11  12
ATOM     12  C   UNL     1      10.771  11.397 161.589  1.00  0.00     0.006 C 
BRANCH  12  13
ATOM     13  C   UNL     1       9.417  10.779 161.949  1.00  0.00     0.053 C 
BRANCH  13  14
ATOM     14  C   UNL     1       9.333   9.373 161.444  1.00  0.00     0.041 C 
ATOM     15  O   UNL     1      10.350   8.810 160.957  1.00  0.00    -0.550 OA
ATOM     16  O   UNL     1       8.117   8.698 161.470  1.00  0.00    -0.550 OA
ENDBRANCH  13  14
ENDBRANCH  12  13
ENDBRANCH  11  12
ENDBRANCH  10  11
ENDBRANCH   9  10
ENDBRANCH   8   9
ENDBRANCH   7   8
ENDBRANCH   6   7
ENDBRANCH   5   6
ENDBRANCH   4   5
ENDBRANCH   3   4
ENDBRANCH   2   3
ENDBRANCH   1   2
BRANCH   1  17
ATOM     17  C   UNL     1      13.815  13.715 162.556  1.00  0.00     0.000 C 
BRANCH  17  18
ATOM     18  C   UNL     1      13.407  13.651 164.044  1.00  0.00     0.000 C 
BRANCH  18  19
ATOM     19  C   UNL     1      11.986  13.108 164.296  1.00  0.00     0.000 C 
BRANCH  19  20
ATOM     20  C   UNL     1      11.166  13.842 165.374  1.00  0.00     0.000 C 
BRANCH  20  21
ATOM     21  C   UNL     1      11.467  15.348 165.512  1.00  0.00     0.000 C 
BRANCH  21  22
ATOM     22  C   UNL     1      10.329  16.164 166.147  1.00  0.00    -0.000 C 
BRANCH  22  23
ATOM     23  C   UNL     1       9.315  16.708 165.117  1.00  0.00    -0.000 C 
BRANCH  23  24
ATOM     24  C   UNL     1       8.889  18.167 165.383  1.00  0.00    -0.000 C 
BRANCH  24  25
ATOM     25  C   UNL     1       7.968  18.325 166.606  1.00  0.00    -0.000 C 
BRANCH  25  26
ATOM     26  C   UNL     1       6.483  18.421 166.227  1.00  0.00    -0.000 C 
BRANCH  26  27
ATOM     27  C   UNL     1       5.845  17.028 166.130  1.00  0.00    -0.000 C 
BRANCH  27  28
ATOM     28  C   UNL     1       5.766  16.310 167.491  1.00  0.00    -0.000 C 
BRANCH  28  29
ATOM     29  C   UNL     1       7.121  15.832 168.050  1.00  0.00    -0.003 C 
ATOM     30  C   UNL     1       7.056  15.460 169.532  1.00  0.00     0.004 C 
ENDBRANCH  28  29
ENDBRANCH  27  28
ENDBRANCH  26  27
ENDBRANCH  25  26
ENDBRANCH  24  25
ENDBRANCH  23  24
ENDBRANCH  22  23
ENDBRANCH  21  22
ENDBRANCH  20  21
ENDBRANCH  19  20
ENDBRANCH  18  19
ENDBRANCH  17  18
ENDBRANCH   1  17
TORSDOF 26
ENDMDL
MODEL 6
REMARK VINA RESULT:    -3.977      1.236      3.380
REMARK INTER + INTRA:         -13.824
REMARK INTER:                 -10.398
REMARK INTRA:                  -3.426
REMARK UNBOUND:                -3.802
REMARK SMILES CCCCCCCCCCCCCCCCCCCCCCCCCCCC(=O)[O-]
REMARK SMILES IDX 15 1 16 2 17 3 18 4 19 5 20 6 21 7 22 8 23 9 24 10 25 11
REMARK SMILES IDX 26 12 27 13 28 14 29 15 30 16 14 17 13 18 12 19 11 20 10 21
REMARK SMILES IDX 9 22 8 23 7 24 6 25 5 26 4 27 3 28 2 29 1 30
REMARK H PARENT
REMARK Flexibility Score: inf
ROOT
ATOM      1  C   UNL     1      11.514  16.076 160.462  1.00  0.00     0.000 C 
ENDROOT
BRANCH   1   2
ATOM      2  C   UNL     1      11.554  17.301 159.539  1.00  0.00     0.000 C 
BRANCH   2   3
ATOM      3  C   UNL     1      11.097  18.560 160.292  1.00  0.00     0.000 C 
BRANCH   3   4
ATOM      4  C   UNL     1      11.701  18.673 161.704  1.00  0.00     0.000 C 
BRANCH   4   5
ATOM      5  C   UNL     1      10.720  19.125 162.802  1.00  0.00     0.000 C 
BRANCH   5   6
ATOM      6  C   UNL     1      10.119  18.001 163.667  1.00  0.00     0.000 C 
BRANCH   6   7
ATOM      7  C   UNL     1       9.737  18.427 165.101  1.00  0.00     0.000 C 
BRANCH   7   8
ATOM      8  C   UNL     1       8.263  18.857 165.229  1.00  0.00     0.000 C 
BRANCH   8   9
ATOM      9  C   UNL     1       7.809  18.982 166.692  1.00  0.00     0.000 C 
BRANCH   9  10
ATOM     10  C   UNL     1       6.280  18.929 166.835  1.00  0.00     0.000 C 
BRANCH  10  11
ATOM     11  C   UNL     1       5.675  17.883 165.891  1.00  0.00     0.000 C 
BRANCH  11  12
ATOM     12  C   UNL     1       5.963  16.462 166.392  1.00  0.00     0.006 C 
BRANCH  12  13
ATOM     13  C   UNL     1       6.080  16.428 167.919  1.00  0.00     0.053 C 
BRANCH  13  14
ATOM     14  C   UNL     1       7.323  15.705 168.332  1.00  0.00     0.041 C 
ATOM     15  O   UNL     1       7.361  15.078 169.425  1.00  0.00    -0.550 OA
ATOM     16  O   UNL     1       8.458  15.762 167.530  1.00  0.00    -0.550 OA
ENDBRANCH  13  14
ENDBRANCH  12  13
ENDBRANCH  11  12
ENDBRANCH  10  11
ENDBRANCH   9  10
ENDBRANCH   8   9
ENDBRANCH   7   8
ENDBRANCH   6   7
ENDBRANCH   5   6
ENDBRANCH   4   5
ENDBRANCH   3   4
ENDBRANCH   2   3
ENDBRANCH   1   2
BRANCH   1  17
ATOM     17  C   UNL     1      10.078  15.557 160.639  1.00  0.00     0.000 C 
BRANCH  17  18
ATOM     18  C   UNL     1      10.014  14.187 161.348  1.00  0.00     0.000 C 
BRANCH  18  19
ATOM     19  C   UNL     1      11.173  13.231 161.000  1.00  0.00     0.000 C 
BRANCH  19  20
ATOM     20  C   UNL     1      11.728  12.392 162.167  1.00  0.00     0.000 C 
BRANCH  20  21
ATOM     21  C   UNL     1      10.924  12.487 163.479  1.00  0.00     0.000 C 
BRANCH  21  22
ATOM     22  C   UNL     1      11.632  13.272 164.597  1.00  0.00    -0.000 C 
BRANCH  22  23
ATOM     23  C   UNL     1      11.637  14.799 164.366  1.00  0.00    -0.000 C 
BRANCH  23  24
ATOM     24  C   UNL     1      13.027  15.443 164.541  1.00  0.00    -0.000 C 
BRANCH  24  25
ATOM     25  C   UNL     1      13.587  16.062 163.248  1.00  0.00    -0.000 C 
BRANCH  25  26
ATOM     26  C   UNL     1      14.134  15.012 162.271  1.00  0.00    -0.000 C 
BRANCH  26  27
ATOM     27  C   UNL     1      15.004  13.977 162.999  1.00  0.00    -0.000 C 
BRANCH  27  28
ATOM     28  C   UNL     1      16.456  14.454 163.203  1.00  0.00    -0.000 C 
BRANCH  28  29
ATOM     29  C   UNL     1      17.513  13.667 162.405  1.00  0.00    -0.003 C 
ATOM     30  C   UNL     1      18.883  14.347 162.400  1.00  0.00     0.004 C 
ENDBRANCH  28  29
ENDBRANCH  27  28
ENDBRANCH  26  27
ENDBRANCH  25  26
ENDBRANCH  24  25
ENDBRANCH  23  24
ENDBRANCH  22  23
ENDBRANCH  21  22
ENDBRANCH  20  21
ENDBRANCH  19  20
ENDBRANCH  18  19
ENDBRANCH  17  18
ENDBRANCH   1  17
TORSDOF 26
ENDMDL
MODEL 7
REMARK VINA RESULT:    -3.929      1.704      5.034
REMARK INTER + INTRA:         -13.702
REMARK INTER:                 -10.647
REMARK INTRA:                  -3.054
REMARK UNBOUND:                -3.802
REMARK SMILES CCCCCCCCCCCCCCCCCCCCCCCCCCCC(=O)[O-]
REMARK SMILES IDX 15 1 16 2 17 3 18 4 19 5 20 6 21 7 22 8 23 9 24 10 25 11
REMARK SMILES IDX 26 12 27 13 28 14 29 15 30 16 14 17 13 18 12 19 11 20 10 21
REMARK SMILES IDX 9 22 8 23 7 24 6 25 5 26 4 27 3 28 2 29 1 30
REMARK H PARENT
REMARK Flexibility Score: inf
ROOT
ATOM      1  C   UNL     1      12.989  15.560 160.420  1.00  0.00     0.000 C 
ENDROOT
BRANCH   1   2
ATOM      2  C   UNL     1      11.483  15.787 160.612  1.00  0.00     0.000 C 
BRANCH   2   3
ATOM      3  C   UNL     1      10.985  16.910 159.690  1.00  0.00     0.000 C 
BRANCH   3   4
ATOM      4  C   UNL     1      11.630  18.275 159.997  1.00  0.00     0.000 C 
BRANCH   4   5
ATOM      5  C   UNL     1      10.902  19.118 161.060  1.00  0.00     0.000 C 
BRANCH   5   6
ATOM      6  C   UNL     1      11.403  18.949 162.507  1.00  0.00     0.000 C 
BRANCH   6   7
ATOM      7  C   UNL     1      10.290  18.934 163.576  1.00  0.00     0.000 C 
BRANCH   7   8
ATOM      8  C   UNL     1       9.905  17.511 164.024  1.00  0.00     0.000 C 
BRANCH   8   9
ATOM      9  C   UNL     1       9.179  17.494 165.380  1.00  0.00     0.000 C 
BRANCH   9  10
ATOM     10  C   UNL     1       8.255  18.707 165.562  1.00  0.00     0.000 C 
BRANCH  10  11
ATOM     11  C   UNL     1       6.953  18.307 166.266  1.00  0.00     0.000 C 
BRANCH  11  12
ATOM     12  C   UNL     1       6.694  16.802 166.122  1.00  0.00     0.006 C 
BRANCH  12  13
ATOM     13  C   UNL     1       6.128  16.214 167.419  1.00  0.00     0.053 C 
BRANCH  13  14
ATOM     14  C   UNL     1       7.236  15.722 168.297  1.00  0.00     0.041 C 
ATOM     15  O   UNL     1       7.038  15.532 169.526  1.00  0.00    -0.550 OA
ATOM     16  O   UNL     1       8.505  15.516 167.763  1.00  0.00    -0.550 OA
ENDBRANCH  13  14
ENDBRANCH  12  13
ENDBRANCH  11  12
ENDBRANCH  10  11
ENDBRANCH   9  10
ENDBRANCH   8   9
ENDBRANCH   7   8
ENDBRANCH   6   7
ENDBRANCH   5   6
ENDBRANCH   4   5
ENDBRANCH   3   4
ENDBRANCH   2   3
ENDBRANCH   1   2
BRANCH   1  17
ATOM     17  C   UNL     1      13.548  14.596 161.478  1.00  0.00     0.000 C 
BRANCH  17  18
ATOM     18  C   UNL     1      14.361  15.312 162.578  1.00  0.00     0.000 C 
BRANCH  18  19
ATOM     19  C   UNL     1      13.608  16.454 163.290  1.00  0.00     0.000 C 
BRANCH  19  20
ATOM     20  C   UNL     1      13.241  16.201 164.765  1.00  0.00     0.000 C 
BRANCH  20  21
ATOM     21  C   UNL     1      12.025  15.281 164.987  1.00  0.00     0.000 C 
BRANCH  21  22
ATOM     22  C   UNL     1      12.344  13.779 164.893  1.00  0.00    -0.000 C 
BRANCH  22  23
ATOM     23  C   UNL     1      11.549  13.051 163.788  1.00  0.00    -0.000 C 
BRANCH  23  24
ATOM     24  C   UNL     1      10.341  13.856 163.267  1.00  0.00    -0.000 C 
BRANCH  24  25
ATOM     25  C   UNL     1       9.721  13.277 161.983  1.00  0.00    -0.000 C 
BRANCH  25  26
ATOM     26  C   UNL     1      10.758  12.621 161.061  1.00  0.00    -0.000 C 
BRANCH  26  27
ATOM     27  C   UNL     1      10.409  11.150 160.792  1.00  0.00    -0.000 C 
BRANCH  27  28
ATOM     28  C   UNL     1       9.384  10.586 161.795  1.00  0.00    -0.000 C 
BRANCH  28  29
ATOM     29  C   UNL     1       9.242   9.051 161.781  1.00  0.00    -0.003 C 
ATOM     30  C   UNL     1       7.827   8.587 161.436  1.00  0.00     0.004 C 
ENDBRANCH  28  29
ENDBRANCH  27  28
ENDBRANCH  26  27
ENDBRANCH  25  26
ENDBRANCH  24  25
ENDBRANCH  23  24
ENDBRANCH  22  23
ENDBRANCH  21  22
ENDBRANCH  20  21
ENDBRANCH  19  20
ENDBRANCH  18  19
ENDBRANCH  17  18
ENDBRANCH   1  17
TORSDOF 26
ENDMDL
MODEL 8
REMARK VINA RESULT:    -3.880      2.471      6.589
REMARK INTER + INTRA:         -13.578
REMARK INTER:                 -10.159
REMARK INTRA:                  -3.419
REMARK UNBOUND:                -3.802
REMARK SMILES CCCCCCCCCCCCCCCCCCCCCCCCCCCC(=O)[O-]
REMARK SMILES IDX 15 1 16 2 17 3 18 4 19 5 20 6 21 7 22 8 23 9 24 10 25 11
REMARK SMILES IDX 26 12 27 13 28 14 29 15 30 16 14 17 13 18 12 19 11 20 10 21
REMARK SMILES IDX 9 22 8 23 7 24 6 25 5 26 4 27 3 28 2 29 1 30
REMARK H PARENT
REMARK Flexibility Score: inf
ROOT
ATOM      1  C   UNL     1       7.590  19.124 165.115  1.00  0.00     0.000 C 
ENDROOT
BRANCH   1   2
ATOM      2  C   UNL     1       9.122  19.124 165.207  1.00  0.00     0.000 C 
BRANCH   2   3
ATOM      3  C   UNL     1       9.731  18.283 164.075  1.00  0.00     0.000 C 
BRANCH   3   4
ATOM      4  C   UNL     1      10.567  19.116 163.086  1.00  0.00     0.000 C 
BRANCH   4   5
ATOM      5  C   UNL     1      11.496  18.302 162.166  1.00  0.00     0.000 C 
BRANCH   5   6
ATOM      6  C   UNL     1      11.198  18.400 160.657  1.00  0.00     0.000 C 
BRANCH   6   7
ATOM      7  C   UNL     1      10.950  17.045 159.961  1.00  0.00     0.000 C 
BRANCH   7   8
ATOM      8  C   UNL     1      12.071  16.020 160.222  1.00  0.00     0.000 C 
BRANCH   8   9
ATOM      9  C   UNL     1      11.572  14.776 160.975  1.00  0.00     0.000 C 
BRANCH   9  10
ATOM     10  C   UNL     1      10.102  14.902 161.401  1.00  0.00     0.000 C 
BRANCH  10  11
ATOM     11  C   UNL     1       9.697  13.752 162.330  1.00  0.00     0.000 C 
BRANCH  11  12
ATOM     12  C   UNL     1      10.650  12.560 162.174  1.00  0.00     0.006 C 
BRANCH  12  13
ATOM     13  C   UNL     1      10.255  11.692 160.975  1.00  0.00     0.053 C 
BRANCH  13  14
ATOM     14  C   UNL     1       9.804  10.341 161.435  1.00  0.00     0.041 C 
ATOM     15  O   UNL     1       8.674  10.196 161.972  1.00  0.00    -0.550 OA
ATOM     16  O   UNL     1      10.654   9.246 161.310  1.00  0.00    -0.550 OA
ENDBRANCH  13  14
ENDBRANCH  12  13
ENDBRANCH  11  12
ENDBRANCH  10  11
ENDBRANCH   9  10
ENDBRANCH   8   9
ENDBRANCH   7   8
ENDBRANCH   6   7
ENDBRANCH   5   6
ENDBRANCH   4   5
ENDBRANCH   3   4
ENDBRANCH   2   3
ENDBRANCH   1   2
BRANCH   1  17
ATOM     17  C   UNL     1       6.946  19.043 166.508  1.00  0.00     0.000 C 
BRANCH  17  18
ATOM     18  C   UNL     1       6.307  17.669 166.799  1.00  0.00     0.000 C 
BRANCH  18  19
ATOM     19  C   UNL     1       6.759  17.019 168.122  1.00  0.00     0.000 C 
BRANCH  19  20
ATOM     20  C   UNL     1       7.896  15.985 168.011  1.00  0.00     0.000 C 
BRANCH  20  21
ATOM     21  C   UNL     1       8.703  16.039 166.699  1.00  0.00     0.000 C 
BRANCH  21  22
ATOM     22  C   UNL     1      10.195  15.705 166.861  1.00  0.00    -0.000 C 
BRANCH  22  23
ATOM     23  C   UNL     1      10.845  15.158 165.571  1.00  0.00    -0.000 C 
BRANCH  23  24
ATOM     24  C   UNL     1      12.359  15.439 165.478  1.00  0.00    -0.000 C 
BRANCH  24  25
ATOM     25  C   UNL     1      12.754  16.293 164.260  1.00  0.00    -0.000 C 
BRANCH  25  26
ATOM     26  C   UNL     1      13.906  15.683 163.450  1.00  0.00    -0.000 C 
BRANCH  26  27
ATOM     27  C   UNL     1      13.934  14.155 163.592  1.00  0.00    -0.000 C 
BRANCH  27  28
ATOM     28  C   UNL     1      15.193  13.519 162.968  1.00  0.00    -0.000 C 
BRANCH  28  29
ATOM     29  C   UNL     1      16.300  14.520 162.583  1.00  0.00    -0.003 C 
ATOM     30  C   UNL     1      17.679  13.869 162.472  1.00  0.00     0.004 C 
ENDBRANCH  28  29
ENDBRANCH  27  28
ENDBRANCH  26  27
ENDBRANCH  25  26
ENDBRANCH  24  25
ENDBRANCH  23  24
ENDBRANCH  22  23
ENDBRANCH  21  22
ENDBRANCH  20  21
ENDBRANCH  19  20
ENDBRANCH  18  19
ENDBRANCH  17  18
ENDBRANCH   1  17
TORSDOF 26
ENDMDL
MODEL 9
REMARK VINA RESULT:    -3.786      1.840      4.840
REMARK INTER + INTRA:         -13.343
REMARK INTER:                 -10.463
REMARK INTRA:                  -2.880
REMARK UNBOUND:                -3.802
REMARK SMILES CCCCCCCCCCCCCCCCCCCCCCCCCCCC(=O)[O-]
REMARK SMILES IDX 15 1 16 2 17 3 18 4 19 5 20 6 21 7 22 8 23 9 24 10 25 11
REMARK SMILES IDX 26 12 27 13 28 14 29 15 30 16 14 17 13 18 12 19 11 20 10 21
REMARK SMILES IDX 9 22 8 23 7 24 6 25 5 26 4 27 3 28 2 29 1 30
REMARK H PARENT
REMARK Flexibility Score: inf
ROOT
ATOM      1  C   UNL     1      13.871  17.592 163.409  1.00  0.00     0.000 C 
ENDROOT
BRANCH   1   2
ATOM      2  C   UNL     1      14.236  16.108 163.264  1.00  0.00     0.000 C 
BRANCH   2   3
ATOM      3  C   UNL     1      13.692  15.546 161.942  1.00  0.00     0.000 C 
BRANCH   3   4
ATOM      4  C   UNL     1      13.944  14.035 161.778  1.00  0.00     0.000 C 
BRANCH   4   5
ATOM      5  C   UNL     1      13.446  13.158 162.943  1.00  0.00     0.000 C 
BRANCH   5   6
ATOM      6  C   UNL     1      12.849  13.917 164.144  1.00  0.00     0.000 C 
BRANCH   6   7
ATOM      7  C   UNL     1      11.549  13.306 164.709  1.00  0.00     0.000 C 
BRANCH   7   8
ATOM      8  C   UNL     1      10.954  14.125 165.870  1.00  0.00     0.000 C 
BRANCH   8   9
ATOM      9  C   UNL     1      11.137  15.640 165.679  1.00  0.00     0.000 C 
BRANCH   9  10
ATOM     10  C   UNL     1       9.812  16.353 165.368  1.00  0.00     0.000 C 
BRANCH  10  11
ATOM     11  C   UNL     1       8.957  16.505 166.632  1.00  0.00     0.000 C 
BRANCH  11  12
ATOM     12  C   UNL     1       8.218  17.848 166.635  1.00  0.00     0.006 C 
BRANCH  12  13
ATOM     13  C   UNL     1       6.999  17.805 167.561  1.00  0.00     0.053 C 
BRANCH  13  14
ATOM     14  C   UNL     1       5.768  17.446 166.788  1.00  0.00     0.041 C 
ATOM     15  O   UNL     1       5.008  18.349 166.347  1.00  0.00    -0.550 OA
ATOM     16  O   UNL     1       5.435  16.109 166.595  1.00  0.00    -0.550 OA
ENDBRANCH  13  14
ENDBRANCH  12  13
ENDBRANCH  11  12
ENDBRANCH  10  11
ENDBRANCH   9  10
ENDBRANCH   8   9
ENDBRANCH   7   8
ENDBRANCH   6   7
ENDBRANCH   5   6
ENDBRANCH   4   5
ENDBRANCH   3   4
ENDBRANCH   2   3
ENDBRANCH   1   2
BRANCH   1  17
ATOM     17  C   UNL     1      12.361  17.816 163.228  1.00  0.00     0.000 C 
BRANCH  17  18
ATOM     18  C   UNL     1      12.032  19.108 162.451  1.00  0.00     0.000 C 
BRANCH  18  19
ATOM     19  C   UNL     1      10.857  18.979 161.460  1.00  0.00     0.000 C 
BRANCH  19  20
ATOM     20  C   UNL     1      11.236  18.623 160.010  1.00  0.00     0.000 C 
BRANCH  20  21
ATOM     21  C   UNL     1      11.555  17.136 159.764  1.00  0.00     0.000 C 
BRANCH  21  22
ATOM     22  C   UNL     1      10.423  16.173 160.162  1.00  0.00    -0.000 C 
BRANCH  22  23
ATOM     23  C   UNL     1      10.591  15.581 161.579  1.00  0.00    -0.000 C 
BRANCH  23  24
ATOM     24  C   UNL     1       9.319  14.891 162.112  1.00  0.00    -0.000 C 
BRANCH  24  25
ATOM     25  C   UNL     1       9.321  13.364 161.919  1.00  0.00    -0.000 C 
BRANCH  25  26
ATOM     26  C   UNL     1      10.498  12.869 161.068  1.00  0.00    -0.000 C 
BRANCH  26  27
ATOM     27  C   UNL     1      10.877  11.426 161.431  1.00  0.00    -0.000 C 
BRANCH  27  28
ATOM     28  C   UNL     1       9.681  10.609 161.960  1.00  0.00    -0.000 C 
BRANCH  28  29
ATOM     29  C   UNL     1       9.371   9.327 161.163  1.00  0.00    -0.003 C 
ATOM     30  C   UNL     1       8.065   8.659 161.593  1.00  0.00     0.004 C 
ENDBRANCH  28  29
ENDBRANCH  27  28
ENDBRANCH  26  27
ENDBRANCH  25  26
ENDBRANCH  24  25
ENDBRANCH  23  24
ENDBRANCH  22  23
ENDBRANCH  21  22
ENDBRANCH  20  21
ENDBRANCH  19  20
ENDBRANCH  18  19
ENDBRANCH  17  18
ENDBRANCH   1  17
TORSDOF 26
ENDMDL
