MODEL 1
REMARK VINA RESULT:    -4.331      0.000      0.000
REMARK INTER + INTRA:          -5.360
REMARK INTER:                  -5.217
REMARK INTRA:                  -0.143
REMARK UNBOUND:                -0.143
REMARK SMILES CC[C@@H](C)[C@@H]([NH3+])C(=O)[O-]
REMARK SMILES IDX 3 1 4 2 5 3 6 4 7 8 8 9 9 10 2 11 1 12
REMARK H PARENT 6 5 6 6 6 7
REMARK Flexibility Score: inf
ROOT
ATOM      1  C   UNL     1      10.846  37.808  71.681  1.00  0.00     0.050 C 
ATOM      2  C   UNL     1      10.178  36.894  72.732  1.00  0.00     0.014 C 
ENDROOT
BRANCH   1   3
ATOM      3  C   UNL     1      10.157  39.212  71.666  1.00  0.00     0.230 C 
BRANCH   3   4
ATOM      4  N   UNL     1      10.826  40.169  72.562  1.00  0.00    -0.350 N 
ATOM      5  H   UNL     1      10.849  41.119  72.124  1.00  0.00     0.345 HD
ATOM      6  H   UNL     1      11.807  39.865  72.763  1.00  0.00     0.345 HD
ATOM      7  H   UNL     1      10.293  40.262  73.456  1.00  0.00     0.345 HD
ENDBRANCH   3   4
BRANCH   3   8
ATOM      8  C   UNL     1      10.130  39.782  70.269  1.00  0.00     0.099 C 
ATOM      9  O   UNL     1       9.826  40.990  70.083  1.00  0.00    -0.544 OA
ATOM     10  O   UNL     1      10.446  38.979  69.180  1.00  0.00    -0.544 OA
ENDBRANCH   3   8
ENDBRANCH   1   3
BRANCH   1  11
ATOM     11  C   UNL     1      12.370  37.923  71.947  1.00  0.00     0.006 C 
ATOM     12  C   UNL     1      13.234  37.525  70.746  1.00  0.00     0.004 C 
ENDBRANCH   1  11
TORSDOF 4
ENDMDL
MODEL 2
REMARK VINA RESULT:    -4.282      5.837      6.696
REMARK INTER + INTRA:          -5.301
REMARK INTER:                  -5.154
REMARK INTRA:                  -0.147
REMARK UNBOUND:                -0.143
REMARK SMILES CC[C@@H](C)[C@@H]([NH3+])C(=O)[O-]
REMARK SMILES IDX 3 1 4 2 5 3 6 4 7 8 8 9 9 10 2 11 1 12
REMARK H PARENT 6 5 6 6 6 7
REMARK Flexibility Score: inf
ROOT
ATOM      1  C   UNL     1      10.780  36.937  65.725  1.00  0.00     0.050 C 
ATOM      2  C   UNL     1      10.130  35.604  65.290  1.00  0.00     0.014 C 
ENDROOT
BRANCH   1   3
ATOM      3  C   UNL     1      11.427  37.651  64.494  1.00  0.00     0.230 C 
BRANCH   3   4
ATOM      4  N   UNL     1      10.783  38.941  64.197  1.00  0.00    -0.350 N 
ATOM      5  H   UNL     1       9.742  38.842  64.232  1.00  0.00     0.345 HD
ATOM      6  H   UNL     1      11.059  39.284  63.248  1.00  0.00     0.345 HD
ATOM      7  H   UNL     1      11.043  39.650  64.920  1.00  0.00     0.345 HD
ENDBRANCH   3   4
BRANCH   3   8
ATOM      8  C   UNL     1      12.902  37.879  64.721  1.00  0.00     0.099 C 
ATOM      9  O   UNL     1      13.729  37.638  63.802  1.00  0.00    -0.544 OA
ATOM     10  O   UNL     1      13.356  38.362  65.943  1.00  0.00    -0.544 OA
ENDBRANCH   3   8
ENDBRANCH   1   3
BRANCH   1  11
ATOM     11  C   UNL     1       9.739  37.846  66.431  1.00  0.00     0.006 C 
ATOM     12  C   UNL     1      10.186  38.331  67.813  1.00  0.00     0.004 C 
ENDBRANCH   1  11
TORSDOF 4
ENDMDL
MODEL 3
REMARK VINA RESULT:    -4.265      2.343      2.971
REMARK INTER + INTRA:          -5.281
REMARK INTER:                  -5.194
REMARK INTRA:                  -0.087
REMARK UNBOUND:                -0.143
REMARK SMILES CC[C@@H](C)[C@@H]([NH3+])C(=O)[O-]
REMARK SMILES IDX 3 1 4 2 5 3 6 4 7 8 8 9 9 10 2 11 1 12
REMARK H PARENT 6 5 6 6 6 7
REMARK Flexibility Score: inf
ROOT
ATOM      1  C   UNL     1      10.707  38.212  70.553  1.00  0.00     0.050 C 
ATOM      2  C   UNL     1      12.078  37.573  70.867  1.00  0.00     0.014 C 
ENDROOT
BRANCH   1   3
ATOM      3  C   UNL     1      10.497  39.500  71.415  1.00  0.00     0.230 C 
BRANCH   3   4
ATOM      4  N   UNL     1       9.855  40.582  70.651  1.00  0.00    -0.350 N 
ATOM      5  H   UNL     1       9.025  40.214  70.130  1.00  0.00     0.345 HD
ATOM      6  H   UNL     1      10.526  41.001  69.966  1.00  0.00     0.345 HD
ATOM      7  H   UNL     1       9.501  41.321  71.299  1.00  0.00     0.345 HD
ENDBRANCH   3   4
BRANCH   3   8
ATOM      8  C   UNL     1       9.663  39.198  72.636  1.00  0.00     0.099 C 
ATOM      9  O   UNL     1       9.276  38.022  72.864  1.00  0.00    -0.544 OA
ATOM     10  O   UNL     1       9.321  40.216  73.518  1.00  0.00    -0.544 OA
ENDBRANCH   3   8
ENDBRANCH   1   3
BRANCH   1  11
ATOM     11  C   UNL     1      10.581  38.513  69.036  1.00  0.00     0.006 C 
ATOM     12  C   UNL     1      11.927  38.570  68.308  1.00  0.00     0.004 C 
ENDBRANCH   1  11
TORSDOF 4
ENDMDL
MODEL 4
REMARK VINA RESULT:    -4.243      2.151      2.838
REMARK INTER + INTRA:          -5.254
REMARK INTER:                  -5.140
REMARK INTRA:                  -0.114
REMARK UNBOUND:                -0.143
REMARK SMILES CC[C@@H](C)[C@@H]([NH3+])C(=O)[O-]
REMARK SMILES IDX 3 1 4 2 5 3 6 4 7 8 8 9 9 10 2 11 1 12
REMARK H PARENT 6 5 6 6 6 7
REMARK Flexibility Score: inf
ROOT
ATOM      1  C   UNL     1      10.857  38.821  70.997  1.00  0.00     0.050 C 
ATOM      2  C   UNL     1      10.714  37.293  71.169  1.00  0.00     0.014 C 
ENDROOT
BRANCH   1   3
ATOM      3  C   UNL     1      10.165  39.286  69.674  1.00  0.00     0.230 C 
BRANCH   3   4
ATOM      4  N   UNL     1      10.125  40.752  69.552  1.00  0.00    -0.350 N 
ATOM      5  H   UNL     1      11.094  41.145  69.596  1.00  0.00     0.345 HD
ATOM      6  H   UNL     1       9.553  41.172  70.320  1.00  0.00     0.345 HD
ATOM      7  H   UNL     1       9.729  41.027  68.624  1.00  0.00     0.345 HD
ENDBRANCH   3   4
BRANCH   3   8
ATOM      8  C   UNL     1      10.869  38.711  68.469  1.00  0.00     0.099 C 
ATOM      9  O   UNL     1      10.212  38.116  67.575  1.00  0.00    -0.544 OA
ATOM     10  O   UNL     1      12.247  38.840  68.337  1.00  0.00    -0.544 OA
ENDBRANCH   3   8
ENDBRANCH   1   3
BRANCH   1  11
ATOM     11  C   UNL     1      10.284  39.565  72.232  1.00  0.00     0.006 C 
ATOM     12  C   UNL     1       9.084  38.860  72.869  1.00  0.00     0.004 C 
ENDBRANCH   1  11
TORSDOF 4
ENDMDL
MODEL 5
REMARK VINA RESULT:    -4.196      2.471      3.602
REMARK INTER + INTRA:          -5.197
REMARK INTER:                  -5.120
REMARK INTRA:                  -0.077
REMARK UNBOUND:                -0.143
REMARK SMILES CC[C@@H](C)[C@@H]([NH3+])C(=O)[O-]
REMARK SMILES IDX 3 1 4 2 5 3 6 4 7 8 8 9 9 10 2 11 1 12
REMARK H PARENT 6 5 6 6 6 7
REMARK Flexibility Score: inf
ROOT
ATOM      1  C   UNL     1      10.480  38.727  69.079  1.00  0.00     0.050 C 
ATOM      2  C   UNL     1      11.906  38.568  68.507  1.00  0.00     0.014 C 
ENDROOT
BRANCH   1   3
ATOM      3  C   UNL     1      10.505  39.628  70.357  1.00  0.00     0.230 C 
BRANCH   3   4
ATOM      4  N   UNL     1       9.748  40.876  70.172  1.00  0.00    -0.350 N 
ATOM      5  H   UNL     1       9.083  40.781  69.369  1.00  0.00     0.345 HD
ATOM      6  H   UNL     1      10.393  41.678  69.985  1.00  0.00     0.345 HD
ATOM      7  H   UNL     1       9.169  41.077  71.020  1.00  0.00     0.345 HD
ENDBRANCH   3   4
BRANCH   3   8
ATOM      8  C   UNL     1       9.948  38.886  71.547  1.00  0.00     0.099 C 
ATOM      9  O   UNL     1       9.428  39.521  72.503  1.00  0.00    -0.544 OA
ATOM     10  O   UNL     1      10.000  37.498  71.594  1.00  0.00    -0.544 OA
ENDBRANCH   3   8
ENDBRANCH   1   3
BRANCH   1  11
ATOM     11  C   UNL     1       9.520  39.295  67.999  1.00  0.00     0.006 C 
ATOM     12  C   UNL     1       9.319  38.359  66.804  1.00  0.00     0.004 C 
ENDBRANCH   1  11
TORSDOF 4
ENDMDL
MODEL 6
REMARK VINA RESULT:    -4.169      3.376      4.371
REMARK INTER + INTRA:          -5.165
REMARK INTER:                  -5.072
REMARK INTRA:                  -0.094
REMARK UNBOUND:                -0.143
REMARK SMILES CC[C@@H](C)[C@@H]([NH3+])C(=O)[O-]
REMARK SMILES IDX 3 1 4 2 5 3 6 4 7 8 8 9 9 10 2 11 1 12
REMARK H PARENT 6 5 6 6 6 7
REMARK Flexibility Score: inf
ROOT
ATOM      1  C   UNL     1      10.824  38.750  68.717  1.00  0.00     0.050 C 
ATOM      2  C   UNL     1      10.991  37.638  69.776  1.00  0.00     0.014 C 
ENDROOT
BRANCH   1   3
ATOM      3  C   UNL     1      10.004  38.218  67.496  1.00  0.00     0.230 C 
BRANCH   3   4
ATOM      4  N   UNL     1       8.959  39.164  67.074  1.00  0.00    -0.350 N 
ATOM      5  H   UNL     1       8.289  38.695  66.420  1.00  0.00     0.345 HD
ATOM      6  H   UNL     1       9.380  39.991  66.592  1.00  0.00     0.345 HD
ATOM      7  H   UNL     1       8.401  39.480  67.900  1.00  0.00     0.345 HD
ENDBRANCH   3   4
BRANCH   3   8
ATOM      8  C   UNL     1      10.911  37.932  66.324  1.00  0.00     0.099 C 
ATOM      9  O   UNL     1      10.437  37.465  65.255  1.00  0.00    -0.544 OA
ATOM     10  O   UNL     1      12.274  38.188  66.415  1.00  0.00    -0.544 OA
ENDBRANCH   3   8
ENDBRANCH   1   3
BRANCH   1  11
ATOM     11  C   UNL     1      10.164  40.006  69.344  1.00  0.00     0.006 C 
ATOM     12  C   UNL     1      10.042  39.938  70.869  1.00  0.00     0.004 C 
ENDBRANCH   1  11
TORSDOF 4
ENDMDL
MODEL 7
REMARK VINA RESULT:    -4.120     10.575     11.609
REMARK INTER + INTRA:          -5.105
REMARK INTER:                  -5.022
REMARK INTRA:                  -0.084
REMARK UNBOUND:                -0.143
REMARK SMILES CC[C@@H](C)[C@@H]([NH3+])C(=O)[O-]
REMARK SMILES IDX 3 1 4 2 5 3 6 4 7 8 8 9 9 10 2 11 1 12
REMARK H PARENT 6 5 6 6 6 7
REMARK Flexibility Score: inf
ROOT
ATOM      1  C   UNL     1       3.297  31.920  69.090  1.00  0.00     0.050 C 
ATOM      2  C   UNL     1       4.775  32.030  69.524  1.00  0.00     0.014 C 
ENDROOT
BRANCH   1   3
ATOM      3  C   UNL     1       2.615  30.700  69.791  1.00  0.00     0.230 C 
BRANCH   3   4
ATOM      4  N   UNL     1       1.183  30.602  69.467  1.00  0.00    -0.350 N 
ATOM      5  H   UNL     1       0.929  29.611  69.244  1.00  0.00     0.345 HD
ATOM      6  H   UNL     1       0.946  31.205  68.646  1.00  0.00     0.345 HD
ATOM      7  H   UNL     1       0.605  30.882  70.292  1.00  0.00     0.345 HD
ENDBRANCH   3   4
BRANCH   3   8
ATOM      8  C   UNL     1       3.296  29.410  69.404  1.00  0.00     0.099 C 
ATOM      9  O   UNL     1       3.667  28.598  70.292  1.00  0.00    -0.544 OA
ATOM     10  O   UNL     1       3.514  29.108  68.065  1.00  0.00    -0.544 OA
ENDBRANCH   3   8
ENDBRANCH   1   3
BRANCH   1  11
ATOM     11  C   UNL     1       2.542  33.243  69.386  1.00  0.00     0.006 C 
ATOM     12  C   UNL     1       3.470  34.434  69.645  1.00  0.00     0.004 C 
ENDBRANCH   1  11
TORSDOF 4
ENDMDL
MODEL 8
REMARK VINA RESULT:    -4.107      1.820      2.809
REMARK INTER + INTRA:          -5.090
REMARK INTER:                  -5.001
REMARK INTRA:                  -0.089
REMARK UNBOUND:                -0.143
REMARK SMILES CC[C@@H](C)[C@@H]([NH3+])C(=O)[O-]
REMARK SMILES IDX 3 1 4 2 5 3 6 4 7 8 8 9 9 10 2 11 1 12
REMARK H PARENT 6 5 6 6 6 7
REMARK Flexibility Score: inf
ROOT
ATOM      1  C   UNL     1      10.252  37.164  72.714  1.00  0.00     0.050 C 
ATOM      2  C   UNL     1      10.966  36.569  71.481  1.00  0.00     0.014 C 
ENDROOT
BRANCH   1   3
ATOM      3  C   UNL     1       9.384  38.396  72.297  1.00  0.00     0.230 C 
BRANCH   3   4
ATOM      4  N   UNL     1       8.444  38.798  73.356  1.00  0.00    -0.350 N 
ATOM      5  H   UNL     1       8.079  39.761  73.169  1.00  0.00     0.345 HD
ATOM      6  H   UNL     1       8.912  38.789  74.291  1.00  0.00     0.345 HD
ATOM      7  H   UNL     1       7.617  38.159  73.367  1.00  0.00     0.345 HD
ENDBRANCH   3   4
BRANCH   3   8
ATOM      8  C   UNL     1      10.259  39.574  71.944  1.00  0.00     0.099 C 
ATOM      9  O   UNL     1      11.192  39.924  72.715  1.00  0.00    -0.544 OA
ATOM     10  O   UNL     1      10.045  40.276  70.764  1.00  0.00    -0.544 OA
ENDBRANCH   3   8
ENDBRANCH   1   3
BRANCH   1  11
ATOM     11  C   UNL     1       9.400  36.080  73.427  1.00  0.00     0.006 C 
ATOM     12  C   UNL     1      10.117  34.736  73.575  1.00  0.00     0.004 C 
ENDBRANCH   1  11
TORSDOF 4
ENDMDL
MODEL 9
REMARK VINA RESULT:    -4.085     11.043     12.027
REMARK INTER + INTRA:          -5.064
REMARK INTER:                  -4.938
REMARK INTRA:                  -0.126
REMARK UNBOUND:                -0.143
REMARK SMILES CC[C@@H](C)[C@@H]([NH3+])C(=O)[O-]
REMARK SMILES IDX 3 1 4 2 5 3 6 4 7 8 8 9 9 10 2 11 1 12
REMARK H PARENT 6 5 6 6 6 7
REMARK Flexibility Score: inf
ROOT
ATOM      1  C   UNL     1       4.422  29.754  69.622  1.00  0.00     0.050 C 
ATOM      2  C   UNL     1       5.093  29.369  68.285  1.00  0.00     0.014 C 
ENDROOT
BRANCH   1   3
ATOM      3  C   UNL     1       3.008  29.094  69.729  1.00  0.00     0.230 C 
BRANCH   3   4
ATOM      4  N   UNL     1       2.949  28.078  70.793  1.00  0.00    -0.350 N 
ATOM      5  H   UNL     1       2.011  28.096  71.258  1.00  0.00     0.345 HD
ATOM      6  H   UNL     1       3.687  28.251  71.513  1.00  0.00     0.345 HD
ATOM      7  H   UNL     1       3.066  27.122  70.386  1.00  0.00     0.345 HD
ENDBRANCH   3   4
BRANCH   3   8
ATOM      8  C   UNL     1       1.947  30.136  69.985  1.00  0.00     0.099 C 
ATOM      9  O   UNL     1       0.826  29.799  70.449  1.00  0.00    -0.544 OA
ATOM     10  O   UNL     1       2.203  31.475  69.716  1.00  0.00    -0.544 OA
ENDBRANCH   3   8
ENDBRANCH   1   3
BRANCH   1  11
ATOM     11  C   UNL     1       5.328  29.362  70.819  1.00  0.00     0.006 C 
ATOM     12  C   UNL     1       5.750  30.553  71.684  1.00  0.00     0.004 C 
ENDBRANCH   1  11
TORSDOF 4
ENDMDL
