MODEL 1
REMARK VINA RESULT:    -4.826      0.000      0.000
REMARK INTER + INTRA:          -7.511
REMARK INTER:                  -6.801
REMARK INTRA:                  -0.710
REMARK UNBOUND:                -0.710
REMARK SMILES COc1ccc(-c2cc(=O)c3c(OC)c(OC)c(OC)c(OC)c3o2)cc1OC
REMARK SMILES IDX 7 1 8 2 9 3 10 4 11 5 24 6 25 7 21 8 18 9 15 10 12 11 6 12
REMARK SMILES IDX 3 13 27 14 4 15 26 16 5 17 2 18 1 19 28 20 29 21 22 22 23 23
REMARK SMILES IDX 13 24 14 25 19 26 20 27 16 28 17 29
REMARK H PARENT
REMARK Flexibility Score: inf
ROOT
ATOM      1  C   UNL     1      14.604  50.138  32.211  1.00  0.00     0.138 A 
ATOM      2  C   UNL     1      15.786  49.988  31.483  1.00  0.00     0.100 A 
ATOM      3  C   UNL     1      16.221  48.709  31.145  1.00  0.00     0.197 A 
ATOM      4  O   UNL     1      17.290  48.590  30.491  1.00  0.00    -0.289 OA
ATOM      5  C   UNL     1      15.458  47.582  31.536  1.00  0.00     0.115 A 
ATOM      6  C   UNL     1      14.294  47.813  32.308  1.00  0.00     0.188 A 
ATOM      7  O   UNL     1      13.933  49.059  32.602  1.00  0.00    -0.452 OA
ATOM      8  C   UNL     1      13.504  46.728  32.744  1.00  0.00     0.209 A 
ATOM      9  C   UNL     1      13.861  45.422  32.386  1.00  0.00     0.211 A 
ATOM     10  C   UNL     1      14.987  45.177  31.571  1.00  0.00     0.208 A 
ATOM     11  C   UNL     1      15.794  46.262  31.147  1.00  0.00     0.179 A 
ENDROOT
BRANCH   1  12
ATOM     12  C   UNL     1      14.072  51.476  32.553  1.00  0.00     0.021 A 
ATOM     13  C   UNL     1      13.018  53.979  33.313  1.00  0.00     0.160 A 
ATOM     14  C   UNL     1      14.248  53.546  33.839  1.00  0.00     0.161 A 
ATOM     15  C   UNL     1      12.323  53.159  32.405  1.00  0.00     0.051 A 
ATOM     16  C   UNL     1      14.764  52.290  33.462  1.00  0.00     0.062 A 
ATOM     17  C   UNL     1      12.850  51.924  32.026  1.00  0.00     0.016 A 
BRANCH  13  18
ATOM     18  O   UNL     1      12.517  55.227  33.720  1.00  0.00    -0.493 OA
ATOM     19  C   UNL     1      11.487  55.407  34.683  1.00  0.00     0.278 C 
ENDBRANCH  13  18
BRANCH  14  20
ATOM     20  O   UNL     1      14.929  54.393  34.732  1.00  0.00    -0.493 OA
ATOM     21  C   UNL     1      14.901  54.265  36.151  1.00  0.00     0.278 C 
ENDBRANCH  14  20
ENDBRANCH   1  12
BRANCH   8  22
ATOM     22  O   UNL     1      12.349  46.881  33.534  1.00  0.00    -0.490 OA
ATOM     23  C   UNL     1      11.030  47.152  33.061  1.00  0.00     0.278 C 
ENDBRANCH   8  22
BRANCH  11  24
ATOM     24  O   UNL     1      16.924  46.072  30.328  1.00  0.00    -0.492 OA
ATOM     25  C   UNL     1      16.902  45.781  28.933  1.00  0.00     0.278 C 
ENDBRANCH  11  24
BRANCH   9  26
ATOM     26  O   UNL     1      13.091  44.363  32.873  1.00  0.00    -0.490 OA
ATOM     27  C   UNL     1      13.452  43.672  34.063  1.00  0.00     0.279 C 
ENDBRANCH   9  26
BRANCH  10  28
ATOM     28  O   UNL     1      15.365  43.876  31.196  1.00  0.00    -0.490 OA
ATOM     29  C   UNL     1      14.733  43.083  30.190  1.00  0.00     0.278 C 
ENDBRANCH  10  28
TORSDOF 7
ENDMDL
MODEL 2
REMARK VINA RESULT:    -4.812      2.834      8.469
REMARK INTER + INTRA:          -7.491
REMARK INTER:                  -6.779
REMARK INTRA:                  -0.711
REMARK UNBOUND:                -0.710
REMARK SMILES COc1ccc(-c2cc(=O)c3c(OC)c(OC)c(OC)c(OC)c3o2)cc1OC
REMARK SMILES IDX 7 1 8 2 9 3 10 4 11 5 24 6 25 7 21 8 18 9 15 10 12 11 6 12
REMARK SMILES IDX 3 13 27 14 4 15 26 16 5 17 2 18 1 19 28 20 29 21 22 22 23 23
REMARK SMILES IDX 13 24 14 25 19 26 20 27 16 28 17 29
REMARK H PARENT
REMARK Flexibility Score: inf
ROOT
ATOM      1  C   UNL     1      14.903  50.706  31.373  1.00  0.00     0.138 A 
ATOM      2  C   UNL     1      14.772  51.066  30.030  1.00  0.00     0.100 A 
ATOM      3  C   UNL     1      14.805  52.413  29.679  1.00  0.00     0.197 A 
ATOM      4  O   UNL     1      14.683  52.722  28.465  1.00  0.00    -0.289 OA
ATOM      5  C   UNL     1      14.976  53.396  30.684  1.00  0.00     0.115 A 
ATOM      6  C   UNL     1      15.059  52.954  32.026  1.00  0.00     0.188 A 
ATOM      7  O   UNL     1      15.018  51.653  32.297  1.00  0.00    -0.452 OA
ATOM      8  C   UNL     1      15.210  53.889  33.074  1.00  0.00     0.209 A 
ATOM      9  C   UNL     1      15.305  55.254  32.776  1.00  0.00     0.211 A 
ATOM     10  C   UNL     1      15.280  55.708  31.439  1.00  0.00     0.208 A 
ATOM     11  C   UNL     1      15.109  54.775  30.387  1.00  0.00     0.179 A 
ENDROOT
BRANCH   1  12
ATOM     12  C   UNL     1      14.925  49.287  31.793  1.00  0.00     0.021 A 
ATOM     13  C   UNL     1      14.934  46.551  32.477  1.00  0.00     0.160 A 
ATOM     14  C   UNL     1      16.015  47.100  31.765  1.00  0.00     0.161 A 
ATOM     15  C   UNL     1      13.855  47.375  32.848  1.00  0.00     0.051 A 
ATOM     16  C   UNL     1      15.999  48.465  31.418  1.00  0.00     0.062 A 
ATOM     17  C   UNL     1      13.857  48.730  32.514  1.00  0.00     0.016 A 
BRANCH  13  18
ATOM     18  O   UNL     1      14.965  45.182  32.794  1.00  0.00    -0.493 OA
ATOM     19  C   UNL     1      13.823  44.406  33.131  1.00  0.00     0.278 C 
ENDBRANCH  13  18
BRANCH  14  20
ATOM     20  O   UNL     1      17.086  46.256  31.420  1.00  0.00    -0.493 OA
ATOM     21  C   UNL     1      17.374  45.810  30.098  1.00  0.00     0.278 C 
ENDBRANCH  14  20
ENDBRANCH   1  12
BRANCH   8  22
ATOM     22  O   UNL     1      15.275  53.525  34.432  1.00  0.00    -0.490 OA
ATOM     23  C   UNL     1      14.173  53.166  35.264  1.00  0.00     0.278 C 
ENDBRANCH   8  22
BRANCH  11  24
ATOM     24  O   UNL     1      15.083  55.174  29.037  1.00  0.00    -0.492 OA
ATOM     25  C   UNL     1      16.195  55.664  28.291  1.00  0.00     0.278 C 
ENDBRANCH  11  24
BRANCH   9  26
ATOM     26  O   UNL     1      15.402  56.162  33.833  1.00  0.00    -0.490 OA
ATOM     27  C   UNL     1      14.255  56.831  34.343  1.00  0.00     0.279 C 
ENDBRANCH   9  26
BRANCH  10  28
ATOM     28  O   UNL     1      15.376  57.072  31.115  1.00  0.00    -0.490 OA
ATOM     29  C   UNL     1      14.275  57.949  30.869  1.00  0.00     0.278 C 
ENDBRANCH  10  28
TORSDOF 7
ENDMDL
MODEL 3
REMARK VINA RESULT:    -4.707      2.783      7.746
REMARK INTER + INTRA:          -7.343
REMARK INTER:                  -6.592
REMARK INTRA:                  -0.752
REMARK UNBOUND:                -0.710
REMARK SMILES COc1ccc(-c2cc(=O)c3c(OC)c(OC)c(OC)c(OC)c3o2)cc1OC
REMARK SMILES IDX 7 1 8 2 9 3 10 4 11 5 24 6 25 7 21 8 18 9 15 10 12 11 6 12
REMARK SMILES IDX 3 13 27 14 4 15 26 16 5 17 2 18 1 19 28 20 29 21 22 22 23 23
REMARK SMILES IDX 13 24 14 25 19 26 20 27 16 28 17 29
REMARK H PARENT
REMARK Flexibility Score: inf
ROOT
ATOM      1  C   UNL     1      14.614  48.190  31.818  1.00  0.00     0.138 A 
ATOM      2  C   UNL     1      14.004  49.351  32.297  1.00  0.00     0.100 A 
ATOM      3  C   UNL     1      14.250  50.564  31.658  1.00  0.00     0.197 A 
ATOM      4  O   UNL     1      13.695  51.602  32.105  1.00  0.00    -0.289 OA
ATOM      5  C   UNL     1      15.107  50.603  30.532  1.00  0.00     0.115 A 
ATOM      6  C   UNL     1      15.720  49.391  30.132  1.00  0.00     0.188 A 
ATOM      7  O   UNL     1      15.447  48.265  30.786  1.00  0.00    -0.452 OA
ATOM      8  C   UNL     1      16.599  49.370  29.028  1.00  0.00     0.209 A 
ATOM      9  C   UNL     1      16.841  50.550  28.312  1.00  0.00     0.211 A 
ATOM     10  C   UNL     1      16.195  51.755  28.663  1.00  0.00     0.208 A 
ATOM     11  C   UNL     1      15.327  51.784  29.782  1.00  0.00     0.179 A 
ENDROOT
BRANCH   1  12
ATOM     12  C   UNL     1      14.347  46.869  32.429  1.00  0.00     0.021 A 
ATOM     13  C   UNL     1      13.942  44.364  33.660  1.00  0.00     0.160 A 
ATOM     14  C   UNL     1      13.627  45.545  34.353  1.00  0.00     0.161 A 
ATOM     15  C   UNL     1      14.454  44.440  32.351  1.00  0.00     0.051 A 
ATOM     16  C   UNL     1      13.842  46.793  33.736  1.00  0.00     0.062 A 
ATOM     17  C   UNL     1      14.646  45.681  31.742  1.00  0.00     0.016 A 
BRANCH  13  18
ATOM     18  O   UNL     1      13.738  43.132  34.306  1.00  0.00    -0.493 OA
ATOM     19  C   UNL     1      12.683  42.228  34.002  1.00  0.00     0.278 C 
ENDBRANCH  13  18
BRANCH  14  20
ATOM     20  O   UNL     1      13.104  45.438  35.654  1.00  0.00    -0.493 OA
ATOM     21  C   UNL     1      11.715  45.434  35.972  1.00  0.00     0.278 C 
ENDBRANCH  14  20
ENDBRANCH   1  12
BRANCH   8  22
ATOM     22  O   UNL     1      17.263  48.209  28.589  1.00  0.00    -0.490 OA
ATOM     23  C   UNL     1      16.742  47.222  27.701  1.00  0.00     0.278 C 
ENDBRANCH   8  22
BRANCH  11  24
ATOM     24  O   UNL     1      14.654  52.958  30.170  1.00  0.00    -0.492 OA
ATOM     25  C   UNL     1      13.574  53.570  29.469  1.00  0.00     0.278 C 
ENDBRANCH  11  24
BRANCH   9  26
ATOM     26  O   UNL     1      17.755  50.513  27.255  1.00  0.00    -0.490 OA
ATOM     27  C   UNL     1      19.135  50.787  27.461  1.00  0.00     0.279 C 
ENDBRANCH   9  26
BRANCH  10  28
ATOM     28  O   UNL     1      16.420  52.951  27.959  1.00  0.00    -0.490 OA
ATOM     29  C   UNL     1      17.418  53.924  28.268  1.00  0.00     0.278 C 
ENDBRANCH  10  28
TORSDOF 7
ENDMDL
MODEL 4
REMARK VINA RESULT:    -4.648     11.063     13.332
REMARK INTER + INTRA:          -7.260
REMARK INTER:                  -6.541
REMARK INTRA:                  -0.720
REMARK UNBOUND:                -0.710
REMARK SMILES COc1ccc(-c2cc(=O)c3c(OC)c(OC)c(OC)c(OC)c3o2)cc1OC
REMARK SMILES IDX 7 1 8 2 9 3 10 4 11 5 24 6 25 7 21 8 18 9 15 10 12 11 6 12
REMARK SMILES IDX 3 13 27 14 4 15 26 16 5 17 2 18 1 19 28 20 29 21 22 22 23 23
REMARK SMILES IDX 13 24 14 25 19 26 20 27 16 28 17 29
REMARK H PARENT
REMARK Flexibility Score: inf
ROOT
ATOM      1  C   UNL     1      25.024  56.585  29.909  1.00  0.00     0.138 A 
ATOM      2  C   UNL     1      24.061  57.189  29.098  1.00  0.00     0.100 A 
ATOM      3  C   UNL     1      23.411  56.428  28.129  1.00  0.00     0.197 A 
ATOM      4  O   UNL     1      22.548  56.989  27.404  1.00  0.00    -0.289 OA
ATOM      5  C   UNL     1      23.729  55.056  27.984  1.00  0.00     0.115 A 
ATOM      6  C   UNL     1      24.746  54.527  28.816  1.00  0.00     0.188 A 
ATOM      7  O   UNL     1      25.332  55.307  29.720  1.00  0.00    -0.452 OA
ATOM      8  C   UNL     1      25.120  53.170  28.703  1.00  0.00     0.209 A 
ATOM      9  C   UNL     1      24.461  52.343  27.785  1.00  0.00     0.211 A 
ATOM     10  C   UNL     1      23.408  52.841  26.987  1.00  0.00     0.208 A 
ATOM     11  C   UNL     1      23.042  54.206  27.084  1.00  0.00     0.179 A 
ENDROOT
BRANCH   1  12
ATOM     12  C   UNL     1      25.708  57.335  30.986  1.00  0.00     0.021 A 
ATOM     13  C   UNL     1      26.923  58.723  33.119  1.00  0.00     0.160 A 
ATOM     14  C   UNL     1      27.129  57.340  32.974  1.00  0.00     0.161 A 
ATOM     15  C   UNL     1      26.113  59.407  32.193  1.00  0.00     0.051 A 
ATOM     16  C   UNL     1      26.511  56.652  31.912  1.00  0.00     0.062 A 
ATOM     17  C   UNL     1      25.519  58.719  31.135  1.00  0.00     0.016 A 
BRANCH  13  18
ATOM     18  O   UNL     1      27.536  59.383  34.199  1.00  0.00    -0.493 OA
ATOM     19  C   UNL     1      26.909  60.381  34.994  1.00  0.00     0.278 C 
ENDBRANCH  13  18
BRANCH  14  20
ATOM     20  O   UNL     1      27.955  56.686  33.905  1.00  0.00    -0.493 OA
ATOM     21  C   UNL     1      29.120  55.937  33.571  1.00  0.00     0.278 C 
ENDBRANCH  14  20
ENDBRANCH   1  12
BRANCH   8  22
ATOM     22  O   UNL     1      26.138  52.583  29.478  1.00  0.00    -0.490 OA
ATOM     23  C   UNL     1      26.032  52.170  30.840  1.00  0.00     0.278 C 
ENDBRANCH   8  22
BRANCH  11  24
ATOM     24  O   UNL     1      21.995  54.750  26.315  1.00  0.00    -0.492 OA
ATOM     25  C   UNL     1      20.603  54.542  26.538  1.00  0.00     0.278 C 
ENDBRANCH  11  24
BRANCH   9  26
ATOM     26  O   UNL     1      24.886  51.018  27.658  1.00  0.00    -0.490 OA
ATOM     27  C   UNL     1      25.848  50.640  26.682  1.00  0.00     0.279 C 
ENDBRANCH   9  26
BRANCH  10  28
ATOM     28  O   UNL     1      22.731  52.030  26.061  1.00  0.00    -0.490 OA
ATOM     29  C   UNL     1      21.748  51.043  26.379  1.00  0.00     0.278 C 
ENDBRANCH  10  28
TORSDOF 7
ENDMDL
MODEL 5
REMARK VINA RESULT:    -4.642      2.370      8.550
REMARK INTER + INTRA:          -7.251
REMARK INTER:                  -6.537
REMARK INTRA:                  -0.715
REMARK UNBOUND:                -0.710
REMARK SMILES COc1ccc(-c2cc(=O)c3c(OC)c(OC)c(OC)c(OC)c3o2)cc1OC
REMARK SMILES IDX 7 1 8 2 9 3 10 4 11 5 24 6 25 7 21 8 18 9 15 10 12 11 6 12
REMARK SMILES IDX 3 13 27 14 4 15 26 16 5 17 2 18 1 19 28 20 29 21 22 22 23 23
REMARK SMILES IDX 13 24 14 25 19 26 20 27 16 28 17 29
REMARK H PARENT
REMARK Flexibility Score: inf
ROOT
ATOM      1  C   UNL     1      14.892  51.323  31.487  1.00  0.00     0.138 A 
ATOM      2  C   UNL     1      15.044  52.089  30.330  1.00  0.00     0.100 A 
ATOM      3  C   UNL     1      14.818  53.462  30.387  1.00  0.00     0.197 A 
ATOM      4  O   UNL     1      14.956  54.139  29.335  1.00  0.00    -0.289 OA
ATOM      5  C   UNL     1      14.446  54.062  31.615  1.00  0.00     0.115 A 
ATOM      6  C   UNL     1      14.271  53.212  32.733  1.00  0.00     0.188 A 
ATOM      7  O   UNL     1      14.499  51.907  32.613  1.00  0.00    -0.452 OA
ATOM      8  C   UNL     1      13.881  53.749  33.979  1.00  0.00     0.209 A 
ATOM      9  C   UNL     1      13.695  55.131  34.111  1.00  0.00     0.211 A 
ATOM     10  C   UNL     1      13.917  55.999  33.020  1.00  0.00     0.208 A 
ATOM     11  C   UNL     1      14.291  55.462  31.763  1.00  0.00     0.179 A 
ENDROOT
BRANCH   1  12
ATOM     12  C   UNL     1      15.169  49.869  31.492  1.00  0.00     0.021 A 
ATOM     13  C   UNL     1      15.751  47.112  31.612  1.00  0.00     0.160 A 
ATOM     14  C   UNL     1      14.667  47.633  32.340  1.00  0.00     0.161 A 
ATOM     15  C   UNL     1      16.536  47.972  30.823  1.00  0.00     0.051 A 
ATOM     16  C   UNL     1      14.388  49.012  32.283  1.00  0.00     0.062 A 
ATOM     17  C   UNL     1      16.242  49.335  30.759  1.00  0.00     0.016 A 
BRANCH  13  18
ATOM     18  O   UNL     1      16.020  45.735  31.702  1.00  0.00    -0.493 OA
ATOM     19  C   UNL     1      15.789  44.799  30.657  1.00  0.00     0.278 C 
ENDBRANCH  13  18
BRANCH  14  20
ATOM     20  O   UNL     1      13.890  46.747  33.109  1.00  0.00    -0.493 OA
ATOM     21  C   UNL     1      14.076  46.504  34.500  1.00  0.00     0.278 C 
ENDBRANCH  14  20
ENDBRANCH   1  12
BRANCH   8  22
ATOM     22  O   UNL     1      13.665  52.962  35.127  1.00  0.00    -0.490 OA
ATOM     23  C   UNL     1      14.646  52.592  36.094  1.00  0.00     0.278 C 
ENDBRANCH   8  22
BRANCH  11  24
ATOM     24  O   UNL     1      14.531  56.284  30.646  1.00  0.00    -0.492 OA
ATOM     25  C   UNL     1      15.693  57.081  30.432  1.00  0.00     0.278 C 
ENDBRANCH  11  24
BRANCH   9  26
ATOM     26  O   UNL     1      13.259  55.631  35.340  1.00  0.00    -0.490 OA
ATOM     27  C   UNL     1      11.879  55.853  35.602  1.00  0.00     0.279 C 
ENDBRANCH   9  26
BRANCH  10  28
ATOM     28  O   UNL     1      13.739  57.389  33.127  1.00  0.00    -0.490 OA
ATOM     29  C   UNL     1      14.675  58.307  33.694  1.00  0.00     0.278 C 
ENDBRANCH  10  28
TORSDOF 7
ENDMDL
MODEL 6
REMARK VINA RESULT:    -4.639      2.178      4.317
REMARK INTER + INTRA:          -7.247
REMARK INTER:                  -6.560
REMARK INTRA:                  -0.687
REMARK UNBOUND:                -0.710
REMARK SMILES COc1ccc(-c2cc(=O)c3c(OC)c(OC)c(OC)c(OC)c3o2)cc1OC
REMARK SMILES IDX 7 1 8 2 9 3 10 4 11 5 24 6 25 7 21 8 18 9 15 10 12 11 6 12
REMARK SMILES IDX 3 13 27 14 4 15 26 16 5 17 2 18 1 19 28 20 29 21 22 22 23 23
REMARK SMILES IDX 13 24 14 25 19 26 20 27 16 28 17 29
REMARK H PARENT
REMARK Flexibility Score: inf
ROOT
ATOM      1  C   UNL     1      14.923  51.361  32.024  1.00  0.00     0.138 A 
ATOM      2  C   UNL     1      14.164  50.333  32.587  1.00  0.00     0.100 A 
ATOM      3  C   UNL     1      14.195  49.067  32.008  1.00  0.00     0.197 A 
ATOM      4  O   UNL     1      13.503  48.152  32.526  1.00  0.00    -0.289 OA
ATOM      5  C   UNL     1      14.997  48.838  30.864  1.00  0.00     0.115 A 
ATOM      6  C   UNL     1      15.705  49.941  30.327  1.00  0.00     0.188 A 
ATOM      7  O   UNL     1      15.631  51.127  30.925  1.00  0.00    -0.452 OA
ATOM      8  C   UNL     1      16.506  49.778  29.176  1.00  0.00     0.209 A 
ATOM      9  C   UNL     1      16.620  48.514  28.583  1.00  0.00     0.211 A 
ATOM     10  C   UNL     1      15.965  47.393  29.137  1.00  0.00     0.208 A 
ATOM     11  C   UNL     1      15.146  47.555  30.281  1.00  0.00     0.179 A 
ENDROOT
BRANCH   1  12
ATOM     12  C   UNL     1      14.965  52.711  32.629  1.00  0.00     0.021 A 
ATOM     13  C   UNL     1      14.921  55.274  33.805  1.00  0.00     0.160 A 
ATOM     14  C   UNL     1      14.915  54.128  34.619  1.00  0.00     0.161 A 
ATOM     15  C   UNL     1      14.953  55.133  32.405  1.00  0.00     0.051 A 
ATOM     16  C   UNL     1      14.927  52.851  34.025  1.00  0.00     0.062 A 
ATOM     17  C   UNL     1      14.982  53.863  31.826  1.00  0.00     0.016 A 
BRANCH  13  18
ATOM     18  O   UNL     1      14.889  56.537  34.422  1.00  0.00    -0.493 OA
ATOM     19  C   UNL     1      15.293  57.749  33.799  1.00  0.00     0.278 C 
ENDBRANCH  13  18
BRANCH  14  20
ATOM     20  O   UNL     1      14.898  54.300  36.015  1.00  0.00    -0.493 OA
ATOM     21  C   UNL     1      13.723  54.271  36.821  1.00  0.00     0.278 C 
ENDBRANCH  14  20
ENDBRANCH   1  12
BRANCH   8  22
ATOM     22  O   UNL     1      17.216  50.834  28.574  1.00  0.00    -0.490 OA
ATOM     23  C   UNL     1      16.674  51.839  27.719  1.00  0.00     0.278 C 
ENDBRANCH   8  22
BRANCH  11  24
ATOM     24  O   UNL     1      14.476  46.468  30.876  1.00  0.00    -0.492 OA
ATOM     25  C   UNL     1      15.081  45.453  31.673  1.00  0.00     0.278 C 
ENDBRANCH  11  24
BRANCH   9  26
ATOM     26  O   UNL     1      17.377  48.391  27.416  1.00  0.00    -0.490 OA
ATOM     27  C   UNL     1      16.766  48.412  26.132  1.00  0.00     0.279 C 
ENDBRANCH   9  26
BRANCH  10  28
ATOM     28  O   UNL     1      16.066  46.114  28.562  1.00  0.00    -0.490 OA
ATOM     29  C   UNL     1      17.197  45.247  28.653  1.00  0.00     0.278 C 
ENDBRANCH  10  28
TORSDOF 7
ENDMDL
MODEL 7
REMARK VINA RESULT:    -4.631      1.881      3.945
REMARK INTER + INTRA:          -7.236
REMARK INTER:                  -6.534
REMARK INTRA:                  -0.702
REMARK UNBOUND:                -0.710
REMARK SMILES COc1ccc(-c2cc(=O)c3c(OC)c(OC)c(OC)c(OC)c3o2)cc1OC
REMARK SMILES IDX 7 1 8 2 9 3 10 4 11 5 24 6 25 7 21 8 18 9 15 10 12 11 6 12
REMARK SMILES IDX 3 13 27 14 4 15 26 16 5 17 2 18 1 19 28 20 29 21 22 22 23 23
REMARK SMILES IDX 13 24 14 25 19 26 20 27 16 28 17 29
REMARK H PARENT
REMARK Flexibility Score: inf
ROOT
ATOM      1  C   UNL     1      14.830  50.745  31.911  1.00  0.00     0.138 A 
ATOM      2  C   UNL     1      13.884  49.908  32.507  1.00  0.00     0.100 A 
ATOM      3  C   UNL     1      13.806  48.576  32.110  1.00  0.00     0.197 A 
ATOM      4  O   UNL     1      12.946  47.835  32.654  1.00  0.00    -0.289 OA
ATOM      5  C   UNL     1      14.688  48.087  31.115  1.00  0.00     0.115 A 
ATOM      6  C   UNL     1      15.590  49.008  30.529  1.00  0.00     0.188 A 
ATOM      7  O   UNL     1      15.613  50.269  30.950  1.00  0.00    -0.452 OA
ATOM      8  C   UNL     1      16.480  48.584  29.518  1.00  0.00     0.209 A 
ATOM      9  C   UNL     1      16.485  47.242  29.117  1.00  0.00     0.211 A 
ATOM     10  C   UNL     1      15.631  46.299  29.730  1.00  0.00     0.208 A 
ATOM     11  C   UNL     1      14.723  46.725  30.731  1.00  0.00     0.179 A 
ENDROOT
BRANCH   1  12
ATOM     12  C   UNL     1      14.988  52.155  32.333  1.00  0.00     0.021 A 
ATOM     13  C   UNL     1      15.168  54.842  33.170  1.00  0.00     0.160 A 
ATOM     14  C   UNL     1      15.196  53.807  34.121  1.00  0.00     0.161 A 
ATOM     15  C   UNL     1      15.056  54.528  31.803  1.00  0.00     0.051 A 
ATOM     16  C   UNL     1      15.095  52.468  33.697  1.00  0.00     0.062 A 
ATOM     17  C   UNL     1      14.974  53.197  31.391  1.00  0.00     0.016 A 
BRANCH  13  18
ATOM     18  O   UNL     1      15.251  56.171  33.621  1.00  0.00    -0.493 OA
ATOM     19  C   UNL     1      16.185  57.129  33.141  1.00  0.00     0.278 C 
ENDBRANCH  13  18
BRANCH  14  20
ATOM     20  O   UNL     1      15.324  54.150  35.479  1.00  0.00    -0.493 OA
ATOM     21  C   UNL     1      14.244  54.211  36.406  1.00  0.00     0.278 C 
ENDBRANCH  14  20
ENDBRANCH   1  12
BRANCH   8  22
ATOM     22  O   UNL     1      17.386  49.447  28.874  1.00  0.00    -0.490 OA
ATOM     23  C   UNL     1      17.082  50.357  27.818  1.00  0.00     0.278 C 
ENDBRANCH   8  22
BRANCH  11  24
ATOM     24  O   UNL     1      13.855  45.824  31.377  1.00  0.00    -0.492 OA
ATOM     25  C   UNL     1      14.226  44.885  32.383  1.00  0.00     0.278 C 
ENDBRANCH  11  24
BRANCH   9  26
ATOM     26  O   UNL     1      17.339  46.859  28.080  1.00  0.00    -0.490 OA
ATOM     27  C   UNL     1      16.872  46.746  26.741  1.00  0.00     0.279 C 
ENDBRANCH   9  26
BRANCH  10  28
ATOM     28  O   UNL     1      15.619  44.947  29.346  1.00  0.00    -0.490 OA
ATOM     29  C   UNL     1      16.570  43.960  29.749  1.00  0.00     0.278 C 
ENDBRANCH  10  28
TORSDOF 7
ENDMDL
MODEL 8
REMARK VINA RESULT:    -4.588      2.887      9.398
REMARK INTER + INTRA:          -7.176
REMARK INTER:                  -6.389
REMARK INTRA:                  -0.787
REMARK UNBOUND:                -0.710
REMARK SMILES COc1ccc(-c2cc(=O)c3c(OC)c(OC)c(OC)c(OC)c3o2)cc1OC
REMARK SMILES IDX 7 1 8 2 9 3 10 4 11 5 24 6 25 7 21 8 18 9 15 10 12 11 6 12
REMARK SMILES IDX 3 13 27 14 4 15 26 16 5 17 2 18 1 19 28 20 29 21 22 22 23 23
REMARK SMILES IDX 13 24 14 25 19 26 20 27 16 28 17 29
REMARK H PARENT
REMARK Flexibility Score: inf
ROOT
ATOM      1  C   UNL     1      14.722  51.858  32.469  1.00  0.00     0.138 A 
ATOM      2  C   UNL     1      14.149  52.158  33.707  1.00  0.00     0.100 A 
ATOM      3  C   UNL     1      14.022  53.489  34.094  1.00  0.00     0.197 A 
ATOM      4  O   UNL     1      13.506  53.743  35.214  1.00  0.00    -0.289 OA
ATOM      5  C   UNL     1      14.467  54.518  33.228  1.00  0.00     0.115 A 
ATOM      6  C   UNL     1      15.075  54.132  32.010  1.00  0.00     0.188 A 
ATOM      7  O   UNL     1      15.170  52.842  31.698  1.00  0.00    -0.452 OA
ATOM      8  C   UNL     1      15.557  55.112  31.115  1.00  0.00     0.209 A 
ATOM      9  C   UNL     1      15.405  56.469  31.425  1.00  0.00     0.211 A 
ATOM     10  C   UNL     1      14.752  56.872  32.611  1.00  0.00     0.208 A 
ATOM     11  C   UNL     1      14.284  55.892  33.520  1.00  0.00     0.179 A 
ENDROOT
BRANCH   1  12
ATOM     12  C   UNL     1      14.835  50.463  31.988  1.00  0.00     0.021 A 
ATOM     13  C   UNL     1      15.005  47.841  30.961  1.00  0.00     0.160 A 
ATOM     14  C   UNL     1      15.988  48.790  30.631  1.00  0.00     0.161 A 
ATOM     15  C   UNL     1      13.942  48.207  31.809  1.00  0.00     0.051 A 
ATOM     16  C   UNL     1      15.891  50.100  31.139  1.00  0.00     0.062 A 
ATOM     17  C   UNL     1      13.865  49.503  32.321  1.00  0.00     0.016 A 
BRANCH  13  18
ATOM     18  O   UNL     1      15.114  46.547  30.425  1.00  0.00    -0.493 OA
ATOM     19  C   UNL     1      15.311  45.369  31.196  1.00  0.00     0.278 C 
ENDBRANCH  13  18
BRANCH  14  20
ATOM     20  O   UNL     1      17.046  48.392  29.794  1.00  0.00    -0.493 OA
ATOM     21  C   UNL     1      17.170  48.744  28.419  1.00  0.00     0.278 C 
ENDBRANCH  14  20
ENDBRANCH   1  12
BRANCH   8  22
ATOM     22  O   UNL     1      16.193  54.802  29.898  1.00  0.00    -0.490 OA
ATOM     23  C   UNL     1      15.551  54.438  28.677  1.00  0.00     0.278 C 
ENDBRANCH   8  22
BRANCH  11  24
ATOM     24  O   UNL     1      13.622  56.241  34.713  1.00  0.00    -0.492 OA
ATOM     25  C   UNL     1      12.310  56.790  34.806  1.00  0.00     0.278 C 
ENDBRANCH  11  24
BRANCH   9  26
ATOM     26  O   UNL     1      15.936  57.418  30.548  1.00  0.00    -0.490 OA
ATOM     27  C   UNL     1      15.122  58.066  29.579  1.00  0.00     0.279 C 
ENDBRANCH   9  26
BRANCH  10  28
ATOM     28  O   UNL     1      14.586  58.228  32.944  1.00  0.00    -0.490 OA
ATOM     29  C   UNL     1      15.530  59.033  33.650  1.00  0.00     0.278 C 
ENDBRANCH  10  28
TORSDOF 7
ENDMDL
MODEL 9
REMARK VINA RESULT:    -4.475      2.595      8.004
REMARK INTER + INTRA:          -7.016
REMARK INTER:                  -6.228
REMARK INTRA:                  -0.788
REMARK UNBOUND:                -0.710
REMARK SMILES COc1ccc(-c2cc(=O)c3c(OC)c(OC)c(OC)c(OC)c3o2)cc1OC
REMARK SMILES IDX 7 1 8 2 9 3 10 4 11 5 24 6 25 7 21 8 18 9 15 10 12 11 6 12
REMARK SMILES IDX 3 13 27 14 4 15 26 16 5 17 2 18 1 19 28 20 29 21 22 22 23 23
REMARK SMILES IDX 13 24 14 25 19 26 20 27 16 28 17 29
REMARK H PARENT
REMARK Flexibility Score: inf
ROOT
ATOM      1  C   UNL     1      14.740  49.779  31.415  1.00  0.00     0.138 A 
ATOM      2  C   UNL     1      15.119  49.961  30.083  1.00  0.00     0.100 A 
ATOM      3  C   UNL     1      15.261  51.254  29.586  1.00  0.00     0.197 A 
ATOM      4  O   UNL     1      15.600  51.401  28.383  1.00  0.00    -0.289 OA
ATOM      5  C   UNL     1      15.027  52.363  30.435  1.00  0.00     0.115 A 
ATOM      6  C   UNL     1      14.605  52.096  31.760  1.00  0.00     0.188 A 
ATOM      7  O   UNL     1      14.485  50.838  32.175  1.00  0.00    -0.452 OA
ATOM      8  C   UNL     1      14.337  53.161  32.647  1.00  0.00     0.209 A 
ATOM      9  C   UNL     1      14.517  54.483  32.219  1.00  0.00     0.211 A 
ATOM     10  C   UNL     1      14.989  54.765  30.919  1.00  0.00     0.208 A 
ATOM     11  C   UNL     1      15.242  53.699  30.019  1.00  0.00     0.179 A 
ENDROOT
BRANCH   1  12
ATOM     12  C   UNL     1      14.624  48.428  32.007  1.00  0.00     0.021 A 
ATOM     13  C   UNL     1      14.433  45.901  33.247  1.00  0.00     0.160 A 
ATOM     14  C   UNL     1      13.383  46.827  33.375  1.00  0.00     0.161 A 
ATOM     15  C   UNL     1      15.572  46.242  32.494  1.00  0.00     0.051 A 
ATOM     16  C   UNL     1      13.490  48.091  32.762  1.00  0.00     0.062 A 
ATOM     17  C   UNL     1      15.661  47.490  31.876  1.00  0.00     0.016 A 
BRANCH  13  18
ATOM     18  O   UNL     1      14.310  44.655  33.885  1.00  0.00    -0.493 OA
ATOM     19  C   UNL     1      13.953  43.445  33.228  1.00  0.00     0.278 C 
ENDBRANCH  13  18
BRANCH  14  20
ATOM     20  O   UNL     1      12.250  46.455  34.121  1.00  0.00    -0.493 OA
ATOM     21  C   UNL     1      10.979  46.139  33.561  1.00  0.00     0.278 C 
ENDBRANCH  14  20
ENDBRANCH   1  12
BRANCH   8  22
ATOM     22  O   UNL     1      13.892  52.973  33.969  1.00  0.00    -0.490 OA
ATOM     23  C   UNL     1      14.708  52.694  35.105  1.00  0.00     0.278 C 
ENDBRANCH   8  22
BRANCH  11  24
ATOM     24  O   UNL     1      15.719  53.926  28.714  1.00  0.00    -0.492 OA
ATOM     25  C   UNL     1      17.031  54.365  28.372  1.00  0.00     0.278 C 
ENDBRANCH  11  24
BRANCH   9  26
ATOM     26  O   UNL     1      14.196  55.519  33.100  1.00  0.00    -0.490 OA
ATOM     27  C   UNL     1      15.196  56.171  33.871  1.00  0.00     0.279 C 
ENDBRANCH   9  26
BRANCH  10  28
ATOM     28  O   UNL     1      15.180  56.082  30.467  1.00  0.00    -0.490 OA
ATOM     29  C   UNL     1      14.158  56.949  29.972  1.00  0.00     0.278 C 
ENDBRANCH  10  28
TORSDOF 7
ENDMDL
