MODEL 1
REMARK VINA RESULT:     1.645      0.000      0.000
REMARK INTER + INTRA:           2.827
REMARK INTER:                   2.271
REMARK INTRA:                   0.556
REMARK UNBOUND:                 0.556
REMARK SMILES CCCCc1cccc(O)c1CCCC
REMARK SMILES IDX 5 1 11 2 9 3 8 4 7 5 6 6 4 7 3 8 2 9 1 10 12 11 13 12 14 13
REMARK SMILES IDX 15 14 10 15
REMARK H PARENT 10 16
REMARK Flexibility Score: inf
ROOT
ATOM      1  C   UNL     1      17.375  97.368   8.813  1.00  0.00    -0.041 A 
ATOM      2  C   UNL     1      17.222  95.971   8.552  1.00  0.00    -0.003 A 
ATOM      3  C   UNL     1      16.046  95.315   8.982  1.00  0.00     0.119 A 
ATOM      4  C   UNL     1      15.012  96.039   9.584  1.00  0.00     0.046 A 
ATOM      5  C   UNL     1      15.125  97.413   9.754  1.00  0.00     0.004 A 
ATOM      6  C   UNL     1      16.287  98.073   9.365  1.00  0.00     0.004 A 
ENDROOT
BRANCH   1   7
ATOM      7  C   UNL     1      18.632  98.155   8.457  1.00  0.00     0.036 C 
BRANCH   7   8
ATOM      8  C   UNL     1      18.399  99.677   8.349  1.00  0.00     0.004 C 
BRANCH   8   9
ATOM      9  C   UNL     1      19.026 100.474   9.504  1.00  0.00    -0.003 C 
ATOM     10  C   UNL     1      20.220  99.748  10.125  1.00  0.00     0.004 C 
ENDBRANCH   8   9
ENDBRANCH   7   8
ENDBRANCH   1   7
BRANCH   2  11
ATOM     11  C   UNL     1      18.275  95.153   7.826  1.00  0.00     0.040 C 
BRANCH  11  12
ATOM     12  C   UNL     1      18.205  93.677   8.239  1.00  0.00     0.005 C 
BRANCH  12  13
ATOM     13  C   UNL     1      19.575  93.110   8.642  1.00  0.00    -0.003 C 
ATOM     14  C   UNL     1      19.627  92.675  10.106  1.00  0.00     0.004 C 
ENDBRANCH  12  13
ENDBRANCH  11  12
ENDBRANCH   2  11
BRANCH   3  15
ATOM     15  O   UNL     1      15.902  93.937   8.805  1.00  0.00    -0.508 OA
ATOM     16  H   UNL     1      15.014  93.471   8.947  1.00  0.00     0.293 HD
ENDBRANCH   3  15
TORSDOF 7
ENDMDL
MODEL 2
REMARK VINA RESULT:     2.296      1.423      4.867
REMARK INTER + INTRA:           3.724
REMARK INTER:                   4.338
REMARK INTRA:                  -0.614
REMARK UNBOUND:                 0.556
REMARK SMILES CCCCc1cccc(O)c1CCCC
REMARK SMILES IDX 5 1 11 2 9 3 8 4 7 5 6 6 4 7 3 8 2 9 1 10 12 11 13 12 14 13
REMARK SMILES IDX 15 14 10 15
REMARK H PARENT 10 16
REMARK Flexibility Score: inf
ROOT
ATOM      1  C   UNL     1      17.541  95.352   8.229  1.00  0.00    -0.041 A 
ATOM      2  C   UNL     1      17.341  96.745   8.477  1.00  0.00    -0.003 A 
ATOM      3  C   UNL     1      16.127  97.173   9.062  1.00  0.00     0.119 A 
ATOM      4  C   UNL     1      15.167  96.239   9.464  1.00  0.00     0.046 A 
ATOM      5  C   UNL     1      15.403  94.878   9.305  1.00  0.00     0.004 A 
ATOM      6  C   UNL     1      16.579  94.438   8.705  1.00  0.00     0.004 A 
ENDROOT
BRANCH   1   7
ATOM      7  C   UNL     1      18.781  94.793   7.539  1.00  0.00     0.036 C 
BRANCH   7   8
ATOM      8  C   UNL     1      18.918  93.260   7.663  1.00  0.00     0.004 C 
BRANCH   8   9
ATOM      9  C   UNL     1      19.969  92.823   8.697  1.00  0.00    -0.003 C 
ATOM     10  C   UNL     1      19.424  92.862  10.125  1.00  0.00     0.004 C 
ENDBRANCH   8   9
ENDBRANCH   7   8
ENDBRANCH   1   7
BRANCH   2  11
ATOM     11  C   UNL     1      18.383  97.795   8.140  1.00  0.00     0.040 C 
BRANCH  11  12
ATOM     12  C   UNL     1      19.087  98.298   9.408  1.00  0.00     0.005 C 
BRANCH  12  13
ATOM     13  C   UNL     1      19.133  99.831   9.493  1.00  0.00    -0.003 C 
ATOM     14  C   UNL     1      18.413 100.508   8.326  1.00  0.00     0.004 C 
ENDBRANCH  12  13
ENDBRANCH  11  12
ENDBRANCH   2  11
BRANCH   3  15
ATOM     15  O   UNL     1      15.875  98.534   9.248  1.00  0.00    -0.508 OA
ATOM     16  H   UNL     1      15.747  98.931  10.171  1.00  0.00     0.293 HD
ENDBRANCH   3  15
TORSDOF 7
ENDMDL
MODEL 3
REMARK VINA RESULT:     3.795      1.349      3.700
REMARK INTER + INTRA:           5.793
REMARK INTER:                   5.755
REMARK INTRA:                   0.038
REMARK UNBOUND:                 0.556
REMARK SMILES CCCCc1cccc(O)c1CCCC
REMARK SMILES IDX 5 1 11 2 9 3 8 4 7 5 6 6 4 7 3 8 2 9 1 10 12 11 13 12 14 13
REMARK SMILES IDX 15 14 10 15
REMARK H PARENT 10 16
REMARK Flexibility Score: inf
ROOT
ATOM      1  C   UNL     1      18.697  96.360   8.247  1.00  0.00    -0.041 A 
ATOM      2  C   UNL     1      17.590  95.719   8.885  1.00  0.00    -0.003 A 
ATOM      3  C   UNL     1      17.243  94.403   8.503  1.00  0.00     0.119 A 
ATOM      4  C   UNL     1      18.021  93.709   7.570  1.00  0.00     0.046 A 
ATOM      5  C   UNL     1      19.150  94.302   7.019  1.00  0.00     0.004 A 
ATOM      6  C   UNL     1      19.491  95.608   7.360  1.00  0.00     0.004 A 
ENDROOT
BRANCH   1   7
ATOM      7  C   UNL     1      19.110  97.800   8.533  1.00  0.00     0.036 C 
BRANCH   7   8
ATOM      8  C   UNL     1      18.037  98.840   8.143  1.00  0.00     0.004 C 
BRANCH   8   9
ATOM      9  C   UNL     1      18.363 100.264   8.623  1.00  0.00    -0.003 C 
ATOM     10  C   UNL     1      19.446 100.275   9.702  1.00  0.00     0.004 C 
ENDBRANCH   8   9
ENDBRANCH   7   8
ENDBRANCH   1   7
BRANCH   2  11
ATOM     11  C   UNL     1      16.764  96.393   9.965  1.00  0.00     0.040 C 
BRANCH  11  12
ATOM     12  C   UNL     1      15.767  97.388   9.355  1.00  0.00     0.005 C 
BRANCH  12  13
ATOM     13  C   UNL     1      14.437  97.439  10.123  1.00  0.00    -0.003 C 
ATOM     14  C   UNL     1      13.704  96.098  10.125  1.00  0.00     0.004 C 
ENDBRANCH  12  13
ENDBRANCH  11  12
ENDBRANCH   2  11
BRANCH   3  15
ATOM     15  O   UNL     1      16.123  93.780   9.057  1.00  0.00    -0.508 OA
ATOM     16  H   UNL     1      16.183  92.870   9.498  1.00  0.00     0.293 HD
ENDBRANCH   3  15
TORSDOF 7
ENDMDL
MODEL 4
REMARK VINA RESULT:     3.925      1.673      4.834
REMARK INTER + INTRA:           5.972
REMARK INTER:                   6.597
REMARK INTRA:                  -0.625
REMARK UNBOUND:                 0.556
REMARK SMILES CCCCc1cccc(O)c1CCCC
REMARK SMILES IDX 5 1 11 2 9 3 8 4 7 5 6 6 4 7 3 8 2 9 1 10 12 11 13 12 14 13
REMARK SMILES IDX 15 14 10 15
REMARK H PARENT 10 16
REMARK Flexibility Score: inf
ROOT
ATOM      1  C   UNL     1      16.445  95.815   8.817  1.00  0.00    -0.041 A 
ATOM      2  C   UNL     1      16.399  97.233   8.990  1.00  0.00    -0.003 A 
ATOM      3  C   UNL     1      15.270  97.814   9.614  1.00  0.00     0.119 A 
ATOM      4  C   UNL     1      14.250  97.005  10.125  1.00  0.00     0.046 A 
ATOM      5  C   UNL     1      14.341  95.621  10.036  1.00  0.00     0.004 A 
ATOM      6  C   UNL     1      15.430  95.032   9.399  1.00  0.00     0.004 A 
ENDROOT
BRANCH   1   7
ATOM      7  C   UNL     1      17.580  95.096   8.095  1.00  0.00     0.036 C 
BRANCH   7   8
ATOM      8  C   UNL     1      18.268  94.011   8.951  1.00  0.00     0.004 C 
BRANCH   8   9
ATOM      9  C   UNL     1      19.364  93.241   8.196  1.00  0.00    -0.003 C 
ATOM     10  C   UNL     1      18.961  92.928   6.756  1.00  0.00     0.004 C 
ENDBRANCH   8   9
ENDBRANCH   7   8
ENDBRANCH   1   7
BRANCH   2  11
ATOM     11  C   UNL     1      17.517  98.152   8.533  1.00  0.00     0.040 C 
BRANCH  11  12
ATOM     12  C   UNL     1      18.727  98.054   9.472  1.00  0.00     0.005 C 
BRANCH  12  13
ATOM     13  C   UNL     1      19.428  99.406   9.676  1.00  0.00    -0.003 C 
ATOM     14  C   UNL     1      18.705 100.558   8.979  1.00  0.00     0.004 C 
ENDBRANCH  12  13
ENDBRANCH  11  12
ENDBRANCH   2  11
BRANCH   3  15
ATOM     15  O   UNL     1      15.165  99.201   9.730  1.00  0.00    -0.508 OA
ATOM     16  H   UNL     1      15.943  99.770  10.043  1.00  0.00     0.293 HD
ENDBRANCH   3  15
TORSDOF 7
ENDMDL
MODEL 5
REMARK VINA RESULT:     4.261      1.769      5.031
REMARK INTER + INTRA:           6.436
REMARK INTER:                   6.907
REMARK INTRA:                  -0.471
REMARK UNBOUND:                 0.556
REMARK SMILES CCCCc1cccc(O)c1CCCC
REMARK SMILES IDX 5 1 11 2 9 3 8 4 7 5 6 6 4 7 3 8 2 9 1 10 12 11 13 12 14 13
REMARK SMILES IDX 15 14 10 15
REMARK H PARENT 10 16
REMARK Flexibility Score: inf
ROOT
ATOM      1  C   UNL     1      17.292  95.976   8.977  1.00  0.00    -0.041 A 
ATOM      2  C   UNL     1      18.394  96.323   8.136  1.00  0.00    -0.003 A 
ATOM      3  C   UNL     1      19.119  95.294   7.492  1.00  0.00     0.119 A 
ATOM      4  C   UNL     1      18.714  93.960   7.614  1.00  0.00     0.046 A 
ATOM      5  C   UNL     1      17.588  93.634   8.360  1.00  0.00     0.004 A 
ATOM      6  C   UNL     1      16.878  94.630   9.025  1.00  0.00     0.004 A 
ENDROOT
BRANCH   1   7
ATOM      7  C   UNL     1      16.489  97.001   9.773  1.00  0.00     0.036 C 
BRANCH   7   8
ATOM      8  C   UNL     1      14.997  97.056   9.381  1.00  0.00     0.004 C 
BRANCH   8   9
ATOM      9  C   UNL     1      14.132  96.026  10.124  1.00  0.00    -0.003 C 
ATOM     10  C   UNL     1      12.637  96.285   9.937  1.00  0.00     0.004 C 
ENDBRANCH   8   9
ENDBRANCH   7   8
ENDBRANCH   1   7
BRANCH   2  11
ATOM     11  C   UNL     1      18.823  97.759   7.898  1.00  0.00     0.040 C 
BRANCH  11  12
ATOM     12  C   UNL     1      19.492  98.346   9.148  1.00  0.00     0.005 C 
BRANCH  12  13
ATOM     13  C   UNL     1      19.181  99.839   9.340  1.00  0.00    -0.003 C 
ATOM     14  C   UNL     1      18.054 100.329   8.431  1.00  0.00     0.004 C 
ENDBRANCH  12  13
ENDBRANCH  11  12
ENDBRANCH   2  11
BRANCH   3  15
ATOM     15  O   UNL     1      20.244  95.598   6.723  1.00  0.00    -0.508 OA
ATOM     16  H   UNL     1      21.040  96.088   7.114  1.00  0.00     0.293 HD
ENDBRANCH   3  15
TORSDOF 7
ENDMDL
MODEL 6
REMARK VINA RESULT:     4.416      2.047      5.229
REMARK INTER + INTRA:           6.650
REMARK INTER:                   6.999
REMARK INTRA:                  -0.349
REMARK UNBOUND:                 0.556
REMARK SMILES CCCCc1cccc(O)c1CCCC
REMARK SMILES IDX 5 1 11 2 9 3 8 4 7 5 6 6 4 7 3 8 2 9 1 10 12 11 13 12 14 13
REMARK SMILES IDX 15 14 10 15
REMARK H PARENT 10 16
REMARK Flexibility Score: inf
ROOT
ATOM      1  C   UNL     1      17.670  96.691   8.138  1.00  0.00    -0.041 A 
ATOM      2  C   UNL     1      17.047  97.926   8.497  1.00  0.00    -0.003 A 
ATOM      3  C   UNL     1      17.856  99.061   8.736  1.00  0.00     0.119 A 
ATOM      4  C   UNL     1      19.240  98.996   8.547  1.00  0.00     0.046 A 
ATOM      5  C   UNL     1      19.834  97.818   8.110  1.00  0.00     0.004 A 
ATOM      6  C   UNL     1      19.058  96.681   7.898  1.00  0.00     0.004 A 
ENDROOT
BRANCH   1   7
ATOM      7  C   UNL     1      16.898  95.392   7.929  1.00  0.00     0.036 C 
BRANCH   7   8
ATOM      8  C   UNL     1      17.616  94.149   8.495  1.00  0.00     0.004 C 
BRANCH   8   9
ATOM      9  C   UNL     1      18.529  93.453   7.473  1.00  0.00    -0.003 C 
ATOM     10  C   UNL     1      19.806  92.911   8.115  1.00  0.00     0.004 C 
ENDBRANCH   8   9
ENDBRANCH   7   8
ENDBRANCH   1   7
BRANCH   2  11
ATOM     11  C   UNL     1      15.543  98.077   8.632  1.00  0.00     0.040 C 
BRANCH  11  12
ATOM     12  C   UNL     1      15.071  97.648  10.028  1.00  0.00     0.005 C 
BRANCH  12  13
ATOM     13  C   UNL     1      14.640  96.174  10.080  1.00  0.00    -0.003 C 
ATOM     14  C   UNL     1      13.122  96.004  10.122  1.00  0.00     0.004 C 
ENDBRANCH  12  13
ENDBRANCH  11  12
ENDBRANCH   2  11
BRANCH   3  15
ATOM     15  O   UNL     1      17.280 100.261   9.159  1.00  0.00    -0.508 OA
ATOM     16  H   UNL     1      17.367 100.587  10.114  1.00  0.00     0.293 HD
ENDBRANCH   3  15
TORSDOF 7
ENDMDL
