MODEL 1
REMARK VINA RESULT:    -2.310      0.000      0.000
REMARK INTER + INTRA:          -2.310
REMARK INTER:                  -2.310
REMARK INTRA:                   0.000
REMARK UNBOUND:                 0.000
REMARK SMILES CC(=O)[O-]
REMARK SMILES IDX 1 1 2 2 3 3 4 4
REMARK H PARENT
REMARK Flexibility Score: inf
ROOT
ATOM      1  C   UNL     1     -13.322  81.344 -13.023  1.00  0.00     0.063 C 
ATOM      2  C   UNL     1     -12.346  81.083 -11.927  1.00  0.00     0.038 C 
ATOM      3  O   UNL     1     -11.129  80.906 -12.192  1.00  0.00    -0.550 OA
ATOM      4  O   UNL     1     -12.786  80.982 -10.613  1.00  0.00    -0.550 OA
ENDROOT
TORSDOF 0
ENDMDL
MODEL 2
REMARK VINA RESULT:    -2.297      0.087      1.620
REMARK INTER + INTRA:          -2.297
REMARK INTER:                  -2.297
REMARK INTRA:                   0.000
REMARK UNBOUND:                 0.000
REMARK SMILES CC(=O)[O-]
REMARK SMILES IDX 1 1 2 2 3 3 4 4
REMARK H PARENT
REMARK Flexibility Score: inf
ROOT
ATOM      1  C   UNL     1     -13.351  81.385 -13.025  1.00  0.00     0.063 C 
ATOM      2  C   UNL     1     -12.395  81.093 -11.919  1.00  0.00     0.038 C 
ATOM      3  O   UNL     1     -12.803  81.027 -10.730  1.00  0.00    -0.550 OA
ATOM      4  O   UNL     1     -11.040  80.946 -12.191  1.00  0.00    -0.550 OA
ENDROOT
TORSDOF 0
ENDMDL
MODEL 3
REMARK VINA RESULT:    -2.253      1.382      1.762
REMARK INTER + INTRA:          -2.253
REMARK INTER:                  -2.253
REMARK INTRA:                   0.000
REMARK UNBOUND:                 0.000
REMARK SMILES CC(=O)[O-]
REMARK SMILES IDX 1 1 2 2 3 3 4 4
REMARK H PARENT
REMARK Flexibility Score: inf
ROOT
ATOM      1  C   UNL     1     -12.803  81.319 -10.578  1.00  0.00     0.063 C 
ATOM      2  C   UNL     1     -12.375  81.136 -11.995  1.00  0.00     0.038 C 
ATOM      3  O   UNL     1     -11.168  80.907 -12.267  1.00  0.00    -0.550 OA
ATOM      4  O   UNL     1     -13.300  81.271 -13.023  1.00  0.00    -0.550 OA
ENDROOT
TORSDOF 0
ENDMDL
MODEL 4
REMARK VINA RESULT:    -2.099      1.363      1.799
REMARK INTER + INTRA:          -2.099
REMARK INTER:                  -2.099
REMARK INTRA:                   0.000
REMARK UNBOUND:                 0.000
REMARK SMILES CC(=O)[O-]
REMARK SMILES IDX 1 1 2 2 3 3 4 4
REMARK H PARENT
REMARK Flexibility Score: inf
ROOT
ATOM      1  C   UNL     1     -12.884  81.175 -12.629  1.00  0.00     0.063 C 
ATOM      2  C   UNL     1     -13.001  81.786 -11.273  1.00  0.00     0.038 C 
ATOM      3  O   UNL     1     -12.639  81.141 -10.255  1.00  0.00    -0.550 OA
ATOM      4  O   UNL     1     -13.559  83.049 -11.126  1.00  0.00    -0.550 OA
ENDROOT
TORSDOF 0
ENDMDL
MODEL 5
REMARK VINA RESULT:    -2.088      1.455      2.058
REMARK INTER + INTRA:          -2.088
REMARK INTER:                  -2.088
REMARK INTRA:                   0.000
REMARK UNBOUND:                 0.000
REMARK SMILES CC(=O)[O-]
REMARK SMILES IDX 1 1 2 2 3 3 4 4
REMARK H PARENT
REMARK Flexibility Score: inf
ROOT
ATOM      1  C   UNL     1     -13.001  81.821 -10.824  1.00  0.00     0.063 C 
ATOM      2  C   UNL     1     -12.549  81.374 -12.173  1.00  0.00     0.038 C 
ATOM      3  O   UNL     1     -13.373  81.288 -13.120  1.00  0.00    -0.550 OA
ATOM      4  O   UNL     1     -11.226  81.001 -12.375  1.00  0.00    -0.550 OA
ENDROOT
TORSDOF 0
ENDMDL
MODEL 6
REMARK VINA RESULT:    -1.943      8.356      8.609
REMARK INTER + INTRA:          -1.943
REMARK INTER:                  -1.943
REMARK INTRA:                   0.000
REMARK UNBOUND:                 0.000
REMARK SMILES CC(=O)[O-]
REMARK SMILES IDX 1 1 2 2 3 3 4 4
REMARK H PARENT
REMARK Flexibility Score: inf
ROOT
ATOM      1  C   UNL     1     -19.503  76.882 -12.062  1.00  0.00     0.063 C 
ATOM      2  C   UNL     1     -20.093  77.634 -10.917  1.00  0.00     0.038 C 
ATOM      3  O   UNL     1     -20.982  78.501 -11.120  1.00  0.00    -0.550 OA
ATOM      4  O   UNL     1     -19.623  77.417  -9.628  1.00  0.00    -0.550 OA
ENDROOT
TORSDOF 0
ENDMDL
MODEL 7
REMARK VINA RESULT:    -1.837      1.706      2.212
REMARK INTER + INTRA:          -1.837
REMARK INTER:                  -1.837
REMARK INTRA:                   0.000
REMARK UNBOUND:                 0.000
REMARK SMILES CC(=O)[O-]
REMARK SMILES IDX 1 1 2 2 3 3 4 4
REMARK H PARENT
REMARK Flexibility Score: inf
ROOT
ATOM      1  C   UNL     1     -13.585  83.171 -10.903  1.00  0.00     0.063 C 
ATOM      2  C   UNL     1     -13.009  81.821 -11.168  1.00  0.00     0.038 C 
ATOM      3  O   UNL     1     -12.712  81.060 -10.211  1.00  0.00    -0.550 OA
ATOM      4  O   UNL     1     -12.749  81.420 -12.473  1.00  0.00    -0.550 OA
ENDROOT
TORSDOF 0
ENDMDL
MODEL 8
REMARK VINA RESULT:    -1.806      5.704      6.215
REMARK INTER + INTRA:          -1.806
REMARK INTER:                  -1.806
REMARK INTRA:                   0.000
REMARK UNBOUND:                 0.000
REMARK SMILES CC(=O)[O-]
REMARK SMILES IDX 1 1 2 2 3 3 4 4
REMARK H PARENT
REMARK Flexibility Score: inf
ROOT
ATOM      1  C   UNL     1     -14.150  77.067  -6.742  1.00  0.00     0.063 C 
ATOM      2  C   UNL     1     -12.883  77.821  -6.966  1.00  0.00     0.038 C 
ATOM      3  O   UNL     1     -12.918  79.031  -7.307  1.00  0.00    -0.550 OA
ATOM      4  O   UNL     1     -11.659  77.173  -6.851  1.00  0.00    -0.550 OA
ENDROOT
TORSDOF 0
ENDMDL
MODEL 9
REMARK VINA RESULT:    -1.758      8.486      8.982
REMARK INTER + INTRA:          -1.758
REMARK INTER:                  -1.758
REMARK INTRA:                   0.000
REMARK UNBOUND:                 0.000
REMARK SMILES CC(=O)[O-]
REMARK SMILES IDX 1 1 2 2 3 3 4 4
REMARK H PARENT
REMARK Flexibility Score: inf
ROOT
ATOM      1  C   UNL     1      -5.397  82.906  -9.819  1.00  0.00     0.063 C 
ATOM      2  C   UNL     1      -3.952  82.732  -9.496  1.00  0.00     0.038 C 
ATOM      3  O   UNL     1      -3.367  81.654  -9.776  1.00  0.00    -0.550 OA
ATOM      4  O   UNL     1      -3.261  83.739  -8.835  1.00  0.00    -0.550 OA
ENDROOT
TORSDOF 0
ENDMDL
