MODEL 1
REMARK VINA RESULT:    -3.533      0.000      0.000
REMARK INTER + INTRA:         -14.739
REMARK INTER:                  -9.317
REMARK INTRA:                  -5.422
REMARK UNBOUND:                -5.422
REMARK SMILES CCCCCCCCCCCCCCCCCCCCCCCCCCCCCC(=O)[O-]
REMARK SMILES IDX 16 1 17 2 18 3 19 4 20 5 21 6 22 7 23 8 24 9 25 10 26 11
REMARK SMILES IDX 27 12 28 13 29 14 30 15 31 16 32 17 15 18 14 19 13 20 12 21
REMARK SMILES IDX 11 22 10 23 9 24 8 25 7 26 6 27 5 28 4 29 3 30 2 31 1 32
REMARK H PARENT
REMARK Flexibility Score: inf
ROOT
ATOM      1  C   UNL     1      11.521  62.021   8.002  1.00  0.00     0.000 C 
ENDROOT
BRANCH   1   2
ATOM      2  C   UNL     1      12.588  62.525   7.012  1.00  0.00     0.000 C 
BRANCH   2   3
ATOM      3  C   UNL     1      13.349  63.756   7.525  1.00  0.00     0.000 C 
BRANCH   3   4
ATOM      4  C   UNL     1      13.355  64.881   6.478  1.00  0.00     0.000 C 
BRANCH   4   5
ATOM      5  C   UNL     1      12.052  64.935   5.664  1.00  0.00     0.000 C 
BRANCH   5   6
ATOM      6  C   UNL     1      12.115  65.952   4.512  1.00  0.00     0.000 C 
BRANCH   6   7
ATOM      7  C   UNL     1      11.220  65.556   3.325  1.00  0.00     0.000 C 
BRANCH   7   8
ATOM      8  C   UNL     1      10.475  66.760   2.722  1.00  0.00     0.000 C 
BRANCH   8   9
ATOM      9  C   UNL     1       8.995  66.815   3.159  1.00  0.00     0.000 C 
BRANCH   9  10
ATOM     10  C   UNL     1       8.328  68.185   2.925  1.00  0.00     0.000 C 
BRANCH  10  11
ATOM     11  C   UNL     1       6.924  68.337   3.536  1.00  0.00     0.000 C 
BRANCH  11  12
ATOM     12  C   UNL     1       6.766  67.567   4.859  1.00  0.00     0.000 C 
BRANCH  12  13
ATOM     13  C   UNL     1       5.298  67.428   5.291  1.00  0.00     0.006 C 
BRANCH  13  14
ATOM     14  C   UNL     1       4.598  66.225   4.642  1.00  0.00     0.053 C 
BRANCH  14  15
ATOM     15  C   UNL     1       3.389  66.666   3.877  1.00  0.00     0.041 C 
ATOM     16  O   UNL     1       2.263  66.154   4.119  1.00  0.00    -0.550 OA
ATOM     17  O   UNL     1       3.508  67.626   2.881  1.00  0.00    -0.550 OA
ENDBRANCH  14  15
ENDBRANCH  13  14
ENDBRANCH  12  13
ENDBRANCH  11  12
ENDBRANCH  10  11
ENDBRANCH   9  10
ENDBRANCH   8   9
ENDBRANCH   7   8
ENDBRANCH   6   7
ENDBRANCH   5   6
ENDBRANCH   4   5
ENDBRANCH   3   4
ENDBRANCH   2   3
ENDBRANCH   1   2
BRANCH   1  18
ATOM     18  C   UNL     1      10.966  63.093   8.958  1.00  0.00     0.000 C 
BRANCH  18  19
ATOM     19  C   UNL     1       9.506  63.502   8.692  1.00  0.00     0.000 C 
BRANCH  19  20
ATOM     20  C   UNL     1       9.328  65.009   8.407  1.00  0.00     0.000 C 
BRANCH  20  21
ATOM     21  C   UNL     1      10.362  65.871   9.146  1.00  0.00     0.000 C 
BRANCH  21  22
ATOM     22  C   UNL     1      10.650  67.164   8.371  1.00  0.00     0.000 C 
BRANCH  22  23
ATOM     23  C   UNL     1       9.887  67.246   7.037  1.00  0.00     0.000 C 
BRANCH  23  24
ATOM     24  C   UNL     1       9.780  68.661   6.430  1.00  0.00    -0.000 C 
BRANCH  24  25
ATOM     25  C   UNL     1       9.256  69.746   7.387  1.00  0.00    -0.000 C 
BRANCH  25  26
ATOM     26  C   UNL     1       7.778  69.552   7.757  1.00  0.00    -0.000 C 
BRANCH  26  27
ATOM     27  C   UNL     1       7.625  69.270   9.260  1.00  0.00    -0.000 C 
BRANCH  27  28
ATOM     28  C   UNL     1       6.373  68.441   9.581  1.00  0.00    -0.000 C 
BRANCH  28  29
ATOM     29  C   UNL     1       6.366  67.073   8.873  1.00  0.00    -0.000 C 
BRANCH  29  30
ATOM     30  C   UNL     1       5.162  66.205   9.298  1.00  0.00    -0.000 C 
BRANCH  30  31
ATOM     31  C   UNL     1       4.843  65.069   8.312  1.00  0.00    -0.003 C 
ATOM     32  C   UNL     1       5.784  63.874   8.447  1.00  0.00     0.004 C 
ENDBRANCH  30  31
ENDBRANCH  29  30
ENDBRANCH  28  29
ENDBRANCH  27  28
ENDBRANCH  26  27
ENDBRANCH  25  26
ENDBRANCH  24  25
ENDBRANCH  23  24
ENDBRANCH  22  23
ENDBRANCH  21  22
ENDBRANCH  20  21
ENDBRANCH  19  20
ENDBRANCH  18  19
ENDBRANCH   1  18
TORSDOF 28
ENDMDL
MODEL 2
REMARK VINA RESULT:    -3.510      1.451      5.784
REMARK INTER + INTRA:         -14.677
REMARK INTER:                  -8.388
REMARK INTRA:                  -6.289
REMARK UNBOUND:                -5.422
REMARK SMILES CCCCCCCCCCCCCCCCCCCCCCCCCCCCCC(=O)[O-]
REMARK SMILES IDX 16 1 17 2 18 3 19 4 20 5 21 6 22 7 23 8 24 9 25 10 26 11
REMARK SMILES IDX 27 12 28 13 29 14 30 15 31 16 32 17 15 18 14 19 13 20 12 21
REMARK SMILES IDX 11 22 10 23 9 24 8 25 7 26 6 27 5 28 4 29 3 30 2 31 1 32
REMARK H PARENT
REMARK Flexibility Score: inf
ROOT
ATOM      1  C   UNL     1      11.321  65.941   3.637  1.00  0.00     0.000 C 
ENDROOT
BRANCH   1   2
ATOM      2  C   UNL     1      10.550  67.239   3.329  1.00  0.00     0.000 C 
BRANCH   2   3
ATOM      3  C   UNL     1       9.137  66.983   2.784  1.00  0.00     0.000 C 
BRANCH   3   4
ATOM      4  C   UNL     1       8.068  67.563   3.723  1.00  0.00     0.000 C 
BRANCH   4   5
ATOM      5  C   UNL     1       8.677  68.292   4.932  1.00  0.00     0.000 C 
BRANCH   5   6
ATOM      6  C   UNL     1       8.091  67.812   6.270  1.00  0.00     0.000 C 
BRANCH   6   7
ATOM      7  C   UNL     1       8.170  68.884   7.370  1.00  0.00     0.000 C 
BRANCH   7   8
ATOM      8  C   UNL     1       7.236  68.583   8.555  1.00  0.00     0.000 C 
BRANCH   8   9
ATOM      9  C   UNL     1       8.012  68.322   9.864  1.00  0.00     0.000 C 
BRANCH   9  10
ATOM     10  C   UNL     1       7.580  67.038  10.598  1.00  0.00     0.000 C 
BRANCH  10  11
ATOM     11  C   UNL     1       6.782  66.037   9.745  1.00  0.00     0.000 C 
BRANCH  11  12
ATOM     12  C   UNL     1       5.294  65.979  10.135  1.00  0.00     0.000 C 
BRANCH  12  13
ATOM     13  C   UNL     1       4.359  66.236   8.943  1.00  0.00     0.006 C 
BRANCH  13  14
ATOM     14  C   UNL     1       4.945  65.749   7.611  1.00  0.00     0.053 C 
BRANCH  14  15
ATOM     15  C   UNL     1       4.388  66.538   6.467  1.00  0.00     0.041 C 
ATOM     16  O   UNL     1       3.350  67.236   6.624  1.00  0.00    -0.550 OA
ATOM     17  O   UNL     1       5.000  66.484   5.221  1.00  0.00    -0.550 OA
ENDBRANCH  14  15
ENDBRANCH  13  14
ENDBRANCH  12  13
ENDBRANCH  11  12
ENDBRANCH  10  11
ENDBRANCH   9  10
ENDBRANCH   8   9
ENDBRANCH   7   8
ENDBRANCH   6   7
ENDBRANCH   5   6
ENDBRANCH   4   5
ENDBRANCH   3   4
ENDBRANCH   2   3
ENDBRANCH   1   2
BRANCH   1  18
ATOM     18  C   UNL     1      11.576  65.677   5.133  1.00  0.00     0.000 C 
BRANCH  18  19
ATOM     19  C   UNL     1      12.646  64.610   5.427  1.00  0.00     0.000 C 
BRANCH  19  20
ATOM     20  C   UNL     1      13.469  64.894   6.702  1.00  0.00     0.000 C 
BRANCH  20  21
ATOM     21  C   UNL     1      13.402  63.739   7.711  1.00  0.00     0.000 C 
BRANCH  21  22
ATOM     22  C   UNL     1      12.670  62.530   7.112  1.00  0.00     0.000 C 
BRANCH  22  23
ATOM     23  C   UNL     1      11.529  62.015   8.008  1.00  0.00     0.000 C 
BRANCH  23  24
ATOM     24  C   UNL     1      10.920  63.066   8.960  1.00  0.00    -0.000 C 
BRANCH  24  25
ATOM     25  C   UNL     1       9.779  63.908   8.363  1.00  0.00    -0.000 C 
BRANCH  25  26
ATOM     26  C   UNL     1      10.069  65.415   8.395  1.00  0.00    -0.000 C 
BRANCH  26  27
ATOM     27  C   UNL     1      10.942  65.776   9.607  1.00  0.00    -0.000 C 
BRANCH  27  28
ATOM     28  C   UNL     1      11.807  67.022   9.361  1.00  0.00    -0.000 C 
BRANCH  28  29
ATOM     29  C   UNL     1      11.425  67.767   8.069  1.00  0.00    -0.000 C 
BRANCH  29  30
ATOM     30  C   UNL     1      12.649  68.426   7.396  1.00  0.00    -0.000 C 
BRANCH  30  31
ATOM     31  C   UNL     1      12.314  69.143   6.077  1.00  0.00    -0.003 C 
ATOM     32  C   UNL     1      11.420  70.366   6.268  1.00  0.00     0.004 C 
ENDBRANCH  30  31
ENDBRANCH  29  30
ENDBRANCH  28  29
ENDBRANCH  27  28
ENDBRANCH  26  27
ENDBRANCH  25  26
ENDBRANCH  24  25
ENDBRANCH  23  24
ENDBRANCH  22  23
ENDBRANCH  21  22
ENDBRANCH  20  21
ENDBRANCH  19  20
ENDBRANCH  18  19
ENDBRANCH   1  18
TORSDOF 28
ENDMDL
MODEL 3
REMARK VINA RESULT:    -3.463      2.673      4.885
REMARK INTER + INTRA:         -14.553
REMARK INTER:                  -9.061
REMARK INTRA:                  -5.492
REMARK UNBOUND:                -5.422
REMARK SMILES CCCCCCCCCCCCCCCCCCCCCCCCCCCCCC(=O)[O-]
REMARK SMILES IDX 16 1 17 2 18 3 19 4 20 5 21 6 22 7 23 8 24 9 25 10 26 11
REMARK SMILES IDX 27 12 28 13 29 14 30 15 31 16 32 17 15 18 14 19 13 20 12 21
REMARK SMILES IDX 11 22 10 23 9 24 8 25 7 26 6 27 5 28 4 29 3 30 2 31 1 32
REMARK H PARENT
REMARK Flexibility Score: inf
ROOT
ATOM      1  C   UNL     1       9.716  65.214   8.385  1.00  0.00     0.000 C 
ENDROOT
BRANCH   1   2
ATOM      2  C   UNL     1       9.622  63.677   8.431  1.00  0.00     0.000 C 
BRANCH   2   3
ATOM      3  C   UNL     1      10.895  63.014   8.978  1.00  0.00     0.000 C 
BRANCH   3   4
ATOM      4  C   UNL     1      11.476  62.012   7.967  1.00  0.00     0.000 C 
BRANCH   4   5
ATOM      5  C   UNL     1      12.589  62.625   7.102  1.00  0.00     0.000 C 
BRANCH   5   6
ATOM      6  C   UNL     1      13.434  63.656   7.868  1.00  0.00     0.000 C 
BRANCH   6   7
ATOM      7  C   UNL     1      13.768  64.895   7.020  1.00  0.00     0.000 C 
BRANCH   7   8
ATOM      8  C   UNL     1      12.798  65.080   5.840  1.00  0.00     0.000 C 
BRANCH   8   9
ATOM      9  C   UNL     1      12.084  66.448   5.873  1.00  0.00     0.000 C 
BRANCH   9  10
ATOM     10  C   UNL     1      10.738  66.466   5.122  1.00  0.00     0.000 C 
BRANCH  10  11
ATOM     11  C   UNL     1      10.768  65.836   3.719  1.00  0.00     0.000 C 
BRANCH  11  12
ATOM     12  C   UNL     1       9.683  66.408   2.789  1.00  0.00     0.000 C 
BRANCH  12  13
ATOM     13  C   UNL     1      10.170  67.627   1.991  1.00  0.00     0.006 C 
BRANCH  13  14
ATOM     14  C   UNL     1      11.698  67.778   2.009  1.00  0.00     0.053 C 
BRANCH  14  15
ATOM     15  C   UNL     1      12.249  67.755   0.618  1.00  0.00     0.041 C 
ATOM     16  O   UNL     1      11.669  67.092  -0.284  1.00  0.00    -0.550 OA
ATOM     17  O   UNL     1      13.417  68.446   0.320  1.00  0.00    -0.550 OA
ENDBRANCH  14  15
ENDBRANCH  13  14
ENDBRANCH  12  13
ENDBRANCH  11  12
ENDBRANCH  10  11
ENDBRANCH   9  10
ENDBRANCH   8   9
ENDBRANCH   7   8
ENDBRANCH   6   7
ENDBRANCH   5   6
ENDBRANCH   4   5
ENDBRANCH   3   4
ENDBRANCH   2   3
ENDBRANCH   1   2
BRANCH   1  18
ATOM     18  C   UNL     1      10.748  65.829   9.350  1.00  0.00     0.000 C 
BRANCH  18  19
ATOM     19  C   UNL     1      10.941  67.350   9.205  1.00  0.00     0.000 C 
BRANCH  19  20
ATOM     20  C   UNL     1       9.680  68.088   8.706  1.00  0.00     0.000 C 
BRANCH  20  21
ATOM     21  C   UNL     1      10.018  69.278   7.798  1.00  0.00     0.000 C 
BRANCH  21  22
ATOM     22  C   UNL     1       9.095  69.312   6.572  1.00  0.00     0.000 C 
BRANCH  22  23
ATOM     23  C   UNL     1       7.807  68.492   6.770  1.00  0.00     0.000 C 
BRANCH  23  24
ATOM     24  C   UNL     1       7.349  67.685   5.537  1.00  0.00    -0.000 C 
BRANCH  24  25
ATOM     25  C   UNL     1       5.904  67.951   5.079  1.00  0.00    -0.000 C 
BRANCH  25  26
ATOM     26  C   UNL     1       5.016  66.700   5.150  1.00  0.00    -0.000 C 
BRANCH  26  27
ATOM     27  C   UNL     1       3.795  66.948   6.050  1.00  0.00    -0.000 C 
BRANCH  27  28
ATOM     28  C   UNL     1       4.126  66.811   7.544  1.00  0.00    -0.000 C 
BRANCH  28  29
ATOM     29  C   UNL     1       4.825  65.480   7.880  1.00  0.00    -0.000 C 
BRANCH  29  30
ATOM     30  C   UNL     1       6.146  65.697   8.649  1.00  0.00    -0.000 C 
BRANCH  30  31
ATOM     31  C   UNL     1       6.102  66.883   9.626  1.00  0.00    -0.003 C 
ATOM     32  C   UNL     1       7.048  66.719  10.814  1.00  0.00     0.004 C 
ENDBRANCH  30  31
ENDBRANCH  29  30
ENDBRANCH  28  29
ENDBRANCH  27  28
ENDBRANCH  26  27
ENDBRANCH  25  26
ENDBRANCH  24  25
ENDBRANCH  23  24
ENDBRANCH  22  23
ENDBRANCH  21  22
ENDBRANCH  20  21
ENDBRANCH  19  20
ENDBRANCH  18  19
ENDBRANCH   1  18
TORSDOF 28
ENDMDL
MODEL 4
REMARK VINA RESULT:    -3.448      1.332      4.803
REMARK INTER + INTRA:         -14.513
REMARK INTER:                  -9.046
REMARK INTRA:                  -5.467
REMARK UNBOUND:                -5.422
REMARK SMILES CCCCCCCCCCCCCCCCCCCCCCCCCCCCCC(=O)[O-]
REMARK SMILES IDX 16 1 17 2 18 3 19 4 20 5 21 6 22 7 23 8 24 9 25 10 26 11
REMARK SMILES IDX 27 12 28 13 29 14 30 15 31 16 32 17 15 18 14 19 13 20 12 21
REMARK SMILES IDX 11 22 10 23 9 24 8 25 7 26 6 27 5 28 4 29 3 30 2 31 1 32
REMARK H PARENT
REMARK Flexibility Score: inf
ROOT
ATOM      1  C   UNL     1      12.062  62.373   7.245  1.00  0.00     0.000 C 
ENDROOT
BRANCH   1   2
ATOM      2  C   UNL     1      11.582  62.961   8.585  1.00  0.00     0.000 C 
BRANCH   2   3
ATOM      3  C   UNL     1      10.058  63.141   8.651  1.00  0.00     0.000 C 
BRANCH   3   4
ATOM      4  C   UNL     1       9.684  64.603   8.942  1.00  0.00     0.000 C 
BRANCH   4   5
ATOM      5  C   UNL     1       8.191  64.887   8.714  1.00  0.00     0.000 C 
BRANCH   5   6
ATOM      6  C   UNL     1       7.341  63.606   8.697  1.00  0.00     0.000 C 
BRANCH   6   7
ATOM      7  C   UNL     1       5.876  63.872   8.310  1.00  0.00     0.000 C 
BRANCH   7   8
ATOM      8  C   UNL     1       5.129  64.703   9.367  1.00  0.00     0.000 C 
BRANCH   8   9
ATOM      9  C   UNL     1       4.526  65.998   8.780  1.00  0.00     0.000 C 
BRANCH   9  10
ATOM     10  C   UNL     1       4.696  66.127   7.254  1.00  0.00     0.000 C 
BRANCH  10  11
ATOM     11  C   UNL     1       3.919  67.288   6.608  1.00  0.00     0.000 C 
BRANCH  11  12
ATOM     12  C   UNL     1       4.782  68.108   5.633  1.00  0.00     0.000 C 
BRANCH  12  13
ATOM     13  C   UNL     1       5.878  67.266   4.960  1.00  0.00     0.006 C 
BRANCH  13  14
ATOM     14  C   UNL     1       5.514  66.853   3.527  1.00  0.00     0.053 C 
BRANCH  14  15
ATOM     15  C   UNL     1       4.996  68.026   2.754  1.00  0.00     0.041 C 
ATOM     16  O   UNL     1       5.776  68.954   2.409  1.00  0.00    -0.550 OA
ATOM     17  O   UNL     1       3.647  68.106   2.432  1.00  0.00    -0.550 OA
ENDBRANCH  14  15
ENDBRANCH  13  14
ENDBRANCH  12  13
ENDBRANCH  11  12
ENDBRANCH  10  11
ENDBRANCH   9  10
ENDBRANCH   8   9
ENDBRANCH   7   8
ENDBRANCH   6   7
ENDBRANCH   5   6
ENDBRANCH   4   5
ENDBRANCH   3   4
ENDBRANCH   2   3
ENDBRANCH   1   2
BRANCH   1  18
ATOM     18  C   UNL     1      13.219  63.141   6.578  1.00  0.00     0.000 C 
BRANCH  18  19
ATOM     19  C   UNL     1      13.615  64.452   7.282  1.00  0.00     0.000 C 
BRANCH  19  20
ATOM     20  C   UNL     1      13.368  65.713   6.426  1.00  0.00     0.000 C 
BRANCH  20  21
ATOM     21  C   UNL     1      11.997  66.347   6.700  1.00  0.00     0.000 C 
BRANCH  21  22
ATOM     22  C   UNL     1      10.963  65.886   5.663  1.00  0.00     0.000 C 
BRANCH  22  23
ATOM     23  C   UNL     1      11.512  65.896   4.225  1.00  0.00     0.000 C 
BRANCH  23  24
ATOM     24  C   UNL     1      10.470  65.601   3.125  1.00  0.00    -0.000 C 
BRANCH  24  25
ATOM     25  C   UNL     1       9.217  66.495   3.154  1.00  0.00    -0.000 C 
BRANCH  25  26
ATOM     26  C   UNL     1       9.467  67.892   2.569  1.00  0.00    -0.000 C 
BRANCH  26  27
ATOM     27  C   UNL     1       9.084  68.983   3.581  1.00  0.00    -0.000 C 
BRANCH  27  28
ATOM     28  C   UNL     1      10.306  69.581   4.297  1.00  0.00    -0.000 C 
BRANCH  28  29
ATOM     29  C   UNL     1      10.205  69.480   5.830  1.00  0.00    -0.000 C 
BRANCH  29  30
ATOM     30  C   UNL     1       8.836  68.932   6.287  1.00  0.00    -0.000 C 
BRANCH  30  31
ATOM     31  C   UNL     1       8.822  68.450   7.747  1.00  0.00    -0.003 C 
ATOM     32  C   UNL     1       7.421  68.404   8.352  1.00  0.00     0.004 C 
ENDBRANCH  30  31
ENDBRANCH  29  30
ENDBRANCH  28  29
ENDBRANCH  27  28
ENDBRANCH  26  27
ENDBRANCH  25  26
ENDBRANCH  24  25
ENDBRANCH  23  24
ENDBRANCH  22  23
ENDBRANCH  21  22
ENDBRANCH  20  21
ENDBRANCH  19  20
ENDBRANCH  18  19
ENDBRANCH   1  18
TORSDOF 28
ENDMDL
MODEL 5
REMARK VINA RESULT:    -3.369      2.429      5.038
REMARK INTER + INTRA:         -14.304
REMARK INTER:                  -8.307
REMARK INTRA:                  -5.997
REMARK UNBOUND:                -5.422
REMARK SMILES CCCCCCCCCCCCCCCCCCCCCCCCCCCCCC(=O)[O-]
REMARK SMILES IDX 16 1 17 2 18 3 19 4 20 5 21 6 22 7 23 8 24 9 25 10 26 11
REMARK SMILES IDX 27 12 28 13 29 14 30 15 31 16 32 17 15 18 14 19 13 20 12 21
REMARK SMILES IDX 11 22 10 23 9 24 8 25 7 26 6 27 5 28 4 29 3 30 2 31 1 32
REMARK H PARENT
REMARK Flexibility Score: inf
ROOT
ATOM      1  C   UNL     1      10.809  63.386   8.750  1.00  0.00     0.000 C 
ENDROOT
BRANCH   1   2
ATOM      2  C   UNL     1      11.508  62.270   7.952  1.00  0.00     0.000 C 
BRANCH   2   3
ATOM      3  C   UNL     1      12.659  62.788   7.077  1.00  0.00     0.000 C 
BRANCH   3   4
ATOM      4  C   UNL     1      13.586  63.720   7.874  1.00  0.00     0.000 C 
BRANCH   4   5
ATOM      5  C   UNL     1      13.942  65.000   7.101  1.00  0.00     0.000 C 
BRANCH   5   6
ATOM      6  C   UNL     1      14.125  66.217   8.023  1.00  0.00     0.000 C 
BRANCH   6   7
ATOM      7  C   UNL     1      13.178  66.190   9.235  1.00  0.00     0.000 C 
BRANCH   7   8
ATOM      8  C   UNL     1      12.470  67.537   9.459  1.00  0.00     0.000 C 
BRANCH   8   9
ATOM      9  C   UNL     1      12.857  68.589   8.398  1.00  0.00     0.000 C 
BRANCH   9  10
ATOM     10  C   UNL     1      11.670  69.078   7.544  1.00  0.00     0.000 C 
BRANCH  10  11
ATOM     11  C   UNL     1      11.522  68.384   6.178  1.00  0.00     0.000 C 
BRANCH  11  12
ATOM     12  C   UNL     1      10.391  67.340   6.164  1.00  0.00     0.000 C 
BRANCH  12  13
ATOM     13  C   UNL     1      10.837  65.993   5.573  1.00  0.00     0.006 C 
BRANCH  13  14
ATOM     14  C   UNL     1      11.829  66.152   4.412  1.00  0.00     0.053 C 
BRANCH  14  15
ATOM     15  C   UNL     1      11.113  66.126   3.097  1.00  0.00     0.041 C 
ATOM     16  O   UNL     1      11.730  66.398   2.032  1.00  0.00    -0.550 OA
ATOM     17  O   UNL     1       9.757  65.825   3.049  1.00  0.00    -0.550 OA
ENDBRANCH  14  15
ENDBRANCH  13  14
ENDBRANCH  12  13
ENDBRANCH  11  12
ENDBRANCH  10  11
ENDBRANCH   9  10
ENDBRANCH   8   9
ENDBRANCH   7   8
ENDBRANCH   6   7
ENDBRANCH   5   6
ENDBRANCH   4   5
ENDBRANCH   3   4
ENDBRANCH   2   3
ENDBRANCH   1   2
BRANCH   1  18
ATOM     18  C   UNL     1       9.269  63.332   8.729  1.00  0.00     0.000 C 
BRANCH  18  19
ATOM     19  C   UNL     1       8.576  64.706   8.703  1.00  0.00     0.000 C 
BRANCH  19  20
ATOM     20  C   UNL     1       9.426  65.840   9.316  1.00  0.00     0.000 C 
BRANCH  20  21
ATOM     21  C   UNL     1       8.688  67.187   9.324  1.00  0.00     0.000 C 
BRANCH  21  22
ATOM     22  C   UNL     1       8.424  67.657  10.761  1.00  0.00     0.000 C 
BRANCH  22  23
ATOM     23  C   UNL     1       6.925  67.808  11.076  1.00  0.00     0.000 C 
BRANCH  23  24
ATOM     24  C   UNL     1       6.134  66.484  11.139  1.00  0.00    -0.000 C 
BRANCH  24  25
ATOM     25  C   UNL     1       4.986  66.358  10.122  1.00  0.00    -0.000 C 
BRANCH  25  26
ATOM     26  C   UNL     1       4.940  64.982   9.442  1.00  0.00    -0.000 C 
BRANCH  26  27
ATOM     27  C   UNL     1       5.105  65.120   7.920  1.00  0.00    -0.000 C 
BRANCH  27  28
ATOM     28  C   UNL     1       4.858  66.554   7.427  1.00  0.00    -0.000 C 
BRANCH  28  29
ATOM     29  C   UNL     1       6.123  67.207   6.840  1.00  0.00    -0.000 C 
BRANCH  29  30
ATOM     30  C   UNL     1       6.207  68.712   7.174  1.00  0.00    -0.000 C 
BRANCH  30  31
ATOM     31  C   UNL     1       7.220  69.480   6.308  1.00  0.00    -0.003 C 
ATOM     32  C   UNL     1       8.208  70.306   7.129  1.00  0.00     0.004 C 
ENDBRANCH  30  31
ENDBRANCH  29  30
ENDBRANCH  28  29
ENDBRANCH  27  28
ENDBRANCH  26  27
ENDBRANCH  25  26
ENDBRANCH  24  25
ENDBRANCH  23  24
ENDBRANCH  22  23
ENDBRANCH  21  22
ENDBRANCH  20  21
ENDBRANCH  19  20
ENDBRANCH  18  19
ENDBRANCH   1  18
TORSDOF 28
ENDMDL
MODEL 6
REMARK VINA RESULT:    -3.339      2.431      6.176
REMARK INTER + INTRA:         -14.226
REMARK INTER:                  -9.556
REMARK INTRA:                  -4.670
REMARK UNBOUND:                -5.422
REMARK SMILES CCCCCCCCCCCCCCCCCCCCCCCCCCCCCC(=O)[O-]
REMARK SMILES IDX 16 1 17 2 18 3 19 4 20 5 21 6 22 7 23 8 24 9 25 10 26 11
REMARK SMILES IDX 27 12 28 13 29 14 30 15 31 16 32 17 15 18 14 19 13 20 12 21
REMARK SMILES IDX 11 22 10 23 9 24 8 25 7 26 6 27 5 28 4 29 3 30 2 31 1 32
REMARK H PARENT
REMARK Flexibility Score: inf
ROOT
ATOM      1  C   UNL     1       5.257  64.552   8.488  1.00  0.00     0.000 C 
ENDROOT
BRANCH   1   2
ATOM      2  C   UNL     1       6.723  64.143   8.728  1.00  0.00     0.000 C 
BRANCH   2   3
ATOM      3  C   UNL     1       7.644  65.341   8.999  1.00  0.00     0.000 C 
BRANCH   3   4
ATOM      4  C   UNL     1       9.109  64.997   8.685  1.00  0.00     0.000 C 
BRANCH   4   5
ATOM      5  C   UNL     1       9.346  63.483   8.564  1.00  0.00     0.000 C 
BRANCH   5   6
ATOM      6  C   UNL     1      10.692  63.045   9.163  1.00  0.00     0.000 C 
BRANCH   6   7
ATOM      7  C   UNL     1      11.572  64.236   9.579  1.00  0.00     0.000 C 
BRANCH   7   8
ATOM      8  C   UNL     1      13.016  64.110   9.062  1.00  0.00     0.000 C 
BRANCH   8   9
ATOM      9  C   UNL     1      13.082  63.512   7.640  1.00  0.00     0.000 C 
BRANCH   9  10
ATOM     10  C   UNL     1      13.573  64.507   6.569  1.00  0.00     0.000 C 
BRANCH  10  11
ATOM     11  C   UNL     1      13.786  65.947   7.068  1.00  0.00     0.000 C 
BRANCH  11  12
ATOM     12  C   UNL     1      12.593  66.866   6.753  1.00  0.00     0.000 C 
BRANCH  12  13
ATOM     13  C   UNL     1      11.449  66.127   6.040  1.00  0.00     0.006 C 
BRANCH  13  14
ATOM     14  C   UNL     1      11.037  66.799   4.722  1.00  0.00     0.053 C 
BRANCH  14  15
ATOM     15  C   UNL     1      11.068  65.815   3.594  1.00  0.00     0.041 C 
ATOM     16  O   UNL     1      12.153  65.270   3.257  1.00  0.00    -0.550 OA
ATOM     17  O   UNL     1       9.902  65.516   2.900  1.00  0.00    -0.550 OA
ENDBRANCH  14  15
ENDBRANCH  13  14
ENDBRANCH  12  13
ENDBRANCH  11  12
ENDBRANCH  10  11
ENDBRANCH   9  10
ENDBRANCH   8   9
ENDBRANCH   7   8
ENDBRANCH   6   7
ENDBRANCH   5   6
ENDBRANCH   4   5
ENDBRANCH   3   4
ENDBRANCH   2   3
ENDBRANCH   1   2
BRANCH   1  18
ATOM     18  C   UNL     1       5.066  65.746   7.533  1.00  0.00     0.000 C 
BRANCH  18  19
ATOM     19  C   UNL     1       4.124  66.845   8.055  1.00  0.00     0.000 C 
BRANCH  19  20
ATOM     20  C   UNL     1       4.838  67.921   8.902  1.00  0.00     0.000 C 
BRANCH  20  21
ATOM     21  C   UNL     1       5.601  68.935   8.038  1.00  0.00     0.000 C 
BRANCH  21  22
ATOM     22  C   UNL     1       7.115  68.813   8.257  1.00  0.00     0.000 C 
BRANCH  22  23
ATOM     23  C   UNL     1       7.911  68.786   6.940  1.00  0.00     0.000 C 
BRANCH  23  24
ATOM     24  C   UNL     1       7.587  67.603   6.004  1.00  0.00    -0.000 C 
BRANCH  24  25
ATOM     25  C   UNL     1       7.565  67.943   4.503  1.00  0.00    -0.000 C 
BRANCH  25  26
ATOM     26  C   UNL     1       6.382  68.841   4.111  1.00  0.00    -0.000 C 
BRANCH  26  27
ATOM     27  C   UNL     1       5.056  68.243   4.606  1.00  0.00    -0.000 C 
BRANCH  27  28
ATOM     28  C   UNL     1       4.556  67.097   3.713  1.00  0.00    -0.000 C 
BRANCH  28  29
ATOM     29  C   UNL     1       3.426  66.281   4.369  1.00  0.00    -0.000 C 
BRANCH  29  30
ATOM     30  C   UNL     1       2.036  66.897   4.102  1.00  0.00    -0.000 C 
BRANCH  30  31
ATOM     31  C   UNL     1       0.988  65.872   3.634  1.00  0.00    -0.003 C 
ATOM     32  C   UNL     1      -0.392  66.101   4.246  1.00  0.00     0.004 C 
ENDBRANCH  30  31
ENDBRANCH  29  30
ENDBRANCH  28  29
ENDBRANCH  27  28
ENDBRANCH  26  27
ENDBRANCH  25  26
ENDBRANCH  24  25
ENDBRANCH  23  24
ENDBRANCH  22  23
ENDBRANCH  21  22
ENDBRANCH  20  21
ENDBRANCH  19  20
ENDBRANCH  18  19
ENDBRANCH   1  18
TORSDOF 28
ENDMDL
MODEL 7
REMARK VINA RESULT:    -3.316      1.695      4.658
REMARK INTER + INTRA:         -14.166
REMARK INTER:                  -8.960
REMARK INTRA:                  -5.206
REMARK UNBOUND:                -5.422
REMARK SMILES CCCCCCCCCCCCCCCCCCCCCCCCCCCCCC(=O)[O-]
REMARK SMILES IDX 16 1 17 2 18 3 19 4 20 5 21 6 22 7 23 8 24 9 25 10 26 11
REMARK SMILES IDX 27 12 28 13 29 14 30 15 31 16 32 17 15 18 14 19 13 20 12 21
REMARK SMILES IDX 11 22 10 23 9 24 8 25 7 26 6 27 5 28 4 29 3 30 2 31 1 32
REMARK H PARENT
REMARK Flexibility Score: inf
ROOT
ATOM      1  C   UNL     1      11.906  65.515   5.083  1.00  0.00     0.000 C 
ENDROOT
BRANCH   1   2
ATOM      2  C   UNL     1      12.635  64.290   5.666  1.00  0.00     0.000 C 
BRANCH   2   3
ATOM      3  C   UNL     1      13.529  64.638   6.865  1.00  0.00     0.000 C 
BRANCH   3   4
ATOM      4  C   UNL     1      13.401  63.584   7.977  1.00  0.00     0.000 C 
BRANCH   4   5
ATOM      5  C   UNL     1      12.209  62.639   7.757  1.00  0.00     0.000 C 
BRANCH   5   6
ATOM      6  C   UNL     1      11.149  62.754   8.866  1.00  0.00     0.000 C 
BRANCH   6   7
ATOM      7  C   UNL     1       9.866  63.454   8.387  1.00  0.00     0.000 C 
BRANCH   7   8
ATOM      8  C   UNL     1       9.972  64.987   8.454  1.00  0.00     0.000 C 
BRANCH   8   9
ATOM      9  C   UNL     1       8.598  65.678   8.310  1.00  0.00     0.000 C 
BRANCH   9  10
ATOM     10  C   UNL     1       8.057  66.267   9.628  1.00  0.00     0.000 C 
BRANCH  10  11
ATOM     11  C   UNL     1       6.536  66.137   9.822  1.00  0.00     0.000 C 
BRANCH  11  12
ATOM     12  C   UNL     1       5.875  65.250   8.752  1.00  0.00     0.000 C 
BRANCH  12  13
ATOM     13  C   UNL     1       4.780  65.988   7.966  1.00  0.00     0.006 C 
BRANCH  13  14
ATOM     14  C   UNL     1       4.040  67.032   8.814  1.00  0.00     0.053 C 
BRANCH  14  15
ATOM     15  C   UNL     1       3.684  68.228   7.987  1.00  0.00     0.041 C 
ATOM     16  O   UNL     1       2.649  68.218   7.268  1.00  0.00    -0.550 OA
ATOM     17  O   UNL     1       4.506  69.348   7.993  1.00  0.00    -0.550 OA
ENDBRANCH  14  15
ENDBRANCH  13  14
ENDBRANCH  12  13
ENDBRANCH  11  12
ENDBRANCH  10  11
ENDBRANCH   9  10
ENDBRANCH   8   9
ENDBRANCH   7   8
ENDBRANCH   6   7
ENDBRANCH   5   6
ENDBRANCH   4   5
ENDBRANCH   3   4
ENDBRANCH   2   3
ENDBRANCH   1   2
BRANCH   1  18
ATOM     18  C   UNL     1      11.845  65.562   3.544  1.00  0.00     0.000 C 
BRANCH  18  19
ATOM     19  C   UNL     1      10.431  65.438   2.950  1.00  0.00     0.000 C 
BRANCH  19  20
ATOM     20  C   UNL     1       9.519  66.644   3.265  1.00  0.00     0.000 C 
BRANCH  20  21
ATOM     21  C   UNL     1       9.973  67.924   2.548  1.00  0.00     0.000 C 
BRANCH  21  22
ATOM     22  C   UNL     1      10.018  69.110   3.522  1.00  0.00     0.000 C 
BRANCH  22  23
ATOM     23  C   UNL     1      11.318  69.163   4.343  1.00  0.00     0.000 C 
BRANCH  23  24
ATOM     24  C   UNL     1      11.124  69.291   5.868  1.00  0.00    -0.000 C 
BRANCH  24  25
ATOM     25  C   UNL     1      10.024  68.396   6.466  1.00  0.00    -0.000 C 
BRANCH  25  26
ATOM     26  C   UNL     1       8.957  69.191   7.232  1.00  0.00    -0.000 C 
BRANCH  26  27
ATOM     27  C   UNL     1       7.631  69.211   6.456  1.00  0.00    -0.000 C 
BRANCH  27  28
ATOM     28  C   UNL     1       7.318  67.865   5.785  1.00  0.00    -0.000 C 
BRANCH  28  29
ATOM     29  C   UNL     1       5.937  67.845   5.105  1.00  0.00    -0.000 C 
BRANCH  29  30
ATOM     30  C   UNL     1       5.982  67.164   3.720  1.00  0.00    -0.000 C 
BRANCH  30  31
ATOM     31  C   UNL     1       4.871  66.122   3.510  1.00  0.00    -0.003 C 
ATOM     32  C   UNL     1       3.663  66.339   4.419  1.00  0.00     0.004 C 
ENDBRANCH  30  31
ENDBRANCH  29  30
ENDBRANCH  28  29
ENDBRANCH  27  28
ENDBRANCH  26  27
ENDBRANCH  25  26
ENDBRANCH  24  25
ENDBRANCH  23  24
ENDBRANCH  22  23
ENDBRANCH  21  22
ENDBRANCH  20  21
ENDBRANCH  19  20
ENDBRANCH  18  19
ENDBRANCH   1  18
TORSDOF 28
ENDMDL
MODEL 8
REMARK VINA RESULT:    -3.263      1.400      5.600
REMARK INTER + INTRA:         -14.025
REMARK INTER:                  -8.610
REMARK INTRA:                  -5.414
REMARK UNBOUND:                -5.422
REMARK SMILES CCCCCCCCCCCCCCCCCCCCCCCCCCCCCC(=O)[O-]
REMARK SMILES IDX 16 1 17 2 18 3 19 4 20 5 21 6 22 7 23 8 24 9 25 10 26 11
REMARK SMILES IDX 27 12 28 13 29 14 30 15 31 16 32 17 15 18 14 19 13 20 12 21
REMARK SMILES IDX 11 22 10 23 9 24 8 25 7 26 6 27 5 28 4 29 3 30 2 31 1 32
REMARK H PARENT
REMARK Flexibility Score: inf
ROOT
ATOM      1  C   UNL     1      10.361  66.558   4.972  1.00  0.00     0.000 C 
ENDROOT
BRANCH   1   2
ATOM      2  C   UNL     1      10.227  68.072   4.725  1.00  0.00     0.000 C 
BRANCH   2   3
ATOM      3  C   UNL     1       9.260  68.756   5.703  1.00  0.00     0.000 C 
BRANCH   3   4
ATOM      4  C   UNL     1       8.470  67.720   6.518  1.00  0.00     0.000 C 
BRANCH   4   5
ATOM      5  C   UNL     1       7.656  68.360   7.654  1.00  0.00     0.000 C 
BRANCH   5   6
ATOM      6  C   UNL     1       7.797  67.601   8.984  1.00  0.00     0.000 C 
BRANCH   6   7
ATOM      7  C   UNL     1       6.497  66.894   9.403  1.00  0.00     0.000 C 
BRANCH   7   8
ATOM      8  C   UNL     1       6.376  65.481   8.808  1.00  0.00     0.000 C 
BRANCH   8   9
ATOM      9  C   UNL     1       5.097  65.305   7.962  1.00  0.00     0.000 C 
BRANCH   9  10
ATOM     10  C   UNL     1       4.217  66.569   7.895  1.00  0.00     0.000 C 
BRANCH  10  11
ATOM     11  C   UNL     1       4.245  67.311   6.547  1.00  0.00     0.000 C 
BRANCH  11  12
ATOM     12  C   UNL     1       5.130  66.609   5.503  1.00  0.00     0.000 C 
BRANCH  12  13
ATOM     13  C   UNL     1       4.353  66.221   4.234  1.00  0.00     0.006 C 
BRANCH  13  14
ATOM     14  C   UNL     1       2.835  66.389   4.391  1.00  0.00     0.053 C 
BRANCH  14  15
ATOM     15  C   UNL     1       2.227  66.910   3.127  1.00  0.00     0.041 C 
ATOM     16  O   UNL     1       1.087  67.448   3.145  1.00  0.00    -0.550 OA
ATOM     17  O   UNL     1       2.908  66.783   1.923  1.00  0.00    -0.550 OA
ENDBRANCH  14  15
ENDBRANCH  13  14
ENDBRANCH  12  13
ENDBRANCH  11  12
ENDBRANCH  10  11
ENDBRANCH   9  10
ENDBRANCH   8   9
ENDBRANCH   7   8
ENDBRANCH   6   7
ENDBRANCH   5   6
ENDBRANCH   4   5
ENDBRANCH   3   4
ENDBRANCH   2   3
ENDBRANCH   1   2
BRANCH   1  18
ATOM     18  C   UNL     1      10.949  65.758   3.794  1.00  0.00     0.000 C 
BRANCH  18  19
ATOM     19  C   UNL     1      12.253  65.005   4.112  1.00  0.00     0.000 C 
BRANCH  19  20
ATOM     20  C   UNL     1      12.459  64.733   5.618  1.00  0.00     0.000 C 
BRANCH  20  21
ATOM     21  C   UNL     1      12.991  63.318   5.890  1.00  0.00     0.000 C 
BRANCH  21  22
ATOM     22  C   UNL     1      12.977  63.009   7.393  1.00  0.00     0.000 C 
BRANCH  22  23
ATOM     23  C   UNL     1      11.789  62.124   7.812  1.00  0.00     0.000 C 
BRANCH  23  24
ATOM     24  C   UNL     1      10.928  62.686   8.963  1.00  0.00    -0.000 C 
BRANCH  24  25
ATOM     25  C   UNL     1       9.689  63.485   8.524  1.00  0.00    -0.000 C 
BRANCH  25  26
ATOM     26  C   UNL     1       9.975  64.984   8.351  1.00  0.00    -0.000 C 
BRANCH  26  27
ATOM     27  C   UNL     1      10.867  65.503   9.489  1.00  0.00    -0.000 C 
BRANCH  27  28
ATOM     28  C   UNL     1      12.114  66.239   8.974  1.00  0.00    -0.000 C 
BRANCH  28  29
ATOM     29  C   UNL     1      11.770  67.539   8.224  1.00  0.00    -0.000 C 
BRANCH  29  30
ATOM     30  C   UNL     1      11.827  68.774   9.149  1.00  0.00    -0.000 C 
BRANCH  30  31
ATOM     31  C   UNL     1      11.039  69.982   8.613  1.00  0.00    -0.003 C 
ATOM     32  C   UNL     1      10.005  70.512   9.604  1.00  0.00     0.004 C 
ENDBRANCH  30  31
ENDBRANCH  29  30
ENDBRANCH  28  29
ENDBRANCH  27  28
ENDBRANCH  26  27
ENDBRANCH  25  26
ENDBRANCH  24  25
ENDBRANCH  23  24
ENDBRANCH  22  23
ENDBRANCH  21  22
ENDBRANCH  20  21
ENDBRANCH  19  20
ENDBRANCH  18  19
ENDBRANCH   1  18
TORSDOF 28
ENDMDL
MODEL 9
REMARK VINA RESULT:    -3.228      1.030      2.444
REMARK INTER + INTRA:         -13.934
REMARK INTER:                  -9.365
REMARK INTRA:                  -4.570
REMARK UNBOUND:                -5.422
REMARK SMILES CCCCCCCCCCCCCCCCCCCCCCCCCCCCCC(=O)[O-]
REMARK SMILES IDX 16 1 17 2 18 3 19 4 20 5 21 6 22 7 23 8 24 9 25 10 26 11
REMARK SMILES IDX 27 12 28 13 29 14 30 15 31 16 32 17 15 18 14 19 13 20 12 21
REMARK SMILES IDX 11 22 10 23 9 24 8 25 7 26 6 27 5 28 4 29 3 30 2 31 1 32
REMARK H PARENT
REMARK Flexibility Score: inf
ROOT
ATOM      1  C   UNL     1      13.385  63.732   7.588  1.00  0.00     0.000 C 
ENDROOT
BRANCH   1   2
ATOM      2  C   UNL     1      13.359  64.935   6.626  1.00  0.00     0.000 C 
BRANCH   2   3
ATOM      3  C   UNL     1      12.512  64.681   5.370  1.00  0.00     0.000 C 
BRANCH   3   4
ATOM      4  C   UNL     1      11.844  65.977   4.881  1.00  0.00     0.000 C 
BRANCH   4   5
ATOM      5  C   UNL     1      11.532  65.947   3.377  1.00  0.00     0.000 C 
BRANCH   5   6
ATOM      6  C   UNL     1      10.031  65.784   3.085  1.00  0.00     0.000 C 
BRANCH   6   7
ATOM      7  C   UNL     1       9.341  67.120   2.764  1.00  0.00     0.000 C 
BRANCH   7   8
ATOM      8  C   UNL     1       8.490  67.639   3.935  1.00  0.00     0.000 C 
BRANCH   8   9
ATOM      9  C   UNL     1       7.028  67.917   3.522  1.00  0.00     0.000 C 
BRANCH   9  10
ATOM     10  C   UNL     1       5.992  67.518   4.592  1.00  0.00     0.000 C 
BRANCH  10  11
ATOM     11  C   UNL     1       5.091  66.330   4.214  1.00  0.00     0.000 C 
BRANCH  11  12
ATOM     12  C   UNL     1       3.697  66.415   4.859  1.00  0.00     0.000 C 
BRANCH  12  13
ATOM     13  C   UNL     1       2.572  66.549   3.820  1.00  0.00     0.006 C 
BRANCH  13  14
ATOM     14  C   UNL     1       3.095  66.882   2.416  1.00  0.00     0.053 C 
BRANCH  14  15
ATOM     15  C   UNL     1       2.875  68.329   2.098  1.00  0.00     0.041 C 
ATOM     16  O   UNL     1       3.677  68.942   1.343  1.00  0.00    -0.550 OA
ATOM     17  O   UNL     1       1.798  69.007   2.654  1.00  0.00    -0.550 OA
ENDBRANCH  14  15
ENDBRANCH  13  14
ENDBRANCH  12  13
ENDBRANCH  11  12
ENDBRANCH  10  11
ENDBRANCH   9  10
ENDBRANCH   8   9
ENDBRANCH   7   8
ENDBRANCH   6   7
ENDBRANCH   5   6
ENDBRANCH   4   5
ENDBRANCH   3   4
ENDBRANCH   2   3
ENDBRANCH   1   2
BRANCH   1  18
ATOM     18  C   UNL     1      12.651  62.477   7.076  1.00  0.00     0.000 C 
BRANCH  18  19
ATOM     19  C   UNL     1      11.510  61.982   7.983  1.00  0.00     0.000 C 
BRANCH  19  20
ATOM     20  C   UNL     1      10.986  63.057   8.959  1.00  0.00     0.000 C 
BRANCH  20  21
ATOM     21  C   UNL     1       9.595  63.577   8.567  1.00  0.00     0.000 C 
BRANCH  21  22
ATOM     22  C   UNL     1       9.679  65.012   8.030  1.00  0.00     0.000 C 
BRANCH  22  23
ATOM     23  C   UNL     1      10.565  65.925   8.896  1.00  0.00     0.000 C 
BRANCH  23  24
ATOM     24  C   UNL     1      10.930  67.281   8.256  1.00  0.00    -0.000 C 
BRANCH  24  25
ATOM     25  C   UNL     1       9.842  67.896   7.358  1.00  0.00    -0.000 C 
BRANCH  25  26
ATOM     26  C   UNL     1       8.837  68.754   8.141  1.00  0.00    -0.000 C 
BRANCH  26  27
ATOM     27  C   UNL     1       7.405  68.231   7.947  1.00  0.00    -0.000 C 
BRANCH  27  28
ATOM     28  C   UNL     1       6.499  68.528   9.151  1.00  0.00    -0.000 C 
BRANCH  28  29
ATOM     29  C   UNL     1       6.645  67.489  10.278  1.00  0.00    -0.000 C 
BRANCH  29  30
ATOM     30  C   UNL     1       6.721  66.047   9.731  1.00  0.00    -0.000 C 
BRANCH  30  31
ATOM     31  C   UNL     1       5.343  65.415   9.470  1.00  0.00    -0.003 C 
ATOM     32  C   UNL     1       5.186  64.880   8.049  1.00  0.00     0.004 C 
ENDBRANCH  30  31
ENDBRANCH  29  30
ENDBRANCH  28  29
ENDBRANCH  27  28
ENDBRANCH  26  27
ENDBRANCH  25  26
ENDBRANCH  24  25
ENDBRANCH  23  24
ENDBRANCH  22  23
ENDBRANCH  21  22
ENDBRANCH  20  21
ENDBRANCH  19  20
ENDBRANCH  18  19
ENDBRANCH   1  18
TORSDOF 28
ENDMDL
