MODEL 1
REMARK VINA RESULT:    -2.835      0.000      0.000
REMARK INTER + INTRA:          -3.703
REMARK INTER:                  -3.497
REMARK INTRA:                  -0.206
REMARK UNBOUND:                -0.206
REMARK SMILES CCCCCC(=O)[O-]
REMARK SMILES IDX 4 1 5 2 6 3 7 4 8 5 3 6 2 7 1 8
REMARK H PARENT
REMARK Flexibility Score: inf
ROOT
ATOM      1  C   UNL     1      24.290  -6.155 -28.905  1.00  0.00     0.006 C 
ENDROOT
BRANCH   1   2
ATOM      2  C   UNL     1      23.772  -6.036 -30.342  1.00  0.00     0.053 C 
BRANCH   2   3
ATOM      3  C   UNL     1      24.828  -5.466 -31.235  1.00  0.00     0.041 C 
ATOM      4  O   UNL     1      24.615  -5.342 -32.469  1.00  0.00    -0.550 OA
ATOM      5  O   UNL     1      26.031  -5.024 -30.695  1.00  0.00    -0.550 OA
ENDBRANCH   2   3
ENDBRANCH   1   2
BRANCH   1   6
ATOM      6  C   UNL     1      24.523  -7.624 -28.525  1.00  0.00     0.000 C 
BRANCH   6   7
ATOM      7  C   UNL     1      25.898  -7.857 -27.881  1.00  0.00    -0.003 C 
ATOM      8  C   UNL     1      27.032  -7.891 -28.904  1.00  0.00     0.004 C 
ENDBRANCH   6   7
ENDBRANCH   1   6
TORSDOF 4
ENDMDL
MODEL 2
REMARK VINA RESULT:    -2.784     15.058     16.183
REMARK INTER + INTRA:          -3.640
REMARK INTER:                  -3.418
REMARK INTRA:                  -0.222
REMARK UNBOUND:                -0.206
REMARK SMILES CCCCCC(=O)[O-]
REMARK SMILES IDX 4 1 5 2 6 3 7 4 8 5 3 6 2 7 1 8
REMARK H PARENT
REMARK Flexibility Score: inf
ROOT
ATOM      1  C   UNL     1      35.680   5.650 -31.753  1.00  0.00     0.006 C 
ENDROOT
BRANCH   1   2
ATOM      2  C   UNL     1      35.662   7.160 -31.499  1.00  0.00     0.053 C 
BRANCH   2   3
ATOM      3  C   UNL     1      34.291   7.610 -31.106  1.00  0.00     0.041 C 
ATOM      4  O   UNL     1      33.571   6.883 -30.372  1.00  0.00    -0.550 OA
ATOM      5  O   UNL     1      33.826   8.856 -31.509  1.00  0.00    -0.550 OA
ENDBRANCH   2   3
ENDBRANCH   1   2
BRANCH   1   6
ATOM      6  C   UNL     1      35.259   5.331 -33.195  1.00  0.00     0.000 C 
BRANCH   6   7
ATOM      7  C   UNL     1      34.286   4.144 -33.277  1.00  0.00    -0.003 C 
ATOM      8  C   UNL     1      32.857   4.523 -32.893  1.00  0.00     0.004 C 
ENDBRANCH   6   7
ENDBRANCH   1   6
TORSDOF 4
ENDMDL
MODEL 3
REMARK VINA RESULT:    -2.752     14.444     15.552
REMARK INTER + INTRA:          -3.602
REMARK INTER:                  -3.386
REMARK INTRA:                  -0.217
REMARK UNBOUND:                -0.206
REMARK SMILES CCCCCC(=O)[O-]
REMARK SMILES IDX 4 1 5 2 6 3 7 4 8 5 3 6 2 7 1 8
REMARK H PARENT
REMARK Flexibility Score: inf
ROOT
ATOM      1  C   UNL     1      35.284   5.216 -31.545  1.00  0.00     0.006 C 
ENDROOT
BRANCH   1   2
ATOM      2  C   UNL     1      35.079   4.899 -33.029  1.00  0.00     0.053 C 
BRANCH   2   3
ATOM      3  C   UNL     1      33.785   4.177 -33.238  1.00  0.00     0.041 C 
ATOM      4  O   UNL     1      32.692   4.755 -33.000  1.00  0.00    -0.550 OA
ATOM      5  O   UNL     1      33.786   2.882 -33.743  1.00  0.00    -0.550 OA
ENDBRANCH   2   3
ENDBRANCH   1   2
BRANCH   1   6
ATOM      6  C   UNL     1      35.735   6.671 -31.352  1.00  0.00     0.000 C 
BRANCH   6   7
ATOM      7  C   UNL     1      34.583   7.675 -31.516  1.00  0.00    -0.003 C 
ATOM      8  C   UNL     1      33.444   7.435 -30.526  1.00  0.00     0.004 C 
ENDBRANCH   6   7
ENDBRANCH   1   6
TORSDOF 4
ENDMDL
MODEL 4
REMARK VINA RESULT:    -2.724     16.143     17.036
REMARK INTER + INTRA:          -3.567
REMARK INTER:                  -3.488
REMARK INTRA:                  -0.079
REMARK UNBOUND:                -0.206
REMARK SMILES CCCCCC(=O)[O-]
REMARK SMILES IDX 4 1 5 2 6 3 7 4 8 5 3 6 2 7 1 8
REMARK H PARENT
REMARK Flexibility Score: inf
ROOT
ATOM      1  C   UNL     1      34.456   7.750 -31.515  1.00  0.00     0.006 C 
ENDROOT
BRANCH   1   2
ATOM      2  C   UNL     1      33.424   8.038 -30.420  1.00  0.00     0.053 C 
BRANCH   2   3
ATOM      3  C   UNL     1      32.858   9.414 -30.582  1.00  0.00     0.041 C 
ATOM      4  O   UNL     1      31.943   9.817 -29.817  1.00  0.00    -0.550 OA
ATOM      5  O   UNL     1      33.377  10.270 -31.547  1.00  0.00    -0.550 OA
ENDBRANCH   2   3
ENDBRANCH   1   2
BRANCH   1   6
ATOM      6  C   UNL     1      35.376   6.589 -31.111  1.00  0.00     0.000 C 
BRANCH   6   7
ATOM      7  C   UNL     1      35.035   5.282 -31.843  1.00  0.00    -0.003 C 
ATOM      8  C   UNL     1      35.236   5.381 -33.354  1.00  0.00     0.004 C 
ENDBRANCH   6   7
ENDBRANCH   1   6
TORSDOF 4
ENDMDL
MODEL 5
REMARK VINA RESULT:    -2.716      2.197      3.261
REMARK INTER + INTRA:          -3.557
REMARK INTER:                  -3.335
REMARK INTRA:                  -0.222
REMARK UNBOUND:                -0.206
REMARK SMILES CCCCCC(=O)[O-]
REMARK SMILES IDX 4 1 5 2 6 3 7 4 8 5 3 6 2 7 1 8
REMARK H PARENT
REMARK Flexibility Score: inf
ROOT
ATOM      1  C   UNL     1      25.323  -7.779 -28.824  1.00  0.00     0.006 C 
ENDROOT
BRANCH   1   2
ATOM      2  C   UNL     1      26.832  -7.997 -28.962  1.00  0.00     0.053 C 
BRANCH   2   3
ATOM      3  C   UNL     1      27.521  -6.708 -29.284  1.00  0.00     0.041 C 
ATOM      4  O   UNL     1      28.778  -6.645 -29.286  1.00  0.00    -0.550 OA
ATOM      5  O   UNL     1      26.773  -5.588 -29.630  1.00  0.00    -0.550 OA
ENDBRANCH   2   3
ENDBRANCH   1   2
BRANCH   1   6
ATOM      6  C   UNL     1      24.859  -8.045 -27.385  1.00  0.00     0.000 C 
BRANCH   6   7
ATOM      7  C   UNL     1      24.673  -6.752 -26.576  1.00  0.00    -0.003 C 
ATOM      8  C   UNL     1      24.021  -5.635 -27.388  1.00  0.00     0.004 C 
ENDBRANCH   6   7
ENDBRANCH   1   6
TORSDOF 4
ENDMDL
MODEL 6
REMARK VINA RESULT:    -2.710      2.807      4.152
REMARK INTER + INTRA:          -3.549
REMARK INTER:                  -3.270
REMARK INTRA:                  -0.279
REMARK UNBOUND:                -0.206
REMARK SMILES CCCCCC(=O)[O-]
REMARK SMILES IDX 4 1 5 2 6 3 7 4 8 5 3 6 2 7 1 8
REMARK H PARENT
REMARK Flexibility Score: inf
ROOT
ATOM      1  C   UNL     1      24.790  -7.912 -28.754  1.00  0.00     0.006 C 
ENDROOT
BRANCH   1   2
ATOM      2  C   UNL     1      24.902  -8.044 -27.232  1.00  0.00     0.053 C 
BRANCH   2   3
ATOM      3  C   UNL     1      24.714  -6.714 -26.575  1.00  0.00     0.041 C 
ATOM      4  O   UNL     1      25.608  -6.247 -25.822  1.00  0.00    -0.550 OA
ATOM      5  O   UNL     1      23.571  -5.966 -26.833  1.00  0.00    -0.550 OA
ENDBRANCH   2   3
ENDBRANCH   1   2
BRANCH   1   6
ATOM      6  C   UNL     1      25.909  -7.019 -29.311  1.00  0.00     0.000 C 
BRANCH   6   7
ATOM      7  C   UNL     1      25.372  -5.872 -30.181  1.00  0.00    -0.003 C 
ATOM      8  C   UNL     1      23.866  -5.965 -30.418  1.00  0.00     0.004 C 
ENDBRANCH   6   7
ENDBRANCH   1   6
TORSDOF 4
ENDMDL
MODEL 7
REMARK VINA RESULT:    -2.693      1.884      2.210
REMARK INTER + INTRA:          -3.528
REMARK INTER:                  -3.320
REMARK INTRA:                  -0.208
REMARK UNBOUND:                -0.206
REMARK SMILES CCCCCC(=O)[O-]
REMARK SMILES IDX 4 1 5 2 6 3 7 4 8 5 3 6 2 7 1 8
REMARK H PARENT
REMARK Flexibility Score: inf
ROOT
ATOM      1  C   UNL     1      25.979  -6.239 -29.547  1.00  0.00     0.006 C 
ENDROOT
BRANCH   1   2
ATOM      2  C   UNL     1      24.687  -5.897 -30.294  1.00  0.00     0.053 C 
BRANCH   2   3
ATOM      3  C   UNL     1      23.975  -4.766 -29.621  1.00  0.00     0.041 C 
ATOM      4  O   UNL     1      23.285  -3.959 -30.298  1.00  0.00    -0.550 OA
ATOM      5  O   UNL     1      24.034  -4.632 -28.239  1.00  0.00    -0.550 OA
ENDBRANCH   2   3
ENDBRANCH   1   2
BRANCH   1   6
ATOM      6  C   UNL     1      25.993  -7.714 -29.121  1.00  0.00     0.000 C 
BRANCH   6   7
ATOM      7  C   UNL     1      24.785  -8.089 -28.249  1.00  0.00    -0.003 C 
ATOM      8  C   UNL     1      25.034  -7.849 -26.760  1.00  0.00     0.004 C 
ENDBRANCH   6   7
ENDBRANCH   1   6
TORSDOF 4
ENDMDL
MODEL 8
REMARK VINA RESULT:    -2.683     14.005     15.169
REMARK INTER + INTRA:          -3.516
REMARK INTER:                  -3.383
REMARK INTRA:                  -0.133
REMARK UNBOUND:                -0.206
REMARK SMILES CCCCCC(=O)[O-]
REMARK SMILES IDX 4 1 5 2 6 3 7 4 8 5 3 6 2 7 1 8
REMARK H PARENT
REMARK Flexibility Score: inf
ROOT
ATOM      1  C   UNL     1      34.678   4.226 -33.128  1.00  0.00     0.006 C 
ENDROOT
BRANCH   1   2
ATOM      2  C   UNL     1      35.163   5.665 -33.325  1.00  0.00     0.053 C 
BRANCH   2   3
ATOM      3  C   UNL     1      35.257   6.371 -32.009  1.00  0.00     0.041 C 
ATOM      4  O   UNL     1      36.013   5.928 -31.105  1.00  0.00    -0.550 OA
ATOM      5  O   UNL     1      34.548   7.548 -31.799  1.00  0.00    -0.550 OA
ENDBRANCH   2   3
ENDBRANCH   1   2
BRANCH   1   6
ATOM      6  C   UNL     1      33.149   4.174 -32.999  1.00  0.00     0.000 C 
BRANCH   6   7
ATOM      7  C   UNL     1      32.533   2.977 -33.740  1.00  0.00    -0.003 C 
ATOM      8  C   UNL     1      33.527   1.835 -33.947  1.00  0.00     0.004 C 
ENDBRANCH   6   7
ENDBRANCH   1   6
TORSDOF 4
ENDMDL
MODEL 9
REMARK VINA RESULT:    -2.639     15.608     16.705
REMARK INTER + INTRA:          -3.462
REMARK INTER:                  -3.349
REMARK INTRA:                  -0.114
REMARK UNBOUND:                -0.206
REMARK SMILES CCCCCC(=O)[O-]
REMARK SMILES IDX 4 1 5 2 6 3 7 4 8 5 3 6 2 7 1 8
REMARK H PARENT
REMARK Flexibility Score: inf
ROOT
ATOM      1  C   UNL     1      34.690   7.658 -31.531  1.00  0.00     0.006 C 
ENDROOT
BRANCH   1   2
ATOM      2  C   UNL     1      35.687   6.496 -31.560  1.00  0.00     0.053 C 
BRANCH   2   3
ATOM      3  C   UNL     1      35.175   5.388 -32.426  1.00  0.00     0.041 C 
ATOM      4  O   UNL     1      34.604   4.392 -31.909  1.00  0.00    -0.550 OA
ATOM      5  O   UNL     1      35.285   5.479 -33.809  1.00  0.00    -0.550 OA
ENDBRANCH   2   3
ENDBRANCH   1   2
BRANCH   1   6
ATOM      6  C   UNL     1      33.650   7.462 -30.418  1.00  0.00     0.000 C 
BRANCH   6   7
ATOM      7  C   UNL     1      32.755   8.695 -30.222  1.00  0.00    -0.003 C 
ATOM      8  C   UNL     1      33.181   9.879 -31.089  1.00  0.00     0.004 C 
ENDBRANCH   6   7
ENDBRANCH   1   6
TORSDOF 4
ENDMDL
