MODEL 1
REMARK VINA RESULT:    -6.035      0.000      0.000
REMARK INTER + INTRA:          -7.736
REMARK INTER:                  -7.270
REMARK INTRA:                  -0.466
REMARK UNBOUND:                -0.466
REMARK SMILES O=c1c(O)c(-c2ccc(O)cc2O)oc2cc(O)cc(O)c12
REMARK SMILES IDX 5 1 3 2 2 3 1 4 22 5 20 6 19 7 17 8 16 9 15 10 14 11 6 12
REMARK SMILES IDX 8 13 7 14 9 15 11 16 12 17 10 18 13 20 4 22 21 24 18 26
REMARK H PARENT 10 19 13 21 4 23 21 25 18 27
REMARK Flexibility Score: inf
ROOT
ATOM      1  C   UNL     1      24.315  30.697 -11.440  1.00  0.00     0.184 A 
ATOM      2  C   UNL     1      24.103  30.599 -12.825  1.00  0.00     0.208 A 
ATOM      3  C   UNL     1      25.213  30.481 -13.677  1.00  0.00     0.238 A 
ATOM      4  O   UNL     1      25.014  30.338 -14.912  1.00  0.00    -0.285 OA
ATOM      5  C   UNL     1      26.521  30.481 -13.134  1.00  0.00     0.111 A 
ATOM      6  C   UNL     1      27.719  30.406 -13.906  1.00  0.00     0.134 A 
ATOM      7  C   UNL     1      28.953  30.285 -13.255  1.00  0.00     0.093 A 
ATOM      8  C   UNL     1      29.037  30.301 -11.862  1.00  0.00     0.123 A 
ATOM      9  C   UNL     1      27.879  30.433 -11.100  1.00  0.00     0.094 A 
ATOM     10  C   UNL     1      26.630  30.520 -11.719  1.00  0.00     0.146 A 
ATOM     11  O   UNL     1      25.550  30.632 -10.956  1.00  0.00    -0.451 OA
ENDROOT
BRANCH   1  12
ATOM     12  C   UNL     1      23.191  30.848 -10.486  1.00  0.00     0.063 A 
ATOM     13  C   UNL     1      21.422  32.205  -9.510  1.00  0.00     0.047 A 
ATOM     14  C   UNL     1      22.464  32.051 -10.428  1.00  0.00     0.020 A 
ATOM     15  C   UNL     1      21.099  31.166  -8.630  1.00  0.00     0.119 A 
ATOM     16  C   UNL     1      21.824  29.972  -8.671  1.00  0.00     0.093 A 
ATOM     17  C   UNL     1      22.871  29.807  -9.591  1.00  0.00     0.130 A 
BRANCH  15  18
ATOM     18  O   UNL     1      20.062  31.310  -7.711  1.00  0.00    -0.508 OA
ATOM     19  H   UNL     1      19.420  32.093  -7.755  1.00  0.00     0.293 HD
ENDBRANCH  15  18
BRANCH  17  20
ATOM     20  O   UNL     1      23.583  28.608  -9.624  1.00  0.00    -0.507 OA
ATOM     21  H   UNL     1      23.815  28.104  -8.777  1.00  0.00     0.293 HD
ENDBRANCH  17  20
ENDBRANCH   1  12
BRANCH   2  22
ATOM     22  O   UNL     1      22.803  30.589 -13.337  1.00  0.00    -0.502 OA
ATOM     23  H   UNL     1      22.548  31.081 -14.185  1.00  0.00     0.293 HD
ENDBRANCH   2  22
BRANCH   6  24
ATOM     24  O   UNL     1      27.754  30.474 -15.302  1.00  0.00    -0.507 OA
ATOM     25  H   UNL     1      28.316  31.122 -15.832  1.00  0.00     0.293 HD
ENDBRANCH   6  24
BRANCH   8  26
ATOM     26  O   UNL     1      30.272  30.195 -11.223  1.00  0.00    -0.508 OA
ATOM     27  H   UNL     1      31.141  30.342 -11.722  1.00  0.00     0.293 HD
ENDBRANCH   8  26
TORSDOF 6
ENDMDL
MODEL 2
REMARK VINA RESULT:    -5.962      5.396      6.853
REMARK INTER + INTRA:          -7.648
REMARK INTER:                  -7.339
REMARK INTRA:                  -0.309
REMARK UNBOUND:                -0.466
REMARK SMILES O=c1c(O)c(-c2ccc(O)cc2O)oc2cc(O)cc(O)c12
REMARK SMILES IDX 5 1 3 2 2 3 1 4 22 5 20 6 19 7 17 8 16 9 15 10 14 11 6 12
REMARK SMILES IDX 8 13 7 14 9 15 11 16 12 17 10 18 13 20 4 22 21 24 18 26
REMARK H PARENT 10 19 13 21 4 23 21 25 18 27
REMARK Flexibility Score: inf
ROOT
ATOM      1  C   UNL     1      26.647  25.490 -12.703  1.00  0.00     0.184 A 
ATOM      2  C   UNL     1      26.344  25.773 -14.045  1.00  0.00     0.208 A 
ATOM      3  C   UNL     1      26.246  27.113 -14.453  1.00  0.00     0.238 A 
ATOM      4  O   UNL     1      26.030  27.360 -15.668  1.00  0.00    -0.285 OA
ATOM      5  C   UNL     1      26.434  28.152 -13.509  1.00  0.00     0.111 A 
ATOM      6  C   UNL     1      26.320  29.543 -13.803  1.00  0.00     0.134 A 
ATOM      7  C   UNL     1      26.652  30.486 -12.822  1.00  0.00     0.093 A 
ATOM      8  C   UNL     1      27.032  30.087 -11.539  1.00  0.00     0.123 A 
ATOM      9  C   UNL     1      27.090  28.732 -11.225  1.00  0.00     0.094 A 
ATOM     10  C   UNL     1      26.799  27.766 -12.193  1.00  0.00     0.146 A 
ATOM     11  O   UNL     1      26.878  26.485 -11.855  1.00  0.00    -0.451 OA
ENDROOT
BRANCH   1  12
ATOM     12  C   UNL     1      26.741  24.099 -12.199  1.00  0.00     0.063 A 
ATOM     13  C   UNL     1      25.897  22.307 -10.785  1.00  0.00     0.047 A 
ATOM     14  C   UNL     1      25.793  23.608 -11.282  1.00  0.00     0.020 A 
ATOM     15  C   UNL     1      26.954  21.481 -11.187  1.00  0.00     0.119 A 
ATOM     16  C   UNL     1      27.907  21.965 -12.086  1.00  0.00     0.093 A 
ATOM     17  C   UNL     1      27.811  23.270 -12.593  1.00  0.00     0.130 A 
BRANCH  15  18
ATOM     18  O   UNL     1      27.066  20.183 -10.696  1.00  0.00    -0.508 OA
ATOM     19  H   UNL     1      27.827  19.912 -10.085  1.00  0.00     0.293 HD
ENDBRANCH  15  18
BRANCH  17  20
ATOM     20  O   UNL     1      28.767  23.736 -13.495  1.00  0.00    -0.507 OA
ATOM     21  H   UNL     1      29.299  24.580 -13.317  1.00  0.00     0.293 HD
ENDBRANCH  17  20
ENDBRANCH   1  12
BRANCH   2  22
ATOM     22  O   UNL     1      26.175  24.731 -14.960  1.00  0.00    -0.502 OA
ATOM     23  H   UNL     1      26.337  24.847 -15.954  1.00  0.00     0.293 HD
ENDBRANCH   2  22
BRANCH   6  24
ATOM     24  O   UNL     1      25.862  30.049 -15.024  1.00  0.00    -0.507 OA
ATOM     25  H   UNL     1      26.151  30.927 -15.427  1.00  0.00     0.293 HD
ENDBRANCH   6  24
BRANCH   8  26
ATOM     26  O   UNL     1      27.346  31.032 -10.564  1.00  0.00    -0.508 OA
ATOM     27  H   UNL     1      28.057  31.738 -10.720  1.00  0.00     0.293 HD
ENDBRANCH   8  26
TORSDOF 6
ENDMDL
MODEL 3
REMARK VINA RESULT:    -5.852      3.411      6.709
REMARK INTER + INTRA:          -7.515
REMARK INTER:                  -7.081
REMARK INTRA:                  -0.434
REMARK UNBOUND:                -0.466
REMARK SMILES O=c1c(O)c(-c2ccc(O)cc2O)oc2cc(O)cc(O)c12
REMARK SMILES IDX 5 1 3 2 2 3 1 4 22 5 20 6 19 7 17 8 16 9 15 10 14 11 6 12
REMARK SMILES IDX 8 13 7 14 9 15 11 16 12 17 10 18 13 20 4 22 21 24 18 26
REMARK H PARENT 10 19 13 21 4 23 21 25 18 27
REMARK Flexibility Score: inf
ROOT
ATOM      1  C   UNL     1      25.690  28.950 -13.763  1.00  0.00     0.184 A 
ATOM      2  C   UNL     1      25.566  27.724 -14.437  1.00  0.00     0.208 A 
ATOM      3  C   UNL     1      24.344  27.406 -15.052  1.00  0.00     0.238 A 
ATOM      4  O   UNL     1      24.257  26.331 -15.702  1.00  0.00    -0.285 OA
ATOM      5  C   UNL     1      23.258  28.310 -14.969  1.00  0.00     0.111 A 
ATOM      6  C   UNL     1      21.963  28.074 -15.521  1.00  0.00     0.134 A 
ATOM      7  C   UNL     1      21.002  29.092 -15.488  1.00  0.00     0.093 A 
ATOM      8  C   UNL     1      21.269  30.314 -14.867  1.00  0.00     0.123 A 
ATOM      9  C   UNL     1      22.509  30.533 -14.274  1.00  0.00     0.094 A 
ATOM     10  C   UNL     1      23.501  29.550 -14.321  1.00  0.00     0.146 A 
ATOM     11  O   UNL     1      24.674  29.803 -13.753  1.00  0.00    -0.451 OA
ENDROOT
BRANCH   1  12
ATOM     12  C   UNL     1      26.942  29.338 -13.071  1.00  0.00     0.063 A 
ATOM     13  C   UNL     1      28.326  29.358 -11.069  1.00  0.00     0.047 A 
ATOM     14  C   UNL     1      27.159  28.969 -11.731  1.00  0.00     0.020 A 
ATOM     15  C   UNL     1      29.288  30.130 -11.731  1.00  0.00     0.119 A 
ATOM     16  C   UNL     1      29.075  30.512 -13.058  1.00  0.00     0.093 A 
ATOM     17  C   UNL     1      27.907  30.124 -13.732  1.00  0.00     0.130 A 
BRANCH  15  18
ATOM     18  O   UNL     1      30.455  30.523 -11.080  1.00  0.00    -0.508 OA
ATOM     19  H   UNL     1      30.759  31.489 -11.077  1.00  0.00     0.293 HD
ENDBRANCH  15  18
BRANCH  17  20
ATOM     20  O   UNL     1      27.712  30.509 -15.059  1.00  0.00    -0.507 OA
ATOM     21  H   UNL     1      27.116  29.979 -15.684  1.00  0.00     0.293 HD
ENDBRANCH  17  20
ENDBRANCH   1  12
BRANCH   2  22
ATOM     22  O   UNL     1      26.656  26.853 -14.516  1.00  0.00    -0.502 OA
ATOM     23  H   UNL     1      26.549  25.846 -14.531  1.00  0.00     0.293 HD
ENDBRANCH   2  22
BRANCH   6  24
ATOM     24  O   UNL     1      21.564  26.857 -16.083  1.00  0.00    -0.507 OA
ATOM     25  H   UNL     1      20.638  26.662 -16.432  1.00  0.00     0.293 HD
ENDBRANCH   6  24
BRANCH   8  26
ATOM     26  O   UNL     1      20.302  31.317 -14.826  1.00  0.00    -0.508 OA
ATOM     27  H   UNL     1      19.313  31.103 -14.899  1.00  0.00     0.293 HD
ENDBRANCH   8  26
TORSDOF 6
ENDMDL
MODEL 4
REMARK VINA RESULT:    -5.723      3.069      4.367
REMARK INTER + INTRA:          -7.359
REMARK INTER:                  -6.889
REMARK INTRA:                  -0.470
REMARK UNBOUND:                -0.466
REMARK SMILES O=c1c(O)c(-c2ccc(O)cc2O)oc2cc(O)cc(O)c12
REMARK SMILES IDX 5 1 3 2 2 3 1 4 22 5 20 6 19 7 17 8 16 9 15 10 14 11 6 12
REMARK SMILES IDX 8 13 7 14 9 15 11 16 12 17 10 18 13 20 4 22 21 24 18 26
REMARK H PARENT 10 19 13 21 4 23 21 25 18 27
REMARK Flexibility Score: inf
ROOT
ATOM      1  C   UNL     1      25.213  30.074 -13.389  1.00  0.00     0.184 A 
ATOM      2  C   UNL     1      26.427  30.459 -13.981  1.00  0.00     0.208 A 
ATOM      3  C   UNL     1      27.607  30.383 -13.224  1.00  0.00     0.238 A 
ATOM      4  O   UNL     1      28.699  30.676 -13.777  1.00  0.00    -0.285 OA
ATOM      5  C   UNL     1      27.554  29.943 -11.879  1.00  0.00     0.111 A 
ATOM      6  C   UNL     1      28.681  29.864 -11.007  1.00  0.00     0.134 A 
ATOM      7  C   UNL     1      28.533  29.293  -9.737  1.00  0.00     0.093 A 
ATOM      8  C   UNL     1      27.286  28.857  -9.284  1.00  0.00     0.123 A 
ATOM      9  C   UNL     1      26.169  28.983 -10.105  1.00  0.00     0.094 A 
ATOM     10  C   UNL     1      26.291  29.516 -11.392  1.00  0.00     0.146 A 
ATOM     11  O   UNL     1      25.203  29.607 -12.147  1.00  0.00    -0.451 OA
ENDROOT
BRANCH   1  12
ATOM     12  C   UNL     1      23.927  30.151 -14.123  1.00  0.00     0.063 A 
ATOM     13  C   UNL     1      21.992  31.432 -14.858  1.00  0.00     0.047 A 
ATOM     14  C   UNL     1      23.218  31.364 -14.190  1.00  0.00     0.020 A 
ATOM     15  C   UNL     1      21.452  30.288 -15.456  1.00  0.00     0.119 A 
ATOM     16  C   UNL     1      22.142  29.075 -15.382  1.00  0.00     0.093 A 
ATOM     17  C   UNL     1      23.375  28.998 -14.717  1.00  0.00     0.130 A 
BRANCH  15  18
ATOM     18  O   UNL     1      20.230  30.344 -16.123  1.00  0.00    -0.508 OA
ATOM     19  H   UNL     1      19.885  31.209 -16.523  1.00  0.00     0.293 HD
ENDBRANCH  15  18
BRANCH  17  20
ATOM     20  O   UNL     1      24.056  27.781 -14.657  1.00  0.00    -0.507 OA
ATOM     21  H   UNL     1      24.194  27.208 -15.480  1.00  0.00     0.293 HD
ENDBRANCH  17  20
ENDBRANCH   1  12
BRANCH   2  22
ATOM     22  O   UNL     1      26.456  30.878 -15.314  1.00  0.00    -0.502 OA
ATOM     23  H   UNL     1      25.614  31.074 -15.841  1.00  0.00     0.293 HD
ENDBRANCH   2  22
BRANCH   6  24
ATOM     24  O   UNL     1      29.951  30.354 -11.327  1.00  0.00    -0.507 OA
ATOM     25  H   UNL     1      30.561  29.958 -12.026  1.00  0.00     0.293 HD
ENDBRANCH   6  24
BRANCH   8  26
ATOM     26  O   UNL     1      27.145  28.304  -8.013  1.00  0.00    -0.508 OA
ATOM     27  H   UNL     1      27.947  27.986  -7.481  1.00  0.00     0.293 HD
ENDBRANCH   8  26
TORSDOF 6
ENDMDL
MODEL 5
REMARK VINA RESULT:    -5.666      1.311      1.856
REMARK INTER + INTRA:          -7.291
REMARK INTER:                  -6.897
REMARK INTRA:                  -0.393
REMARK UNBOUND:                -0.466
REMARK SMILES O=c1c(O)c(-c2ccc(O)cc2O)oc2cc(O)cc(O)c12
REMARK SMILES IDX 5 1 3 2 2 3 1 4 22 5 20 6 19 7 17 8 16 9 15 10 14 11 6 12
REMARK SMILES IDX 8 13 7 14 9 15 11 16 12 17 10 18 13 20 4 22 21 24 18 26
REMARK H PARENT 10 19 13 21 4 23 21 25 18 27
REMARK Flexibility Score: inf
ROOT
ATOM      1  C   UNL     1      24.439  29.543 -11.007  1.00  0.00     0.184 A 
ATOM      2  C   UNL     1      24.079  29.708 -12.355  1.00  0.00     0.208 A 
ATOM      3  C   UNL     1      25.079  30.002 -13.295  1.00  0.00     0.238 A 
ATOM      4  O   UNL     1      24.759  30.092 -14.509  1.00  0.00    -0.285 OA
ATOM      5  C   UNL     1      26.423  30.147 -12.872  1.00  0.00     0.111 A 
ATOM      6  C   UNL     1      27.511  30.483 -13.732  1.00  0.00     0.134 A 
ATOM      7  C   UNL     1      28.818  30.475 -13.228  1.00  0.00     0.093 A 
ATOM      8  C   UNL     1      29.068  30.206 -11.881  1.00  0.00     0.123 A 
ATOM      9  C   UNL     1      28.007  29.934 -11.021  1.00  0.00     0.094 A 
ATOM     10  C   UNL     1      26.696  29.900 -11.501  1.00  0.00     0.146 A 
ATOM     11  O   UNL     1      25.715  29.625 -10.650  1.00  0.00    -0.451 OA
ENDROOT
BRANCH   1  12
ATOM     12  C   UNL     1      23.432  29.255  -9.958  1.00  0.00     0.063 A 
ATOM     13  C   UNL     1      22.175  27.652  -8.626  1.00  0.00     0.047 A 
ATOM     14  C   UNL     1      23.143  27.927  -9.594  1.00  0.00     0.020 A 
ATOM     15  C   UNL     1      21.472  28.698  -8.016  1.00  0.00     0.119 A 
ATOM     16  C   UNL     1      21.742  30.019  -8.381  1.00  0.00     0.093 A 
ATOM     17  C   UNL     1      22.715  30.306  -9.350  1.00  0.00     0.130 A 
BRANCH  15  18
ATOM     18  O   UNL     1      20.504  28.435  -7.050  1.00  0.00    -0.508 OA
ATOM     19  H   UNL     1      19.576  28.116  -7.303  1.00  0.00     0.293 HD
ENDBRANCH  15  18
BRANCH  17  20
ATOM     20  O   UNL     1      22.978  31.630  -9.700  1.00  0.00    -0.507 OA
ATOM     21  H   UNL     1      22.690  32.403  -9.111  1.00  0.00     0.293 HD
ENDBRANCH  17  20
ENDBRANCH   1  12
BRANCH   2  22
ATOM     22  O   UNL     1      22.748  29.547 -12.750  1.00  0.00    -0.502 OA
ATOM     23  H   UNL     1      22.006  30.153 -12.422  1.00  0.00     0.293 HD
ENDBRANCH   2  22
BRANCH   6  24
ATOM     24  O   UNL     1      27.362  30.857 -15.071  1.00  0.00    -0.507 OA
ATOM     25  H   UNL     1      26.930  30.287 -15.783  1.00  0.00     0.293 HD
ENDBRANCH   6  24
BRANCH   8  26
ATOM     26  O   UNL     1      30.370  30.215 -11.384  1.00  0.00    -0.508 OA
ATOM     27  H   UNL     1      30.560  30.344 -10.397  1.00  0.00     0.293 HD
ENDBRANCH   8  26
TORSDOF 6
ENDMDL
MODEL 6
REMARK VINA RESULT:    -5.628      3.648      6.186
REMARK INTER + INTRA:          -7.246
REMARK INTER:                  -6.995
REMARK INTRA:                  -0.251
REMARK UNBOUND:                -0.466
REMARK SMILES O=c1c(O)c(-c2ccc(O)cc2O)oc2cc(O)cc(O)c12
REMARK SMILES IDX 5 1 3 2 2 3 1 4 22 5 20 6 19 7 17 8 16 9 15 10 14 11 6 12
REMARK SMILES IDX 8 13 7 14 9 15 11 16 12 17 10 18 13 20 4 22 21 24 18 26
REMARK H PARENT 10 19 13 21 4 23 21 25 18 27
REMARK Flexibility Score: inf
ROOT
ATOM      1  C   UNL     1      25.839  27.986 -12.904  1.00  0.00     0.184 A 
ATOM      2  C   UNL     1      26.875  28.900 -13.159  1.00  0.00     0.208 A 
ATOM      3  C   UNL     1      26.564  30.135 -13.749  1.00  0.00     0.238 A 
ATOM      4  O   UNL     1      27.488  30.971 -13.924  1.00  0.00    -0.285 OA
ATOM      5  C   UNL     1      25.223  30.433 -14.092  1.00  0.00     0.111 A 
ATOM      6  C   UNL     1      24.798  31.638 -14.729  1.00  0.00     0.134 A 
ATOM      7  C   UNL     1      23.430  31.880 -14.907  1.00  0.00     0.093 A 
ATOM      8  C   UNL     1      22.476  30.933 -14.528  1.00  0.00     0.123 A 
ATOM      9  C   UNL     1      22.884  29.729 -13.959  1.00  0.00     0.094 A 
ATOM     10  C   UNL     1      24.239  29.473 -13.736  1.00  0.00     0.146 A 
ATOM     11  O   UNL     1      24.584  28.318 -13.181  1.00  0.00    -0.451 OA
ENDROOT
BRANCH   1  12
ATOM     12  C   UNL     1      26.100  26.655 -12.306  1.00  0.00     0.063 A 
ATOM     13  C   UNL     1      25.901  25.107 -10.438  1.00  0.00     0.047 A 
ATOM     14  C   UNL     1      25.633  26.352 -11.014  1.00  0.00     0.020 A 
ATOM     15  C   UNL     1      26.650  24.154 -11.138  1.00  0.00     0.119 A 
ATOM     16  C   UNL     1      27.129  24.452 -12.416  1.00  0.00     0.093 A 
ATOM     17  C   UNL     1      26.862  25.698 -13.004  1.00  0.00     0.130 A 
BRANCH  15  18
ATOM     18  O   UNL     1      26.923  22.911 -10.572  1.00  0.00    -0.508 OA
ATOM     19  H   UNL     1      27.558  22.256 -11.015  1.00  0.00     0.293 HD
ENDBRANCH  15  18
BRANCH  17  20
ATOM     20  O   UNL     1      27.343  25.978 -14.284  1.00  0.00    -0.507 OA
ATOM     21  H   UNL     1      26.802  26.520 -14.948  1.00  0.00     0.293 HD
ENDBRANCH  17  20
ENDBRANCH   1  12
BRANCH   2  22
ATOM     22  O   UNL     1      28.189  28.588 -12.799  1.00  0.00    -0.502 OA
ATOM     23  H   UNL     1      28.703  27.824 -13.222  1.00  0.00     0.293 HD
ENDBRANCH   2  22
BRANCH   6  24
ATOM     24  O   UNL     1      25.673  32.608 -15.228  1.00  0.00    -0.507 OA
ATOM     25  H   UNL     1      26.542  32.877 -14.792  1.00  0.00     0.293 HD
ENDBRANCH   6  24
BRANCH   8  26
ATOM     26  O   UNL     1      21.117  31.176 -14.722  1.00  0.00    -0.508 OA
ATOM     27  H   UNL     1      20.581  30.662 -15.412  1.00  0.00     0.293 HD
ENDBRANCH   8  26
TORSDOF 6
ENDMDL
MODEL 7
REMARK VINA RESULT:    -5.512      4.555      6.713
REMARK INTER + INTRA:          -7.106
REMARK INTER:                  -6.729
REMARK INTRA:                  -0.377
REMARK UNBOUND:                -0.466
REMARK SMILES O=c1c(O)c(-c2ccc(O)cc2O)oc2cc(O)cc(O)c12
REMARK SMILES IDX 5 1 3 2 2 3 1 4 22 5 20 6 19 7 17 8 16 9 15 10 14 11 6 12
REMARK SMILES IDX 8 13 7 14 9 15 11 16 12 17 10 18 13 20 4 22 21 24 18 26
REMARK H PARENT 10 19 13 21 4 23 21 25 18 27
REMARK Flexibility Score: inf
ROOT
ATOM      1  C   UNL     1      26.307  27.141 -12.605  1.00  0.00     0.184 A 
ATOM      2  C   UNL     1      26.903  26.059 -13.274  1.00  0.00     0.208 A 
ATOM      3  C   UNL     1      27.011  24.825 -12.613  1.00  0.00     0.238 A 
ATOM      4  O   UNL     1      27.494  23.845 -13.238  1.00  0.00    -0.285 OA
ATOM      5  C   UNL     1      26.539  24.695 -11.284  1.00  0.00     0.111 A 
ATOM      6  C   UNL     1      26.632  23.503 -10.505  1.00  0.00     0.134 A 
ATOM      7  C   UNL     1      26.018  23.450  -9.247  1.00  0.00     0.093 A 
ATOM      8  C   UNL     1      25.368  24.566  -8.716  1.00  0.00     0.123 A 
ATOM      9  C   UNL     1      25.322  25.752  -9.444  1.00  0.00     0.094 A 
ATOM     10  C   UNL     1      25.895  25.825 -10.716  1.00  0.00     0.146 A 
ATOM     11  O   UNL     1      25.819  26.971 -11.382  1.00  0.00    -0.451 OA
ENDROOT
BRANCH   1  12
ATOM     12  C   UNL     1      26.182  28.477 -13.234  1.00  0.00     0.063 A 
ATOM     13  C   UNL     1      24.884  30.095 -14.508  1.00  0.00     0.047 A 
ATOM     14  C   UNL     1      24.993  28.846 -13.890  1.00  0.00     0.020 A 
ATOM     15  C   UNL     1      25.962  30.987 -14.489  1.00  0.00     0.119 A 
ATOM     16  C   UNL     1      27.151  30.623 -13.851  1.00  0.00     0.093 A 
ATOM     17  C   UNL     1      27.270  29.373 -13.226  1.00  0.00     0.130 A 
BRANCH  15  18
ATOM     18  O   UNL     1      25.863  32.233 -15.103  1.00  0.00    -0.508 OA
ATOM     19  H   UNL     1      26.549  32.961 -14.937  1.00  0.00     0.293 HD
ENDBRANCH  15  18
BRANCH  17  20
ATOM     20  O   UNL     1      28.461  29.026 -12.588  1.00  0.00    -0.507 OA
ATOM     21  H   UNL     1      29.055  28.283 -12.937  1.00  0.00     0.293 HD
ENDBRANCH  17  20
ENDBRANCH   1  12
BRANCH   2  22
ATOM     22  O   UNL     1      27.349  26.209 -14.590  1.00  0.00    -0.502 OA
ATOM     23  H   UNL     1      28.314  26.418 -14.817  1.00  0.00     0.293 HD
ENDBRANCH   2  22
BRANCH   6  24
ATOM     24  O   UNL     1      27.335  22.362 -10.904  1.00  0.00    -0.507 OA
ATOM     25  H   UNL     1      27.409  21.514 -10.363  1.00  0.00     0.293 HD
ENDBRANCH   6  24
BRANCH   8  26
ATOM     26  O   UNL     1      24.773  24.510  -7.457  1.00  0.00    -0.508 OA
ATOM     27  H   UNL     1      25.284  24.187  -6.643  1.00  0.00     0.293 HD
ENDBRANCH   8  26
TORSDOF 6
ENDMDL
MODEL 8
REMARK VINA RESULT:    -5.446      4.784      6.053
REMARK INTER + INTRA:          -7.026
REMARK INTER:                  -6.568
REMARK INTRA:                  -0.457
REMARK UNBOUND:                -0.466
REMARK SMILES O=c1c(O)c(-c2ccc(O)cc2O)oc2cc(O)cc(O)c12
REMARK SMILES IDX 5 1 3 2 2 3 1 4 22 5 20 6 19 7 17 8 16 9 15 10 14 11 6 12
REMARK SMILES IDX 8 13 7 14 9 15 11 16 12 17 10 18 13 20 4 22 21 24 18 26
REMARK H PARENT 10 19 13 21 4 23 21 25 18 27
REMARK Flexibility Score: inf
ROOT
ATOM      1  C   UNL     1      25.745  26.307 -13.809  1.00  0.00     0.184 A 
ATOM      2  C   UNL     1      25.353  27.038 -14.943  1.00  0.00     0.208 A 
ATOM      3  C   UNL     1      25.783  28.368 -15.078  1.00  0.00     0.238 A 
ATOM      4  O   UNL     1      25.475  29.000 -16.122  1.00  0.00    -0.285 OA
ATOM      5  C   UNL     1      26.585  28.955 -14.068  1.00  0.00     0.111 A 
ATOM      6  C   UNL     1      27.045  30.306 -14.083  1.00  0.00     0.134 A 
ATOM      7  C   UNL     1      27.937  30.741 -13.095  1.00  0.00     0.093 A 
ATOM      8  C   UNL     1      28.334  29.894 -12.058  1.00  0.00     0.123 A 
ATOM      9  C   UNL     1      27.844  28.592 -12.003  1.00  0.00     0.094 A 
ATOM     10  C   UNL     1      26.981  28.116 -12.994  1.00  0.00     0.146 A 
ATOM     11  O   UNL     1      26.547  26.865 -12.910  1.00  0.00    -0.451 OA
ENDROOT
BRANCH   1  12
ATOM     12  C   UNL     1      25.307  24.908 -13.591  1.00  0.00     0.063 A 
ATOM     13  C   UNL     1      23.550  23.304 -13.078  1.00  0.00     0.047 A 
ATOM     14  C   UNL     1      23.959  24.620 -13.311  1.00  0.00     0.020 A 
ATOM     15  C   UNL     1      24.482  22.261 -13.110  1.00  0.00     0.119 A 
ATOM     16  C   UNL     1      25.825  22.539 -13.375  1.00  0.00     0.093 A 
ATOM     17  C   UNL     1      26.246  23.857 -13.613  1.00  0.00     0.130 A 
BRANCH  15  18
ATOM     18  O   UNL     1      24.084  20.946 -12.879  1.00  0.00    -0.508 OA
ATOM     19  H   UNL     1      24.407  20.184 -13.464  1.00  0.00     0.293 HD
ENDBRANCH  15  18
BRANCH  17  20
ATOM     20  O   UNL     1      27.589  24.118 -13.881  1.00  0.00    -0.507 OA
ATOM     21  H   UNL     1      28.085  23.643 -14.626  1.00  0.00     0.293 HD
ENDBRANCH  17  20
ENDBRANCH   1  12
BRANCH   2  22
ATOM     22  O   UNL     1      24.572  26.434 -15.932  1.00  0.00    -0.502 OA
ATOM     23  H   UNL     1      23.687  25.985 -15.728  1.00  0.00     0.293 HD
ENDBRANCH   2  22
BRANCH   6  24
ATOM     24  O   UNL     1      26.638  31.260 -15.020  1.00  0.00    -0.507 OA
ATOM     25  H   UNL     1      27.039  32.180 -15.115  1.00  0.00     0.293 HD
ENDBRANCH   6  24
BRANCH   8  26
ATOM     26  O   UNL     1      29.210  30.341 -11.071  1.00  0.00    -0.508 OA
ATOM     27  H   UNL     1      28.874  30.674 -10.175  1.00  0.00     0.293 HD
ENDBRANCH   8  26
TORSDOF 6
ENDMDL
MODEL 9
REMARK VINA RESULT:    -4.425      3.349      6.508
REMARK INTER + INTRA:          -5.796
REMARK INTER:                  -5.391
REMARK INTRA:                  -0.405
REMARK UNBOUND:                -0.466
REMARK SMILES O=c1c(O)c(-c2ccc(O)cc2O)oc2cc(O)cc(O)c12
REMARK SMILES IDX 5 1 3 2 2 3 1 4 22 5 20 6 19 7 17 8 16 9 15 10 14 11 6 12
REMARK SMILES IDX 8 13 7 14 9 15 11 16 12 17 10 18 13 20 4 22 21 24 18 26
REMARK H PARENT 10 19 13 21 4 23 21 25 18 27
REMARK Flexibility Score: inf
ROOT
ATOM      1  C   UNL     1      25.388  30.020 -13.623  1.00  0.00     0.184 A 
ATOM      2  C   UNL     1      24.593  31.173 -13.739  1.00  0.00     0.208 A 
ATOM      3  C   UNL     1      23.346  31.079 -14.379  1.00  0.00     0.238 A 
ATOM      4  O   UNL     1      22.615  32.102 -14.429  1.00  0.00    -0.285 OA
ATOM      5  C   UNL     1      22.921  29.838 -14.912  1.00  0.00     0.111 A 
ATOM      6  C   UNL     1      21.695  29.636 -15.615  1.00  0.00     0.134 A 
ATOM      7  C   UNL     1      21.318  28.340 -15.987  1.00  0.00     0.093 A 
ATOM      8  C   UNL     1      22.152  27.248 -15.738  1.00  0.00     0.123 A 
ATOM      9  C   UNL     1      23.376  27.442 -15.105  1.00  0.00     0.094 A 
ATOM     10  C   UNL     1      23.765  28.719 -14.690  1.00  0.00     0.146 A 
ATOM     11  O   UNL     1      24.935  28.859 -14.079  1.00  0.00    -0.451 OA
ENDROOT
BRANCH   1  12
ATOM     12  C   UNL     1      26.723  30.053 -12.981  1.00  0.00     0.063 A 
ATOM     13  C   UNL     1      28.105  29.917 -10.982  1.00  0.00     0.047 A 
ATOM     14  C   UNL     1      26.850  29.859 -11.593  1.00  0.00     0.020 A 
ATOM     15  C   UNL     1      29.249  30.181 -11.745  1.00  0.00     0.119 A 
ATOM     16  C   UNL     1      29.131  30.388 -13.122  1.00  0.00     0.093 A 
ATOM     17  C   UNL     1      27.875  30.329 -13.745  1.00  0.00     0.130 A 
BRANCH  15  18
ATOM     18  O   UNL     1      30.504  30.241 -11.145  1.00  0.00    -0.508 OA
ATOM     19  H   UNL     1      31.355  30.149 -11.687  1.00  0.00     0.293 HD
ENDBRANCH  15  18
BRANCH  17  20
ATOM     20  O   UNL     1      27.773  30.533 -15.122  1.00  0.00    -0.507 OA
ATOM     21  H   UNL     1      28.527  30.950 -15.654  1.00  0.00     0.293 HD
ENDBRANCH  17  20
ENDBRANCH   1  12
BRANCH   2  22
ATOM     22  O   UNL     1      25.029  32.383 -13.193  1.00  0.00    -0.502 OA
ATOM     23  H   UNL     1      24.586  33.269 -13.410  1.00  0.00     0.293 HD
ENDBRANCH   2  22
BRANCH   6  24
ATOM     24  O   UNL     1      20.833  30.670 -15.995  1.00  0.00    -0.507 OA
ATOM     25  H   UNL     1      19.828  30.596 -16.030  1.00  0.00     0.293 HD
ENDBRANCH   6  24
BRANCH   8  26
ATOM     26  O   UNL     1      21.775  25.963 -16.125  1.00  0.00    -0.508 OA
ATOM     27  H   UNL     1      22.443  25.201 -16.154  1.00  0.00     0.293 HD
ENDBRANCH   8  26
TORSDOF 6
ENDMDL
