MODEL 1
REMARK VINA RESULT:    -4.604      0.000      0.000
REMARK INTER + INTRA:          -5.056
REMARK INTER:                  -4.873
REMARK INTRA:                  -0.183
REMARK UNBOUND:                -0.183
REMARK SMILES C=C1CC=C(C(C)C)CC1
REMARK SMILES IDX 5 1 4 2 3 3 2 4 1 5 10 6 9 7 6 8 7 9 8 10
REMARK H PARENT
REMARK Flexibility Score: inf
ROOT
ATOM      1  C   UNL     1      29.183  26.004  11.518  1.00  0.00    -0.071 C 
ATOM      2  C   UNL     1      28.137  25.428  12.150  1.00  0.00    -0.023 C 
ATOM      3  C   UNL     1      28.111  23.948  12.430  1.00  0.00     0.057 C 
ATOM      4  C   UNL     1      29.499  23.432  12.753  1.00  0.00    -0.073 C 
ATOM      5  C   UNL     1      29.651  22.343  13.516  1.00  0.00     0.008 C 
ATOM      6  C   UNL     1      30.718  24.129  12.183  1.00  0.00     0.035 C 
ATOM      7  C   UNL     1      30.335  25.125  11.079  1.00  0.00     0.035 C 
ENDROOT
BRANCH   1   8
ATOM      8  C   UNL     1      29.231  27.503  11.269  1.00  0.00     0.008 C 
ATOM      9  C   UNL     1      30.402  28.152  12.016  1.00  0.00     0.012 C 
ATOM     10  C   UNL     1      27.901  28.172  11.636  1.00  0.00     0.012 C 
ENDBRANCH   1   8
TORSDOF 1
ENDMDL
MODEL 2
REMARK VINA RESULT:    -4.530      1.020      4.328
REMARK INTER + INTRA:          -4.978
REMARK INTER:                  -4.841
REMARK INTRA:                  -0.138
REMARK UNBOUND:                -0.183
REMARK SMILES C=C1CC=C(C(C)C)CC1
REMARK SMILES IDX 5 1 4 2 3 3 2 4 1 5 10 6 9 7 6 8 7 9 8 10
REMARK H PARENT
REMARK Flexibility Score: inf
ROOT
ATOM      1  C   UNL     1      28.680  25.726  11.888  1.00  0.00    -0.071 C 
ATOM      2  C   UNL     1      29.889  25.697  11.285  1.00  0.00    -0.023 C 
ATOM      3  C   UNL     1      30.453  26.917  10.603  1.00  0.00     0.057 C 
ATOM      4  C   UNL     1      30.067  28.180  11.345  1.00  0.00    -0.073 C 
ATOM      5  C   UNL     1      30.839  29.271  11.262  1.00  0.00     0.008 C 
ATOM      6  C   UNL     1      28.787  28.222  12.157  1.00  0.00     0.035 C 
ATOM      7  C   UNL     1      27.887  27.016  11.854  1.00  0.00     0.035 C 
ENDROOT
BRANCH   1   8
ATOM      8  C   UNL     1      28.125  24.509  12.611  1.00  0.00     0.008 C 
ATOM      9  C   UNL     1      29.236  23.507  12.945  1.00  0.00     0.012 C 
ATOM     10  C   UNL     1      27.004  23.844  11.802  1.00  0.00     0.012 C 
ENDBRANCH   1   8
TORSDOF 1
ENDMDL
MODEL 3
REMARK VINA RESULT:    -4.396      1.093      4.359
REMARK INTER + INTRA:          -4.836
REMARK INTER:                  -4.650
REMARK INTRA:                  -0.186
REMARK UNBOUND:                -0.183
REMARK SMILES C=C1CC=C(C(C)C)CC1
REMARK SMILES IDX 5 1 4 2 3 3 2 4 1 5 10 6 9 7 6 8 7 9 8 10
REMARK H PARENT
REMARK Flexibility Score: inf
ROOT
ATOM      1  C   UNL     1      30.147  24.518  12.275  1.00  0.00    -0.071 C 
ATOM      2  C   UNL     1      30.808  25.692  12.176  1.00  0.00    -0.023 C 
ATOM      3  C   UNL     1      30.188  26.882  11.490  1.00  0.00     0.057 C 
ATOM      4  C   UNL     1      28.694  26.934  11.738  1.00  0.00    -0.073 C 
ATOM      5  C   UNL     1      28.046  28.106  11.698  1.00  0.00     0.008 C 
ATOM      6  C   UNL     1      27.923  25.655  11.997  1.00  0.00     0.035 C 
ATOM      7  C   UNL     1      28.764  24.413  11.668  1.00  0.00     0.035 C 
ENDROOT
BRANCH   1   8
ATOM      8  C   UNL     1      30.752  23.326  13.001  1.00  0.00     0.008 C 
ATOM      9  C   UNL     1      29.662  22.389  13.532  1.00  0.00     0.012 C 
ATOM     10  C   UNL     1      31.692  23.777  14.126  1.00  0.00     0.012 C 
ENDBRANCH   1   8
TORSDOF 1
ENDMDL
MODEL 4
REMARK VINA RESULT:    -4.384      1.532      3.312
REMARK INTER + INTRA:          -4.824
REMARK INTER:                  -4.660
REMARK INTRA:                  -0.164
REMARK UNBOUND:                -0.183
REMARK SMILES C=C1CC=C(C(C)C)CC1
REMARK SMILES IDX 5 1 4 2 3 3 2 4 1 5 10 6 9 7 6 8 7 9 8 10
REMARK H PARENT
REMARK Flexibility Score: inf
ROOT
ATOM      1  C   UNL     1      29.317  23.833  12.609  1.00  0.00    -0.071 C 
ATOM      2  C   UNL     1      30.171  23.792  11.563  1.00  0.00    -0.023 C 
ATOM      3  C   UNL     1      31.442  22.984  11.623  1.00  0.00     0.057 C 
ATOM      4  C   UNL     1      31.238  21.709  12.415  1.00  0.00    -0.073 C 
ATOM      5  C   UNL     1      32.002  20.636  12.172  1.00  0.00     0.008 C 
ATOM      6  C   UNL     1      30.190  21.655  13.509  1.00  0.00     0.035 C 
ATOM      7  C   UNL     1      29.668  23.056  13.860  1.00  0.00     0.035 C 
ENDROOT
BRANCH   1   8
ATOM      8  C   UNL     1      28.014  24.614  12.539  1.00  0.00     0.008 C 
ATOM      9  C   UNL     1      26.943  23.839  11.764  1.00  0.00     0.012 C 
ATOM     10  C   UNL     1      28.232  26.008  11.936  1.00  0.00     0.012 C 
ENDBRANCH   1   8
TORSDOF 1
ENDMDL
MODEL 5
REMARK VINA RESULT:    -4.344      1.129      4.323
REMARK INTER + INTRA:          -4.781
REMARK INTER:                  -4.643
REMARK INTRA:                  -0.138
REMARK UNBOUND:                -0.183
REMARK SMILES C=C1CC=C(C(C)C)CC1
REMARK SMILES IDX 5 1 4 2 3 3 2 4 1 5 10 6 9 7 6 8 7 9 8 10
REMARK H PARENT
REMARK Flexibility Score: inf
ROOT
ATOM      1  C   UNL     1      29.274  25.812  11.942  1.00  0.00    -0.071 C 
ATOM      2  C   UNL     1      28.342  26.788  11.862  1.00  0.00    -0.023 C 
ATOM      3  C   UNL     1      28.701  28.232  12.096  1.00  0.00     0.057 C 
ATOM      4  C   UNL     1      30.087  28.539  11.568  1.00  0.00    -0.073 C 
ATOM      5  C   UNL     1      30.401  29.784  11.187  1.00  0.00     0.008 C 
ATOM      6  C   UNL     1      31.133  27.444  11.501  1.00  0.00     0.035 C 
ATOM      7  C   UNL     1      30.697  26.199  12.286  1.00  0.00     0.035 C 
ENDROOT
BRANCH   1   8
ATOM      8  C   UNL     1      28.925  24.358  11.669  1.00  0.00     0.008 C 
ATOM      9  C   UNL     1      27.418  24.113  11.808  1.00  0.00     0.012 C 
ATOM     10  C   UNL     1      29.726  23.413  12.574  1.00  0.00     0.012 C 
ENDBRANCH   1   8
TORSDOF 1
ENDMDL
MODEL 6
REMARK VINA RESULT:    -4.269      1.411      2.796
REMARK INTER + INTRA:          -4.701
REMARK INTER:                  -4.565
REMARK INTRA:                  -0.136
REMARK UNBOUND:                -0.183
REMARK SMILES C=C1CC=C(C(C)C)CC1
REMARK SMILES IDX 5 1 4 2 3 3 2 4 1 5 10 6 9 7 6 8 7 9 8 10
REMARK H PARENT
REMARK Flexibility Score: inf
ROOT
ATOM      1  C   UNL     1      29.951  24.390  12.595  1.00  0.00    -0.071 C 
ATOM      2  C   UNL     1      31.239  24.521  12.984  1.00  0.00    -0.023 C 
ATOM      3  C   UNL     1      31.805  23.686  14.103  1.00  0.00     0.057 C 
ATOM      4  C   UNL     1      31.210  22.293  14.095  1.00  0.00    -0.073 C 
ATOM      5  C   UNL     1      31.898  21.264  14.608  1.00  0.00     0.008 C 
ATOM      6  C   UNL     1      29.819  22.065  13.537  1.00  0.00     0.035 C 
ATOM      7  C   UNL     1      29.075  23.390  13.318  1.00  0.00     0.035 C 
ENDROOT
BRANCH   1   8
ATOM      8  C   UNL     1      29.385  25.203  11.440  1.00  0.00     0.008 C 
ATOM      9  C   UNL     1      30.495  25.949  10.690  1.00  0.00     0.012 C 
ATOM     10  C   UNL     1      28.295  26.169  11.920  1.00  0.00     0.012 C 
ENDBRANCH   1   8
TORSDOF 1
ENDMDL
MODEL 7
REMARK VINA RESULT:    -4.224      0.985      1.852
REMARK INTER + INTRA:          -4.654
REMARK INTER:                  -4.518
REMARK INTRA:                  -0.136
REMARK UNBOUND:                -0.183
REMARK SMILES C=C1CC=C(C(C)C)CC1
REMARK SMILES IDX 5 1 4 2 3 3 2 4 1 5 10 6 9 7 6 8 7 9 8 10
REMARK H PARENT
REMARK Flexibility Score: inf
ROOT
ATOM      1  C   UNL     1      29.685  25.643  11.818  1.00  0.00    -0.071 C 
ATOM      2  C   UNL     1      30.864  25.177  12.285  1.00  0.00    -0.023 C 
ATOM      3  C   UNL     1      30.918  24.106  13.343  1.00  0.00     0.057 C 
ATOM      4  C   UNL     1      29.789  23.111  13.166  1.00  0.00    -0.073 C 
ATOM      5  C   UNL     1      29.924  21.855  13.610  1.00  0.00     0.008 C 
ATOM      6  C   UNL     1      28.490  23.545  12.516  1.00  0.00     0.035 C 
ATOM      7  C   UNL     1      28.405  25.073  12.392  1.00  0.00     0.035 C 
ENDROOT
BRANCH   1   8
ATOM      8  C   UNL     1      29.626  26.695  10.722  1.00  0.00     0.008 C 
ATOM      9  C   UNL     1      31.024  27.225  10.385  1.00  0.00     0.012 C 
ATOM     10  C   UNL     1      28.676  27.839  11.099  1.00  0.00     0.012 C 
ENDBRANCH   1   8
TORSDOF 1
ENDMDL
MODEL 8
REMARK VINA RESULT:    -4.113      1.590      4.735
REMARK INTER + INTRA:          -4.537
REMARK INTER:                  -4.359
REMARK INTRA:                  -0.178
REMARK UNBOUND:                -0.183
REMARK SMILES C=C1CC=C(C(C)C)CC1
REMARK SMILES IDX 5 1 4 2 3 3 2 4 1 5 10 6 9 7 6 8 7 9 8 10
REMARK H PARENT
REMARK Flexibility Score: inf
ROOT
ATOM      1  C   UNL     1      30.468  22.732  13.289  1.00  0.00    -0.071 C 
ATOM      2  C   UNL     1      29.120  22.689  13.369  1.00  0.00    -0.023 C 
ATOM      3  C   UNL     1      28.294  23.949  13.335  1.00  0.00     0.057 C 
ATOM      4  C   UNL     1      28.911  24.977  12.410  1.00  0.00    -0.073 C 
ATOM      5  C   UNL     1      28.141  25.904  11.824  1.00  0.00     0.008 C 
ATOM      6  C   UNL     1      30.408  24.982  12.171  1.00  0.00     0.035 C 
ATOM      7  C   UNL     1      31.142  24.083  13.176  1.00  0.00     0.035 C 
ENDROOT
BRANCH   1   8
ATOM      8  C   UNL     1      31.303  21.461  13.283  1.00  0.00     0.008 C 
ATOM      9  C   UNL     1      31.811  21.137  11.873  1.00  0.00     0.012 C 
ATOM     10  C   UNL     1      30.524  20.279  13.875  1.00  0.00     0.012 C 
ENDBRANCH   1   8
TORSDOF 1
ENDMDL
MODEL 9
REMARK VINA RESULT:    -3.958      1.750      3.496
REMARK INTER + INTRA:          -4.373
REMARK INTER:                  -4.189
REMARK INTRA:                  -0.183
REMARK UNBOUND:                -0.183
REMARK SMILES C=C1CC=C(C(C)C)CC1
REMARK SMILES IDX 5 1 4 2 3 3 2 4 1 5 10 6 9 7 6 8 7 9 8 10
REMARK H PARENT
REMARK Flexibility Score: inf
ROOT
ATOM      1  C   UNL     1      30.622  28.318  11.412  1.00  0.00    -0.071 C 
ATOM      2  C   UNL     1      31.002  27.023  11.334  1.00  0.00    -0.023 C 
ATOM      3  C   UNL     1      30.203  25.933  11.999  1.00  0.00     0.057 C 
ATOM      4  C   UNL     1      28.720  26.235  11.942  1.00  0.00    -0.073 C 
ATOM      5  C   UNL     1      27.828  25.236  11.973  1.00  0.00     0.008 C 
ATOM      6  C   UNL     1      28.240  27.672  11.883  1.00  0.00     0.035 C 
ATOM      7  C   UNL     1      29.373  28.658  12.198  1.00  0.00     0.035 C 
ENDROOT
BRANCH   1   8
ATOM      8  C   UNL     1      31.403  29.418  10.710  1.00  0.00     0.008 C 
ATOM      9  C   UNL     1      30.651  30.752  10.761  1.00  0.00     0.012 C 
ATOM     10  C   UNL     1      31.740  29.027   9.265  1.00  0.00     0.012 C 
ENDBRANCH   1   8
TORSDOF 1
ENDMDL
