MODEL 1
REMARK VINA RESULT:    -6.959      0.000      0.000
REMARK INTER + INTRA:         -10.319
REMARK INTER:                 -10.010
REMARK INTRA:                  -0.308
REMARK UNBOUND:                -0.308
REMARK SMILES O=c1cc(-c2ccc(O)c(O)c2)oc2cc(O[C@H]3O[C@@H](CO)[C@@H](O)[C@@H](O)[C@H]3O)cc(O)c12
REMARK SMILES IDX 17 1 16 2 4 3 3 4 13 5 2 6 14 7 1 8 32 9 15 10 30 11 29 12
REMARK SMILES IDX 5 13 6 14 7 15 8 16 12 17 10 18 9 19 11 21 31 23 18 25 27 26
REMARK SMILES IDX 19 27 25 28 20 29 23 30 28 31 26 33 21 35 22 36 24 38
REMARK H PARENT 9 20 11 22 31 24 28 32 26 34 22 37 24 39
REMARK Flexibility Score: inf
ROOT
ATOM      1  O   UNL     1     -38.151  76.852 -27.609  1.00  0.00    -0.462 OA
ENDROOT
BRANCH   1   2
ATOM      2  C   UNL     1     -39.024  76.654 -26.520  1.00  0.00     0.130 A 
ATOM      3  C   UNL     1     -39.873  76.119 -21.850  1.00  0.00     0.138 A 
ATOM      4  C   UNL     1     -41.258  76.003 -22.051  1.00  0.00     0.100 A 
ATOM      5  O   UNL     1     -39.073  76.307 -22.898  1.00  0.00    -0.456 OA
ATOM      6  C   UNL     1     -41.771  76.073 -23.347  1.00  0.00     0.197 A 
ATOM      7  C   UNL     1     -39.514  76.381 -24.149  1.00  0.00     0.146 A 
ATOM      8  O   UNL     1     -43.016  75.969 -23.519  1.00  0.00    -0.289 OA
ATOM      9  C   UNL     1     -40.893  76.262 -24.434  1.00  0.00     0.107 A 
ATOM     10  C   UNL     1     -38.594  76.575 -25.182  1.00  0.00     0.094 A 
ATOM     11  C   UNL     1     -41.327  76.338 -25.776  1.00  0.00     0.134 A 
ATOM     12  C   UNL     1     -40.389  76.532 -26.800  1.00  0.00     0.093 A 
BRANCH   3  13
ATOM     13  C   UNL     1     -39.268  76.051 -20.497  1.00  0.00     0.021 A 
ATOM     14  C   UNL     1     -39.360  77.125 -19.592  1.00  0.00     0.016 A 
ATOM     15  C   UNL     1     -38.793  77.028 -18.318  1.00  0.00     0.051 A 
ATOM     16  C   UNL     1     -38.133  75.858 -17.923  1.00  0.00     0.157 A 
ATOM     17  C   UNL     1     -38.614  74.874 -20.089  1.00  0.00     0.062 A 
ATOM     18  C   UNL     1     -38.046  74.776 -18.814  1.00  0.00     0.158 A 
BRANCH  16  19
ATOM     19  O   UNL     1     -37.569  75.765 -16.652  1.00  0.00    -0.504 OA
ATOM     20  H   UNL     1     -38.128  75.528 -15.840  1.00  0.00     0.293 HD
ENDBRANCH  16  19
BRANCH  18  21
ATOM     21  O   UNL     1     -37.399  73.595 -18.451  1.00  0.00    -0.504 OA
ATOM     22  H   UNL     1     -37.791  72.953 -17.771  1.00  0.00     0.293 HD
ENDBRANCH  18  21
ENDBRANCH   3  13
BRANCH  11  23
ATOM     23  O   UNL     1     -42.679  76.222 -26.101  1.00  0.00    -0.507 OA
ATOM     24  H   UNL     1     -43.366  76.889 -25.771  1.00  0.00     0.293 HD
ENDBRANCH  11  23
ENDBRANCH   1   2
BRANCH   1  25
ATOM     25  C   UNL     1     -37.080  76.005 -28.045  1.00  0.00     0.339 C 
ATOM     26  C   UNL     1     -37.558  74.554 -28.353  1.00  0.00     0.214 C 
ATOM     27  O   UNL     1     -36.014  76.029 -27.113  1.00  0.00    -0.332 OA
ATOM     28  C   UNL     1     -36.535  73.499 -27.872  1.00  0.00     0.180 C 
ATOM     29  C   UNL     1     -34.845  75.419 -27.646  1.00  0.00     0.179 C 
ATOM     30  C   UNL     1     -35.115  73.982 -28.216  1.00  0.00     0.177 C 
BRANCH  26  31
ATOM     31  O   UNL     1     -38.860  74.288 -27.889  1.00  0.00    -0.384 OA
ATOM     32  H   UNL     1     -38.956  74.677 -26.985  1.00  0.00     0.211 HD
ENDBRANCH  26  31
BRANCH  28  33
ATOM     33  O   UNL     1     -36.630  73.289 -26.484  1.00  0.00    -0.387 OA
ATOM     34  H   UNL     1     -37.550  73.542 -26.212  1.00  0.00     0.211 HD
ENDBRANCH  28  33
BRANCH  29  35
ATOM     35  C   UNL     1     -33.755  75.456 -26.561  1.00  0.00     0.191 C 
BRANCH  35  36
ATOM     36  O   UNL     1     -34.205  74.860 -25.373  1.00  0.00    -0.394 OA
ATOM     37  H   UNL     1     -33.987  73.893 -25.436  1.00  0.00     0.210 HD
ENDBRANCH  35  36
ENDBRANCH  29  35
BRANCH  30  38
ATOM     38  O   UNL     1     -34.165  73.048 -27.765  1.00  0.00    -0.387 OA
ATOM     39  H   UNL     1     -33.529  73.539 -27.180  1.00  0.00     0.211 HD
ENDBRANCH  30  38
ENDBRANCH   1  25
TORSDOF 11
ENDMDL
MODEL 2
REMARK VINA RESULT:    -6.207      3.060      6.212
REMARK INTER + INTRA:          -9.236
REMARK INTER:                  -8.075
REMARK INTRA:                  -1.161
REMARK UNBOUND:                -0.308
REMARK SMILES O=c1cc(-c2ccc(O)c(O)c2)oc2cc(O[C@H]3O[C@@H](CO)[C@@H](O)[C@@H](O)[C@H]3O)cc(O)c12
REMARK SMILES IDX 17 1 16 2 4 3 3 4 13 5 2 6 14 7 1 8 32 9 15 10 30 11 29 12
REMARK SMILES IDX 5 13 6 14 7 15 8 16 12 17 10 18 9 19 11 21 31 23 18 25 27 26
REMARK SMILES IDX 19 27 25 28 20 29 23 30 28 31 26 33 21 35 22 36 24 38
REMARK H PARENT 9 20 11 22 31 24 28 32 26 34 22 37 24 39
REMARK Flexibility Score: inf
ROOT
ATOM      1  O   UNL     1     -40.930  75.630 -22.453  1.00  0.00    -0.462 OA
ENDROOT
BRANCH   1   2
ATOM      2  C   UNL     1     -40.106  75.386 -21.336  1.00  0.00     0.130 A 
ATOM      3  C   UNL     1     -36.912  72.747 -18.960  1.00  0.00     0.138 A 
ATOM      4  C   UNL     1     -36.870  73.651 -17.886  1.00  0.00     0.100 A 
ATOM      5  O   UNL     1     -37.700  73.005 -20.002  1.00  0.00    -0.456 OA
ATOM      6  C   UNL     1     -37.666  74.798 -17.923  1.00  0.00     0.197 A 
ATOM      7  C   UNL     1     -38.474  74.081 -20.083  1.00  0.00     0.146 A 
ATOM      8  O   UNL     1     -37.622  75.605 -16.955  1.00  0.00    -0.289 OA
ATOM      9  C   UNL     1     -38.496  75.032 -19.037  1.00  0.00     0.107 A 
ATOM     10  C   UNL     1     -39.270  74.260 -21.217  1.00  0.00     0.094 A 
ATOM     11  C   UNL     1     -39.336  76.162 -19.153  1.00  0.00     0.134 A 
ATOM     12  C   UNL     1     -40.129  76.324 -20.298  1.00  0.00     0.093 A 
BRANCH   3  13
ATOM     13  C   UNL     1     -36.091  71.511 -18.977  1.00  0.00     0.021 A 
ATOM     14  C   UNL     1     -34.691  71.556 -19.111  1.00  0.00     0.016 A 
ATOM     15  C   UNL     1     -33.941  70.377 -19.110  1.00  0.00     0.051 A 
ATOM     16  C   UNL     1     -34.573  69.135 -18.967  1.00  0.00     0.157 A 
ATOM     17  C   UNL     1     -36.718  70.261 -18.821  1.00  0.00     0.062 A 
ATOM     18  C   UNL     1     -35.969  69.080 -18.821  1.00  0.00     0.158 A 
BRANCH  16  19
ATOM     19  O   UNL     1     -33.822  67.961 -18.967  1.00  0.00    -0.504 OA
ATOM     20  H   UNL     1     -32.905  67.918 -18.537  1.00  0.00     0.293 HD
ENDBRANCH  16  19
BRANCH  18  21
ATOM     21  O   UNL     1     -36.629  67.860 -18.672  1.00  0.00    -0.504 OA
ATOM     22  H   UNL     1     -36.330  67.023 -19.158  1.00  0.00     0.293 HD
ENDBRANCH  18  21
ENDBRANCH   3  13
BRANCH  11  23
ATOM     23  O   UNL     1     -39.391  77.123 -18.143  1.00  0.00    -0.507 OA
ATOM     24  H   UNL     1     -38.555  77.446 -17.669  1.00  0.00     0.293 HD
ENDBRANCH  11  23
ENDBRANCH   1   2
BRANCH   1  25
ATOM     25  C   UNL     1     -40.605  76.356 -23.646  1.00  0.00     0.339 C 
ATOM     26  C   UNL     1     -41.825  76.506 -24.602  1.00  0.00     0.214 C 
ATOM     27  O   UNL     1     -39.487  75.774 -24.294  1.00  0.00    -0.332 OA
ATOM     28  C   UNL     1     -41.418  76.339 -26.084  1.00  0.00     0.180 C 
ATOM     29  C   UNL     1     -38.983  76.621 -25.319  1.00  0.00     0.179 C 
ATOM     30  C   UNL     1     -40.092  77.082 -26.328  1.00  0.00     0.177 C 
BRANCH  26  31
ATOM     31  O   UNL     1     -42.912  75.683 -24.250  1.00  0.00    -0.384 OA
ATOM     32  H   UNL     1     -43.504  76.189 -23.640  1.00  0.00     0.211 HD
ENDBRANCH  26  31
BRANCH  28  33
ATOM     33  O   UNL     1     -41.258  74.983 -26.421  1.00  0.00    -0.387 OA
ATOM     34  H   UNL     1     -40.625  74.591 -25.765  1.00  0.00     0.211 HD
ENDBRANCH  28  33
BRANCH  29  35
ATOM     35  C   UNL     1     -37.802  75.898 -25.991  1.00  0.00     0.191 C 
BRANCH  35  36
ATOM     36  O   UNL     1     -38.203  74.665 -26.527  1.00  0.00    -0.394 OA
ATOM     37  H   UNL     1     -39.183  74.724 -26.680  1.00  0.00     0.210 HD
ENDBRANCH  35  36
ENDBRANCH  29  35
BRANCH  30  38
ATOM     38  O   UNL     1     -39.689  76.922 -27.666  1.00  0.00    -0.387 OA
ATOM     39  H   UNL     1     -39.456  77.824 -28.009  1.00  0.00     0.211 HD
ENDBRANCH  30  38
ENDBRANCH   1  25
TORSDOF 11
ENDMDL
MODEL 3
REMARK VINA RESULT:    -4.589      3.214      6.547
REMARK INTER + INTRA:          -6.909
REMARK INTER:                  -5.742
REMARK INTRA:                  -1.167
REMARK UNBOUND:                -0.308
REMARK SMILES O=c1cc(-c2ccc(O)c(O)c2)oc2cc(O[C@H]3O[C@@H](CO)[C@@H](O)[C@@H](O)[C@H]3O)cc(O)c12
REMARK SMILES IDX 17 1 16 2 4 3 3 4 13 5 2 6 14 7 1 8 32 9 15 10 30 11 29 12
REMARK SMILES IDX 5 13 6 14 7 15 8 16 12 17 10 18 9 19 11 21 31 23 18 25 27 26
REMARK SMILES IDX 19 27 25 28 20 29 23 30 28 31 26 33 21 35 22 36 24 38
REMARK H PARENT 9 20 11 22 31 24 28 32 26 34 22 37 24 39
REMARK Flexibility Score: inf
ROOT
ATOM      1  O   UNL     1     -41.106  75.368 -22.091  1.00  0.00    -0.462 OA
ENDROOT
BRANCH   1   2
ATOM      2  C   UNL     1     -40.164  75.144 -21.066  1.00  0.00     0.130 A 
ATOM      3  C   UNL     1     -37.000  72.387 -18.787  1.00  0.00     0.138 A 
ATOM      4  C   UNL     1     -36.696  73.395 -17.857  1.00  0.00     0.100 A 
ATOM      5  O   UNL     1     -37.893  72.627 -19.745  1.00  0.00    -0.456 OA
ATOM      6  C   UNL     1     -37.347  74.628 -17.945  1.00  0.00     0.197 A 
ATOM      7  C   UNL     1     -38.537  73.783 -19.869  1.00  0.00     0.146 A 
ATOM      8  O   UNL     1     -37.068  75.527 -17.107  1.00  0.00    -0.289 OA
ATOM      9  C   UNL     1     -38.295  74.842 -18.965  1.00  0.00     0.107 A 
ATOM     10  C   UNL     1     -39.461  73.936 -20.906  1.00  0.00     0.094 A 
ATOM     11  C   UNL     1     -39.002  76.056 -19.123  1.00  0.00     0.134 A 
ATOM     12  C   UNL     1     -39.926  76.191 -20.168  1.00  0.00     0.093 A 
BRANCH   3  13
ATOM     13  C   UNL     1     -36.343  71.057 -18.744  1.00  0.00     0.021 A 
ATOM     14  C   UNL     1     -37.082  69.873 -18.571  1.00  0.00     0.016 A 
ATOM     15  C   UNL     1     -36.438  68.633 -18.549  1.00  0.00     0.051 A 
ATOM     16  C   UNL     1     -35.049  68.552 -18.707  1.00  0.00     0.157 A 
ATOM     17  C   UNL     1     -34.949  70.969 -18.915  1.00  0.00     0.062 A 
ATOM     18  C   UNL     1     -34.303  69.728 -18.892  1.00  0.00     0.158 A 
BRANCH  16  19
ATOM     19  O   UNL     1     -34.410  67.314 -18.684  1.00  0.00    -0.504 OA
ATOM     20  H   UNL     1     -34.872  66.472 -19.009  1.00  0.00     0.293 HD
ENDBRANCH  16  19
BRANCH  18  21
ATOM     21  O   UNL     1     -32.919  69.683 -19.057  1.00  0.00    -0.504 OA
ATOM     22  H   UNL     1     -32.339  70.511 -18.978  1.00  0.00     0.293 HD
ENDBRANCH  18  21
ENDBRANCH   3  13
BRANCH  11  23
ATOM     23  O   UNL     1     -38.795  77.125 -18.251  1.00  0.00    -0.507 OA
ATOM     24  H   UNL     1     -37.995  77.740 -18.342  1.00  0.00     0.293 HD
ENDBRANCH  11  23
ENDBRANCH   1   2
BRANCH   1  25
ATOM     25  C   UNL     1     -40.962  76.194 -23.254  1.00  0.00     0.339 C 
ATOM     26  C   UNL     1     -42.230  76.172 -24.159  1.00  0.00     0.214 C 
ATOM     27  O   UNL     1     -39.789  75.850 -23.969  1.00  0.00    -0.332 OA
ATOM     28  C   UNL     1     -41.863  76.149 -25.661  1.00  0.00     0.180 C 
ATOM     29  C   UNL     1     -39.484  76.819 -24.963  1.00  0.00     0.179 C 
ATOM     30  C   UNL     1     -40.698  77.125 -25.909  1.00  0.00     0.177 C 
BRANCH  26  31
ATOM     31  O   UNL     1     -43.140  75.155 -23.815  1.00  0.00    -0.384 OA
ATOM     32  H   UNL     1     -43.859  75.136 -24.494  1.00  0.00     0.211 HD
ENDBRANCH  26  31
BRANCH  28  33
ATOM     33  O   UNL     1     -41.483  74.860 -26.075  1.00  0.00    -0.387 OA
ATOM     34  H   UNL     1     -41.374  74.889 -27.061  1.00  0.00     0.211 HD
ENDBRANCH  28  33
BRANCH  29  35
ATOM     35  C   UNL     1     -38.224  76.349 -25.712  1.00  0.00     0.191 C 
BRANCH  35  36
ATOM     36  O   UNL     1     -38.498  75.220 -26.501  1.00  0.00    -0.394 OA
ATOM     37  H   UNL     1     -38.989  75.543 -27.302  1.00  0.00     0.210 HD
ENDBRANCH  35  36
ENDBRANCH  29  35
BRANCH  30  38
ATOM     38  O   UNL     1     -40.330  77.102 -27.266  1.00  0.00    -0.387 OA
ATOM     39  H   UNL     1     -39.906  77.977 -27.467  1.00  0.00     0.211 HD
ENDBRANCH  30  38
ENDBRANCH   1  25
TORSDOF 11
ENDMDL
