MODEL 1
REMARK VINA RESULT:    -5.433      0.000      0.000
REMARK INTER + INTRA:         -12.430
REMARK INTER:                 -10.197
REMARK INTRA:                  -2.233
REMARK UNBOUND:                -2.233
REMARK SMILES CCCCCCCCC=CCCCCCCCC(=O)[O-]
REMARK SMILES IDX 10 1 9 2 11 3 12 4 13 5 14 6 15 7 16 8 17 9 18 10 19 11
REMARK SMILES IDX 20 12 8 13 7 14 6 15 5 16 4 17 3 18 2 19 1 20
REMARK H PARENT
REMARK Flexibility Score: inf
ROOT
ATOM      1  C   UNL     1     -16.115 -32.738 -10.070  1.00  0.00    -0.031 C 
ATOM      2  C   UNL     1     -16.031 -31.462 -10.491  1.00  0.00    -0.031 C 
ENDROOT
BRANCH   1   3
ATOM      3  C   UNL     1     -16.990 -33.234  -8.944  1.00  0.00     0.027 C 
BRANCH   3   4
ATOM      4  C   UNL     1     -18.298 -33.854  -9.466  1.00  0.00     0.004 C 
BRANCH   4   5
ATOM      5  C   UNL     1     -18.283 -35.392  -9.577  1.00  0.00     0.000 C 
BRANCH   5   6
ATOM      6  C   UNL     1     -17.722 -36.137  -8.349  1.00  0.00     0.000 C 
BRANCH   6   7
ATOM      7  C   UNL     1     -18.685 -36.231  -7.152  1.00  0.00     0.000 C 
BRANCH   7   8
ATOM      8  C   UNL     1     -18.346 -35.229  -6.035  1.00  0.00     0.006 C 
BRANCH   8   9
ATOM      9  C   UNL     1     -16.833 -35.107  -5.807  1.00  0.00     0.053 C 
BRANCH   9  10
ATOM     10  C   UNL     1     -16.430 -35.648  -4.470  1.00  0.00     0.041 C 
ATOM     11  O   UNL     1     -16.371 -36.893  -4.281  1.00  0.00    -0.550 OA
ATOM     12  O   UNL     1     -16.151 -34.780  -3.422  1.00  0.00    -0.550 OA
ENDBRANCH   9  10
ENDBRANCH   8   9
ENDBRANCH   7   8
ENDBRANCH   6   7
ENDBRANCH   5   6
ENDBRANCH   4   5
ENDBRANCH   3   4
ENDBRANCH   1   3
BRANCH   2  13
ATOM     13  C   UNL     1     -16.768 -30.289  -9.888  1.00  0.00     0.027 C 
BRANCH  13  14
ATOM     14  C   UNL     1     -16.119 -29.765  -8.597  1.00  0.00     0.004 C 
BRANCH  14  15
ATOM     15  C   UNL     1     -14.599 -29.592  -8.734  1.00  0.00     0.000 C 
BRANCH  15  16
ATOM     16  C   UNL     1     -13.884 -29.983  -7.435  1.00  0.00     0.000 C 
BRANCH  16  17
ATOM     17  C   UNL     1     -13.703 -31.506  -7.344  1.00  0.00    -0.000 C 
BRANCH  17  18
ATOM     18  C   UNL     1     -12.704 -32.046  -8.379  1.00  0.00    -0.000 C 
BRANCH  18  19
ATOM     19  C   UNL     1     -12.479 -33.559  -8.249  1.00  0.00    -0.003 C 
ATOM     20  C   UNL     1     -13.257 -34.131  -7.068  1.00  0.00     0.004 C 
ENDBRANCH  18  19
ENDBRANCH  17  18
ENDBRANCH  16  17
ENDBRANCH  15  16
ENDBRANCH  14  15
ENDBRANCH  13  14
ENDBRANCH   2  13
TORSDOF 15
ENDMDL
MODEL 2
REMARK VINA RESULT:    -5.420      2.008      5.205
REMARK INTER + INTRA:         -12.405
REMARK INTER:                 -10.065
REMARK INTRA:                  -2.340
REMARK UNBOUND:                -2.233
REMARK SMILES CCCCCCCCC=CCCCCCCCC(=O)[O-]
REMARK SMILES IDX 10 1 9 2 11 3 12 4 13 5 14 6 15 7 16 8 17 9 18 10 19 11
REMARK SMILES IDX 20 12 8 13 7 14 6 15 5 16 4 17 3 18 2 19 1 20
REMARK H PARENT
REMARK Flexibility Score: inf
ROOT
ATOM      1  C   UNL     1     -18.564 -36.549  -7.269  1.00  0.00    -0.031 C 
ATOM      2  C   UNL     1     -18.706 -36.507  -8.608  1.00  0.00    -0.031 C 
ENDROOT
BRANCH   1   3
ATOM      3  C   UNL     1     -18.725 -35.375  -6.334  1.00  0.00     0.027 C 
BRANCH   3   4
ATOM      4  C   UNL     1     -17.456 -35.130  -5.499  1.00  0.00     0.004 C 
BRANCH   4   5
ATOM      5  C   UNL     1     -16.214 -34.723  -6.316  1.00  0.00     0.000 C 
BRANCH   5   6
ATOM      6  C   UNL     1     -16.467 -33.684  -7.427  1.00  0.00     0.000 C 
BRANCH   6   7
ATOM      7  C   UNL     1     -15.316 -33.517  -8.434  1.00  0.00     0.000 C 
BRANCH   7   8
ATOM      8  C   UNL     1     -14.255 -32.508  -7.962  1.00  0.00     0.006 C 
BRANCH   8   9
ATOM      9  C   UNL     1     -12.827 -33.025  -8.181  1.00  0.00     0.053 C 
BRANCH   9  10
ATOM     10  C   UNL     1     -12.618 -34.362  -7.541  1.00  0.00     0.041 C 
ATOM     11  O   UNL     1     -12.749 -34.495  -6.294  1.00  0.00    -0.550 OA
ATOM     12  O   UNL     1     -12.246 -35.455  -8.313  1.00  0.00    -0.550 OA
ENDBRANCH   9  10
ENDBRANCH   8   9
ENDBRANCH   7   8
ENDBRANCH   6   7
ENDBRANCH   5   6
ENDBRANCH   4   5
ENDBRANCH   3   4
ENDBRANCH   1   3
BRANCH   2  13
ATOM     13  C   UNL     1     -19.012 -35.271  -9.419  1.00  0.00     0.027 C 
BRANCH  13  14
ATOM     14  C   UNL     1     -18.003 -35.023 -10.551  1.00  0.00     0.004 C 
BRANCH  14  15
ATOM     15  C   UNL     1     -18.205 -33.659 -11.228  1.00  0.00     0.000 C 
BRANCH  15  16
ATOM     16  C   UNL     1     -16.904 -33.171 -11.876  1.00  0.00     0.000 C 
BRANCH  16  17
ATOM     17  C   UNL     1     -16.864 -31.637 -11.941  1.00  0.00    -0.000 C 
BRANCH  17  18
ATOM     18  C   UNL     1     -16.078 -31.016 -10.776  1.00  0.00    -0.000 C 
BRANCH  18  19
ATOM     19  C   UNL     1     -16.843 -29.876 -10.089  1.00  0.00    -0.003 C 
ATOM     20  C   UNL     1     -17.258 -30.268  -8.673  1.00  0.00     0.004 C 
ENDBRANCH  18  19
ENDBRANCH  17  18
ENDBRANCH  16  17
ENDBRANCH  15  16
ENDBRANCH  14  15
ENDBRANCH  13  14
ENDBRANCH   2  13
TORSDOF 15
ENDMDL
MODEL 3
REMARK VINA RESULT:    -5.368      2.918      5.344
REMARK INTER + INTRA:         -12.307
REMARK INTER:                 -10.478
REMARK INTRA:                  -1.830
REMARK UNBOUND:                -2.233
REMARK SMILES CCCCCCCCC=CCCCCCCCC(=O)[O-]
REMARK SMILES IDX 10 1 9 2 11 3 12 4 13 5 14 6 15 7 16 8 17 9 18 10 19 11
REMARK SMILES IDX 20 12 8 13 7 14 6 15 5 16 4 17 3 18 2 19 1 20
REMARK H PARENT
REMARK Flexibility Score: inf
ROOT
ATOM      1  C   UNL     1     -18.750 -36.619  -7.542  1.00  0.00    -0.031 C 
ATOM      2  C   UNL     1     -18.187 -36.395  -6.339  1.00  0.00    -0.031 C 
ENDROOT
BRANCH   1   3
ATOM      3  C   UNL     1     -19.042 -35.566  -8.583  1.00  0.00     0.027 C 
BRANCH   3   4
ATOM      4  C   UNL     1     -18.150 -35.727  -9.826  1.00  0.00     0.004 C 
BRANCH   4   5
ATOM      5  C   UNL     1     -18.515 -34.803 -11.006  1.00  0.00     0.000 C 
BRANCH   5   6
ATOM      6  C   UNL     1     -18.073 -33.333 -10.853  1.00  0.00     0.000 C 
BRANCH   6   7
ATOM      7  C   UNL     1     -16.914 -32.906 -11.770  1.00  0.00     0.000 C 
BRANCH   7   8
ATOM      8  C   UNL     1     -16.186 -31.650 -11.262  1.00  0.00     0.006 C 
BRANCH   8   9
ATOM      9  C   UNL     1     -17.094 -30.763 -10.400  1.00  0.00     0.053 C 
BRANCH   9  10
ATOM     10  C   UNL     1     -16.301 -29.865  -9.502  1.00  0.00     0.041 C 
ATOM     11  O   UNL     1     -16.876 -29.210  -8.592  1.00  0.00    -0.550 OA
ATOM     12  O   UNL     1     -14.932 -29.725  -9.689  1.00  0.00    -0.550 OA
ENDBRANCH   9  10
ENDBRANCH   8   9
ENDBRANCH   7   8
ENDBRANCH   6   7
ENDBRANCH   5   6
ENDBRANCH   4   5
ENDBRANCH   3   4
ENDBRANCH   1   3
BRANCH   2  13
ATOM     13  C   UNL     1     -17.781 -35.045  -5.799  1.00  0.00     0.027 C 
BRANCH  13  14
ATOM     14  C   UNL     1     -16.403 -35.052  -5.121  1.00  0.00     0.004 C 
BRANCH  14  15
ATOM     15  C   UNL     1     -15.304 -34.465  -6.019  1.00  0.00     0.000 C 
BRANCH  15  16
ATOM     16  C   UNL     1     -15.858 -34.115  -7.406  1.00  0.00     0.000 C 
BRANCH  16  17
ATOM     17  C   UNL     1     -14.923 -33.145  -8.143  1.00  0.00    -0.000 C 
BRANCH  17  18
ATOM     18  C   UNL     1     -13.585 -32.945  -7.415  1.00  0.00    -0.000 C 
BRANCH  18  19
ATOM     19  C   UNL     1     -12.397 -33.531  -8.192  1.00  0.00    -0.003 C 
ATOM     20  C   UNL     1     -12.367 -35.053  -8.084  1.00  0.00     0.004 C 
ENDBRANCH  18  19
ENDBRANCH  17  18
ENDBRANCH  16  17
ENDBRANCH  15  16
ENDBRANCH  14  15
ENDBRANCH  13  14
ENDBRANCH   2  13
TORSDOF 15
ENDMDL
MODEL 4
REMARK VINA RESULT:    -5.343      2.619      5.623
REMARK INTER + INTRA:         -12.261
REMARK INTER:                 -10.217
REMARK INTRA:                  -2.044
REMARK UNBOUND:                -2.233
REMARK SMILES CCCCCCCCC=CCCCCCCCC(=O)[O-]
REMARK SMILES IDX 10 1 9 2 11 3 12 4 13 5 14 6 15 7 16 8 17 9 18 10 19 11
REMARK SMILES IDX 20 12 8 13 7 14 6 15 5 16 4 17 3 18 2 19 1 20
REMARK H PARENT
REMARK Flexibility Score: inf
ROOT
ATOM      1  C   UNL     1     -18.423 -36.485  -8.796  1.00  0.00    -0.031 C 
ATOM      2  C   UNL     1     -18.394 -36.566  -7.452  1.00  0.00    -0.031 C 
ENDROOT
BRANCH   1   3
ATOM      3  C   UNL     1     -18.961 -35.321  -9.592  1.00  0.00     0.027 C 
BRANCH   3   4
ATOM      4  C   UNL     1     -17.854 -34.612 -10.391  1.00  0.00     0.004 C 
BRANCH   4   5
ATOM      5  C   UNL     1     -17.744 -33.096 -10.136  1.00  0.00     0.000 C 
BRANCH   5   6
ATOM      6  C   UNL     1     -17.193 -32.698  -8.752  1.00  0.00     0.000 C 
BRANCH   6   7
ATOM      7  C   UNL     1     -15.667 -32.817  -8.602  1.00  0.00     0.000 C 
BRANCH   7   8
ATOM      8  C   UNL     1     -15.246 -34.006  -7.721  1.00  0.00     0.006 C 
BRANCH   8   9
ATOM      9  C   UNL     1     -13.907 -33.756  -7.014  1.00  0.00     0.053 C 
BRANCH   9  10
ATOM     10  C   UNL     1     -12.744 -34.040  -7.914  1.00  0.00     0.041 C 
ATOM     11  O   UNL     1     -12.156 -33.095  -8.506  1.00  0.00    -0.550 OA
ATOM     12  O   UNL     1     -12.330 -35.348  -8.126  1.00  0.00    -0.550 OA
ENDBRANCH   9  10
ENDBRANCH   8   9
ENDBRANCH   7   8
ENDBRANCH   6   7
ENDBRANCH   5   6
ENDBRANCH   4   5
ENDBRANCH   3   4
ENDBRANCH   1   3
BRANCH   2  13
ATOM     13  C   UNL     1     -18.931 -35.525  -6.499  1.00  0.00     0.027 C 
BRANCH  13  14
ATOM     14  C   UNL     1     -17.896 -35.059  -5.464  1.00  0.00     0.004 C 
BRANCH  14  15
ATOM     15  C   UNL     1     -16.950 -36.190  -5.032  1.00  0.00     0.000 C 
BRANCH  15  16
ATOM     16  C   UNL     1     -15.682 -35.624  -4.380  1.00  0.00     0.000 C 
BRANCH  16  17
ATOM     17  C   UNL     1     -16.035 -34.661  -3.236  1.00  0.00    -0.000 C 
BRANCH  17  18
ATOM     18  C   UNL     1     -14.797 -34.176  -2.468  1.00  0.00    -0.000 C 
BRANCH  18  19
ATOM     19  C   UNL     1     -14.979 -34.251  -0.945  1.00  0.00    -0.003 C 
ATOM     20  C   UNL     1     -15.584 -35.590  -0.530  1.00  0.00     0.004 C 
ENDBRANCH  18  19
ENDBRANCH  17  18
ENDBRANCH  16  17
ENDBRANCH  15  16
ENDBRANCH  14  15
ENDBRANCH  13  14
ENDBRANCH   2  13
TORSDOF 15
ENDMDL
MODEL 5
REMARK VINA RESULT:    -5.280      1.834      5.539
REMARK INTER + INTRA:         -12.143
REMARK INTER:                 -10.324
REMARK INTRA:                  -1.819
REMARK UNBOUND:                -2.233
REMARK SMILES CCCCCCCCC=CCCCCCCCC(=O)[O-]
REMARK SMILES IDX 10 1 9 2 11 3 12 4 13 5 14 6 15 7 16 8 17 9 18 10 19 11
REMARK SMILES IDX 20 12 8 13 7 14 6 15 5 16 4 17 3 18 2 19 1 20
REMARK H PARENT
REMARK Flexibility Score: inf
ROOT
ATOM      1  C   UNL     1     -17.574 -32.951 -10.232  1.00  0.00    -0.031 C 
ATOM      2  C   UNL     1     -17.894 -34.161 -10.731  1.00  0.00    -0.031 C 
ENDROOT
BRANCH   1   3
ATOM      3  C   UNL     1     -17.978 -32.429  -8.875  1.00  0.00     0.027 C 
BRANCH   3   4
ATOM      4  C   UNL     1     -18.015 -30.891  -8.842  1.00  0.00     0.004 C 
BRANCH   4   5
ATOM      5  C   UNL     1     -16.815 -30.201  -9.521  1.00  0.00     0.000 C 
BRANCH   5   6
ATOM      6  C   UNL     1     -15.624 -29.886  -8.594  1.00  0.00     0.000 C 
BRANCH   6   7
ATOM      7  C   UNL     1     -14.247 -30.294  -9.146  1.00  0.00     0.000 C 
BRANCH   7   8
ATOM      8  C   UNL     1     -13.564 -31.381  -8.297  1.00  0.00     0.006 C 
BRANCH   8   9
ATOM      9  C   UNL     1     -14.342 -32.703  -8.314  1.00  0.00     0.053 C 
BRANCH   9  10
ATOM     10  C   UNL     1     -13.623 -33.779  -7.561  1.00  0.00     0.041 C 
ATOM     11  O   UNL     1     -12.748 -34.479  -8.138  1.00  0.00    -0.550 OA
ATOM     12  O   UNL     1     -13.940 -34.032  -6.233  1.00  0.00    -0.550 OA
ENDBRANCH   9  10
ENDBRANCH   8   9
ENDBRANCH   7   8
ENDBRANCH   6   7
ENDBRANCH   5   6
ENDBRANCH   4   5
ENDBRANCH   3   4
ENDBRANCH   1   3
BRANCH   2  13
ATOM     13  C   UNL     1     -18.746 -35.198 -10.038  1.00  0.00     0.027 C 
BRANCH  13  14
ATOM     14  C   UNL     1     -17.924 -36.250  -9.279  1.00  0.00     0.004 C 
BRANCH  14  15
ATOM     15  C   UNL     1     -18.556 -36.628  -7.931  1.00  0.00     0.000 C 
BRANCH  15  16
ATOM     16  C   UNL     1     -19.125 -35.391  -7.226  1.00  0.00     0.000 C 
BRANCH  16  17
ATOM     17  C   UNL     1     -18.119 -34.824  -6.214  1.00  0.00    -0.000 C 
BRANCH  17  18
ATOM     18  C   UNL     1     -17.300 -35.921  -5.516  1.00  0.00    -0.000 C 
BRANCH  18  19
ATOM     19  C   UNL     1     -16.579 -35.411  -4.260  1.00  0.00    -0.003 C 
ATOM     20  C   UNL     1     -15.466 -36.367  -3.839  1.00  0.00     0.004 C 
ENDBRANCH  18  19
ENDBRANCH  17  18
ENDBRANCH  16  17
ENDBRANCH  15  16
ENDBRANCH  14  15
ENDBRANCH  13  14
ENDBRANCH   2  13
TORSDOF 15
ENDMDL
MODEL 6
REMARK VINA RESULT:    -5.276      2.573      6.140
REMARK INTER + INTRA:         -12.136
REMARK INTER:                 -10.227
REMARK INTRA:                  -1.908
REMARK UNBOUND:                -2.233
REMARK SMILES CCCCCCCCC=CCCCCCCCC(=O)[O-]
REMARK SMILES IDX 10 1 9 2 11 3 12 4 13 5 14 6 15 7 16 8 17 9 18 10 19 11
REMARK SMILES IDX 20 12 8 13 7 14 6 15 5 16 4 17 3 18 2 19 1 20
REMARK H PARENT
REMARK Flexibility Score: inf
ROOT
ATOM      1  C   UNL     1     -17.640 -35.154  -5.181  1.00  0.00    -0.031 C 
ATOM      2  C   UNL     1     -18.438 -35.280  -6.258  1.00  0.00    -0.031 C 
ENDROOT
BRANCH   1   3
ATOM      3  C   UNL     1     -16.541 -36.112  -4.788  1.00  0.00     0.027 C 
BRANCH   3   4
ATOM      4  C   UNL     1     -15.342 -35.381  -4.160  1.00  0.00     0.004 C 
BRANCH   4   5
ATOM      5  C   UNL     1     -14.852 -34.149  -4.948  1.00  0.00     0.000 C 
BRANCH   5   6
ATOM      6  C   UNL     1     -14.277 -34.447  -6.347  1.00  0.00     0.000 C 
BRANCH   6   7
ATOM      7  C   UNL     1     -15.070 -33.840  -7.517  1.00  0.00     0.000 C 
BRANCH   7   8
ATOM      8  C   UNL     1     -14.200 -32.967  -8.437  1.00  0.00     0.006 C 
BRANCH   8   9
ATOM      9  C   UNL     1     -13.259 -32.050  -7.644  1.00  0.00     0.053 C 
BRANCH   9  10
ATOM     10  C   UNL     1     -13.749 -30.635  -7.627  1.00  0.00     0.041 C 
ATOM     11  O   UNL     1     -14.234 -30.120  -8.670  1.00  0.00    -0.550 OA
ATOM     12  O   UNL     1     -13.640 -29.874  -6.471  1.00  0.00    -0.550 OA
ENDBRANCH   9  10
ENDBRANCH   8   9
ENDBRANCH   7   8
ENDBRANCH   6   7
ENDBRANCH   5   6
ENDBRANCH   4   5
ENDBRANCH   3   4
ENDBRANCH   1   3
BRANCH   2  13
ATOM     13  C   UNL     1     -18.405 -36.423  -7.245  1.00  0.00     0.027 C 
BRANCH  13  14
ATOM     14  C   UNL     1     -17.850 -36.020  -8.620  1.00  0.00     0.004 C 
BRANCH  14  15
ATOM     15  C   UNL     1     -18.960 -35.645  -9.613  1.00  0.00     0.000 C 
BRANCH  15  16
ATOM     16  C   UNL     1     -18.383 -34.904 -10.826  1.00  0.00     0.000 C 
BRANCH  16  17
ATOM     17  C   UNL     1     -17.615 -33.648 -10.388  1.00  0.00    -0.000 C 
BRANCH  17  18
ATOM     18  C   UNL     1     -16.647 -33.140 -11.468  1.00  0.00    -0.000 C 
BRANCH  18  19
ATOM     19  C   UNL     1     -16.506 -31.611 -11.464  1.00  0.00    -0.003 C 
ATOM     20  C   UNL     1     -17.837 -30.936 -11.783  1.00  0.00     0.004 C 
ENDBRANCH  18  19
ENDBRANCH  17  18
ENDBRANCH  16  17
ENDBRANCH  15  16
ENDBRANCH  14  15
ENDBRANCH  13  14
ENDBRANCH   2  13
TORSDOF 15
ENDMDL
MODEL 7
REMARK VINA RESULT:    -5.271      2.266      4.977
REMARK INTER + INTRA:         -12.126
REMARK INTER:                 -10.131
REMARK INTRA:                  -1.994
REMARK UNBOUND:                -2.233
REMARK SMILES CCCCCCCCC=CCCCCCCCC(=O)[O-]
REMARK SMILES IDX 10 1 9 2 11 3 12 4 13 5 14 6 15 7 16 8 17 9 18 10 19 11
REMARK SMILES IDX 20 12 8 13 7 14 6 15 5 16 4 17 3 18 2 19 1 20
REMARK H PARENT
REMARK Flexibility Score: inf
ROOT
ATOM      1  C   UNL     1     -18.382 -36.535  -7.663  1.00  0.00    -0.031 C 
ATOM      2  C   UNL     1     -18.324 -36.262  -8.980  1.00  0.00    -0.031 C 
ENDROOT
BRANCH   1   3
ATOM      3  C   UNL     1     -18.931 -35.613  -6.601  1.00  0.00     0.027 C 
BRANCH   3   4
ATOM      4  C   UNL     1     -17.835 -35.140  -5.630  1.00  0.00     0.004 C 
BRANCH   4   5
ATOM      5  C   UNL     1     -16.938 -36.263  -5.073  1.00  0.00     0.000 C 
BRANCH   5   6
ATOM      6  C   UNL     1     -15.655 -35.790  -4.360  1.00  0.00     0.000 C 
BRANCH   6   7
ATOM      7  C   UNL     1     -15.163 -34.391  -4.769  1.00  0.00     0.000 C 
BRANCH   7   8
ATOM      8  C   UNL     1     -13.929 -34.439  -5.687  1.00  0.00     0.006 C 
BRANCH   8   9
ATOM      9  C   UNL     1     -14.263 -34.025  -7.126  1.00  0.00     0.053 C 
BRANCH   9  10
ATOM     10  C   UNL     1     -13.033 -33.933  -7.975  1.00  0.00     0.041 C 
ATOM     11  O   UNL     1     -12.603 -32.808  -8.348  1.00  0.00    -0.550 OA
ATOM     12  O   UNL     1     -12.379 -35.088  -8.383  1.00  0.00    -0.550 OA
ENDBRANCH   9  10
ENDBRANCH   8   9
ENDBRANCH   7   8
ENDBRANCH   6   7
ENDBRANCH   5   6
ENDBRANCH   4   5
ENDBRANCH   3   4
ENDBRANCH   1   3
BRANCH   2  13
ATOM     13  C   UNL     1     -18.761 -34.971  -9.629  1.00  0.00     0.027 C 
BRANCH  13  14
ATOM     14  C   UNL     1     -17.638 -34.275 -10.413  1.00  0.00     0.004 C 
BRANCH  14  15
ATOM     15  C   UNL     1     -16.936 -33.185  -9.588  1.00  0.00     0.000 C 
BRANCH  15  16
ATOM     16  C   UNL     1     -17.868 -32.634  -8.503  1.00  0.00     0.000 C 
BRANCH  16  17
ATOM     17  C   UNL     1     -18.047 -31.115  -8.651  1.00  0.00    -0.000 C 
BRANCH  17  18
ATOM     18  C   UNL     1     -17.245 -30.538  -9.828  1.00  0.00    -0.000 C 
BRANCH  18  19
ATOM     19  C   UNL     1     -16.321 -29.387  -9.405  1.00  0.00    -0.003 C 
ATOM     20  C   UNL     1     -14.867 -29.846  -9.341  1.00  0.00     0.004 C 
ENDBRANCH  18  19
ENDBRANCH  17  18
ENDBRANCH  16  17
ENDBRANCH  15  16
ENDBRANCH  14  15
ENDBRANCH  13  14
ENDBRANCH   2  13
TORSDOF 15
ENDMDL
MODEL 8
REMARK VINA RESULT:    -5.232      2.168      3.664
REMARK INTER + INTRA:         -12.053
REMARK INTER:                 -10.022
REMARK INTRA:                  -2.031
REMARK UNBOUND:                -2.233
REMARK SMILES CCCCCCCCC=CCCCCCCCC(=O)[O-]
REMARK SMILES IDX 10 1 9 2 11 3 12 4 13 5 14 6 15 7 16 8 17 9 18 10 19 11
REMARK SMILES IDX 20 12 8 13 7 14 6 15 5 16 4 17 3 18 2 19 1 20
REMARK H PARENT
REMARK Flexibility Score: inf
ROOT
ATOM      1  C   UNL     1     -18.460 -35.656  -9.127  1.00  0.00    -0.031 C 
ATOM      2  C   UNL     1     -18.222 -35.311 -10.407  1.00  0.00    -0.031 C 
ENDROOT
BRANCH   1   3
ATOM      3  C   UNL     1     -18.789 -34.698  -8.008  1.00  0.00     0.027 C 
BRANCH   3   4
ATOM      4  C   UNL     1     -18.889 -35.416  -6.650  1.00  0.00     0.004 C 
BRANCH   4   5
ATOM      5  C   UNL     1     -17.746 -35.097  -5.666  1.00  0.00     0.000 C 
BRANCH   5   6
ATOM      6  C   UNL     1     -17.029 -36.324  -5.068  1.00  0.00     0.000 C 
BRANCH   6   7
ATOM      7  C   UNL     1     -15.859 -35.996  -4.125  1.00  0.00     0.000 C 
BRANCH   7   8
ATOM      8  C   UNL     1     -16.043 -34.658  -3.390  1.00  0.00     0.006 C 
BRANCH   8   9
ATOM      9  C   UNL     1     -14.711 -34.083  -2.890  1.00  0.00     0.053 C 
BRANCH   9  10
ATOM     10  C   UNL     1     -14.918 -33.038  -1.838  1.00  0.00     0.041 C 
ATOM     11  O   UNL     1     -14.904 -31.817  -2.147  1.00  0.00    -0.550 OA
ATOM     12  O   UNL     1     -15.093 -33.410  -0.512  1.00  0.00    -0.550 OA
ENDBRANCH   9  10
ENDBRANCH   8   9
ENDBRANCH   7   8
ENDBRANCH   6   7
ENDBRANCH   5   6
ENDBRANCH   4   5
ENDBRANCH   3   4
ENDBRANCH   1   3
BRANCH   2  13
ATOM     13  C   UNL     1     -18.203 -33.901 -10.946  1.00  0.00     0.027 C 
BRANCH  13  14
ATOM     14  C   UNL     1     -16.800 -33.428 -11.356  1.00  0.00     0.004 C 
BRANCH  14  15
ATOM     15  C   UNL     1     -16.429 -32.077 -10.727  1.00  0.00     0.000 C 
BRANCH  15  16
ATOM     16  C   UNL     1     -16.405 -32.173  -9.197  1.00  0.00     0.000 C 
BRANCH  16  17
ATOM     17  C   UNL     1     -15.055 -32.713  -8.701  1.00  0.00    -0.000 C 
BRANCH  17  18
ATOM     18  C   UNL     1     -15.211 -33.852  -7.683  1.00  0.00    -0.000 C 
BRANCH  18  19
ATOM     19  C   UNL     1     -14.056 -33.903  -6.672  1.00  0.00    -0.003 C 
ATOM     20  C   UNL     1     -12.859 -34.657  -7.243  1.00  0.00     0.004 C 
ENDBRANCH  18  19
ENDBRANCH  17  18
ENDBRANCH  16  17
ENDBRANCH  15  16
ENDBRANCH  14  15
ENDBRANCH  13  14
ENDBRANCH   2  13
TORSDOF 15
ENDMDL
MODEL 9
REMARK VINA RESULT:    -5.181      3.224      5.713
REMARK INTER + INTRA:         -11.956
REMARK INTER:                  -9.885
REMARK INTRA:                  -2.071
REMARK UNBOUND:                -2.233
REMARK SMILES CCCCCCCCC=CCCCCCCCC(=O)[O-]
REMARK SMILES IDX 10 1 9 2 11 3 12 4 13 5 14 6 15 7 16 8 17 9 18 10 19 11
REMARK SMILES IDX 20 12 8 13 7 14 6 15 5 16 4 17 3 18 2 19 1 20
REMARK H PARENT
REMARK Flexibility Score: inf
ROOT
ATOM      1  C   UNL     1     -18.657 -36.395  -7.433  1.00  0.00    -0.031 C 
ATOM      2  C   UNL     1     -17.973 -36.366  -6.273  1.00  0.00    -0.031 C 
ENDROOT
BRANCH   1   3
ATOM      3  C   UNL     1     -18.975 -35.196  -8.293  1.00  0.00     0.027 C 
BRANCH   3   4
ATOM      4  C   UNL     1     -18.007 -35.071  -9.482  1.00  0.00     0.004 C 
BRANCH   4   5
ATOM      5  C   UNL     1     -17.430 -33.658  -9.698  1.00  0.00     0.000 C 
BRANCH   5   6
ATOM      6  C   UNL     1     -17.482 -32.728  -8.469  1.00  0.00     0.000 C 
BRANCH   6   7
ATOM      7  C   UNL     1     -18.199 -31.387  -8.700  1.00  0.00     0.000 C 
BRANCH   7   8
ATOM      8  C   UNL     1     -17.561 -30.558  -9.829  1.00  0.00     0.006 C 
BRANCH   8   9
ATOM      9  C   UNL     1     -16.387 -29.706  -9.329  1.00  0.00     0.053 C 
BRANCH   9  10
ATOM     10  C   UNL     1     -15.504 -29.266 -10.455  1.00  0.00     0.041 C 
ATOM     11  O   UNL     1     -14.282 -29.577 -10.461  1.00  0.00    -0.550 OA
ATOM     12  O   UNL     1     -16.019 -28.484 -11.481  1.00  0.00    -0.550 OA
ENDBRANCH   9  10
ENDBRANCH   8   9
ENDBRANCH   7   8
ENDBRANCH   6   7
ENDBRANCH   5   6
ENDBRANCH   4   5
ENDBRANCH   3   4
ENDBRANCH   1   3
BRANCH   2  13
ATOM     13  C   UNL     1     -17.434 -35.123  -5.604  1.00  0.00     0.027 C 
BRANCH  13  14
ATOM     14  C   UNL     1     -16.216 -35.397  -4.708  1.00  0.00     0.004 C 
BRANCH  14  15
ATOM     15  C   UNL     1     -15.055 -34.430  -4.985  1.00  0.00     0.000 C 
BRANCH  15  16
ATOM     16  C   UNL     1     -14.822 -34.271  -6.493  1.00  0.00     0.000 C 
BRANCH  16  17
ATOM     17  C   UNL     1     -13.334 -34.435  -6.839  1.00  0.00    -0.000 C 
BRANCH  17  18
ATOM     18  C   UNL     1     -12.803 -33.292  -7.718  1.00  0.00    -0.000 C 
BRANCH  18  19
ATOM     19  C   UNL     1     -13.855 -32.202  -7.970  1.00  0.00    -0.003 C 
ATOM     20  C   UNL     1     -13.446 -30.883  -7.321  1.00  0.00     0.004 C 
ENDBRANCH  18  19
ENDBRANCH  17  18
ENDBRANCH  16  17
ENDBRANCH  15  16
ENDBRANCH  14  15
ENDBRANCH  13  14
ENDBRANCH   2  13
TORSDOF 15
ENDMDL
