MODEL 1
REMARK VINA RESULT:    12.472      0.000      0.000
REMARK INTER + INTRA:          19.872
REMARK INTER:                  17.212
REMARK INTRA:                   2.661
REMARK UNBOUND:                 2.661
REMARK SMILES C[C@H]1OC(=O)[C@H](C)[C@H]1C[C@@H](O)[C@](C)(O)[C@@H]1CC[C@@]2(O)C3=CC(=O)[C@H]4C[C@H](O)[C@@H](O)C[C@@]4(C)[C@H]3CC[C@@]12C
REMARK SMILES IDX 12 1 13 2 10 3 9 4 8 5 7 6 6 7 4 8 2 9 3 10 5 11 1 12 11 13
REMARK SMILES IDX 15 15 16 16 36 17 17 18 18 19 35 20 37 21 20 22 34 23 33 24
REMARK SMILES IDX 21 25 31 26 22 27 24 28 30 29 32 30 23 31 25 32 28 33 26 34
REMARK SMILES IDX 19 35 29 37 27 39 14 41
REMARK H PARENT 11 14 19 36 29 38 27 40 14 42
REMARK Flexibility Score: inf
ROOT
ATOM      1  C   UNL     1       4.547  50.223 280.282  1.00  0.00     0.091 C 
ATOM      2  C   UNL     1       3.548  49.793 279.152  1.00  0.00     0.045 C 
ENDROOT
BRANCH   1   3
ATOM      3  C   UNL     1       3.879  50.059 281.701  1.00  0.00     0.146 C 
BRANCH   3   4
ATOM      4  C   UNL     1       3.103  48.728 281.890  1.00  0.00     0.043 C 
BRANCH   4   5
ATOM      5  C   UNL     1       2.882  48.383 283.387  1.00  0.00     0.046 C 
ATOM      6  C   UNL     1       3.087  50.524 284.784  1.00  0.00     0.020 C 
ATOM      7  C   UNL     1       3.768  49.228 284.332  1.00  0.00     0.103 C 
ATOM      8  C   UNL     1       3.974  48.288 285.464  1.00  0.00     0.309 C 
ATOM      9  C   UNL     1       3.142  46.904 283.819  1.00  0.00     0.177 C 
ATOM     10  O   UNL     1       3.559  47.008 285.172  1.00  0.00    -0.462 OA
ATOM     11  O   UNL     1       4.508  48.599 286.564  1.00  0.00    -0.252 OA
ATOM     12  C   UNL     1       4.250  46.188 283.034  1.00  0.00     0.053 C 
ENDBRANCH   4   5
ENDBRANCH   3   4
BRANCH   3  13
ATOM     13  O   UNL     1       4.872  50.117 282.699  1.00  0.00    -0.390 OA
ATOM     14  H   UNL     1       4.534  50.702 283.428  1.00  0.00     0.211 HD
ENDBRANCH   3  13
ENDBRANCH   1   3
BRANCH   1  15
ATOM     15  C   UNL     1       5.020  51.720 280.101  1.00  0.00     0.032 C 
ATOM     16  C   UNL     1       6.195  52.158 281.001  1.00  0.00     0.010 C 
ATOM     17  C   UNL     1       3.952  52.877 280.130  1.00  0.00     0.006 C 
ATOM     18  C   UNL     1       5.884  53.580 281.440  1.00  0.00     0.041 C 
ATOM     19  C   UNL     1       4.843  54.130 280.441  1.00  0.00     0.092 C 
ATOM     20  C   UNL     1       3.193  52.979 278.755  1.00  0.00     0.011 C 
ATOM     21  C   UNL     1       2.878  52.703 281.243  1.00  0.00     0.015 C 
ATOM     22  C   UNL     1       5.407  54.702 279.126  1.00  0.00    -0.031 C 
ATOM     23  C   UNL     1       3.036  54.422 278.252  1.00  0.00     0.009 C 
ATOM     24  C   UNL     1       4.390  55.180 278.097  1.00  0.00     0.025 C 
ATOM     25  C   UNL     1       6.721  54.912 278.908  1.00  0.00     0.050 C 
ATOM     26  C   UNL     1       4.955  55.212 276.622  1.00  0.00    -0.013 C 
ATOM     27  C   UNL     1       7.221  55.581 277.699  1.00  0.00     0.159 C 
ATOM     28  C   UNL     1       6.267  56.062 276.621  1.00  0.00     0.070 C 
ATOM     29  C   UNL     1       5.265  53.757 276.118  1.00  0.00     0.042 C 
ATOM     30  C   UNL     1       3.893  55.915 275.705  1.00  0.00     0.013 C 
ATOM     31  O   UNL     1       8.456  55.822 277.620  1.00  0.00    -0.295 OA
ATOM     32  C   UNL     1       6.945  56.123 275.212  1.00  0.00     0.047 C 
ATOM     33  C   UNL     1       6.453  53.611 275.137  1.00  0.00     0.143 C 
ATOM     34  C   UNL     1       6.709  54.884 274.316  1.00  0.00     0.143 C 
BRANCH  19  35
ATOM     35  O   UNL     1       4.089  55.141 281.073  1.00  0.00    -0.385 OA
ATOM     36  H   UNL     1       4.111  54.959 282.050  1.00  0.00     0.211 HD
ENDBRANCH  19  35
BRANCH  33  37
ATOM     37  O   UNL     1       7.618  53.277 275.853  1.00  0.00    -0.390 OA
ATOM     38  H   UNL     1       7.950  52.417 275.482  1.00  0.00     0.211 HD
ENDBRANCH  33  37
BRANCH  34  39
ATOM     39  O   UNL     1       5.636  55.117 273.441  1.00  0.00    -0.390 OA
ATOM     40  H   UNL     1       6.021  55.454 272.589  1.00  0.00     0.211 HD
ENDBRANCH  34  39
ENDBRANCH   1  15
BRANCH   1  41
ATOM     41  O   UNL     1       5.704  49.417 280.231  1.00  0.00    -0.387 OA
ATOM     42  H   UNL     1       5.877  49.161 279.288  1.00  0.00     0.211 HD
ENDBRANCH   1  41
TORSDOF 9
ENDMDL
MODEL 2
REMARK VINA RESULT:    12.797      0.934      1.641
REMARK INTER + INTRA:          20.321
REMARK INTER:                  19.829
REMARK INTRA:                   0.491
REMARK UNBOUND:                 2.661
REMARK SMILES C[C@H]1OC(=O)[C@H](C)[C@H]1C[C@@H](O)[C@](C)(O)[C@@H]1CC[C@@]2(O)C3=CC(=O)[C@H]4C[C@H](O)[C@@H](O)C[C@@]4(C)[C@H]3CC[C@@]12C
REMARK SMILES IDX 12 1 13 2 10 3 9 4 8 5 7 6 6 7 4 8 2 9 3 10 5 11 1 12 11 13
REMARK SMILES IDX 15 15 16 16 36 17 17 18 18 19 35 20 37 21 20 22 34 23 33 24
REMARK SMILES IDX 21 25 31 26 22 27 24 28 30 29 32 30 23 31 25 32 28 33 26 34
REMARK SMILES IDX 19 35 29 37 27 39 14 41
REMARK H PARENT 11 14 19 36 29 38 27 40 14 42
REMARK Flexibility Score: inf
ROOT
ATOM      1  C   UNL     1       4.395  49.702 279.701  1.00  0.00     0.091 C 
ATOM      2  C   UNL     1       2.890  49.637 279.263  1.00  0.00     0.045 C 
ENDROOT
BRANCH   1   3
ATOM      3  C   UNL     1       4.578  49.078 281.138  1.00  0.00     0.146 C 
BRANCH   3   4
ATOM      4  C   UNL     1       3.610  49.648 282.209  1.00  0.00     0.043 C 
BRANCH   4   5
ATOM      5  C   UNL     1       4.110  49.386 283.654  1.00  0.00     0.046 C 
ATOM      6  C   UNL     1       3.748  46.914 284.236  1.00  0.00     0.020 C 
ATOM      7  C   UNL     1       3.243  48.350 284.408  1.00  0.00     0.103 C 
ATOM      8  C   UNL     1       3.376  48.818 285.812  1.00  0.00     0.309 C 
ATOM      9  C   UNL     1       4.179  50.617 284.615  1.00  0.00     0.177 C 
ATOM     10  O   UNL     1       3.959  50.062 285.902  1.00  0.00    -0.462 OA
ATOM     11  O   UNL     1       2.968  48.180 286.820  1.00  0.00    -0.252 OA
ATOM     12  C   UNL     1       3.107  51.688 284.368  1.00  0.00     0.053 C 
ENDBRANCH   4   5
ENDBRANCH   3   4
BRANCH   3  13
ATOM     13  O   UNL     1       4.371  47.685 281.077  1.00  0.00    -0.390 OA
ATOM     14  H   UNL     1       4.838  47.276 281.853  1.00  0.00     0.211 HD
ENDBRANCH   3  13
ENDBRANCH   1   3
BRANCH   1  15
ATOM     15  C   UNL     1       4.935  51.188 279.709  1.00  0.00     0.032 C 
ATOM     16  C   UNL     1       6.154  51.446 280.620  1.00  0.00     0.010 C 
ATOM     17  C   UNL     1       3.926  52.376 279.928  1.00  0.00     0.006 C 
ATOM     18  C   UNL     1       5.924  52.807 281.257  1.00  0.00     0.041 C 
ATOM     19  C   UNL     1       4.885  53.534 280.376  1.00  0.00     0.092 C 
ATOM     20  C   UNL     1       3.137  52.698 278.606  1.00  0.00     0.011 C 
ATOM     21  C   UNL     1       2.875  52.100 281.042  1.00  0.00     0.015 C 
ATOM     22  C   UNL     1       5.441  54.254 279.132  1.00  0.00    -0.031 C 
ATOM     23  C   UNL     1       3.037  54.202 278.307  1.00  0.00     0.009 C 
ATOM     24  C   UNL     1       4.422  54.913 278.211  1.00  0.00     0.025 C 
ATOM     25  C   UNL     1       6.757  54.433 278.901  1.00  0.00     0.050 C 
ATOM     26  C   UNL     1       4.948  55.120 276.736  1.00  0.00    -0.013 C 
ATOM     27  C   UNL     1       7.257  55.237 277.777  1.00  0.00     0.159 C 
ATOM     28  C   UNL     1       6.299  55.903 276.806  1.00  0.00     0.070 C 
ATOM     29  C   UNL     1       5.173  53.735 276.030  1.00  0.00     0.042 C 
ATOM     30  C   UNL     1       3.898  55.988 275.958  1.00  0.00     0.013 C 
ATOM     31  O   UNL     1       8.500  55.432 277.691  1.00  0.00    -0.295 OA
ATOM     32  C   UNL     1       6.941  56.125 275.396  1.00  0.00     0.047 C 
ATOM     33  C   UNL     1       6.326  53.671 275.000  1.00  0.00     0.143 C 
ATOM     34  C   UNL     1       6.622  55.031 274.350  1.00  0.00     0.143 C 
BRANCH  19  35
ATOM     35  O   UNL     1       4.198  54.482 281.163  1.00  0.00    -0.385 OA
ATOM     36  H   UNL     1       3.229  54.276 281.095  1.00  0.00     0.211 HD
ENDBRANCH  19  35
BRANCH  33  37
ATOM     37  O   UNL     1       7.492  53.191 275.626  1.00  0.00    -0.390 OA
ATOM     38  H   UNL     1       7.722  53.838 276.344  1.00  0.00     0.211 HD
ENDBRANCH  33  37
BRANCH  34  39
ATOM     39  O   UNL     1       5.538  55.429 273.551  1.00  0.00    -0.390 OA
ATOM     40  H   UNL     1       5.913  55.930 272.778  1.00  0.00     0.211 HD
ENDBRANCH  34  39
ENDBRANCH   1  15
BRANCH   1  41
ATOM     41  O   UNL     1       5.192  48.979 278.789  1.00  0.00    -0.387 OA
ATOM     42  H   UNL     1       5.771  49.614 278.294  1.00  0.00     0.211 HD
ENDBRANCH   1  41
TORSDOF 9
ENDMDL
