MODEL 1
REMARK VINA RESULT:    -8.433      0.000      0.000
REMARK INTER + INTRA:          -8.679
REMARK INTER:                  -8.679
REMARK INTRA:                   0.000
REMARK UNBOUND:                 0.000
REMARK SMILES CC1(C)CC[C@]2(C)CC[C@]3(C)C(=CC[C@@H]4[C@]5(C)CC[C@H](O)C(C)(C)[C@@H]5CC[C@]43C)[C@@H]2C1
REMARK SMILES IDX 1 1 2 2 4 3 5 4 6 5 8 6 9 7 10 8 12 9 13 10 14 11 15 12
REMARK SMILES IDX 28 13 27 14 26 15 25 16 16 17 18 18 19 19 20 20 22 21 23 22
REMARK SMILES IDX 24 23 17 24 29 25 30 26 31 27 11 28 7 29 3 30 21 31
REMARK H PARENT 21 32
REMARK Flexibility Score: inf
ROOT
ATOM      1  C   UNL     1     147.316 143.311 140.617  1.00  0.00     0.011 C 
ATOM      2  C   UNL     1     148.687 142.599 140.720  1.00  0.00    -0.035 C 
ATOM      3  C   UNL     1     149.019 142.204 142.178  1.00  0.00     0.007 C 
ATOM      4  C   UNL     1     148.078 141.125 142.725  1.00  0.00     0.008 C 
ATOM      5  C   UNL     1     147.997 139.831 141.849  1.00  0.00    -0.026 C 
ATOM      6  C   UNL     1     149.251 138.915 142.088  1.00  0.00     0.008 C 
ATOM      7  C   UNL     1     150.032 138.405 140.843  1.00  0.00     0.012 C 
ATOM      8  C   UNL     1     149.231 138.083 139.518  1.00  0.00    -0.006 C 
ATOM      9  C   UNL     1     147.957 138.931 139.469  1.00  0.00    -0.064 C 
ATOM     10  C   UNL     1     146.941 138.584 138.649  1.00  0.00    -0.027 C 
ATOM     11  C   UNL     1     146.880 137.314 137.832  1.00  0.00     0.032 C 
ATOM     12  C   UNL     1     148.085 136.330 137.978  1.00  0.00     0.006 C 
ATOM     13  C   UNL     1     148.840 136.516 139.351  1.00  0.00    -0.020 C 
ATOM     14  C   UNL     1     150.093 135.593 139.319  1.00  0.00     0.008 C 
ATOM     15  C   UNL     1     149.779 134.130 139.002  1.00  0.00     0.005 C 
ATOM     16  C   UNL     1     149.065 133.916 137.637  1.00  0.00     0.003 C 
ATOM     17  C   UNL     1     147.774 134.840 137.489  1.00  0.00    -0.025 C 
ATOM     18  C   UNL     1     146.517 134.221 138.203  1.00  0.00     0.010 C 
ATOM     19  C   UNL     1     146.653 132.744 138.586  1.00  0.00     0.033 C 
ATOM     20  C   UNL     1     147.321 131.940 137.473  1.00  0.00     0.120 C 
ATOM     21  C   UNL     1     148.828 132.358 137.291  1.00  0.00    -0.006 C 
ATOM     22  C   UNL     1     149.252 132.084 135.822  1.00  0.00     0.014 C 
ATOM     23  C   UNL     1     149.728 131.410 138.145  1.00  0.00     0.014 C 
ATOM     24  C   UNL     1     147.432 134.951 135.965  1.00  0.00     0.012 C 
ATOM     25  C   UNL     1     147.944 136.074 140.542  1.00  0.00     0.012 C 
ATOM     26  C   UNL     1     147.805 140.184 140.340  1.00  0.00     0.022 C 
ATOM     27  C   UNL     1     148.731 141.325 139.847  1.00  0.00     0.015 C 
ATOM     28  C   UNL     1     150.121 138.575 138.320  1.00  0.00     0.017 C 
ATOM     29  C   UNL     1     146.733 139.085 142.351  1.00  0.00     0.012 C 
ATOM     30  C   UNL     1     149.767 143.583 140.221  1.00  0.00     0.011 C 
ENDROOT
BRANCH  20  31
ATOM     31  O   UNL     1     147.180 130.571 137.768  1.00  0.00    -0.393 OA
ATOM     32  H   UNL     1     147.591 130.067 137.017  1.00  0.00     0.210 HD
ENDBRANCH  20  31
TORSDOF 1
ENDMDL
MODEL 2
REMARK VINA RESULT:    -7.268      1.340      3.233
REMARK INTER + INTRA:          -7.481
REMARK INTER:                  -7.481
REMARK INTRA:                   0.000
REMARK UNBOUND:                 0.000
REMARK SMILES CC1(C)CC[C@]2(C)CC[C@]3(C)C(=CC[C@@H]4[C@]5(C)CC[C@H](O)C(C)(C)[C@@H]5CC[C@]43C)[C@@H]2C1
REMARK SMILES IDX 1 1 2 2 4 3 5 4 6 5 8 6 9 7 10 8 12 9 13 10 14 11 15 12
REMARK SMILES IDX 28 13 27 14 26 15 25 16 16 17 18 18 19 19 20 20 22 21 23 22
REMARK SMILES IDX 24 23 17 24 29 25 30 26 31 27 11 28 7 29 3 30 21 31
REMARK H PARENT 21 32
REMARK Flexibility Score: inf
ROOT
ATOM      1  C   UNL     1     150.029 142.178 140.308  1.00  0.00     0.011 C 
ATOM      2  C   UNL     1     148.679 141.543 140.721  1.00  0.00    -0.035 C 
ATOM      3  C   UNL     1     147.523 142.012 139.810  1.00  0.00     0.007 C 
ATOM      4  C   UNL     1     147.664 141.505 138.370  1.00  0.00     0.008 C 
ATOM      5  C   UNL     1     147.822 139.954 138.242  1.00  0.00    -0.026 C 
ATOM      6  C   UNL     1     146.432 139.236 138.400  1.00  0.00     0.008 C 
ATOM      7  C   UNL     1     146.329 138.055 139.407  1.00  0.00     0.012 C 
ATOM      8  C   UNL     1     147.579 137.107 139.603  1.00  0.00    -0.006 C 
ATOM      9  C   UNL     1     148.863 137.877 139.279  1.00  0.00    -0.064 C 
ATOM     10  C   UNL     1     150.008 137.209 139.015  1.00  0.00    -0.027 C 
ATOM     11  C   UNL     1     150.124 135.709 138.873  1.00  0.00     0.032 C 
ATOM     12  C   UNL     1     148.803 134.887 139.027  1.00  0.00     0.006 C 
ATOM     13  C   UNL     1     147.525 135.754 138.707  1.00  0.00    -0.020 C 
ATOM     14  C   UNL     1     146.279 134.879 139.032  1.00  0.00     0.008 C 
ATOM     15  C   UNL     1     146.273 133.521 138.328  1.00  0.00     0.005 C 
ATOM     16  C   UNL     1     147.507 132.633 138.655  1.00  0.00     0.003 C 
ATOM     17  C   UNL     1     148.879 133.410 138.421  1.00  0.00    -0.025 C 
ATOM     18  C   UNL     1     149.317 133.400 136.910  1.00  0.00     0.010 C 
ATOM     19  C   UNL     1     148.575 132.389 136.029  1.00  0.00     0.033 C 
ATOM     20  C   UNL     1     148.406 131.049 136.742  1.00  0.00     0.120 C 
ATOM     21  C   UNL     1     147.428 131.174 137.970  1.00  0.00    -0.006 C 
ATOM     22  C   UNL     1     147.798 130.089 139.018  1.00  0.00     0.014 C 
ATOM     23  C   UNL     1     145.982 130.804 137.511  1.00  0.00     0.014 C 
ATOM     24  C   UNL     1     149.997 132.671 139.230  1.00  0.00     0.012 C 
ATOM     25  C   UNL     1     147.471 136.130 137.200  1.00  0.00     0.012 C 
ATOM     26  C   UNL     1     148.882 139.411 139.251  1.00  0.00     0.022 C 
ATOM     27  C   UNL     1     148.741 140.000 140.677  1.00  0.00     0.015 C 
ATOM     28  C   UNL     1     147.655 136.769 141.135  1.00  0.00     0.017 C 
ATOM     29  C   UNL     1     148.340 139.720 136.799  1.00  0.00     0.012 C 
ATOM     30  C   UNL     1     148.374 141.988 142.169  1.00  0.00     0.011 C 
ENDROOT
BRANCH  20  31
ATOM     31  O   UNL     1     147.964 130.099 135.802  1.00  0.00    -0.393 OA
ATOM     32  H   UNL     1     148.055 130.513 134.904  1.00  0.00     0.210 HD
ENDBRANCH  20  31
TORSDOF 1
ENDMDL
MODEL 3
REMARK VINA RESULT:    -7.061      5.027      7.314
REMARK INTER + INTRA:          -7.267
REMARK INTER:                  -7.267
REMARK INTRA:                   0.000
REMARK UNBOUND:                 0.000
REMARK SMILES CC1(C)CC[C@]2(C)CC[C@]3(C)C(=CC[C@@H]4[C@]5(C)CC[C@H](O)C(C)(C)[C@@H]5CC[C@]43C)[C@@H]2C1
REMARK SMILES IDX 1 1 2 2 4 3 5 4 6 5 8 6 9 7 10 8 12 9 13 10 14 11 15 12
REMARK SMILES IDX 28 13 27 14 26 15 25 16 16 17 18 18 19 19 20 20 22 21 23 22
REMARK SMILES IDX 24 23 17 24 29 25 30 26 31 27 11 28 7 29 3 30 21 31
REMARK H PARENT 21 32
REMARK Flexibility Score: inf
ROOT
ATOM      1  C   UNL     1     149.561 138.750 137.628  1.00  0.00     0.011 C 
ATOM      2  C   UNL     1     149.417 137.557 138.604  1.00  0.00    -0.035 C 
ATOM      3  C   UNL     1     150.080 137.852 139.969  1.00  0.00     0.007 C 
ATOM      4  C   UNL     1     149.364 138.962 140.745  1.00  0.00     0.008 C 
ATOM      5  C   UNL     1     147.833 138.720 140.959  1.00  0.00    -0.026 C 
ATOM      6  C   UNL     1     147.588 137.693 142.125  1.00  0.00     0.008 C 
ATOM      7  C   UNL     1     146.639 136.492 141.853  1.00  0.00     0.012 C 
ATOM      8  C   UNL     1     145.398 136.700 140.895  1.00  0.00    -0.006 C 
ATOM      9  C   UNL     1     145.701 137.822 139.898  1.00  0.00    -0.064 C 
ATOM     10  C   UNL     1     144.695 138.431 139.233  1.00  0.00    -0.027 C 
ATOM     11  C   UNL     1     143.223 138.193 139.480  1.00  0.00     0.032 C 
ATOM     12  C   UNL     1     142.859 137.176 140.609  1.00  0.00     0.006 C 
ATOM     13  C   UNL     1     144.014 137.033 141.674  1.00  0.00    -0.020 C 
ATOM     14  C   UNL     1     143.600 135.900 142.657  1.00  0.00     0.008 C 
ATOM     15  C   UNL     1     142.222 136.100 143.292  1.00  0.00     0.005 C 
ATOM     16  C   UNL     1     141.061 136.208 142.263  1.00  0.00     0.003 C 
ATOM     17  C   UNL     1     141.358 137.304 141.143  1.00  0.00    -0.025 C 
ATOM     18  C   UNL     1     141.014 138.759 141.632  1.00  0.00     0.010 C 
ATOM     19  C   UNL     1     140.158 138.830 142.901  1.00  0.00     0.033 C 
ATOM     20  C   UNL     1     139.038 137.792 142.875  1.00  0.00     0.120 C 
ATOM     21  C   UNL     1     139.612 136.328 142.963  1.00  0.00    -0.006 C 
ATOM     22  C   UNL     1     138.619 135.357 142.269  1.00  0.00     0.014 C 
ATOM     23  C   UNL     1     139.628 135.875 144.457  1.00  0.00     0.014 C 
ATOM     24  C   UNL     1     140.437 137.000 139.914  1.00  0.00     0.012 C 
ATOM     25  C   UNL     1     144.181 138.345 142.492  1.00  0.00     0.012 C 
ATOM     26  C   UNL     1     147.142 138.277 139.631  1.00  0.00     0.022 C 
ATOM     27  C   UNL     1     147.934 137.200 138.848  1.00  0.00     0.015 C 
ATOM     28  C   UNL     1     145.264 135.389 140.039  1.00  0.00     0.017 C 
ATOM     29  C   UNL     1     147.263 140.099 141.383  1.00  0.00     0.012 C 
ATOM     30  C   UNL     1     150.125 136.340 137.968  1.00  0.00     0.011 C 
ENDROOT
BRANCH  20  31
ATOM     31  O   UNL     1     138.144 138.078 143.924  1.00  0.00    -0.393 OA
ATOM     32  H   UNL     1     137.640 138.894 143.663  1.00  0.00     0.210 HD
ENDBRANCH  20  31
TORSDOF 1
ENDMDL
MODEL 4
REMARK VINA RESULT:    -6.976     10.959     13.920
REMARK INTER + INTRA:          -7.180
REMARK INTER:                  -7.180
REMARK INTRA:                   0.000
REMARK UNBOUND:                 0.000
REMARK SMILES CC1(C)CC[C@]2(C)CC[C@]3(C)C(=CC[C@@H]4[C@]5(C)CC[C@H](O)C(C)(C)[C@@H]5CC[C@]43C)[C@@H]2C1
REMARK SMILES IDX 1 1 2 2 4 3 5 4 6 5 8 6 9 7 10 8 12 9 13 10 14 11 15 12
REMARK SMILES IDX 28 13 27 14 26 15 25 16 16 17 18 18 19 19 20 20 22 21 23 22
REMARK SMILES IDX 24 23 17 24 29 25 30 26 31 27 11 28 7 29 3 30 21 31
REMARK H PARENT 21 32
REMARK Flexibility Score: inf
ROOT
ATOM      1  C   UNL     1     142.974 133.276 129.281  1.00  0.00     0.011 C 
ATOM      2  C   UNL     1     141.449 133.406 129.053  1.00  0.00    -0.035 C 
ATOM      3  C   UNL     1     140.847 132.116 128.449  1.00  0.00     0.007 C 
ATOM      4  C   UNL     1     140.905 130.930 129.417  1.00  0.00     0.008 C 
ATOM      5  C   UNL     1     140.249 131.198 130.812  1.00  0.00    -0.026 C 
ATOM      6  C   UNL     1     138.682 131.097 130.720  1.00  0.00     0.008 C 
ATOM      7  C   UNL     1     137.840 132.265 131.308  1.00  0.00     0.012 C 
ATOM      8  C   UNL     1     138.371 133.021 132.591  1.00  0.00    -0.006 C 
ATOM      9  C   UNL     1     139.899 132.925 132.647  1.00  0.00    -0.064 C 
ATOM     10  C   UNL     1     140.552 133.160 133.806  1.00  0.00    -0.027 C 
ATOM     11  C   UNL     1     139.889 133.393 135.144  1.00  0.00     0.032 C 
ATOM     12  C   UNL     1     138.328 133.332 135.172  1.00  0.00     0.006 C 
ATOM     13  C   UNL     1     137.747 132.470 133.985  1.00  0.00    -0.020 C 
ATOM     14  C   UNL     1     136.197 132.601 134.032  1.00  0.00     0.008 C 
ATOM     15  C   UNL     1     135.584 132.243 135.388  1.00  0.00     0.005 C 
ATOM     16  C   UNL     1     136.115 133.103 136.570  1.00  0.00     0.003 C 
ATOM     17  C   UNL     1     137.708 133.115 136.629  1.00  0.00    -0.025 C 
ATOM     18  C   UNL     1     138.284 131.839 137.346  1.00  0.00     0.010 C 
ATOM     19  C   UNL     1     137.258 131.025 138.141  1.00  0.00     0.033 C 
ATOM     20  C   UNL     1     136.318 131.934 138.929  1.00  0.00     0.120 C 
ATOM     21  C   UNL     1     135.386 132.764 137.968  1.00  0.00    -0.006 C 
ATOM     22  C   UNL     1     134.984 134.087 138.677  1.00  0.00     0.014 C 
ATOM     23  C   UNL     1     134.040 131.996 137.773  1.00  0.00     0.014 C 
ATOM     24  C   UNL     1     138.150 134.357 137.473  1.00  0.00     0.012 C 
ATOM     25  C   UNL     1     138.110 130.968 134.159  1.00  0.00     0.012 C 
ATOM     26  C   UNL     1     140.716 132.566 131.400  1.00  0.00     0.022 C 
ATOM     27  C   UNL     1     140.704 133.723 130.369  1.00  0.00     0.015 C 
ATOM     28  C   UNL     1     138.043 134.544 132.387  1.00  0.00     0.017 C 
ATOM     29  C   UNL     1     140.767 130.057 131.727  1.00  0.00     0.012 C 
ATOM     30  C   UNL     1     141.219 134.566 128.059  1.00  0.00     0.011 C 
ENDROOT
BRANCH  20  31
ATOM     31  O   UNL     1     135.583 131.140 139.829  1.00  0.00    -0.393 OA
ATOM     32  H   UNL     1     135.780 130.192 139.609  1.00  0.00     0.210 HD
ENDBRANCH  20  31
TORSDOF 1
ENDMDL
MODEL 5
REMARK VINA RESULT:    -6.914     10.098     12.710
REMARK INTER + INTRA:          -7.116
REMARK INTER:                  -7.116
REMARK INTRA:                   0.000
REMARK UNBOUND:                 0.000
REMARK SMILES CC1(C)CC[C@]2(C)CC[C@]3(C)C(=CC[C@@H]4[C@]5(C)CC[C@H](O)C(C)(C)[C@@H]5CC[C@]43C)[C@@H]2C1
REMARK SMILES IDX 1 1 2 2 4 3 5 4 6 5 8 6 9 7 10 8 12 9 13 10 14 11 15 12
REMARK SMILES IDX 28 13 27 14 26 15 25 16 16 17 18 18 19 19 20 20 22 21 23 22
REMARK SMILES IDX 24 23 17 24 29 25 30 26 31 27 11 28 7 29 3 30 21 31
REMARK H PARENT 21 32
REMARK Flexibility Score: inf
ROOT
ATOM      1  C   UNL     1     135.873 134.277 139.057  1.00  0.00     0.011 C 
ATOM      2  C   UNL     1     135.623 133.007 138.209  1.00  0.00    -0.035 C 
ATOM      3  C   UNL     1     134.434 133.191 137.238  1.00  0.00     0.007 C 
ATOM      4  C   UNL     1     134.719 134.228 136.147  1.00  0.00     0.008 C 
ATOM      5  C   UNL     1     136.020 133.957 135.320  1.00  0.00    -0.026 C 
ATOM      6  C   UNL     1     135.775 132.836 134.245  1.00  0.00     0.008 C 
ATOM      7  C   UNL     1     136.785 131.655 134.180  1.00  0.00     0.012 C 
ATOM      8  C   UNL     1     138.308 131.932 134.498  1.00  0.00    -0.006 C 
ATOM      9  C   UNL     1     138.425 133.136 135.437  1.00  0.00    -0.064 C 
ATOM     10  C   UNL     1     139.601 133.791 135.560  1.00  0.00    -0.027 C 
ATOM     11  C   UNL     1     140.834 133.523 134.729  1.00  0.00     0.032 C 
ATOM     12  C   UNL     1     140.713 132.413 133.635  1.00  0.00     0.006 C 
ATOM     13  C   UNL     1     139.219 132.190 133.179  1.00  0.00    -0.020 C 
ATOM     14  C   UNL     1     139.209 130.976 132.206  1.00  0.00     0.008 C 
ATOM     15  C   UNL     1     140.179 131.112 131.031  1.00  0.00     0.005 C 
ATOM     16  C   UNL     1     141.664 131.298 131.455  1.00  0.00     0.003 C 
ATOM     17  C   UNL     1     141.840 132.485 132.504  1.00  0.00    -0.025 C 
ATOM     18  C   UNL     1     141.901 133.892 131.803  1.00  0.00     0.010 C 
ATOM     19  C   UNL     1     142.132 133.851 130.289  1.00  0.00     0.033 C 
ATOM     20  C   UNL     1     143.187 132.810 129.916  1.00  0.00     0.120 C 
ATOM     21  C   UNL     1     142.673 131.349 130.196  1.00  0.00    -0.006 C 
ATOM     22  C   UNL     1     143.895 130.431 130.475  1.00  0.00     0.014 C 
ATOM     23  C   UNL     1     142.035 130.773 128.892  1.00  0.00     0.014 C 
ATOM     24  C   UNL     1     143.204 132.278 133.243  1.00  0.00     0.012 C 
ATOM     25  C   UNL     1     138.682 133.430 132.411  1.00  0.00     0.012 C 
ATOM     26  C   UNL     1     137.223 133.622 136.256  1.00  0.00     0.022 C 
ATOM     27  C   UNL     1     136.871 132.620 137.385  1.00  0.00     0.015 C 
ATOM     28  C   UNL     1     138.833 130.697 135.315  1.00  0.00     0.017 C 
ATOM     29  C   UNL     1     136.315 135.292 134.586  1.00  0.00     0.012 C 
ATOM     30  C   UNL     1     135.289 131.852 139.179  1.00  0.00     0.011 C 
ENDROOT
BRANCH  20  31
ATOM     31  O   UNL     1     143.541 133.002 128.567  1.00  0.00    -0.393 OA
ATOM     32  H   UNL     1     142.756 133.407 128.114  1.00  0.00     0.210 HD
ENDBRANCH  20  31
TORSDOF 1
ENDMDL
MODEL 6
REMARK VINA RESULT:    -6.822      4.083      5.993
REMARK INTER + INTRA:          -7.021
REMARK INTER:                  -7.021
REMARK INTRA:                   0.000
REMARK UNBOUND:                 0.000
REMARK SMILES CC1(C)CC[C@]2(C)CC[C@]3(C)C(=CC[C@@H]4[C@]5(C)CC[C@H](O)C(C)(C)[C@@H]5CC[C@]43C)[C@@H]2C1
REMARK SMILES IDX 1 1 2 2 4 3 5 4 6 5 8 6 9 7 10 8 12 9 13 10 14 11 15 12
REMARK SMILES IDX 28 13 27 14 26 15 25 16 16 17 18 18 19 19 20 20 22 21 23 22
REMARK SMILES IDX 24 23 17 24 29 25 30 26 31 27 11 28 7 29 3 30 21 31
REMARK H PARENT 21 32
REMARK Flexibility Score: inf
ROOT
ATOM      1  C   UNL     1     148.368 142.449 139.528  1.00  0.00     0.011 C 
ATOM      2  C   UNL     1     148.064 141.152 138.740  1.00  0.00    -0.035 C 
ATOM      3  C   UNL     1     149.338 140.307 138.513  1.00  0.00     0.007 C 
ATOM      4  C   UNL     1     149.907 139.738 139.818  1.00  0.00     0.008 C 
ATOM      5  C   UNL     1     148.885 138.909 140.664  1.00  0.00    -0.026 C 
ATOM      6  C   UNL     1     148.706 137.466 140.066  1.00  0.00     0.008 C 
ATOM      7  C   UNL     1     147.259 136.955 139.812  1.00  0.00     0.012 C 
ATOM      8  C   UNL     1     146.107 137.401 140.797  1.00  0.00    -0.006 C 
ATOM      9  C   UNL     1     146.463 138.751 141.427  1.00  0.00    -0.064 C 
ATOM     10  C   UNL     1     145.839 139.161 142.554  1.00  0.00    -0.027 C 
ATOM     11  C   UNL     1     144.874 138.327 143.363  1.00  0.00     0.032 C 
ATOM     12  C   UNL     1     144.605 136.874 142.853  1.00  0.00     0.006 C 
ATOM     13  C   UNL     1     145.794 136.326 141.973  1.00  0.00    -0.020 C 
ATOM     14  C   UNL     1     145.353 134.944 141.409  1.00  0.00     0.008 C 
ATOM     15  C   UNL     1     144.895 133.952 142.481  1.00  0.00     0.005 C 
ATOM     16  C   UNL     1     143.701 134.456 143.340  1.00  0.00     0.003 C 
ATOM     17  C   UNL     1     143.977 135.901 143.955  1.00  0.00    -0.025 C 
ATOM     18  C   UNL     1     144.844 135.833 145.265  1.00  0.00     0.010 C 
ATOM     19  C   UNL     1     144.962 134.439 145.890  1.00  0.00     0.033 C 
ATOM     20  C   UNL     1     143.622 133.706 145.871  1.00  0.00     0.120 C 
ATOM     21  C   UNL     1     143.183 133.355 144.400  1.00  0.00    -0.006 C 
ATOM     22  C   UNL     1     141.633 133.272 144.345  1.00  0.00     0.014 C 
ATOM     23  C   UNL     1     143.669 131.912 144.053  1.00  0.00     0.014 C 
ATOM     24  C   UNL     1     142.598 136.530 144.346  1.00  0.00     0.012 C 
ATOM     25  C   UNL     1     147.071 136.111 142.834  1.00  0.00     0.012 C 
ATOM     26  C   UNL     1     147.525 139.662 140.799  1.00  0.00     0.022 C 
ATOM     27  C   UNL     1     147.020 140.277 139.469  1.00  0.00     0.015 C 
ATOM     28  C   UNL     1     144.832 137.661 139.915  1.00  0.00     0.017 C 
ATOM     29  C   UNL     1     149.531 138.789 142.069  1.00  0.00     0.012 C 
ATOM     30  C   UNL     1     147.496 141.562 137.363  1.00  0.00     0.011 C 
ENDROOT
BRANCH  20  31
ATOM     31  O   UNL     1     143.731 132.561 146.683  1.00  0.00    -0.393 OA
ATOM     32  H   UNL     1     144.313 131.917 146.201  1.00  0.00     0.210 HD
ENDBRANCH  20  31
TORSDOF 1
ENDMDL
MODEL 7
REMARK VINA RESULT:    -6.767      4.775      8.381
REMARK INTER + INTRA:          -6.965
REMARK INTER:                  -6.965
REMARK INTRA:                   0.000
REMARK UNBOUND:                 0.000
REMARK SMILES CC1(C)CC[C@]2(C)CC[C@]3(C)C(=CC[C@@H]4[C@]5(C)CC[C@H](O)C(C)(C)[C@@H]5CC[C@]43C)[C@@H]2C1
REMARK SMILES IDX 1 1 2 2 4 3 5 4 6 5 8 6 9 7 10 8 12 9 13 10 14 11 15 12
REMARK SMILES IDX 28 13 27 14 26 15 25 16 16 17 18 18 19 19 20 20 22 21 23 22
REMARK SMILES IDX 24 23 17 24 29 25 30 26 31 27 11 28 7 29 3 30 21 31
REMARK H PARENT 21 32
REMARK Flexibility Score: inf
ROOT
ATOM      1  C   UNL     1     138.282 134.796 137.665  1.00  0.00     0.011 C 
ATOM      2  C   UNL     1     138.896 135.046 139.064  1.00  0.00    -0.035 C 
ATOM      3  C   UNL     1     139.559 133.772 139.635  1.00  0.00     0.007 C 
ATOM      4  C   UNL     1     140.796 133.344 138.838  1.00  0.00     0.008 C 
ATOM      5  C   UNL     1     141.881 134.459 138.676  1.00  0.00    -0.026 C 
ATOM      6  C   UNL     1     142.731 134.606 139.991  1.00  0.00     0.008 C 
ATOM      7  C   UNL     1     142.911 136.030 140.589  1.00  0.00     0.012 C 
ATOM      8  C   UNL     1     143.009 137.265 139.607  1.00  0.00    -0.006 C 
ATOM      9  C   UNL     1     142.267 136.946 138.305  1.00  0.00    -0.064 C 
ATOM     10  C   UNL     1     142.511 137.669 137.190  1.00  0.00    -0.027 C 
ATOM     11  C   UNL     1     143.584 138.724 137.057  1.00  0.00     0.032 C 
ATOM     12  C   UNL     1     144.484 138.969 138.312  1.00  0.00     0.006 C 
ATOM     13  C   UNL     1     144.531 137.711 139.262  1.00  0.00    -0.020 C 
ATOM     14  C   UNL     1     145.331 138.121 140.533  1.00  0.00     0.008 C 
ATOM     15  C   UNL     1     146.716 138.699 140.236  1.00  0.00     0.005 C 
ATOM     16  C   UNL     1     146.693 139.962 139.329  1.00  0.00     0.003 C 
ATOM     17  C   UNL     1     145.858 139.720 137.992  1.00  0.00    -0.025 C 
ATOM     18  C   UNL     1     146.705 138.986 136.889  1.00  0.00     0.010 C 
ATOM     19  C   UNL     1     148.215 138.956 137.146  1.00  0.00     0.033 C 
ATOM     20  C   UNL     1     148.717 140.301 137.667  1.00  0.00     0.120 C 
ATOM     21  C   UNL     1     148.158 140.601 139.108  1.00  0.00    -0.006 C 
ATOM     22  C   UNL     1     148.088 142.140 139.309  1.00  0.00     0.014 C 
ATOM     23  C   UNL     1     149.193 140.111 140.169  1.00  0.00     0.014 C 
ATOM     24  C   UNL     1     145.459 141.119 137.413  1.00  0.00     0.012 C 
ATOM     25  C   UNL     1     145.278 136.529 138.582  1.00  0.00     0.012 C 
ATOM     26  C   UNL     1     141.237 135.811 138.238  1.00  0.00     0.022 C 
ATOM     27  C   UNL     1     139.953 136.172 139.026  1.00  0.00     0.015 C 
ATOM     28  C   UNL     1     142.213 138.442 140.278  1.00  0.00     0.017 C 
ATOM     29  C   UNL     1     142.809 133.955 137.539  1.00  0.00     0.012 C 
ATOM     30  C   UNL     1     137.751 135.469 140.010  1.00  0.00     0.011 C 
ENDROOT
BRANCH  20  31
ATOM     31  O   UNL     1     150.124 140.294 137.631  1.00  0.00    -0.393 OA
ATOM     32  H   UNL     1     150.429 139.627 138.301  1.00  0.00     0.210 HD
ENDBRANCH  20  31
TORSDOF 1
ENDMDL
MODEL 8
REMARK VINA RESULT:    -6.743      3.166      4.746
REMARK INTER + INTRA:          -6.940
REMARK INTER:                  -6.940
REMARK INTRA:                   0.000
REMARK UNBOUND:                 0.000
REMARK SMILES CC1(C)CC[C@]2(C)CC[C@]3(C)C(=CC[C@@H]4[C@]5(C)CC[C@H](O)C(C)(C)[C@@H]5CC[C@]43C)[C@@H]2C1
REMARK SMILES IDX 1 1 2 2 4 3 5 4 6 5 8 6 9 7 10 8 12 9 13 10 14 11 15 12
REMARK SMILES IDX 28 13 27 14 26 15 25 16 16 17 18 18 19 19 20 20 22 21 23 22
REMARK SMILES IDX 24 23 17 24 29 25 30 26 31 27 11 28 7 29 3 30 21 31
REMARK H PARENT 21 32
REMARK Flexibility Score: inf
ROOT
ATOM      1  C   UNL     1     148.987 141.496 142.118  1.00  0.00     0.011 C 
ATOM      2  C   UNL     1     148.792 141.605 140.587  1.00  0.00    -0.035 C 
ATOM      3  C   UNL     1     149.994 141.017 139.813  1.00  0.00     0.007 C 
ATOM      4  C   UNL     1     150.125 139.501 139.991  1.00  0.00     0.008 C 
ATOM      5  C   UNL     1     148.836 138.692 139.628  1.00  0.00    -0.026 C 
ATOM      6  C   UNL     1     148.694 138.536 138.070  1.00  0.00     0.008 C 
ATOM      7  C   UNL     1     147.333 138.912 137.419  1.00  0.00     0.012 C 
ATOM      8  C   UNL     1     146.000 138.644 138.226  1.00  0.00    -0.006 C 
ATOM      9  C   UNL     1     146.293 138.677 139.729  1.00  0.00    -0.064 C 
ATOM     10  C   UNL     1     145.425 138.124 140.604  1.00  0.00    -0.027 C 
ATOM     11  C   UNL     1     144.199 137.326 140.222  1.00  0.00     0.032 C 
ATOM     12  C   UNL     1     143.947 137.119 138.694  1.00  0.00     0.006 C 
ATOM     13  C   UNL     1     145.275 137.240 137.852  1.00  0.00    -0.020 C 
ATOM     14  C   UNL     1     144.879 137.161 136.349  1.00  0.00     0.008 C 
ATOM     15  C   UNL     1     144.052 135.925 135.988  1.00  0.00     0.005 C 
ATOM     16  C   UNL     1     142.720 135.802 136.780  1.00  0.00     0.003 C 
ATOM     17  C   UNL     1     142.950 135.916 138.354  1.00  0.00    -0.025 C 
ATOM     18  C   UNL     1     143.412 134.553 138.986  1.00  0.00     0.010 C 
ATOM     19  C   UNL     1     143.221 133.325 138.089  1.00  0.00     0.033 C 
ATOM     20  C   UNL     1     141.876 133.369 137.367  1.00  0.00     0.120 C 
ATOM     21  C   UNL     1     141.829 134.540 136.314  1.00  0.00    -0.006 C 
ATOM     22  C   UNL     1     140.354 134.988 136.128  1.00  0.00     0.014 C 
ATOM     23  C   UNL     1     142.254 133.987 134.917  1.00  0.00     0.014 C 
ATOM     24  C   UNL     1     141.582 136.292 139.015  1.00  0.00     0.012 C 
ATOM     25  C   UNL     1     146.239 136.059 138.160  1.00  0.00     0.012 C 
ATOM     26  C   UNL     1     147.568 139.335 140.273  1.00  0.00     0.022 C 
ATOM     27  C   UNL     1     147.510 140.876 140.126  1.00  0.00     0.015 C 
ATOM     28  C   UNL     1     145.049 139.863 137.947  1.00  0.00     0.017 C 
ATOM     29  C   UNL     1     149.055 137.287 140.250  1.00  0.00     0.012 C 
ATOM     30  C   UNL     1     148.667 143.104 140.234  1.00  0.00     0.011 C 
ENDROOT
BRANCH  20  31
ATOM     31  O   UNL     1     141.649 132.111 136.776  1.00  0.00    -0.393 OA
ATOM     32  H   UNL     1     141.546 132.262 135.800  1.00  0.00     0.210 HD
ENDBRANCH  20  31
TORSDOF 1
ENDMDL
MODEL 9
REMARK VINA RESULT:    -6.612      6.127      8.186
REMARK INTER + INTRA:          -6.805
REMARK INTER:                  -6.805
REMARK INTRA:                   0.000
REMARK UNBOUND:                 0.000
REMARK SMILES CC1(C)CC[C@]2(C)CC[C@]3(C)C(=CC[C@@H]4[C@]5(C)CC[C@H](O)C(C)(C)[C@@H]5CC[C@]43C)[C@@H]2C1
REMARK SMILES IDX 1 1 2 2 4 3 5 4 6 5 8 6 9 7 10 8 12 9 13 10 14 11 15 12
REMARK SMILES IDX 28 13 27 14 26 15 25 16 16 17 18 18 19 19 20 20 22 21 23 22
REMARK SMILES IDX 24 23 17 24 29 25 30 26 31 27 11 28 7 29 3 30 21 31
REMARK H PARENT 21 32
REMARK Flexibility Score: inf
ROOT
ATOM      1  C   UNL     1     148.547 139.436 141.876  1.00  0.00     0.011 C 
ATOM      2  C   UNL     1     147.911 138.850 140.592  1.00  0.00    -0.035 C 
ATOM      3  C   UNL     1     148.393 137.406 140.321  1.00  0.00     0.007 C 
ATOM      4  C   UNL     1     147.900 136.413 141.379  1.00  0.00     0.008 C 
ATOM      5  C   UNL     1     146.350 136.406 141.590  1.00  0.00    -0.026 C 
ATOM      6  C   UNL     1     145.634 135.601 140.445  1.00  0.00     0.008 C 
ATOM      7  C   UNL     1     144.443 136.279 139.710  1.00  0.00     0.012 C 
ATOM      8  C   UNL     1     143.490 137.242 140.525  1.00  0.00    -0.006 C 
ATOM      9  C   UNL     1     144.260 137.853 141.699  1.00  0.00    -0.064 C 
ATOM     10  C   UNL     1     143.592 138.403 142.737  1.00  0.00    -0.027 C 
ATOM     11  C   UNL     1     142.093 138.359 142.925  1.00  0.00     0.032 C 
ATOM     12  C   UNL     1     141.273 137.596 141.835  1.00  0.00     0.006 C 
ATOM     13  C   UNL     1     142.147 136.520 141.081  1.00  0.00    -0.020 C 
ATOM     14  C   UNL     1     141.271 135.935 139.935  1.00  0.00     0.008 C 
ATOM     15  C   UNL     1     139.920 135.388 140.401  1.00  0.00     0.005 C 
ATOM     16  C   UNL     1     139.026 136.440 141.118  1.00  0.00     0.003 C 
ATOM     17  C   UNL     1     139.802 137.176 142.299  1.00  0.00    -0.025 C 
ATOM     18  C   UNL     1     139.807 136.329 143.624  1.00  0.00     0.010 C 
ATOM     19  C   UNL     1     138.807 135.169 143.654  1.00  0.00     0.033 C 
ATOM     20  C   UNL     1     137.459 135.580 143.063  1.00  0.00     0.120 C 
ATOM     21  C   UNL     1     137.574 135.859 141.517  1.00  0.00    -0.006 C 
ATOM     22  C   UNL     1     136.477 136.880 141.109  1.00  0.00     0.014 C 
ATOM     23  C   UNL     1     137.212 134.557 140.735  1.00  0.00     0.014 C 
ATOM     24  C   UNL     1     139.051 138.515 142.609  1.00  0.00     0.012 C 
ATOM     25  C   UNL     1     142.538 135.355 142.033  1.00  0.00     0.012 C 
ATOM     26  C   UNL     1     145.794 137.858 141.724  1.00  0.00     0.022 C 
ATOM     27  C   UNL     1     146.369 138.843 140.675  1.00  0.00     0.015 C 
ATOM     28  C   UNL     1     143.136 138.440 139.572  1.00  0.00     0.017 C 
ATOM     29  C   UNL     1     146.130 135.661 142.933  1.00  0.00     0.012 C 
ATOM     30  C   UNL     1     148.342 139.740 139.405  1.00  0.00     0.011 C 
ENDROOT
BRANCH  20  31
ATOM     31  O   UNL     1     136.521 134.573 143.355  1.00  0.00    -0.393 OA
ATOM     32  H   UNL     1     136.617 134.355 144.319  1.00  0.00     0.210 HD
ENDBRANCH  20  31
TORSDOF 1
ENDMDL
