MODEL 1
REMARK VINA RESULT:    -3.549      0.000      0.000
REMARK INTER + INTRA:         -10.384
REMARK INTER:                  -8.112
REMARK INTRA:                  -2.272
REMARK UNBOUND:                -2.272
REMARK SMILES CCCCCCCCCCCCCCCCCCCCCCCC(=O)[O-]
REMARK SMILES IDX 13 1 14 2 15 3 16 4 17 5 18 6 19 7 20 8 21 9 22 10 23 11
REMARK SMILES IDX 24 12 25 13 26 14 12 15 11 16 10 17 9 18 8 19 7 20 6 21 5 22
REMARK SMILES IDX 4 23 3 24 2 25 1 26
REMARK H PARENT
REMARK Flexibility Score: inf
ROOT
ATOM      1  C   UNL     1     -45.679 -36.982  19.370  1.00  0.00     0.000 C 
ENDROOT
BRANCH   1   2
ATOM      2  C   UNL     1     -44.260 -37.025  19.956  1.00  0.00     0.000 C 
BRANCH   2   3
ATOM      3  C   UNL     1     -43.959 -35.824  20.866  1.00  0.00     0.000 C 
BRANCH   3   4
ATOM      4  C   UNL     1     -45.198 -35.338  21.635  1.00  0.00     0.000 C 
BRANCH   4   5
ATOM      5  C   UNL     1     -45.352 -33.817  21.520  1.00  0.00     0.000 C 
BRANCH   5   6
ATOM      6  C   UNL     1     -45.226 -33.146  22.896  1.00  0.00     0.000 C 
BRANCH   6   7
ATOM      7  C   UNL     1     -43.857 -33.394  23.550  1.00  0.00     0.000 C 
BRANCH   7   8
ATOM      8  C   UNL     1     -43.803 -32.905  25.009  1.00  0.00     0.000 C 
BRANCH   8   9
ATOM      9  C   UNL     1     -45.157 -33.031  25.724  1.00  0.00     0.000 C 
BRANCH   9  10
ATOM     10  C   UNL     1     -45.007 -33.343  27.221  1.00  0.00     0.006 C 
BRANCH  10  11
ATOM     11  C   UNL     1     -43.650 -32.865  27.745  1.00  0.00     0.053 C 
BRANCH  11  12
ATOM     12  C   UNL     1     -42.947 -33.973  28.465  1.00  0.00     0.041 C 
ATOM     13  O   UNL     1     -41.900 -33.737  29.123  1.00  0.00    -0.550 OA
ATOM     14  O   UNL     1     -43.475 -35.259  28.447  1.00  0.00    -0.550 OA
ENDBRANCH  11  12
ENDBRANCH  10  11
ENDBRANCH   9  10
ENDBRANCH   8   9
ENDBRANCH   7   8
ENDBRANCH   6   7
ENDBRANCH   5   6
ENDBRANCH   4   5
ENDBRANCH   3   4
ENDBRANCH   2   3
ENDBRANCH   1   2
BRANCH   1  15
ATOM     15  C   UNL     1     -45.697 -37.527  17.936  1.00  0.00     0.000 C 
BRANCH  15  16
ATOM     16  C   UNL     1     -46.122 -36.440  16.938  1.00  0.00     0.000 C 
BRANCH  16  17
ATOM     17  C   UNL     1     -45.800 -35.017  17.442  1.00  0.00     0.000 C 
BRANCH  17  18
ATOM     18  C   UNL     1     -44.616 -34.353  16.713  1.00  0.00    -0.000 C 
BRANCH  18  19
ATOM     19  C   UNL     1     -44.968 -33.068  15.940  1.00  0.00    -0.000 C 
BRANCH  19  20
ATOM     20  C   UNL     1     -46.068 -33.231  14.871  1.00  0.00    -0.000 C 
BRANCH  20  21
ATOM     21  C   UNL     1     -45.566 -33.260  13.414  1.00  0.00    -0.000 C 
BRANCH  21  22
ATOM     22  C   UNL     1     -45.971 -34.511  12.610  1.00  0.00    -0.000 C 
BRANCH  22  23
ATOM     23  C   UNL     1     -45.835 -35.844  13.372  1.00  0.00    -0.000 C 
BRANCH  23  24
ATOM     24  C   UNL     1     -44.605 -36.692  12.992  1.00  0.00    -0.000 C 
BRANCH  24  25
ATOM     25  C   UNL     1     -44.596 -38.116  13.574  1.00  0.00    -0.003 C 
ATOM     26  C   UNL     1     -43.744 -38.237  14.838  1.00  0.00     0.004 C 
ENDBRANCH  24  25
ENDBRANCH  23  24
ENDBRANCH  22  23
ENDBRANCH  21  22
ENDBRANCH  20  21
ENDBRANCH  19  20
ENDBRANCH  18  19
ENDBRANCH  17  18
ENDBRANCH  16  17
ENDBRANCH  15  16
ENDBRANCH   1  15
TORSDOF 22
ENDMDL
MODEL 2
REMARK VINA RESULT:    -3.180      4.919     11.533
REMARK INTER + INTRA:          -9.542
REMARK INTER:                  -8.322
REMARK INTRA:                  -1.220
REMARK UNBOUND:                -2.272
REMARK SMILES CCCCCCCCCCCCCCCCCCCCCCCC(=O)[O-]
REMARK SMILES IDX 13 1 14 2 15 3 16 4 17 5 18 6 19 7 20 8 21 9 22 10 23 11
REMARK SMILES IDX 24 12 25 13 26 14 12 15 11 16 10 17 9 18 8 19 7 20 6 21 5 22
REMARK SMILES IDX 4 23 3 24 2 25 1 26
REMARK H PARENT
REMARK Flexibility Score: inf
ROOT
ATOM      1  C   UNL     1     -44.506 -35.660  21.166  1.00  0.00     0.000 C 
ENDROOT
BRANCH   1   2
ATOM      2  C   UNL     1     -45.014 -37.062  20.799  1.00  0.00     0.000 C 
BRANCH   2   3
ATOM      3  C   UNL     1     -45.963 -37.050  19.590  1.00  0.00     0.000 C 
BRANCH   3   4
ATOM      4  C   UNL     1     -45.215 -37.116  18.249  1.00  0.00     0.000 C 
BRANCH   4   5
ATOM      5  C   UNL     1     -45.707 -36.023  17.292  1.00  0.00     0.000 C 
BRANCH   5   6
ATOM      6  C   UNL     1     -45.070 -34.668  17.631  1.00  0.00     0.000 C 
BRANCH   6   7
ATOM      7  C   UNL     1     -44.581 -33.917  16.382  1.00  0.00     0.000 C 
BRANCH   7   8
ATOM      8  C   UNL     1     -45.736 -33.291  15.579  1.00  0.00     0.000 C 
BRANCH   8   9
ATOM      9  C   UNL     1     -45.275 -32.729  14.225  1.00  0.00     0.000 C 
BRANCH   9  10
ATOM     10  C   UNL     1     -45.460 -33.732  13.076  1.00  0.00     0.006 C 
BRANCH  10  11
ATOM     11  C   UNL     1     -46.122 -35.019  13.576  1.00  0.00     0.053 C 
BRANCH  11  12
ATOM     12  C   UNL     1     -45.508 -36.214  12.917  1.00  0.00     0.041 C 
ATOM     13  O   UNL     1     -46.111 -37.320  12.922  1.00  0.00    -0.550 OA
ATOM     14  O   UNL     1     -44.291 -36.096  12.257  1.00  0.00    -0.550 OA
ENDBRANCH  11  12
ENDBRANCH  10  11
ENDBRANCH   9  10
ENDBRANCH   8   9
ENDBRANCH   7   8
ENDBRANCH   6   7
ENDBRANCH   5   6
ENDBRANCH   4   5
ENDBRANCH   3   4
ENDBRANCH   2   3
ENDBRANCH   1   2
BRANCH   1  15
ATOM     15  C   UNL     1     -45.528 -34.919  22.038  1.00  0.00     0.000 C 
BRANCH  15  16
ATOM     16  C   UNL     1     -45.087 -33.471  22.294  1.00  0.00     0.000 C 
BRANCH  16  17
ATOM     17  C   UNL     1     -43.884 -33.380  23.257  1.00  0.00     0.000 C 
BRANCH  17  18
ATOM     18  C   UNL     1     -44.283 -33.257  24.740  1.00  0.00    -0.000 C 
BRANCH  18  19
ATOM     19  C   UNL     1     -43.217 -32.614  25.647  1.00  0.00    -0.000 C 
BRANCH  19  20
ATOM     20  C   UNL     1     -42.818 -33.454  26.879  1.00  0.00    -0.000 C 
BRANCH  20  21
ATOM     21  C   UNL     1     -42.444 -32.638  28.132  1.00  0.00    -0.000 C 
BRANCH  21  22
ATOM     22  C   UNL     1     -40.968 -32.747  28.563  1.00  0.00    -0.000 C 
BRANCH  22  23
ATOM     23  C   UNL     1     -39.946 -32.288  27.503  1.00  0.00    -0.000 C 
BRANCH  23  24
ATOM     24  C   UNL     1     -39.350 -33.416  26.639  1.00  0.00    -0.000 C 
BRANCH  24  25
ATOM     25  C   UNL     1     -37.931 -33.857  27.039  1.00  0.00    -0.003 C 
ATOM     26  C   UNL     1     -36.985 -32.679  27.272  1.00  0.00     0.004 C 
ENDBRANCH  24  25
ENDBRANCH  23  24
ENDBRANCH  22  23
ENDBRANCH  21  22
ENDBRANCH  20  21
ENDBRANCH  19  20
ENDBRANCH  18  19
ENDBRANCH  17  18
ENDBRANCH  16  17
ENDBRANCH  15  16
ENDBRANCH   1  15
TORSDOF 22
ENDMDL
MODEL 3
REMARK VINA RESULT:    -3.175      4.481     11.347
REMARK INTER + INTRA:          -9.529
REMARK INTER:                  -7.799
REMARK INTRA:                  -1.730
REMARK UNBOUND:                -2.272
REMARK SMILES CCCCCCCCCCCCCCCCCCCCCCCC(=O)[O-]
REMARK SMILES IDX 13 1 14 2 15 3 16 4 17 5 18 6 19 7 20 8 21 9 22 10 23 11
REMARK SMILES IDX 24 12 25 13 26 14 12 15 11 16 10 17 9 18 8 19 7 20 6 21 5 22
REMARK SMILES IDX 4 23 3 24 2 25 1 26
REMARK H PARENT
REMARK Flexibility Score: inf
ROOT
ATOM      1  C   UNL     1     -41.318 -32.646  24.254  1.00  0.00     0.000 C 
ENDROOT
BRANCH   1   2
ATOM      2  C   UNL     1     -42.542 -31.925  24.837  1.00  0.00     0.000 C 
BRANCH   2   3
ATOM      3  C   UNL     1     -43.803 -32.805  24.834  1.00  0.00     0.000 C 
BRANCH   3   4
ATOM      4  C   UNL     1     -44.976 -32.155  24.083  1.00  0.00     0.000 C 
BRANCH   4   5
ATOM      5  C   UNL     1     -45.266 -32.897  22.772  1.00  0.00     0.000 C 
BRANCH   5   6
ATOM      6  C   UNL     1     -44.343 -34.114  22.613  1.00  0.00     0.000 C 
BRANCH   6   7
ATOM      7  C   UNL     1     -44.972 -35.223  21.754  1.00  0.00     0.000 C 
BRANCH   7   8
ATOM      8  C   UNL     1     -43.944 -35.917  20.842  1.00  0.00     0.000 C 
BRANCH   8   9
ATOM      9  C   UNL     1     -44.595 -36.581  19.618  1.00  0.00     0.000 C 
BRANCH   9  10
ATOM     10  C   UNL     1     -44.629 -35.654  18.393  1.00  0.00     0.006 C 
BRANCH  10  11
ATOM     11  C   UNL     1     -45.530 -36.231  17.297  1.00  0.00     0.053 C 
BRANCH  11  12
ATOM     12  C   UNL     1     -44.888 -37.425  16.664  1.00  0.00     0.041 C 
ATOM     13  O   UNL     1     -45.042 -38.569  17.168  1.00  0.00    -0.550 OA
ATOM     14  O   UNL     1     -44.157 -37.281  15.491  1.00  0.00    -0.550 OA
ENDBRANCH  11  12
ENDBRANCH  10  11
ENDBRANCH   9  10
ENDBRANCH   8   9
ENDBRANCH   7   8
ENDBRANCH   6   7
ENDBRANCH   5   6
ENDBRANCH   4   5
ENDBRANCH   3   4
ENDBRANCH   2   3
ENDBRANCH   1   2
BRANCH   1  15
ATOM     15  C   UNL     1     -40.028 -31.880  24.576  1.00  0.00     0.000 C 
BRANCH  15  16
ATOM     16  C   UNL     1     -38.817 -32.524  23.884  1.00  0.00     0.000 C 
BRANCH  16  17
ATOM     17  C   UNL     1     -37.527 -32.411  24.724  1.00  0.00     0.000 C 
BRANCH  17  18
ATOM     18  C   UNL     1     -37.781 -32.262  26.237  1.00  0.00    -0.000 C 
BRANCH  18  19
ATOM     19  C   UNL     1     -38.136 -33.571  26.966  1.00  0.00    -0.000 C 
BRANCH  19  20
ATOM     20  C   UNL     1     -38.658 -33.394  28.407  1.00  0.00    -0.000 C 
BRANCH  20  21
ATOM     21  C   UNL     1     -39.879 -32.464  28.550  1.00  0.00    -0.000 C 
BRANCH  21  22
ATOM     22  C   UNL     1     -41.195 -33.024  27.974  1.00  0.00    -0.000 C 
BRANCH  22  23
ATOM     23  C   UNL     1     -42.343 -33.165  28.993  1.00  0.00    -0.000 C 
BRANCH  23  24
ATOM     24  C   UNL     1     -43.535 -34.021  28.520  1.00  0.00    -0.000 C 
BRANCH  24  25
ATOM     25  C   UNL     1     -43.520 -35.479  29.010  1.00  0.00    -0.003 C 
ATOM     26  C   UNL     1     -44.914 -36.103  29.063  1.00  0.00     0.004 C 
ENDBRANCH  24  25
ENDBRANCH  23  24
ENDBRANCH  22  23
ENDBRANCH  21  22
ENDBRANCH  20  21
ENDBRANCH  19  20
ENDBRANCH  18  19
ENDBRANCH  17  18
ENDBRANCH  16  17
ENDBRANCH  15  16
ENDBRANCH   1  15
TORSDOF 22
ENDMDL
MODEL 4
REMARK VINA RESULT:    -3.164      2.162      2.649
REMARK INTER + INTRA:          -9.506
REMARK INTER:                  -7.872
REMARK INTRA:                  -1.633
REMARK UNBOUND:                -2.272
REMARK SMILES CCCCCCCCCCCCCCCCCCCCCCCC(=O)[O-]
REMARK SMILES IDX 13 1 14 2 15 3 16 4 17 5 18 6 19 7 20 8 21 9 22 10 23 11
REMARK SMILES IDX 24 12 25 13 26 14 12 15 11 16 10 17 9 18 8 19 7 20 6 21 5 22
REMARK SMILES IDX 4 23 3 24 2 25 1 26
REMARK H PARENT
REMARK Flexibility Score: inf
ROOT
ATOM      1  C   UNL     1     -43.750 -36.311  19.737  1.00  0.00     0.000 C 
ENDROOT
BRANCH   1   2
ATOM      2  C   UNL     1     -43.873 -35.688  21.135  1.00  0.00     0.000 C 
BRANCH   2   3
ATOM      3  C   UNL     1     -45.308 -35.745  21.684  1.00  0.00     0.000 C 
BRANCH   3   4
ATOM      4  C   UNL     1     -45.604 -34.619  22.687  1.00  0.00     0.000 C 
BRANCH   4   5
ATOM      5  C   UNL     1     -44.640 -33.442  22.491  1.00  0.00     0.000 C 
BRANCH   5   6
ATOM      6  C   UNL     1     -44.594 -32.554  23.742  1.00  0.00     0.000 C 
BRANCH   6   7
ATOM      7  C   UNL     1     -43.179 -32.437  24.331  1.00  0.00     0.000 C 
BRANCH   7   8
ATOM      8  C   UNL     1     -43.191 -32.121  25.838  1.00  0.00     0.000 C 
BRANCH   8   9
ATOM      9  C   UNL     1     -42.161 -32.949  26.622  1.00  0.00     0.000 C 
BRANCH   9  10
ATOM     10  C   UNL     1     -40.715 -32.652  26.194  1.00  0.00     0.006 C 
BRANCH  10  11
ATOM     11  C   UNL     1     -39.742 -32.893  27.351  1.00  0.00     0.053 C 
BRANCH  11  12
ATOM     12  C   UNL     1     -38.536 -33.641  26.875  1.00  0.00     0.041 C 
ATOM     13  O   UNL     1     -38.381 -33.875  25.648  1.00  0.00    -0.550 OA
ATOM     14  O   UNL     1     -37.562 -34.038  27.782  1.00  0.00    -0.550 OA
ENDBRANCH  11  12
ENDBRANCH  10  11
ENDBRANCH   9  10
ENDBRANCH   8   9
ENDBRANCH   7   8
ENDBRANCH   6   7
ENDBRANCH   5   6
ENDBRANCH   4   5
ENDBRANCH   3   4
ENDBRANCH   2   3
ENDBRANCH   1   2
BRANCH   1  15
ATOM     15  C   UNL     1     -45.102 -36.304  19.012  1.00  0.00     0.000 C 
BRANCH  15  16
ATOM     16  C   UNL     1     -45.201 -35.117  18.043  1.00  0.00     0.000 C 
BRANCH  16  17
ATOM     17  C   UNL     1     -45.939 -33.910  18.660  1.00  0.00     0.000 C 
BRANCH  17  18
ATOM     18  C   UNL     1     -46.115 -32.726  17.689  1.00  0.00    -0.000 C 
BRANCH  18  19
ATOM     19  C   UNL     1     -45.022 -32.604  16.611  1.00  0.00    -0.000 C 
BRANCH  19  20
ATOM     20  C   UNL     1     -45.497 -32.021  15.263  1.00  0.00    -0.000 C 
BRANCH  20  21
ATOM     21  C   UNL     1     -45.117 -32.851  14.022  1.00  0.00    -0.000 C 
BRANCH  21  22
ATOM     22  C   UNL     1     -45.958 -34.125  13.807  1.00  0.00    -0.000 C 
BRANCH  22  23
ATOM     23  C   UNL     1     -45.405 -35.392  14.489  1.00  0.00    -0.000 C 
BRANCH  23  24
ATOM     24  C   UNL     1     -46.034 -36.717  14.015  1.00  0.00    -0.000 C 
BRANCH  24  25
ATOM     25  C   UNL     1     -45.107 -37.608  13.171  1.00  0.00    -0.003 C 
ATOM     26  C   UNL     1     -45.802 -38.868  12.653  1.00  0.00     0.004 C 
ENDBRANCH  24  25
ENDBRANCH  23  24
ENDBRANCH  22  23
ENDBRANCH  21  22
ENDBRANCH  20  21
ENDBRANCH  19  20
ENDBRANCH  18  19
ENDBRANCH  17  18
ENDBRANCH  16  17
ENDBRANCH  15  16
ENDBRANCH   1  15
TORSDOF 22
ENDMDL
MODEL 5
REMARK VINA RESULT:    -3.136      3.642     10.581
REMARK INTER + INTRA:          -9.441
REMARK INTER:                  -7.952
REMARK INTRA:                  -1.489
REMARK UNBOUND:                -2.272
REMARK SMILES CCCCCCCCCCCCCCCCCCCCCCCC(=O)[O-]
REMARK SMILES IDX 13 1 14 2 15 3 16 4 17 5 18 6 19 7 20 8 21 9 22 10 23 11
REMARK SMILES IDX 24 12 25 13 26 14 12 15 11 16 10 17 9 18 8 19 7 20 6 21 5 22
REMARK SMILES IDX 4 23 3 24 2 25 1 26
REMARK H PARENT
REMARK Flexibility Score: inf
ROOT
ATOM      1  C   UNL     1     -44.316 -36.163  18.835  1.00  0.00     0.000 C 
ENDROOT
BRANCH   1   2
ATOM      2  C   UNL     1     -45.274 -36.723  17.773  1.00  0.00     0.000 C 
BRANCH   2   3
ATOM      3  C   UNL     1     -44.579 -37.689  16.799  1.00  0.00     0.000 C 
BRANCH   3   4
ATOM      4  C   UNL     1     -44.501 -37.133  15.369  1.00  0.00     0.000 C 
BRANCH   4   5
ATOM      5  C   UNL     1     -44.440 -38.269  14.341  1.00  0.00     0.000 C 
BRANCH   5   6
ATOM      6  C   UNL     1     -44.628 -37.732  12.915  1.00  0.00     0.000 C 
BRANCH   6   7
ATOM      7  C   UNL     1     -44.569 -36.198  12.850  1.00  0.00     0.000 C 
BRANCH   7   8
ATOM      8  C   UNL     1     -45.905 -35.574  12.404  1.00  0.00     0.000 C 
BRANCH   8   9
ATOM      9  C   UNL     1     -45.958 -34.058  12.650  1.00  0.00     0.000 C 
BRANCH   9  10
ATOM     10  C   UNL     1     -45.780 -33.694  14.132  1.00  0.00     0.006 C 
BRANCH  10  11
ATOM     11  C   UNL     1     -44.951 -32.414  14.284  1.00  0.00     0.053 C 
BRANCH  11  12
ATOM     12  C   UNL     1     -44.514 -32.239  15.704  1.00  0.00     0.041 C 
ATOM     13  O   UNL     1     -43.307 -31.999  15.970  1.00  0.00    -0.550 OA
ATOM     14  O   UNL     1     -45.448 -32.295  16.731  1.00  0.00    -0.550 OA
ENDBRANCH  11  12
ENDBRANCH  10  11
ENDBRANCH   9  10
ENDBRANCH   8   9
ENDBRANCH   7   8
ENDBRANCH   6   7
ENDBRANCH   5   6
ENDBRANCH   4   5
ENDBRANCH   3   4
ENDBRANCH   2   3
ENDBRANCH   1   2
BRANCH   1  15
ATOM     15  C   UNL     1     -44.779 -36.548  20.247  1.00  0.00     0.000 C 
BRANCH  15  16
ATOM     16  C   UNL     1     -46.020 -35.743  20.658  1.00  0.00     0.000 C 
BRANCH  16  17
ATOM     17  C   UNL     1     -45.804 -34.219  20.535  1.00  0.00     0.000 C 
BRANCH  17  18
ATOM     18  C   UNL     1     -45.849 -33.475  21.884  1.00  0.00    -0.000 C 
BRANCH  18  19
ATOM     19  C   UNL     1     -44.940 -34.061  22.979  1.00  0.00    -0.000 C 
BRANCH  19  20
ATOM     20  C   UNL     1     -43.569 -33.369  23.129  1.00  0.00    -0.000 C 
BRANCH  20  21
ATOM     21  C   UNL     1     -43.280 -32.786  24.526  1.00  0.00    -0.000 C 
BRANCH  21  22
ATOM     22  C   UNL     1     -44.480 -32.095  25.204  1.00  0.00    -0.000 C 
BRANCH  22  23
ATOM     23  C   UNL     1     -45.287 -32.990  26.165  1.00  0.00    -0.000 C 
BRANCH  23  24
ATOM     24  C   UNL     1     -44.847 -32.929  27.641  1.00  0.00    -0.000 C 
BRANCH  24  25
ATOM     25  C   UNL     1     -44.002 -34.124  28.114  1.00  0.00    -0.003 C 
ATOM     26  C   UNL     1     -42.737 -33.700  28.862  1.00  0.00     0.004 C 
ENDBRANCH  24  25
ENDBRANCH  23  24
ENDBRANCH  22  23
ENDBRANCH  21  22
ENDBRANCH  20  21
ENDBRANCH  19  20
ENDBRANCH  18  19
ENDBRANCH  17  18
ENDBRANCH  16  17
ENDBRANCH  15  16
ENDBRANCH   1  15
TORSDOF 22
ENDMDL
MODEL 6
REMARK VINA RESULT:    -3.123      5.165     11.744
REMARK INTER + INTRA:          -9.410
REMARK INTER:                  -7.889
REMARK INTRA:                  -1.521
REMARK UNBOUND:                -2.272
REMARK SMILES CCCCCCCCCCCCCCCCCCCCCCCC(=O)[O-]
REMARK SMILES IDX 13 1 14 2 15 3 16 4 17 5 18 6 19 7 20 8 21 9 22 10 23 11
REMARK SMILES IDX 24 12 25 13 26 14 12 15 11 16 10 17 9 18 8 19 7 20 6 21 5 22
REMARK SMILES IDX 4 23 3 24 2 25 1 26
REMARK H PARENT
REMARK Flexibility Score: inf
ROOT
ATOM      1  C   UNL     1     -43.940 -33.288  23.161  1.00  0.00     0.000 C 
ENDROOT
BRANCH   1   2
ATOM      2  C   UNL     1     -45.352 -33.883  23.256  1.00  0.00     0.000 C 
BRANCH   2   3
ATOM      3  C   UNL     1     -45.780 -34.602  21.966  1.00  0.00     0.000 C 
BRANCH   3   4
ATOM      4  C   UNL     1     -45.430 -33.804  20.700  1.00  0.00     0.000 C 
BRANCH   4   5
ATOM      5  C   UNL     1     -46.125 -34.397  19.469  1.00  0.00     0.000 C 
BRANCH   5   6
ATOM      6  C   UNL     1     -45.220 -35.419  18.765  1.00  0.00     0.000 C 
BRANCH   6   7
ATOM      7  C   UNL     1     -45.570 -36.870  19.136  1.00  0.00     0.000 C 
BRANCH   7   8
ATOM      8  C   UNL     1     -45.468 -37.827  17.934  1.00  0.00     0.000 C 
BRANCH   8   9
ATOM      9  C   UNL     1     -44.661 -37.229  16.771  1.00  0.00     0.000 C 
BRANCH   9  10
ATOM     10  C   UNL     1     -44.367 -38.257  15.667  1.00  0.00     0.006 C 
BRANCH  10  11
ATOM     11  C   UNL     1     -45.415 -38.175  14.553  1.00  0.00     0.053 C 
BRANCH  11  12
ATOM     12  C   UNL     1     -44.824 -37.563  13.322  1.00  0.00     0.041 C 
ATOM     13  O   UNL     1     -44.191 -38.278  12.501  1.00  0.00    -0.550 OA
ATOM     14  O   UNL     1     -45.012 -36.212  13.058  1.00  0.00    -0.550 OA
ENDBRANCH  11  12
ENDBRANCH  10  11
ENDBRANCH   9  10
ENDBRANCH   8   9
ENDBRANCH   7   8
ENDBRANCH   6   7
ENDBRANCH   5   6
ENDBRANCH   4   5
ENDBRANCH   3   4
ENDBRANCH   2   3
ENDBRANCH   1   2
BRANCH   1  15
ATOM     15  C   UNL     1     -43.721 -32.221  24.241  1.00  0.00     0.000 C 
BRANCH  15  16
ATOM     16  C   UNL     1     -44.313 -32.669  25.585  1.00  0.00     0.000 C 
BRANCH  16  17
ATOM     17  C   UNL     1     -43.322 -33.511  26.417  1.00  0.00     0.000 C 
BRANCH  17  18
ATOM     18  C   UNL     1     -43.311 -33.156  27.916  1.00  0.00    -0.000 C 
BRANCH  18  19
ATOM     19  C   UNL     1     -42.306 -32.060  28.316  1.00  0.00    -0.000 C 
BRANCH  19  20
ATOM     20  C   UNL     1     -40.961 -32.101  27.561  1.00  0.00    -0.000 C 
BRANCH  20  21
ATOM     21  C   UNL     1     -39.797 -32.752  28.333  1.00  0.00    -0.000 C 
BRANCH  21  22
ATOM     22  C   UNL     1     -38.416 -32.111  28.092  1.00  0.00    -0.000 C 
BRANCH  22  23
ATOM     23  C   UNL     1     -37.366 -33.047  27.460  1.00  0.00    -0.000 C 
BRANCH  23  24
ATOM     24  C   UNL     1     -37.862 -33.862  26.249  1.00  0.00    -0.000 C 
BRANCH  24  25
ATOM     25  C   UNL     1     -37.724 -33.153  24.891  1.00  0.00    -0.003 C 
ATOM     26  C   UNL     1     -39.069 -32.916  24.204  1.00  0.00     0.004 C 
ENDBRANCH  24  25
ENDBRANCH  23  24
ENDBRANCH  22  23
ENDBRANCH  21  22
ENDBRANCH  20  21
ENDBRANCH  19  20
ENDBRANCH  18  19
ENDBRANCH  17  18
ENDBRANCH  16  17
ENDBRANCH  15  16
ENDBRANCH   1  15
TORSDOF 22
ENDMDL
MODEL 7
REMARK VINA RESULT:    -2.957      1.150      2.949
REMARK INTER + INTRA:          -9.031
REMARK INTER:                  -7.360
REMARK INTRA:                  -1.672
REMARK UNBOUND:                -2.272
REMARK SMILES CCCCCCCCCCCCCCCCCCCCCCCC(=O)[O-]
REMARK SMILES IDX 13 1 14 2 15 3 16 4 17 5 18 6 19 7 20 8 21 9 22 10 23 11
REMARK SMILES IDX 24 12 25 13 26 14 12 15 11 16 10 17 9 18 8 19 7 20 6 21 5 22
REMARK SMILES IDX 4 23 3 24 2 25 1 26
REMARK H PARENT
REMARK Flexibility Score: inf
ROOT
ATOM      1  C   UNL     1     -45.145 -36.706  18.823  1.00  0.00     0.000 C 
ENDROOT
BRANCH   1   2
ATOM      2  C   UNL     1     -44.724 -35.695  19.899  1.00  0.00     0.000 C 
BRANCH   2   3
ATOM      3  C   UNL     1     -44.846 -36.261  21.323  1.00  0.00     0.000 C 
BRANCH   3   4
ATOM      4  C   UNL     1     -46.046 -35.683  22.090  1.00  0.00     0.000 C 
BRANCH   4   5
ATOM      5  C   UNL     1     -45.590 -34.643  23.120  1.00  0.00     0.000 C 
BRANCH   5   6
ATOM      6  C   UNL     1     -44.221 -34.058  22.742  1.00  0.00     0.000 C 
BRANCH   6   7
ATOM      7  C   UNL     1     -43.836 -32.849  23.610  1.00  0.00     0.000 C 
BRANCH   7   8
ATOM      8  C   UNL     1     -44.963 -32.429  24.571  1.00  0.00     0.000 C 
BRANCH   8   9
ATOM      9  C   UNL     1     -44.429 -31.875  25.901  1.00  0.00     0.000 C 
BRANCH   9  10
ATOM     10  C   UNL     1     -43.758 -32.956  26.763  1.00  0.00     0.006 C 
BRANCH  10  11
ATOM     11  C   UNL     1     -44.780 -33.998  27.226  1.00  0.00     0.053 C 
BRANCH  11  12
ATOM     12  C   UNL     1     -44.189 -34.878  28.283  1.00  0.00     0.041 C 
ATOM     13  O   UNL     1     -44.743 -35.968  28.581  1.00  0.00    -0.550 OA
ATOM     14  O   UNL     1     -43.000 -34.515  28.904  1.00  0.00    -0.550 OA
ENDBRANCH  11  12
ENDBRANCH  10  11
ENDBRANCH   9  10
ENDBRANCH   8   9
ENDBRANCH   7   8
ENDBRANCH   6   7
ENDBRANCH   5   6
ENDBRANCH   4   5
ENDBRANCH   3   4
ENDBRANCH   2   3
ENDBRANCH   1   2
BRANCH   1  15
ATOM     15  C   UNL     1     -44.793 -36.192  17.421  1.00  0.00     0.000 C 
BRANCH  15  16
ATOM     16  C   UNL     1     -45.530 -36.993  16.339  1.00  0.00     0.000 C 
BRANCH  16  17
ATOM     17  C   UNL     1     -44.851 -38.347  16.039  1.00  0.00     0.000 C 
BRANCH  17  18
ATOM     18  C   UNL     1     -43.589 -38.228  15.163  1.00  0.00    -0.000 C 
BRANCH  18  19
ATOM     19  C   UNL     1     -43.854 -37.881  13.687  1.00  0.00    -0.000 C 
BRANCH  19  20
ATOM     20  C   UNL     1     -45.244 -38.295  13.159  1.00  0.00    -0.000 C 
BRANCH  20  21
ATOM     21  C   UNL     1     -46.122 -37.135  12.649  1.00  0.00    -0.000 C 
BRANCH  21  22
ATOM     22  C   UNL     1     -45.389 -35.791  12.476  1.00  0.00    -0.000 C 
BRANCH  22  23
ATOM     23  C   UNL     1     -46.125 -34.569  13.059  1.00  0.00    -0.000 C 
BRANCH  23  24
ATOM     24  C   UNL     1     -45.211 -33.469  13.635  1.00  0.00    -0.000 C 
BRANCH  24  25
ATOM     25  C   UNL     1     -45.149 -33.418  15.171  1.00  0.00    -0.003 C 
ATOM     26  C   UNL     1     -44.680 -32.064  15.703  1.00  0.00     0.004 C 
ENDBRANCH  24  25
ENDBRANCH  23  24
ENDBRANCH  22  23
ENDBRANCH  21  22
ENDBRANCH  20  21
ENDBRANCH  19  20
ENDBRANCH  18  19
ENDBRANCH  17  18
ENDBRANCH  16  17
ENDBRANCH  15  16
ENDBRANCH   1  15
TORSDOF 22
ENDMDL
MODEL 8
REMARK VINA RESULT:    -2.879      2.483      3.796
REMARK INTER + INTRA:          -8.854
REMARK INTER:                  -7.557
REMARK INTRA:                  -1.297
REMARK UNBOUND:                -2.272
REMARK SMILES CCCCCCCCCCCCCCCCCCCCCCCC(=O)[O-]
REMARK SMILES IDX 13 1 14 2 15 3 16 4 17 5 18 6 19 7 20 8 21 9 22 10 23 11
REMARK SMILES IDX 24 12 25 13 26 14 12 15 11 16 10 17 9 18 8 19 7 20 6 21 5 22
REMARK SMILES IDX 4 23 3 24 2 25 1 26
REMARK H PARENT
REMARK Flexibility Score: inf
ROOT
ATOM      1  C   UNL     1     -44.689 -37.043  20.566  1.00  0.00     0.000 C 
ENDROOT
BRANCH   1   2
ATOM      2  C   UNL     1     -45.425 -36.208  21.624  1.00  0.00     0.000 C 
BRANCH   2   3
ATOM      3  C   UNL     1     -45.230 -34.696  21.426  1.00  0.00     0.000 C 
BRANCH   3   4
ATOM      4  C   UNL     1     -45.533 -33.888  22.698  1.00  0.00     0.000 C 
BRANCH   4   5
ATOM      5  C   UNL     1     -44.246 -33.318  23.305  1.00  0.00     0.000 C 
BRANCH   5   6
ATOM      6  C   UNL     1     -44.471 -32.879  24.759  1.00  0.00     0.000 C 
BRANCH   6   7
ATOM      7  C   UNL     1     -43.304 -32.045  25.312  1.00  0.00     0.000 C 
BRANCH   7   8
ATOM      8  C   UNL     1     -42.345 -32.876  26.185  1.00  0.00     0.000 C 
BRANCH   8   9
ATOM      9  C   UNL     1     -41.014 -32.156  26.448  1.00  0.00     0.000 C 
BRANCH   9  10
ATOM     10  C   UNL     1     -40.230 -31.876  25.157  1.00  0.00     0.006 C 
BRANCH  10  11
ATOM     11  C   UNL     1     -39.678 -33.174  24.560  1.00  0.00     0.053 C 
BRANCH  11  12
ATOM     12  C   UNL     1     -38.258 -33.383  24.983  1.00  0.00     0.041 C 
ATOM     13  O   UNL     1     -38.000 -33.867  26.117  1.00  0.00    -0.550 OA
ATOM     14  O   UNL     1     -37.220 -33.088  24.108  1.00  0.00    -0.550 OA
ENDBRANCH  11  12
ENDBRANCH  10  11
ENDBRANCH   9  10
ENDBRANCH   8   9
ENDBRANCH   7   8
ENDBRANCH   6   7
ENDBRANCH   5   6
ENDBRANCH   4   5
ENDBRANCH   3   4
ENDBRANCH   2   3
ENDBRANCH   1   2
BRANCH   1  15
ATOM     15  C   UNL     1     -45.606 -37.351  19.376  1.00  0.00     0.000 C 
BRANCH  15  16
ATOM     16  C   UNL     1     -46.115 -36.058  18.724  1.00  0.00     0.000 C 
BRANCH  16  17
ATOM     17  C   UNL     1     -46.050 -36.107  17.182  1.00  0.00     0.000 C 
BRANCH  17  18
ATOM     18  C   UNL     1     -45.632 -37.481  16.622  1.00  0.00    -0.000 C 
BRANCH  18  19
ATOM     19  C   UNL     1     -44.900 -37.434  15.268  1.00  0.00    -0.000 C 
BRANCH  19  20
ATOM     20  C   UNL     1     -45.707 -37.980  14.071  1.00  0.00    -0.000 C 
BRANCH  20  21
ATOM     21  C   UNL     1     -45.810 -37.028  12.863  1.00  0.00    -0.000 C 
BRANCH  21  22
ATOM     22  C   UNL     1     -45.037 -35.703  13.010  1.00  0.00    -0.000 C 
BRANCH  22  23
ATOM     23  C   UNL     1     -45.853 -34.435  12.688  1.00  0.00    -0.000 C 
BRANCH  23  24
ATOM     24  C   UNL     1     -45.496 -33.197  13.534  1.00  0.00    -0.000 C 
BRANCH  24  25
ATOM     25  C   UNL     1     -45.820 -33.321  15.033  1.00  0.00    -0.003 C 
ATOM     26  C   UNL     1     -44.600 -33.094  15.926  1.00  0.00     0.004 C 
ENDBRANCH  24  25
ENDBRANCH  23  24
ENDBRANCH  22  23
ENDBRANCH  21  22
ENDBRANCH  20  21
ENDBRANCH  19  20
ENDBRANCH  18  19
ENDBRANCH  17  18
ENDBRANCH  16  17
ENDBRANCH  15  16
ENDBRANCH   1  15
TORSDOF 22
ENDMDL
