MODEL 1
REMARK VINA RESULT:    13.110      0.000      0.000
REMARK INTER + INTRA:          24.014
REMARK INTER:                  23.841
REMARK INTRA:                   0.174
REMARK UNBOUND:                 0.174
REMARK SMILES CCCCCCCCCCCCCCCC(=O)[O-]
REMARK SMILES IDX 9 1 10 2 11 3 12 4 13 5 14 6 15 7 16 8 17 9 18 10 8 11 7 12
REMARK SMILES IDX 6 13 5 14 4 15 3 16 2 17 1 18
REMARK H PARENT
REMARK Flexibility Score: inf
ROOT
ATOM      1  C   UNL     1     -15.813  24.146 -19.668  1.00  0.00     0.000 C 
ENDROOT
BRANCH   1   2
ATOM      2  C   UNL     1     -16.426  22.880 -20.290  1.00  0.00     0.000 C 
BRANCH   2   3
ATOM      3  C   UNL     1     -17.158  23.161 -21.611  1.00  0.00     0.000 C 
BRANCH   3   4
ATOM      4  C   UNL     1     -16.241  22.892 -22.813  1.00  0.00     0.000 C 
BRANCH   4   5
ATOM      5  C   UNL     1     -14.756  23.168 -22.510  1.00  0.00     0.000 C 
BRANCH   5   6
ATOM      6  C   UNL     1     -14.224  24.517 -23.034  1.00  0.00     0.006 C 
BRANCH   6   7
ATOM      7  C   UNL     1     -12.692  24.641 -23.038  1.00  0.00     0.053 C 
BRANCH   7   8
ATOM      8  C   UNL     1     -12.033  23.443 -22.429  1.00  0.00     0.041 C 
ATOM      9  O   UNL     1     -12.466  22.960 -21.349  1.00  0.00    -0.550 OA
ATOM     10  O   UNL     1     -10.918  22.879 -23.035  1.00  0.00    -0.550 OA
ENDBRANCH   7   8
ENDBRANCH   6   7
ENDBRANCH   5   6
ENDBRANCH   4   5
ENDBRANCH   3   4
ENDBRANCH   2   3
ENDBRANCH   1   2
BRANCH   1  11
ATOM     11  C   UNL     1     -15.549  23.994 -18.161  1.00  0.00     0.000 C 
BRANCH  11  12
ATOM     12  C   UNL     1     -15.700  25.318 -17.392  1.00  0.00    -0.000 C 
BRANCH  12  13
ATOM     13  C   UNL     1     -17.006  26.076 -17.715  1.00  0.00    -0.000 C 
BRANCH  13  14
ATOM     14  C   UNL     1     -16.813  27.109 -18.838  1.00  0.00    -0.000 C 
BRANCH  14  15
ATOM     15  C   UNL     1     -17.859  26.969 -19.957  1.00  0.00    -0.000 C 
BRANCH  15  16
ATOM     16  C   UNL     1     -17.339  27.419 -21.342  1.00  0.00    -0.000 C 
BRANCH  16  17
ATOM     17  C   UNL     1     -18.132  28.598 -21.930  1.00  0.00    -0.003 C 
ATOM     18  C   UNL     1     -19.539  28.704 -21.341  1.00  0.00     0.004 C 
ENDBRANCH  16  17
ENDBRANCH  15  16
ENDBRANCH  14  15
ENDBRANCH  13  14
ENDBRANCH  12  13
ENDBRANCH  11  12
ENDBRANCH   1  11
TORSDOF 14
ENDMDL
MODEL 2
REMARK VINA RESULT:    13.556     17.644     19.533
REMARK INTER + INTRA:          24.824
REMARK INTER:                  25.809
REMARK INTRA:                  -0.985
REMARK UNBOUND:                 0.174
REMARK SMILES CCCCCCCCCCCCCCCC(=O)[O-]
REMARK SMILES IDX 9 1 10 2 11 3 12 4 13 5 14 6 15 7 16 8 17 9 18 10 8 11 7 12
REMARK SMILES IDX 6 13 5 14 4 15 3 16 2 17 1 18
REMARK H PARENT
REMARK Flexibility Score: inf
ROOT
ATOM      1  C   UNL     1      -8.783  40.812 -10.838  1.00  0.00     0.000 C 
ENDROOT
BRANCH   1   2
ATOM      2  C   UNL     1      -9.496  41.405  -9.611  1.00  0.00     0.000 C 
BRANCH   2   3
ATOM      3  C   UNL     1     -11.015  41.522  -9.805  1.00  0.00     0.000 C 
BRANCH   3   4
ATOM      4  C   UNL     1     -11.526  40.452 -10.781  1.00  0.00     0.000 C 
BRANCH   4   5
ATOM      5  C   UNL     1     -13.016  40.118 -10.578  1.00  0.00     0.000 C 
BRANCH   5   6
ATOM      6  C   UNL     1     -13.325  39.238  -9.350  1.00  0.00     0.006 C 
BRANCH   6   7
ATOM      7  C   UNL     1     -14.164  37.987  -9.656  1.00  0.00     0.053 C 
BRANCH   7   8
ATOM      8  C   UNL     1     -15.525  38.060  -9.035  1.00  0.00     0.041 C 
ATOM      9  O   UNL     1     -15.905  37.168  -8.231  1.00  0.00    -0.550 OA
ATOM     10  O   UNL     1     -16.387  39.095  -9.371  1.00  0.00    -0.550 OA
ENDBRANCH   7   8
ENDBRANCH   6   7
ENDBRANCH   5   6
ENDBRANCH   4   5
ENDBRANCH   3   4
ENDBRANCH   2   3
ENDBRANCH   1   2
BRANCH   1  11
ATOM     11  C   UNL     1      -7.966  41.862 -11.609  1.00  0.00     0.000 C 
BRANCH  11  12
ATOM     12  C   UNL     1      -8.178  41.783 -13.131  1.00  0.00    -0.000 C 
BRANCH  12  13
ATOM     13  C   UNL     1      -9.582  41.286 -13.535  1.00  0.00    -0.000 C 
BRANCH  13  14
ATOM     14  C   UNL     1     -10.575  42.446 -13.722  1.00  0.00    -0.000 C 
BRANCH  14  15
ATOM     15  C   UNL     1     -12.023  42.043 -13.399  1.00  0.00    -0.000 C 
BRANCH  15  16
ATOM     16  C   UNL     1     -13.076  42.997 -14.010  1.00  0.00    -0.000 C 
BRANCH  16  17
ATOM     17  C   UNL     1     -13.026  43.046 -15.547  1.00  0.00    -0.003 C 
ATOM     18  C   UNL     1     -14.026  42.086 -16.191  1.00  0.00     0.004 C 
ENDBRANCH  16  17
ENDBRANCH  15  16
ENDBRANCH  14  15
ENDBRANCH  13  14
ENDBRANCH  12  13
ENDBRANCH  11  12
ENDBRANCH   1  11
TORSDOF 14
ENDMDL
MODEL 3
REMARK VINA RESULT:    13.748      5.561      7.397
REMARK INTER + INTRA:          25.174
REMARK INTER:                  25.762
REMARK INTRA:                  -0.587
REMARK UNBOUND:                 0.174
REMARK SMILES CCCCCCCCCCCCCCCC(=O)[O-]
REMARK SMILES IDX 9 1 10 2 11 3 12 4 13 5 14 6 15 7 16 8 17 9 18 10 8 11 7 12
REMARK SMILES IDX 6 13 5 14 4 15 3 16 2 17 1 18
REMARK H PARENT
REMARK Flexibility Score: inf
ROOT
ATOM      1  C   UNL     1     -15.790  28.129 -19.721  1.00  0.00     0.000 C 
ENDROOT
BRANCH   1   2
ATOM      2  C   UNL     1     -15.346  29.528 -19.262  1.00  0.00     0.000 C 
BRANCH   2   3
ATOM      3  C   UNL     1     -15.019  30.462 -20.436  1.00  0.00     0.000 C 
BRANCH   3   4
ATOM      4  C   UNL     1     -13.575  30.976 -20.340  1.00  0.00     0.000 C 
BRANCH   4   5
ATOM      5  C   UNL     1     -13.144  31.792 -21.574  1.00  0.00     0.000 C 
BRANCH   5   6
ATOM      6  C   UNL     1     -12.710  33.242 -21.277  1.00  0.00     0.006 C 
BRANCH   6   7
ATOM      7  C   UNL     1     -11.295  33.596 -21.761  1.00  0.00     0.053 C 
BRANCH   7   8
ATOM      8  C   UNL     1     -10.317  33.664 -20.629  1.00  0.00     0.041 C 
ATOM      9  O   UNL     1     -10.105  34.757 -20.039  1.00  0.00    -0.550 OA
ATOM     10  O   UNL     1      -9.615  32.529 -20.247  1.00  0.00    -0.550 OA
ENDBRANCH   7   8
ENDBRANCH   6   7
ENDBRANCH   5   6
ENDBRANCH   4   5
ENDBRANCH   3   4
ENDBRANCH   2   3
ENDBRANCH   1   2
BRANCH   1  11
ATOM     11  C   UNL     1     -16.839  27.506 -18.785  1.00  0.00     0.000 C 
BRANCH  11  12
ATOM     12  C   UNL     1     -17.218  26.070 -19.184  1.00  0.00    -0.000 C 
BRANCH  12  13
ATOM     13  C   UNL     1     -16.695  24.997 -18.204  1.00  0.00    -0.000 C 
BRANCH  13  14
ATOM     14  C   UNL     1     -16.217  23.730 -18.933  1.00  0.00    -0.000 C 
BRANCH  14  15
ATOM     15  C   UNL     1     -15.982  23.965 -20.434  1.00  0.00    -0.000 C 
BRANCH  15  16
ATOM     16  C   UNL     1     -14.631  23.407 -20.937  1.00  0.00    -0.000 C 
BRANCH  16  17
ATOM     17  C   UNL     1     -14.478  23.483 -22.466  1.00  0.00    -0.003 C 
ATOM     18  C   UNL     1     -13.013  23.520 -22.902  1.00  0.00     0.004 C 
ENDBRANCH  16  17
ENDBRANCH  15  16
ENDBRANCH  14  15
ENDBRANCH  13  14
ENDBRANCH  12  13
ENDBRANCH  11  12
ENDBRANCH   1  11
TORSDOF 14
ENDMDL
MODEL 4
REMARK VINA RESULT:    13.773     15.072     16.570
REMARK INTER + INTRA:          25.219
REMARK INTER:                  25.800
REMARK INTRA:                  -0.581
REMARK UNBOUND:                 0.174
REMARK SMILES CCCCCCCCCCCCCCCC(=O)[O-]
REMARK SMILES IDX 9 1 10 2 11 3 12 4 13 5 14 6 15 7 16 8 17 9 18 10 8 11 7 12
REMARK SMILES IDX 6 13 5 14 4 15 3 16 2 17 1 18
REMARK H PARENT
REMARK Flexibility Score: inf
ROOT
ATOM      1  C   UNL     1      -7.973  38.677 -15.667  1.00  0.00     0.000 C 
ENDROOT
BRANCH   1   2
ATOM      2  C   UNL     1      -7.197  38.171 -16.894  1.00  0.00     0.000 C 
BRANCH   2   3
ATOM      3  C   UNL     1      -6.247  37.012 -16.561  1.00  0.00     0.000 C 
BRANCH   3   4
ATOM      4  C   UNL     1      -5.958  36.164 -17.808  1.00  0.00     0.000 C 
BRANCH   4   5
ATOM      5  C   UNL     1      -6.141  34.654 -17.565  1.00  0.00     0.000 C 
BRANCH   5   6
ATOM      6  C   UNL     1      -6.358  34.254 -16.091  1.00  0.00     0.006 C 
BRANCH   6   7
ATOM      7  C   UNL     1      -7.813  33.916 -15.729  1.00  0.00     0.053 C 
BRANCH   7   8
ATOM      8  C   UNL     1      -8.178  32.519 -16.125  1.00  0.00     0.041 C 
ATOM      9  O   UNL     1      -7.913  32.097 -17.282  1.00  0.00    -0.550 OA
ATOM     10  O   UNL     1      -8.841  31.693 -15.227  1.00  0.00    -0.550 OA
ENDBRANCH   7   8
ENDBRANCH   6   7
ENDBRANCH   5   6
ENDBRANCH   4   5
ENDBRANCH   3   4
ENDBRANCH   2   3
ENDBRANCH   1   2
BRANCH   1  11
ATOM     11  C   UNL     1      -8.586  40.070 -15.889  1.00  0.00     0.000 C 
BRANCH  11  12
ATOM     12  C   UNL     1      -8.870  40.814 -14.573  1.00  0.00    -0.000 C 
BRANCH  12  13
ATOM     13  C   UNL     1      -7.738  41.775 -14.148  1.00  0.00    -0.000 C 
BRANCH  13  14
ATOM     14  C   UNL     1      -7.793  42.107 -12.648  1.00  0.00    -0.000 C 
BRANCH  14  15
ATOM     15  C   UNL     1      -8.131  40.881 -11.783  1.00  0.00    -0.000 C 
BRANCH  15  16
ATOM     16  C   UNL     1      -9.232  41.158 -10.733  1.00  0.00    -0.000 C 
BRANCH  16  17
ATOM     17  C   UNL     1     -10.655  41.056 -11.309  1.00  0.00    -0.003 C 
ATOM     18  C   UNL     1     -11.726  41.081 -10.218  1.00  0.00     0.004 C 
ENDBRANCH  16  17
ENDBRANCH  15  16
ENDBRANCH  14  15
ENDBRANCH  13  14
ENDBRANCH  12  13
ENDBRANCH  11  12
ENDBRANCH   1  11
TORSDOF 14
ENDMDL
MODEL 5
REMARK VINA RESULT:    14.055     17.718     19.568
REMARK INTER + INTRA:          25.731
REMARK INTER:                  25.864
REMARK INTRA:                  -0.133
REMARK UNBOUND:                 0.174
REMARK SMILES CCCCCCCCCCCCCCCC(=O)[O-]
REMARK SMILES IDX 9 1 10 2 11 3 12 4 13 5 14 6 15 7 16 8 17 9 18 10 8 11 7 12
REMARK SMILES IDX 6 13 5 14 4 15 3 16 2 17 1 18
REMARK H PARENT
REMARK Flexibility Score: inf
ROOT
ATOM      1  C   UNL     1      -8.480  40.597 -11.193  1.00  0.00     0.000 C 
ENDROOT
BRANCH   1   2
ATOM      2  C   UNL     1      -7.644  41.743 -11.787  1.00  0.00     0.000 C 
BRANCH   2   3
ATOM      3  C   UNL     1      -7.764  41.837 -13.315  1.00  0.00     0.000 C 
BRANCH   3   4
ATOM      4  C   UNL     1      -9.153  42.348 -13.725  1.00  0.00     0.000 C 
BRANCH   4   5
ATOM      5  C   UNL     1     -10.254  41.282 -13.571  1.00  0.00     0.000 C 
BRANCH   5   6
ATOM      6  C   UNL     1     -11.621  41.821 -13.102  1.00  0.00     0.006 C 
BRANCH   6   7
ATOM      7  C   UNL     1     -12.167  42.989 -13.937  1.00  0.00     0.053 C 
BRANCH   7   8
ATOM      8  C   UNL     1     -13.306  42.567 -14.813  1.00  0.00     0.041 C 
ATOM      9  O   UNL     1     -14.291  41.955 -14.322  1.00  0.00    -0.550 OA
ATOM     10  O   UNL     1     -13.264  42.820 -16.177  1.00  0.00    -0.550 OA
ENDBRANCH   7   8
ENDBRANCH   6   7
ENDBRANCH   5   6
ENDBRANCH   4   5
ENDBRANCH   3   4
ENDBRANCH   2   3
ENDBRANCH   1   2
BRANCH   1  11
ATOM     11  C   UNL     1      -8.954  40.893  -9.760  1.00  0.00     0.000 C 
BRANCH  11  12
ATOM     12  C   UNL     1     -10.218  41.769  -9.719  1.00  0.00    -0.000 C 
BRANCH  12  13
ATOM     13  C   UNL     1     -11.458  41.096 -10.345  1.00  0.00    -0.000 C 
BRANCH  13  14
ATOM     14  C   UNL     1     -12.350  40.426  -9.287  1.00  0.00    -0.000 C 
BRANCH  14  15
ATOM     15  C   UNL     1     -13.424  39.517  -9.908  1.00  0.00    -0.000 C 
BRANCH  15  16
ATOM     16  C   UNL     1     -13.785  38.302  -9.023  1.00  0.00    -0.000 C 
BRANCH  16  17
ATOM     17  C   UNL     1     -15.174  37.720  -9.334  1.00  0.00    -0.003 C 
ATOM     18  C   UNL     1     -16.298  38.720  -9.063  1.00  0.00     0.004 C 
ENDBRANCH  16  17
ENDBRANCH  15  16
ENDBRANCH  14  15
ENDBRANCH  13  14
ENDBRANCH  12  13
ENDBRANCH  11  12
ENDBRANCH   1  11
TORSDOF 14
ENDMDL
MODEL 6
REMARK VINA RESULT:    14.067     14.831     16.323
REMARK INTER + INTRA:          25.754
REMARK INTER:                  26.167
REMARK INTRA:                  -0.413
REMARK UNBOUND:                 0.174
REMARK SMILES CCCCCCCCCCCCCCCC(=O)[O-]
REMARK SMILES IDX 9 1 10 2 11 3 12 4 13 5 14 6 15 7 16 8 17 9 18 10 8 11 7 12
REMARK SMILES IDX 6 13 5 14 4 15 3 16 2 17 1 18
REMARK H PARENT
REMARK Flexibility Score: inf
ROOT
ATOM      1  C   UNL     1      -8.036  38.315 -15.901  1.00  0.00     0.000 C 
ENDROOT
BRANCH   1   2
ATOM      2  C   UNL     1      -6.960  37.869 -16.905  1.00  0.00     0.000 C 
BRANCH   2   3
ATOM      3  C   UNL     1      -6.056  36.757 -16.354  1.00  0.00     0.000 C 
BRANCH   3   4
ATOM      4  C   UNL     1      -5.967  35.584 -17.341  1.00  0.00     0.000 C 
BRANCH   4   5
ATOM      5  C   UNL     1      -6.558  34.278 -16.778  1.00  0.00     0.000 C 
BRANCH   5   6
ATOM      6  C   UNL     1      -7.952  33.905 -17.324  1.00  0.00     0.006 C 
BRANCH   6   7
ATOM      7  C   UNL     1      -8.528  32.596 -16.761  1.00  0.00     0.053 C 
BRANCH   7   8
ATOM      8  C   UNL     1      -8.263  32.452 -15.295  1.00  0.00     0.041 C 
ATOM      9  O   UNL     1      -8.370  33.448 -14.530  1.00  0.00    -0.550 OA
ATOM     10  O   UNL     1      -7.866  31.227 -14.777  1.00  0.00    -0.550 OA
ENDBRANCH   7   8
ENDBRANCH   6   7
ENDBRANCH   5   6
ENDBRANCH   4   5
ENDBRANCH   3   4
ENDBRANCH   2   3
ENDBRANCH   1   2
BRANCH   1  11
ATOM     11  C   UNL     1      -8.477  39.773 -16.118  1.00  0.00     0.000 C 
BRANCH  11  12
ATOM     12  C   UNL     1      -8.891  40.472 -14.812  1.00  0.00    -0.000 C 
BRANCH  12  13
ATOM     13  C   UNL     1      -7.808  41.413 -14.243  1.00  0.00    -0.000 C 
BRANCH  13  14
ATOM     14  C   UNL     1      -8.039  41.730 -12.756  1.00  0.00    -0.000 C 
BRANCH  14  15
ATOM     15  C   UNL     1      -9.256  40.989 -12.176  1.00  0.00    -0.000 C 
BRANCH  15  16
ATOM     16  C   UNL     1      -9.518  41.313 -10.687  1.00  0.00    -0.000 C 
BRANCH  16  17
ATOM     17  C   UNL     1     -11.002  41.200 -10.296  1.00  0.00    -0.003 C 
ATOM     18  C   UNL     1     -11.891  40.852 -11.490  1.00  0.00     0.004 C 
ENDBRANCH  16  17
ENDBRANCH  15  16
ENDBRANCH  14  15
ENDBRANCH  13  14
ENDBRANCH  12  13
ENDBRANCH  11  12
ENDBRANCH   1  11
TORSDOF 14
ENDMDL
MODEL 7
REMARK VINA RESULT:    14.318     10.621     12.260
REMARK INTER + INTRA:          26.210
REMARK INTER:                  25.890
REMARK INTRA:                   0.320
REMARK UNBOUND:                 0.174
REMARK SMILES CCCCCCCCCCCCCCCC(=O)[O-]
REMARK SMILES IDX 9 1 10 2 11 3 12 4 13 5 14 6 15 7 16 8 17 9 18 10 8 11 7 12
REMARK SMILES IDX 6 13 5 14 4 15 3 16 2 17 1 18
REMARK H PARENT
REMARK Flexibility Score: inf
ROOT
ATOM      1  C   UNL     1      -7.838  34.526 -18.529  1.00  0.00     0.000 C 
ENDROOT
BRANCH   1   2
ATOM      2  C   UNL     1      -6.373  34.971 -18.670  1.00  0.00     0.000 C 
BRANCH   2   3
ATOM      3  C   UNL     1      -6.064  36.257 -17.889  1.00  0.00     0.000 C 
BRANCH   3   4
ATOM      4  C   UNL     1      -5.975  35.975 -16.382  1.00  0.00     0.000 C 
BRANCH   4   5
ATOM      5  C   UNL     1      -6.100  34.478 -16.043  1.00  0.00     0.000 C 
BRANCH   5   6
ATOM      6  C   UNL     1      -7.231  34.125 -15.055  1.00  0.00     0.006 C 
BRANCH   6   7
ATOM      7  C   UNL     1      -8.446  33.437 -15.696  1.00  0.00     0.053 C 
BRANCH   7   8
ATOM      8  C   UNL     1      -8.202  31.980 -15.937  1.00  0.00     0.041 C 
ATOM      9  O   UNL     1      -8.104  31.538 -17.112  1.00  0.00    -0.550 OA
ATOM     10  O   UNL     1      -8.117  31.103 -14.864  1.00  0.00    -0.550 OA
ENDBRANCH   7   8
ENDBRANCH   6   7
ENDBRANCH   5   6
ENDBRANCH   4   5
ENDBRANCH   3   4
ENDBRANCH   2   3
ENDBRANCH   1   2
BRANCH   1  11
ATOM     11  C   UNL     1      -8.620  34.645 -19.847  1.00  0.00     0.000 C 
BRANCH  11  12
ATOM     12  C   UNL     1      -9.860  33.736 -19.890  1.00  0.00    -0.000 C 
BRANCH  12  13
ATOM     13  C   UNL     1     -10.322  33.387 -21.321  1.00  0.00    -0.000 C 
BRANCH  13  14
ATOM     14  C   UNL     1     -11.765  33.845 -21.592  1.00  0.00    -0.000 C 
BRANCH  14  15
ATOM     15  C   UNL     1     -12.222  33.544 -23.029  1.00  0.00    -0.000 C 
BRANCH  15  16
ATOM     16  C   UNL     1     -13.190  32.342 -23.125  1.00  0.00    -0.000 C 
BRANCH  16  17
ATOM     17  C   UNL     1     -13.706  31.871 -21.754  1.00  0.00    -0.003 C 
ATOM     18  C   UNL     1     -12.745  30.896 -21.075  1.00  0.00     0.004 C 
ENDBRANCH  16  17
ENDBRANCH  15  16
ENDBRANCH  14  15
ENDBRANCH  13  14
ENDBRANCH  12  13
ENDBRANCH  11  12
ENDBRANCH   1  11
TORSDOF 14
ENDMDL
MODEL 8
REMARK VINA RESULT:    14.368      7.845      9.528
REMARK INTER + INTRA:          26.301
REMARK INTER:                  26.733
REMARK INTRA:                  -0.432
REMARK UNBOUND:                 0.174
REMARK SMILES CCCCCCCCCCCCCCCC(=O)[O-]
REMARK SMILES IDX 9 1 10 2 11 3 12 4 13 5 14 6 15 7 16 8 17 9 18 10 8 11 7 12
REMARK SMILES IDX 6 13 5 14 4 15 3 16 2 17 1 18
REMARK H PARENT
REMARK Flexibility Score: inf
ROOT
ATOM      1  C   UNL     1     -12.981  32.383 -21.832  1.00  0.00     0.000 C 
ENDROOT
BRANCH   1   2
ATOM      2  C   UNL     1     -12.004  33.434 -21.280  1.00  0.00     0.000 C 
BRANCH   2   3
ATOM      3  C   UNL     1     -10.828  32.808 -20.516  1.00  0.00     0.000 C 
BRANCH   3   4
ATOM      4  C   UNL     1      -9.822  33.885 -20.082  1.00  0.00     0.000 C 
BRANCH   4   5
ATOM      5  C   UNL     1      -8.763  33.356 -19.097  1.00  0.00     0.000 C 
BRANCH   5   6
ATOM      6  C   UNL     1      -8.885  33.896 -17.657  1.00  0.00     0.006 C 
BRANCH   6   7
ATOM      7  C   UNL     1      -7.649  33.651 -16.777  1.00  0.00     0.053 C 
BRANCH   7   8
ATOM      8  C   UNL     1      -7.988  32.880 -15.539  1.00  0.00     0.041 C 
ATOM      9  O   UNL     1      -7.858  33.411 -14.405  1.00  0.00    -0.550 OA
ATOM     10  O   UNL     1      -8.415  31.562 -15.636  1.00  0.00    -0.550 OA
ENDBRANCH   7   8
ENDBRANCH   6   7
ENDBRANCH   5   6
ENDBRANCH   4   5
ENDBRANCH   3   4
ENDBRANCH   2   3
ENDBRANCH   1   2
BRANCH   1  11
ATOM     11  C   UNL     1     -13.188  31.205 -20.866  1.00  0.00     0.000 C 
BRANCH  11  12
ATOM     12  C   UNL     1     -14.668  30.971 -20.518  1.00  0.00    -0.000 C 
BRANCH  12  13
ATOM     13  C   UNL     1     -14.885  29.924 -19.404  1.00  0.00    -0.000 C 
BRANCH  13  14
ATOM     14  C   UNL     1     -15.732  28.734 -19.885  1.00  0.00    -0.000 C 
BRANCH  14  15
ATOM     15  C   UNL     1     -16.331  27.926 -18.721  1.00  0.00    -0.000 C 
BRANCH  15  16
ATOM     16  C   UNL     1     -17.075  26.650 -19.179  1.00  0.00    -0.000 C 
BRANCH  16  17
ATOM     17  C   UNL     1     -17.021  25.515 -18.142  1.00  0.00    -0.003 C 
ATOM     18  C   UNL     1     -16.280  24.285 -18.666  1.00  0.00     0.004 C 
ENDBRANCH  16  17
ENDBRANCH  15  16
ENDBRANCH  14  15
ENDBRANCH  13  14
ENDBRANCH  12  13
ENDBRANCH  11  12
ENDBRANCH   1  11
TORSDOF 14
ENDMDL
