MODEL 1
REMARK VINA RESULT:    -5.104      0.000      0.000
REMARK INTER + INTRA:          -6.512
REMARK INTER:                  -5.999
REMARK INTRA:                  -0.513
REMARK UNBOUND:                -0.513
REMARK SMILES C=C(C)[C@H]1CC[C@@]2(CO)CC[C@@]3(C)[C@H](CC[C@H]4[C@@]5(C)CC[C@@H](O)C(C)(C)[C@@H]5CC[C@@]43C)[C@H]12
REMARK SMILES IDX 4 1 5 2 6 3 7 4 32 5 14 6 15 7 16 8 17 9 18 10 20 11 21 12
REMARK SMILES IDX 22 13 24 14 27 15 28 16 29 17 30 18 12 19 11 20 10 21 13 22
REMARK SMILES IDX 31 23 25 24 26 25 19 26 2 27 3 28 1 29 8 30 9 31 23 33
REMARK H PARENT 9 32 23 34
REMARK Flexibility Score: inf
ROOT
ATOM      1  C   UNL     1      -0.330  -0.210  27.847  1.00  0.00     0.018 C 
ATOM      2  C   UNL     1       0.367  -1.169  28.845  1.00  0.00     0.009 C 
ATOM      3  C   UNL     1      -0.078  -2.597  28.477  1.00  0.00     0.010 C 
ATOM      4  C   UNL     1      -0.686  -2.476  27.072  1.00  0.00    -0.003 C 
ATOM      5  C   UNL     1      -1.369  -1.109  27.160  1.00  0.00     0.008 C 
ATOM      6  C   UNL     1      -2.083  -0.627  25.867  1.00  0.00    -0.000 C 
ATOM      7  C   UNL     1      -1.261   0.225  24.883  1.00  0.00     0.005 C 
ATOM      8  C   UNL     1      -2.179   0.912  23.842  1.00  0.00     0.005 C 
ATOM      9  C   UNL     1      -3.462   0.089  23.460  1.00  0.00     0.002 C 
ATOM     10  C   UNL     1      -4.215   0.555  22.108  1.00  0.00    -0.026 C 
ATOM     11  C   UNL     1      -3.495   1.734  21.375  1.00  0.00     0.010 C 
ATOM     12  C   UNL     1      -4.152   2.125  20.037  1.00  0.00     0.033 C 
ATOM     13  C   UNL     1      -4.138   0.959  19.039  1.00  0.00     0.120 C 
ATOM     14  C   UNL     1      -4.793  -0.363  19.603  1.00  0.00    -0.006 C 
ATOM     15  C   UNL     1      -4.333  -0.650  21.093  1.00  0.00     0.003 C 
ATOM     16  C   UNL     1      -5.073  -1.815  21.764  1.00  0.00     0.005 C 
ATOM     17  C   UNL     1      -4.417  -2.321  23.061  1.00  0.00     0.008 C 
ATOM     18  C   UNL     1      -3.211  -1.460  23.628  1.00  0.00    -0.024 C 
ATOM     19  C   UNL     1      -3.002  -1.764  25.215  1.00  0.00    -0.024 C 
ATOM     20  C   UNL     1      -2.444  -3.245  25.408  1.00  0.00     0.008 C 
ATOM     21  C   UNL     1      -1.791  -3.518  26.770  1.00  0.00     0.010 C 
ATOM     22  C   UNL     1      -4.354  -1.716  26.050  1.00  0.00     0.012 C 
ATOM     23  C   UNL     1      -1.948  -1.854  22.765  1.00  0.00     0.012 C 
ATOM     24  C   UNL     1      -4.347  -1.536  18.675  1.00  0.00     0.014 C 
ATOM     25  C   UNL     1      -6.333  -0.275  19.444  1.00  0.00     0.014 C 
ATOM     26  C   UNL     1      -5.608   1.087  22.560  1.00  0.00     0.012 C 
ENDROOT
BRANCH   1  27
ATOM     27  C   UNL     1      -0.832   1.060  28.544  1.00  0.00    -0.077 C 
ATOM     28  C   UNL     1       0.181   2.110  28.884  1.00  0.00     0.039 C 
ATOM     29  C   UNL     1      -2.108   1.269  28.933  1.00  0.00     0.008 C 
ENDBRANCH   1  27
BRANCH   4  30
ATOM     30  C   UNL     1       0.478  -2.553  26.034  1.00  0.00     0.163 C 
BRANCH  30  31
ATOM     31  O   UNL     1       1.048  -3.843  26.005  1.00  0.00    -0.396 OA
ATOM     32  H   UNL     1       0.824  -4.290  26.853  1.00  0.00     0.210 HD
ENDBRANCH  30  31
ENDBRANCH   4  30
BRANCH  13  33
ATOM     33  O   UNL     1      -2.816   0.774  18.567  1.00  0.00    -0.393 OA
ATOM     34  H   UNL     1      -2.729   1.225  17.690  1.00  0.00     0.210 HD
ENDBRANCH  13  33
TORSDOF 4
ENDMDL
MODEL 2
REMARK VINA RESULT:    -4.390      2.657      7.059
REMARK INTER + INTRA:          -5.673
REMARK INTER:                  -5.478
REMARK INTRA:                  -0.195
REMARK UNBOUND:                -0.513
REMARK SMILES C=C(C)[C@H]1CC[C@@]2(CO)CC[C@@]3(C)[C@H](CC[C@H]4[C@@]5(C)CC[C@@H](O)C(C)(C)[C@@H]5CC[C@@]43C)[C@H]12
REMARK SMILES IDX 4 1 5 2 6 3 7 4 32 5 14 6 15 7 16 8 17 9 18 10 20 11 21 12
REMARK SMILES IDX 22 13 24 14 27 15 28 16 29 17 30 18 12 19 11 20 10 21 13 22
REMARK SMILES IDX 31 23 25 24 26 25 19 26 2 27 3 28 1 29 8 30 9 31 23 33
REMARK H PARENT 9 32 23 34
REMARK Flexibility Score: inf
ROOT
ATOM      1  C   UNL     1      -5.098   0.670  22.692  1.00  0.00     0.018 C 
ATOM      2  C   UNL     1      -6.206   1.515  23.371  1.00  0.00     0.009 C 
ATOM      3  C   UNL     1      -6.079   1.282  24.888  1.00  0.00     0.010 C 
ATOM      4  C   UNL     1      -4.695   0.643  25.080  1.00  0.00    -0.003 C 
ATOM      5  C   UNL     1      -4.597  -0.233  23.829  1.00  0.00     0.008 C 
ATOM      6  C   UNL     1      -3.271  -1.028  23.666  1.00  0.00    -0.000 C 
ATOM      7  C   UNL     1      -2.139  -0.354  22.870  1.00  0.00     0.005 C 
ATOM      8  C   UNL     1      -1.038  -1.378  22.496  1.00  0.00     0.005 C 
ATOM      9  C   UNL     1      -0.835  -2.530  23.545  1.00  0.00     0.002 C 
ATOM     10  C   UNL     1       0.544  -3.362  23.412  1.00  0.00    -0.026 C 
ATOM     11  C   UNL     1       1.476  -2.834  22.273  1.00  0.00     0.010 C 
ATOM     12  C   UNL     1       2.833  -3.560  22.197  1.00  0.00     0.033 C 
ATOM     13  C   UNL     1       3.639  -3.387  23.492  1.00  0.00     0.120 C 
ATOM     14  C   UNL     1       2.854  -3.832  24.789  1.00  0.00    -0.006 C 
ATOM     15  C   UNL     1       1.356  -3.315  24.767  1.00  0.00     0.003 C 
ATOM     16  C   UNL     1       0.486  -3.864  25.906  1.00  0.00     0.005 C 
ATOM     17  C   UNL     1      -0.848  -3.123  26.100  1.00  0.00     0.008 C 
ATOM     18  C   UNL     1      -1.231  -2.051  24.996  1.00  0.00    -0.024 C 
ATOM     19  C   UNL     1      -2.837  -1.777  25.012  1.00  0.00    -0.024 C 
ATOM     20  C   UNL     1      -3.236  -1.003  26.347  1.00  0.00     0.008 C 
ATOM     21  C   UNL     1      -4.599  -0.299  26.305  1.00  0.00     0.010 C 
ATOM     22  C   UNL     1      -3.704  -3.110  25.028  1.00  0.00     0.012 C 
ATOM     23  C   UNL     1      -0.393  -0.755  25.335  1.00  0.00     0.012 C 
ATOM     24  C   UNL     1       3.606  -3.229  26.017  1.00  0.00     0.014 C 
ATOM     25  C   UNL     1       2.968  -5.370  24.951  1.00  0.00     0.014 C 
ATOM     26  C   UNL     1       0.129  -4.813  23.022  1.00  0.00     0.012 C 
ENDROOT
BRANCH   1  27
ATOM     27  C   UNL     1      -5.608  -0.005  21.414  1.00  0.00    -0.077 C 
ATOM     28  C   UNL     1      -6.392   0.836  20.453  1.00  0.00     0.039 C 
ATOM     29  C   UNL     1      -5.461  -1.316  21.126  1.00  0.00     0.008 C 
ENDBRANCH   1  27
BRANCH   4  30
ATOM     30  C   UNL     1      -3.641   1.792  25.151  1.00  0.00     0.163 C 
BRANCH  30  31
ATOM     31  O   UNL     1      -3.342   2.125  26.489  1.00  0.00    -0.396 OA
ATOM     32  H   UNL     1      -3.645   1.381  27.059  1.00  0.00     0.210 HD
ENDBRANCH  30  31
ENDBRANCH   4  30
BRANCH  13  33
ATOM     33  O   UNL     1       4.125  -2.059  23.557  1.00  0.00    -0.393 OA
ATOM     34  H   UNL     1       3.658  -1.589  24.293  1.00  0.00     0.210 HD
ENDBRANCH  13  33
TORSDOF 4
ENDMDL
MODEL 3
REMARK VINA RESULT:    -3.952      1.895      3.662
REMARK INTER + INTRA:          -5.158
REMARK INTER:                  -4.708
REMARK INTRA:                  -0.450
REMARK UNBOUND:                -0.513
REMARK SMILES C=C(C)[C@H]1CC[C@@]2(CO)CC[C@@]3(C)[C@H](CC[C@H]4[C@@]5(C)CC[C@@H](O)C(C)(C)[C@@H]5CC[C@@]43C)[C@H]12
REMARK SMILES IDX 4 1 5 2 6 3 7 4 32 5 14 6 15 7 16 8 17 9 18 10 20 11 21 12
REMARK SMILES IDX 22 13 24 14 27 15 28 16 29 17 30 18 12 19 11 20 10 21 13 22
REMARK SMILES IDX 31 23 25 24 26 25 19 26 2 27 3 28 1 29 8 30 9 31 23 33
REMARK H PARENT 9 32 23 34
REMARK Flexibility Score: inf
ROOT
ATOM      1  C   UNL     1      -0.017  -2.329  27.085  1.00  0.00     0.018 C 
ATOM      2  C   UNL     1       0.261  -2.177  28.602  1.00  0.00     0.009 C 
ATOM      3  C   UNL     1      -0.457  -0.893  29.061  1.00  0.00     0.010 C 
ATOM      4  C   UNL     1      -1.435  -0.556  27.926  1.00  0.00    -0.003 C 
ATOM      5  C   UNL     1      -0.621  -0.971  26.699  1.00  0.00     0.008 C 
ATOM      6  C   UNL     1      -1.331  -0.796  25.327  1.00  0.00    -0.000 C 
ATOM      7  C   UNL     1      -2.125  -1.999  24.786  1.00  0.00     0.005 C 
ATOM      8  C   UNL     1      -2.473  -1.806  23.289  1.00  0.00     0.005 C 
ATOM      9  C   UNL     1      -2.705  -0.312  22.861  1.00  0.00     0.002 C 
ATOM     10  C   UNL     1      -3.459  -0.099  21.447  1.00  0.00    -0.026 C 
ATOM     11  C   UNL     1      -3.879  -1.441  20.763  1.00  0.00     0.010 C 
ATOM     12  C   UNL     1      -4.681  -1.248  19.461  1.00  0.00     0.033 C 
ATOM     13  C   UNL     1      -5.993  -0.494  19.713  1.00  0.00     0.120 C 
ATOM     14  C   UNL     1      -5.796   0.893  20.442  1.00  0.00    -0.006 C 
ATOM     15  C   UNL     1      -4.759   0.779  21.637  1.00  0.00     0.003 C 
ATOM     16  C   UNL     1      -4.382   2.125  22.270  1.00  0.00     0.005 C 
ATOM     17  C   UNL     1      -3.658   2.009  23.624  1.00  0.00     0.008 C 
ATOM     18  C   UNL     1      -3.228   0.550  24.074  1.00  0.00    -0.024 C 
ATOM     19  C   UNL     1      -2.033   0.635  25.179  1.00  0.00    -0.024 C 
ATOM     20  C   UNL     1      -2.606   1.225  26.545  1.00  0.00     0.008 C 
ATOM     21  C   UNL     1      -1.737   0.956  27.782  1.00  0.00     0.010 C 
ATOM     22  C   UNL     1      -0.856   1.619  24.762  1.00  0.00     0.012 C 
ATOM     23  C   UNL     1      -4.531  -0.135  24.644  1.00  0.00     0.012 C 
ATOM     24  C   UNL     1      -7.189   1.334  20.990  1.00  0.00     0.014 C 
ATOM     25  C   UNL     1      -5.406   1.968  19.395  1.00  0.00     0.014 C 
ATOM     26  C   UNL     1      -2.418   0.581  20.508  1.00  0.00     0.012 C 
ENDROOT
BRANCH   1  27
ATOM     27  C   UNL     1       1.230  -2.799  26.329  1.00  0.00    -0.077 C 
ATOM     28  C   UNL     1       1.024  -3.500  25.021  1.00  0.00     0.039 C 
ATOM     29  C   UNL     1       2.496  -2.687  26.789  1.00  0.00     0.008 C 
ENDBRANCH   1  27
BRANCH   4  30
ATOM     30  C   UNL     1      -2.738  -1.385  28.150  1.00  0.00     0.163 C 
BRANCH  30  31
ATOM     31  O   UNL     1      -3.449  -0.922  29.277  1.00  0.00    -0.396 OA
ATOM     32  H   UNL     1      -3.672   0.025  29.122  1.00  0.00     0.210 HD
ENDBRANCH  30  31
ENDBRANCH   4  30
BRANCH  13  33
ATOM     33  O   UNL     1      -6.898  -1.355  20.380  1.00  0.00    -0.393 OA
ATOM     34  H   UNL     1      -7.779  -0.906  20.434  1.00  0.00     0.210 HD
ENDBRANCH  13  33
TORSDOF 4
ENDMDL
MODEL 4
REMARK VINA RESULT:    -3.317      4.114      7.096
REMARK INTER + INTRA:          -4.411
REMARK INTER:                  -5.032
REMARK INTRA:                   0.621
REMARK UNBOUND:                -0.513
REMARK SMILES C=C(C)[C@H]1CC[C@@]2(CO)CC[C@@]3(C)[C@H](CC[C@H]4[C@@]5(C)CC[C@@H](O)C(C)(C)[C@@H]5CC[C@@]43C)[C@H]12
REMARK SMILES IDX 4 1 5 2 6 3 7 4 32 5 14 6 15 7 16 8 17 9 18 10 20 11 21 12
REMARK SMILES IDX 22 13 24 14 27 15 28 16 29 17 30 18 12 19 11 20 10 21 13 22
REMARK SMILES IDX 31 23 25 24 26 25 19 26 2 27 3 28 1 29 8 30 9 31 23 33
REMARK H PARENT 9 32 23 34
REMARK Flexibility Score: inf
ROOT
ATOM      1  C   UNL     1       2.629  -4.100  22.651  1.00  0.00     0.018 C 
ATOM      2  C   UNL     1       3.646  -5.256  22.474  1.00  0.00     0.009 C 
ATOM      3  C   UNL     1       3.981  -5.776  23.885  1.00  0.00     0.010 C 
ATOM      4  C   UNL     1       2.887  -5.197  24.794  1.00  0.00    -0.003 C 
ATOM      5  C   UNL     1       2.671  -3.821  24.161  1.00  0.00     0.008 C 
ATOM      6  C   UNL     1       1.574  -2.939  24.821  1.00  0.00    -0.000 C 
ATOM      7  C   UNL     1       0.147  -3.049  24.255  1.00  0.00     0.005 C 
ATOM      8  C   UNL     1      -0.742  -1.885  24.760  1.00  0.00     0.005 C 
ATOM      9  C   UNL     1      -0.385  -1.371  26.201  1.00  0.00     0.002 C 
ATOM     10  C   UNL     1      -1.516  -0.467  26.921  1.00  0.00    -0.026 C 
ATOM     11  C   UNL     1      -2.811  -0.300  26.062  1.00  0.00     0.010 C 
ATOM     12  C   UNL     1      -3.931   0.482  26.776  1.00  0.00     0.033 C 
ATOM     13  C   UNL     1      -4.385  -0.228  28.059  1.00  0.00     0.120 C 
ATOM     14  C   UNL     1      -3.205  -0.532  29.064  1.00  0.00    -0.006 C 
ATOM     15  C   UNL     1      -1.930  -1.096  28.310  1.00  0.00     0.003 C 
ATOM     16  C   UNL     1      -0.688  -1.239  29.200  1.00  0.00     0.005 C 
ATOM     17  C   UNL     1       0.438  -2.089  28.586  1.00  0.00     0.008 C 
ATOM     18  C   UNL     1       0.254  -2.522  27.071  1.00  0.00    -0.024 C 
ATOM     19  C   UNL     1       1.697  -2.901  26.416  1.00  0.00    -0.024 C 
ATOM     20  C   UNL     1       2.240  -4.254  27.062  1.00  0.00     0.008 C 
ATOM     21  C   UNL     1       3.340  -4.960  26.256  1.00  0.00     0.010 C 
ATOM     22  C   UNL     1       2.825  -1.819  26.707  1.00  0.00     0.012 C 
ATOM     23  C   UNL     1      -0.744  -3.746  27.083  1.00  0.00     0.012 C 
ATOM     24  C   UNL     1      -3.727  -1.589  30.088  1.00  0.00     0.014 C 
ATOM     25  C   UNL     1      -2.909   0.740  29.900  1.00  0.00     0.014 C 
ATOM     26  C   UNL     1      -0.889   0.951  27.077  1.00  0.00     0.012 C 
ENDROOT
BRANCH   1  27
ATOM     27  C   UNL     1       2.929  -2.937  21.700  1.00  0.00    -0.077 C 
ATOM     28  C   UNL     1       3.914  -1.904  22.157  1.00  0.00     0.039 C 
ATOM     29  C   UNL     1       2.320  -2.740  20.510  1.00  0.00     0.008 C 
ENDBRANCH   1  27
BRANCH   4  30
ATOM     30  C   UNL     1       1.649  -6.146  24.721  1.00  0.00     0.163 C 
BRANCH  30  31
ATOM     31  O   UNL     1       1.078  -6.138  23.431  1.00  0.00    -0.396 OA
ATOM     32  H   UNL     1       0.513  -6.940  23.348  1.00  0.00     0.210 HD
ENDBRANCH  30  31
ENDBRANCH   4  30
BRANCH  13  33
ATOM     33  O   UNL     1      -5.134  -1.377  27.708  1.00  0.00    -0.393 OA
ATOM     34  H   UNL     1      -5.761  -1.134  26.979  1.00  0.00     0.210 HD
ENDBRANCH  13  33
TORSDOF 4
ENDMDL
MODEL 5
REMARK VINA RESULT:    -2.988      3.125      6.595
REMARK INTER + INTRA:          -4.025
REMARK INTER:                  -3.996
REMARK INTRA:                  -0.029
REMARK UNBOUND:                -0.513
REMARK SMILES C=C(C)[C@H]1CC[C@@]2(CO)CC[C@@]3(C)[C@H](CC[C@H]4[C@@]5(C)CC[C@@H](O)C(C)(C)[C@@H]5CC[C@@]43C)[C@H]12
REMARK SMILES IDX 4 1 5 2 6 3 7 4 32 5 14 6 15 7 16 8 17 9 18 10 20 11 21 12
REMARK SMILES IDX 22 13 24 14 27 15 28 16 29 17 30 18 12 19 11 20 10 21 13 22
REMARK SMILES IDX 31 23 25 24 26 25 19 26 2 27 3 28 1 29 8 30 9 31 23 33
REMARK H PARENT 9 32 23 34
REMARK Flexibility Score: inf
ROOT
ATOM      1  C   UNL     1      -3.804  -0.370  28.170  1.00  0.00     0.018 C 
ATOM      2  C   UNL     1      -5.157   0.363  27.985  1.00  0.00     0.009 C 
ATOM      3  C   UNL     1      -5.285   0.692  26.485  1.00  0.00     0.010 C 
ATOM      4  C   UNL     1      -4.227  -0.181  25.793  1.00  0.00    -0.003 C 
ATOM      5  C   UNL     1      -3.097  -0.151  26.825  1.00  0.00     0.008 C 
ATOM      6  C   UNL     1      -1.833  -0.981  26.464  1.00  0.00    -0.000 C 
ATOM      7  C   UNL     1      -1.785  -2.440  26.955  1.00  0.00     0.005 C 
ATOM      8  C   UNL     1      -0.354  -3.020  26.832  1.00  0.00     0.005 C 
ATOM      9  C   UNL     1       0.479  -2.450  25.627  1.00  0.00     0.002 C 
ATOM     10  C   UNL     1       1.789  -3.304  25.217  1.00  0.00    -0.026 C 
ATOM     11  C   UNL     1       1.975  -4.599  26.074  1.00  0.00     0.010 C 
ATOM     12  C   UNL     1       3.167  -5.468  25.630  1.00  0.00     0.033 C 
ATOM     13  C   UNL     1       3.002  -5.959  24.186  1.00  0.00     0.120 C 
ATOM     14  C   UNL     1       2.760  -4.794  23.146  1.00  0.00    -0.006 C 
ATOM     15  C   UNL     1       1.722  -3.730  23.697  1.00  0.00     0.003 C 
ATOM     16  C   UNL     1       1.580  -2.480  22.819  1.00  0.00     0.005 C 
ATOM     17  C   UNL     1       0.353  -1.610  23.146  1.00  0.00     0.008 C 
ATOM     18  C   UNL     1      -0.466  -2.001  24.447  1.00  0.00    -0.024 C 
ATOM     19  C   UNL     1      -1.341  -0.726  24.963  1.00  0.00    -0.024 C 
ATOM     20  C   UNL     1      -2.519  -0.432  23.930  1.00  0.00     0.008 C 
ATOM     21  C   UNL     1      -3.666   0.427  24.485  1.00  0.00     0.010 C 
ATOM     22  C   UNL     1      -0.504   0.624  25.037  1.00  0.00     0.012 C 
ATOM     23  C   UNL     1      -1.371  -3.231  24.042  1.00  0.00     0.012 C 
ATOM     24  C   UNL     1       2.210  -5.444  21.838  1.00  0.00     0.014 C 
ATOM     25  C   UNL     1       4.125  -4.171  22.754  1.00  0.00     0.014 C 
ATOM     26  C   UNL     1       3.009  -2.382  25.519  1.00  0.00     0.012 C 
ENDROOT
BRANCH   1  27
ATOM     27  C   UNL     1      -3.083   0.093  29.441  1.00  0.00    -0.077 C 
ATOM     28  C   UNL     1      -3.342   1.490  29.915  1.00  0.00     0.039 C 
ATOM     29  C   UNL     1      -2.181  -0.645  30.125  1.00  0.00     0.008 C 
ENDBRANCH   1  27
BRANCH   4  30
ATOM     30  C   UNL     1      -4.849  -1.592  25.554  1.00  0.00     0.163 C 
BRANCH  30  31
ATOM     31  O   UNL     1      -4.874  -1.910  24.180  1.00  0.00    -0.396 OA
ATOM     32  H   UNL     1      -4.239  -1.313  23.722  1.00  0.00     0.210 HD
ENDBRANCH  30  31
ENDBRANCH   4  30
BRANCH  13  33
ATOM     33  O   UNL     1       2.000  -6.959  24.152  1.00  0.00    -0.393 OA
ATOM     34  H   UNL     1       1.813  -7.249  25.080  1.00  0.00     0.210 HD
ENDBRANCH  13  33
TORSDOF 4
ENDMDL
MODEL 6
REMARK VINA RESULT:    -2.973      2.453      7.867
REMARK INTER + INTRA:          -4.008
REMARK INTER:                  -3.768
REMARK INTRA:                  -0.240
REMARK UNBOUND:                -0.513
REMARK SMILES C=C(C)[C@H]1CC[C@@]2(CO)CC[C@@]3(C)[C@H](CC[C@H]4[C@@]5(C)CC[C@@H](O)C(C)(C)[C@@H]5CC[C@@]43C)[C@H]12
REMARK SMILES IDX 4 1 5 2 6 3 7 4 32 5 14 6 15 7 16 8 17 9 18 10 20 11 21 12
REMARK SMILES IDX 22 13 24 14 27 15 28 16 29 17 30 18 12 19 11 20 10 21 13 22
REMARK SMILES IDX 31 23 25 24 26 25 19 26 2 27 3 28 1 29 8 30 9 31 23 33
REMARK H PARENT 9 32 23 34
REMARK Flexibility Score: inf
ROOT
ATOM      1  C   UNL     1      -3.498   0.016  20.004  1.00  0.00     0.018 C 
ATOM      2  C   UNL     1      -4.726   0.960  19.962  1.00  0.00     0.009 C 
ATOM      3  C   UNL     1      -5.312   0.995  21.386  1.00  0.00     0.010 C 
ATOM      4  C   UNL     1      -4.213   0.407  22.284  1.00  0.00    -0.003 C 
ATOM      5  C   UNL     1      -3.629  -0.672  21.370  1.00  0.00     0.008 C 
ATOM      6  C   UNL     1      -2.434  -1.477  21.955  1.00  0.00    -0.000 C 
ATOM      7  C   UNL     1      -1.018  -0.945  21.668  1.00  0.00     0.005 C 
ATOM      8  C   UNL     1       0.054  -2.011  22.002  1.00  0.00     0.005 C 
ATOM      9  C   UNL     1      -0.322  -2.962  23.195  1.00  0.00     0.002 C 
ATOM     10  C   UNL     1       0.905  -3.797  23.837  1.00  0.00    -0.026 C 
ATOM     11  C   UNL     1       2.285  -3.470  23.179  1.00  0.00     0.010 C 
ATOM     12  C   UNL     1       3.474  -4.190  23.845  1.00  0.00     0.033 C 
ATOM     13  C   UNL     1       3.623  -3.790  25.318  1.00  0.00     0.120 C 
ATOM     14  C   UNL     1       2.309  -4.007  26.168  1.00  0.00    -0.006 C 
ATOM     15  C   UNL     1       1.022  -3.510  25.386  1.00  0.00     0.003 C 
ATOM     16  C   UNL     1      -0.304  -3.859  26.075  1.00  0.00     0.005 C 
ATOM     17  C   UNL     1      -1.525  -3.103  25.521  1.00  0.00     0.008 C 
ATOM     18  C   UNL     1      -1.290  -2.241  24.211  1.00  0.00    -0.024 C 
ATOM     19  C   UNL     1      -2.707  -1.978  23.451  1.00  0.00    -0.024 C 
ATOM     20  C   UNL     1      -3.605  -0.986  24.318  1.00  0.00     0.008 C 
ATOM     21  C   UNL     1      -4.748  -0.308  23.550  1.00  0.00     0.010 C 
ATOM     22  C   UNL     1      -3.585  -3.293  23.281  1.00  0.00     0.012 C 
ATOM     23  C   UNL     1      -0.600  -0.901  24.685  1.00  0.00     0.012 C 
ATOM     24  C   UNL     1       2.471  -3.196  27.492  1.00  0.00     0.014 C 
ATOM     25  C   UNL     1       2.224  -5.493  26.604  1.00  0.00     0.014 C 
ATOM     26  C   UNL     1       0.603  -5.296  23.534  1.00  0.00     0.012 C 
ENDROOT
BRANCH   1  27
ATOM     27  C   UNL     1      -3.429  -0.873  18.758  1.00  0.00    -0.077 C 
ATOM     28  C   UNL     1      -2.072  -1.187  18.206  1.00  0.00     0.039 C 
ATOM     29  C   UNL     1      -4.503  -1.338  18.084  1.00  0.00     0.008 C 
ENDBRANCH   1  27
BRANCH   4  30
ATOM     30  C   UNL     1      -3.222   1.556  22.646  1.00  0.00     0.163 C 
BRANCH  30  31
ATOM     31  O   UNL     1      -3.420   2.001  23.970  1.00  0.00    -0.396 OA
ATOM     32  H   UNL     1      -3.594   2.970  23.939  1.00  0.00     0.210 HD
ENDBRANCH  30  31
ENDBRANCH   4  30
BRANCH  13  33
ATOM     33  O   UNL     1       4.125  -2.468  25.388  1.00  0.00    -0.393 OA
ATOM     34  H   UNL     1       3.551  -1.945  26.003  1.00  0.00     0.210 HD
ENDBRANCH  13  33
TORSDOF 4
ENDMDL
MODEL 7
REMARK VINA RESULT:    -2.303      3.346      6.273
REMARK INTER + INTRA:          -3.220
REMARK INTER:                  -2.881
REMARK INTRA:                  -0.340
REMARK UNBOUND:                -0.513
REMARK SMILES C=C(C)[C@H]1CC[C@@]2(CO)CC[C@@]3(C)[C@H](CC[C@H]4[C@@]5(C)CC[C@@H](O)C(C)(C)[C@@H]5CC[C@@]43C)[C@H]12
REMARK SMILES IDX 4 1 5 2 6 3 7 4 32 5 14 6 15 7 16 8 17 9 18 10 20 11 21 12
REMARK SMILES IDX 22 13 24 14 27 15 28 16 29 17 30 18 12 19 11 20 10 21 13 22
REMARK SMILES IDX 31 23 25 24 26 25 19 26 2 27 3 28 1 29 8 30 9 31 23 33
REMARK H PARENT 9 32 23 34
REMARK Flexibility Score: inf
ROOT
ATOM      1  C   UNL     1       2.987  -4.384  24.467  1.00  0.00     0.018 C 
ATOM      2  C   UNL     1       3.940  -4.631  23.271  1.00  0.00     0.009 C 
ATOM      3  C   UNL     1       3.246  -4.058  22.020  1.00  0.00     0.010 C 
ATOM      4  C   UNL     1       2.122  -3.163  22.563  1.00  0.00    -0.003 C 
ATOM      5  C   UNL     1       1.675  -3.960  23.791  1.00  0.00     0.008 C 
ATOM      6  C   UNL     1       0.536  -3.318  24.633  1.00  0.00    -0.000 C 
ATOM      7  C   UNL     1       0.951  -2.403  25.799  1.00  0.00     0.005 C 
ATOM      8  C   UNL     1      -0.246  -2.127  26.742  1.00  0.00     0.005 C 
ATOM      9  C   UNL     1      -1.644  -2.089  26.026  1.00  0.00     0.002 C 
ATOM     10  C   UNL     1      -2.844  -1.410  26.870  1.00  0.00    -0.026 C 
ATOM     11  C   UNL     1      -2.384  -0.854  28.257  1.00  0.00     0.010 C 
ATOM     12  C   UNL     1      -3.499  -0.122  29.030  1.00  0.00     0.033 C 
ATOM     13  C   UNL     1      -4.015   1.098  28.256  1.00  0.00     0.120 C 
ATOM     14  C   UNL     1      -4.500   0.759  26.792  1.00  0.00    -0.006 C 
ATOM     15  C   UNL     1      -3.491  -0.219  26.057  1.00  0.00     0.003 C 
ATOM     16  C   UNL     1      -3.992  -0.735  24.702  1.00  0.00     0.005 C 
ATOM     17  C   UNL     1      -2.907  -1.397  23.834  1.00  0.00     0.008 C 
ATOM     18  C   UNL     1      -1.498  -1.636  24.521  1.00  0.00    -0.024 C 
ATOM     19  C   UNL     1      -0.676  -2.798  23.727  1.00  0.00    -0.024 C 
ATOM     20  C   UNL     1      -0.235  -2.256  22.293  1.00  0.00     0.008 C 
ATOM     21  C   UNL     1       0.897  -3.048  21.623  1.00  0.00     0.010 C 
ATOM     22  C   UNL     1      -1.545  -4.096  23.432  1.00  0.00     0.012 C 
ATOM     23  C   UNL     1      -0.755  -0.243  24.494  1.00  0.00     0.012 C 
ATOM     24  C   UNL     1      -4.597   2.106  26.009  1.00  0.00     0.014 C 
ATOM     25  C   UNL     1      -5.950   0.211  26.850  1.00  0.00     0.014 C 
ATOM     26  C   UNL     1      -3.863  -2.554  27.155  1.00  0.00     0.012 C 
ENDROOT
BRANCH   1  27
ATOM     27  C   UNL     1       2.947  -5.589  25.413  1.00  0.00    -0.077 C 
ATOM     28  C   UNL     1       2.415  -6.880  24.868  1.00  0.00     0.039 C 
ATOM     29  C   UNL     1       3.292  -5.554  26.718  1.00  0.00     0.008 C 
ENDBRANCH   1  27
BRANCH   4  30
ATOM     30  C   UNL     1       2.734  -1.764  22.886  1.00  0.00     0.163 C 
BRANCH  30  31
ATOM     31  O   UNL     1       4.065  -1.673  22.429  1.00  0.00    -0.396 OA
ATOM     32  H   UNL     1       4.042  -1.330  21.506  1.00  0.00     0.210 HD
ENDBRANCH  30  31
ENDBRANCH   4  30
BRANCH  13  33
ATOM     33  O   UNL     1      -3.035   2.119  28.301  1.00  0.00    -0.393 OA
ATOM     34  H   UNL     1      -3.434   2.920  28.726  1.00  0.00     0.210 HD
ENDBRANCH  13  33
TORSDOF 4
ENDMDL
