MODEL 1
REMARK VINA RESULT:    -3.931      0.000      0.000
REMARK INTER + INTRA:          -5.591
REMARK INTER:                  -5.080
REMARK INTRA:                  -0.511
REMARK UNBOUND:                -0.511
REMARK SMILES CO[C@@]1(CO)O[C@H](CO)[C@@H](O)[C@@H]1O
REMARK SMILES IDX 3 1 12 2 10 3 7 4 6 5 2 6 1 7 4 8 5 9 13 11 11 13 8 15 9 16
REMARK H PARENT 5 10 13 12 11 14 9 17
REMARK Flexibility Score: inf
ROOT
ATOM      1  C   UNL     1       7.656  33.171  34.022  1.00  0.00     0.221 C 
ATOM      2  C   UNL     1       7.171  33.053  32.561  1.00  0.00     0.207 C 
ATOM      3  C   UNL     1       6.154  31.947  32.649  1.00  0.00     0.180 C 
ATOM      4  C   UNL     1       5.629  32.084  34.081  1.00  0.00     0.179 C 
ATOM      5  O   UNL     1       6.628  32.689  34.878  1.00  0.00    -0.337 OA
ENDROOT
BRANCH   1   6
ATOM      6  O   UNL     1       8.007  34.522  34.311  1.00  0.00    -0.349 OA
ATOM      7  C   UNL     1       7.207  35.459  33.617  1.00  0.00     0.198 C 
ENDBRANCH   1   6
BRANCH   1   8
ATOM      8  C   UNL     1       8.908  32.303  34.280  1.00  0.00     0.224 C 
BRANCH   8   9
ATOM      9  O   UNL     1      10.065  32.957  33.830  1.00  0.00    -0.391 OA
ATOM     10  H   UNL     1      10.210  32.668  32.891  1.00  0.00     0.210 HD
ENDBRANCH   8   9
ENDBRANCH   1   8
BRANCH   2  11
ATOM     11  O   UNL     1       8.194  32.722  31.657  1.00  0.00    -0.385 OA
ATOM     12  H   UNL     1       8.099  31.751  31.473  1.00  0.00     0.211 HD
ENDBRANCH   2  11
BRANCH   3  13
ATOM     13  O   UNL     1       5.138  32.066  31.682  1.00  0.00    -0.387 OA
ATOM     14  H   UNL     1       4.321  32.413  32.126  1.00  0.00     0.211 HD
ENDBRANCH   3  13
BRANCH   4  15
ATOM     15  C   UNL     1       5.238  30.734  34.689  1.00  0.00     0.191 C 
BRANCH  15  16
ATOM     16  O   UNL     1       6.221  29.777  34.405  1.00  0.00    -0.394 OA
ATOM     17  H   UNL     1       5.807  28.894  34.588  1.00  0.00     0.210 HD
ENDBRANCH  15  16
ENDBRANCH   4  15
TORSDOF 7
ENDMDL
MODEL 2
REMARK VINA RESULT:    -3.731      1.221      1.329
REMARK INTER + INTRA:          -5.333
REMARK INTER:                  -4.956
REMARK INTRA:                  -0.377
REMARK UNBOUND:                -0.511
REMARK SMILES CO[C@@]1(CO)O[C@H](CO)[C@@H](O)[C@@H]1O
REMARK SMILES IDX 3 1 12 2 10 3 7 4 6 5 2 6 1 7 4 8 5 9 13 11 11 13 8 15 9 16
REMARK H PARENT 5 10 13 12 11 14 9 17
REMARK Flexibility Score: inf
ROOT
ATOM      1  C   UNL     1       7.302  32.434  33.803  1.00  0.00     0.221 C 
ATOM      2  C   UNL     1       6.068  32.600  32.888  1.00  0.00     0.207 C 
ATOM      3  C   UNL     1       5.245  31.388  33.236  1.00  0.00     0.180 C 
ATOM      4  C   UNL     1       5.632  31.125  34.694  1.00  0.00     0.179 C 
ATOM      5  O   UNL     1       6.926  31.646  34.926  1.00  0.00    -0.337 OA
ENDROOT
BRANCH   1   6
ATOM      6  O   UNL     1       7.799  33.714  34.186  1.00  0.00    -0.349 OA
ATOM      7  C   UNL     1       6.782  34.690  34.292  1.00  0.00     0.198 C 
ENDBRANCH   1   6
BRANCH   1   8
ATOM      8  C   UNL     1       8.449  31.688  33.085  1.00  0.00     0.224 C 
BRANCH   8   9
ATOM      9  O   UNL     1       9.541  31.514  33.948  1.00  0.00    -0.391 OA
ATOM     10  H   UNL     1       9.190  31.083  34.771  1.00  0.00     0.210 HD
ENDBRANCH   8   9
ENDBRANCH   1   8
BRANCH   2  11
ATOM     11  O   UNL     1       6.384  32.613  31.519  1.00  0.00    -0.385 OA
ATOM     12  H   UNL     1       6.005  31.779  31.138  1.00  0.00     0.211 HD
ENDBRANCH   2  11
BRANCH   3  13
ATOM     13  O   UNL     1       3.864  31.605  33.068  1.00  0.00    -0.387 OA
ATOM     14  H   UNL     1       3.390  30.751  33.247  1.00  0.00     0.211 HD
ENDBRANCH   3  13
BRANCH   4  15
ATOM     15  C   UNL     1       5.611  29.634  35.042  1.00  0.00     0.191 C 
BRANCH  15  16
ATOM     16  O   UNL     1       5.305  28.880  33.901  1.00  0.00    -0.394 OA
ATOM     17  H   UNL     1       4.380  29.132  33.645  1.00  0.00     0.210 HD
ENDBRANCH  15  16
ENDBRANCH   4  15
TORSDOF 7
ENDMDL
MODEL 3
REMARK VINA RESULT:    -3.639      1.364      4.213
REMARK INTER + INTRA:          -5.213
REMARK INTER:                  -4.784
REMARK INTRA:                  -0.429
REMARK UNBOUND:                -0.511
REMARK SMILES CO[C@@]1(CO)O[C@H](CO)[C@@H](O)[C@@H]1O
REMARK SMILES IDX 3 1 12 2 10 3 7 4 6 5 2 6 1 7 4 8 5 9 13 11 11 13 8 15 9 16
REMARK H PARENT 5 10 13 12 11 14 9 17
REMARK Flexibility Score: inf
ROOT
ATOM      1  C   UNL     1       6.821  32.710  33.328  1.00  0.00     0.221 C 
ATOM      2  C   UNL     1       8.304  32.284  33.396  1.00  0.00     0.207 C 
ATOM      3  C   UNL     1       9.019  33.609  33.388  1.00  0.00     0.180 C 
ATOM      4  C   UNL     1       8.006  34.544  34.056  1.00  0.00     0.179 C 
ATOM      5  O   UNL     1       6.706  34.025  33.858  1.00  0.00    -0.337 OA
ENDROOT
BRANCH   1   6
ATOM      6  O   UNL     1       6.013  31.773  34.035  1.00  0.00    -0.349 OA
ATOM      7  C   UNL     1       6.690  31.171  35.121  1.00  0.00     0.198 C 
ENDBRANCH   1   6
BRANCH   1   8
ATOM      8  C   UNL     1       6.307  32.759  31.872  1.00  0.00     0.224 C 
BRANCH   8   9
ATOM      9  O   UNL     1       5.118  32.025  31.743  1.00  0.00    -0.391 OA
ATOM     10  H   UNL     1       4.772  32.201  30.829  1.00  0.00     0.210 HD
ENDBRANCH   8   9
ENDBRANCH   1   8
BRANCH   2  11
ATOM     11  O   UNL     1       8.709  31.491  32.310  1.00  0.00    -0.385 OA
ATOM     12  H   UNL     1       9.511  31.932  31.926  1.00  0.00     0.211 HD
ENDBRANCH   2  11
BRANCH   3  13
ATOM     13  O   UNL     1      10.251  33.565  34.067  1.00  0.00    -0.387 OA
ATOM     14  H   UNL     1      10.811  34.321  33.751  1.00  0.00     0.211 HD
ENDBRANCH   3  13
BRANCH   4  15
ATOM     15  C   UNL     1       8.077  35.970  33.502  1.00  0.00     0.191 C 
BRANCH  15  16
ATOM     16  O   UNL     1       9.283  36.157  32.814  1.00  0.00    -0.394 OA
ATOM     17  H   UNL     1       9.257  35.540  32.038  1.00  0.00     0.210 HD
ENDBRANCH  15  16
ENDBRANCH   4  15
TORSDOF 7
ENDMDL
MODEL 4
REMARK VINA RESULT:    -3.581      1.395      3.979
REMARK INTER + INTRA:          -5.139
REMARK INTER:                  -4.753
REMARK INTRA:                  -0.386
REMARK UNBOUND:                -0.511
REMARK SMILES CO[C@@]1(CO)O[C@H](CO)[C@@H](O)[C@@H]1O
REMARK SMILES IDX 3 1 12 2 10 3 7 4 6 5 2 6 1 7 4 8 5 9 13 11 11 13 8 15 9 16
REMARK H PARENT 5 10 13 12 11 14 9 17
REMARK Flexibility Score: inf
ROOT
ATOM      1  C   UNL     1       5.552  32.230  34.161  1.00  0.00     0.221 C 
ATOM      2  C   UNL     1       6.550  31.320  34.909  1.00  0.00     0.207 C 
ATOM      3  C   UNL     1       7.860  31.675  34.258  1.00  0.00     0.180 C 
ATOM      4  C   UNL     1       7.644  33.133  33.840  1.00  0.00     0.179 C 
ATOM      5  O   UNL     1       6.260  33.357  33.659  1.00  0.00    -0.337 OA
ENDROOT
BRANCH   1   6
ATOM      6  O   UNL     1       4.489  32.606  35.032  1.00  0.00    -0.349 OA
ATOM      7  C   UNL     1       3.223  32.172  34.576  1.00  0.00     0.198 C 
ENDBRANCH   1   6
BRANCH   1   8
ATOM      8  C   UNL     1       4.922  31.511  32.947  1.00  0.00     0.224 C 
BRANCH   8   9
ATOM      9  O   UNL     1       5.328  32.116  31.748  1.00  0.00    -0.391 OA
ATOM     10  H   UNL     1       4.502  32.313  31.233  1.00  0.00     0.210 HD
ENDBRANCH   8   9
ENDBRANCH   1   8
BRANCH   2  11
ATOM     11  O   UNL     1       6.276  29.949  34.764  1.00  0.00    -0.385 OA
ATOM     12  H   UNL     1       6.940  29.471  35.326  1.00  0.00     0.211 HD
ENDBRANCH   2  11
BRANCH   3  13
ATOM     13  O   UNL     1       8.958  31.512  35.123  1.00  0.00    -0.387 OA
ATOM     14  H   UNL     1       9.549  30.808  34.750  1.00  0.00     0.211 HD
ENDBRANCH   3  13
BRANCH   4  15
ATOM     15  C   UNL     1       8.392  33.486  32.552  1.00  0.00     0.191 C 
BRANCH  15  16
ATOM     16  O   UNL     1       8.515  32.349  31.742  1.00  0.00    -0.394 OA
ATOM     17  H   UNL     1       9.291  32.518  31.146  1.00  0.00     0.210 HD
ENDBRANCH  15  16
ENDBRANCH   4  15
TORSDOF 7
ENDMDL
MODEL 5
REMARK VINA RESULT:    -3.452      1.340      3.785
REMARK INTER + INTRA:          -4.972
REMARK INTER:                  -4.618
REMARK INTRA:                  -0.354
REMARK UNBOUND:                -0.511
REMARK SMILES CO[C@@]1(CO)O[C@H](CO)[C@@H](O)[C@@H]1O
REMARK SMILES IDX 3 1 12 2 10 3 7 4 6 5 2 6 1 7 4 8 5 9 13 11 11 13 8 15 9 16
REMARK H PARENT 5 10 13 12 11 14 9 17
REMARK Flexibility Score: inf
ROOT
ATOM      1  C   UNL     1       6.584  31.949  34.001  1.00  0.00     0.221 C 
ATOM      2  C   UNL     1       6.637  31.821  32.463  1.00  0.00     0.207 C 
ATOM      3  C   UNL     1       7.757  32.760  32.101  1.00  0.00     0.180 C 
ATOM      4  C   UNL     1       8.653  32.711  33.342  1.00  0.00     0.179 C 
ATOM      5  O   UNL     1       7.864  32.363  34.462  1.00  0.00    -0.337 OA
ENDROOT
BRANCH   1   6
ATOM      6  O   UNL     1       6.178  30.711  34.578  1.00  0.00    -0.349 OA
ATOM      7  C   UNL     1       4.806  30.686  34.918  1.00  0.00     0.198 C 
ENDBRANCH   1   6
BRANCH   1   8
ATOM      8  C   UNL     1       5.568  33.024  34.449  1.00  0.00     0.224 C 
BRANCH   8   9
ATOM      9  O   UNL     1       6.218  34.067  35.125  1.00  0.00    -0.391 OA
ATOM     10  H   UNL     1       6.162  34.867  34.539  1.00  0.00     0.210 HD
ENDBRANCH   8   9
ENDBRANCH   1   8
BRANCH   2  11
ATOM     11  O   UNL     1       5.442  32.199  31.827  1.00  0.00    -0.385 OA
ATOM     12  H   UNL     1       5.095  31.385  31.379  1.00  0.00     0.211 HD
ENDBRANCH   2  11
BRANCH   3  13
ATOM     13  O   UNL     1       8.430  32.374  30.926  1.00  0.00    -0.387 OA
ATOM     14  H   UNL     1       9.406  32.473  31.077  1.00  0.00     0.211 HD
ENDBRANCH   3  13
BRANCH   4  15
ATOM     15  C   UNL     1       9.355  34.046  33.605  1.00  0.00     0.191 C 
BRANCH  15  16
ATOM     16  O   UNL     1      10.016  34.476  32.448  1.00  0.00    -0.394 OA
ATOM     17  H   UNL     1      10.695  33.781  32.244  1.00  0.00     0.210 HD
ENDBRANCH  15  16
ENDBRANCH   4  15
TORSDOF 7
ENDMDL
MODEL 6
REMARK VINA RESULT:    -3.447      1.654      4.403
REMARK INTER + INTRA:          -4.965
REMARK INTER:                  -4.683
REMARK INTRA:                  -0.282
REMARK UNBOUND:                -0.511
REMARK SMILES CO[C@@]1(CO)O[C@H](CO)[C@@H](O)[C@@H]1O
REMARK SMILES IDX 3 1 12 2 10 3 7 4 6 5 2 6 1 7 4 8 5 9 13 11 11 13 8 15 9 16
REMARK H PARENT 5 10 13 12 11 14 9 17
REMARK Flexibility Score: inf
ROOT
ATOM      1  C   UNL     1       7.812  33.233  33.522  1.00  0.00     0.221 C 
ATOM      2  C   UNL     1       8.958  32.535  34.288  1.00  0.00     0.207 C 
ATOM      3  C   UNL     1      10.117  33.465  34.049  1.00  0.00     0.180 C 
ATOM      4  C   UNL     1       9.431  34.826  33.892  1.00  0.00     0.179 C 
ATOM      5  O   UNL     1       8.108  34.622  33.438  1.00  0.00    -0.337 OA
ENDROOT
BRANCH   1   6
ATOM      6  O   UNL     1       6.570  32.987  34.175  1.00  0.00    -0.349 OA
ATOM      7  C   UNL     1       5.778  32.025  33.507  1.00  0.00     0.198 C 
ENDBRANCH   1   6
BRANCH   1   8
ATOM      8  C   UNL     1       7.687  32.705  32.076  1.00  0.00     0.224 C 
BRANCH   8   9
ATOM      9  O   UNL     1       8.938  32.703  31.440  1.00  0.00    -0.391 OA
ATOM     10  H   UNL     1       9.369  31.836  31.658  1.00  0.00     0.210 HD
ENDBRANCH   8   9
ENDBRANCH   1   8
BRANCH   2  11
ATOM     11  O   UNL     1       9.245  31.245  33.812  1.00  0.00    -0.385 OA
ATOM     12  H   UNL     1      10.224  31.120  33.919  1.00  0.00     0.211 HD
ENDBRANCH   2  11
BRANCH   3  13
ATOM     13  O   UNL     1      11.054  33.445  35.099  1.00  0.00    -0.387 OA
ATOM     14  H   UNL     1      10.560  33.421  35.960  1.00  0.00     0.211 HD
ENDBRANCH   3  13
BRANCH   4  15
ATOM     15  C   UNL     1      10.173  35.741  32.913  1.00  0.00     0.191 C 
BRANCH  15  16
ATOM     16  O   UNL     1      10.838  34.973  31.949  1.00  0.00    -0.394 OA
ATOM     17  H   UNL     1      11.608  34.553  32.415  1.00  0.00     0.210 HD
ENDBRANCH  15  16
ENDBRANCH   4  15
TORSDOF 7
ENDMDL
MODEL 7
REMARK VINA RESULT:    -3.198      3.683      5.080
REMARK INTER + INTRA:          -4.644
REMARK INTER:                  -4.225
REMARK INTRA:                  -0.418
REMARK UNBOUND:                -0.511
REMARK SMILES CO[C@@]1(CO)O[C@H](CO)[C@@H](O)[C@@H]1O
REMARK SMILES IDX 3 1 12 2 10 3 7 4 6 5 2 6 1 7 4 8 5 9 13 11 11 13 8 15 9 16
REMARK H PARENT 5 10 13 12 11 14 9 17
REMARK Flexibility Score: inf
ROOT
ATOM      1  C   UNL     1      12.291  35.037  34.011  1.00  0.00     0.221 C 
ATOM      2  C   UNL     1      10.830  35.346  33.617  1.00  0.00     0.207 C 
ATOM      3  C   UNL     1      10.138  34.040  33.903  1.00  0.00     0.180 C 
ATOM      4  C   UNL     1      10.976  33.457  35.044  1.00  0.00     0.179 C 
ATOM      5  O   UNL     1      12.286  33.981  34.964  1.00  0.00    -0.337 OA
ENDROOT
BRANCH   1   6
ATOM      6  O   UNL     1      12.918  36.214  34.516  1.00  0.00    -0.349 OA
ATOM      7  C   UNL     1      13.777  36.826  33.575  1.00  0.00     0.198 C 
ENDBRANCH   1   6
BRANCH   1   8
ATOM      8  C   UNL     1      13.120  34.555  32.800  1.00  0.00     0.224 C 
BRANCH   8   9
ATOM      9  O   UNL     1      13.805  33.370  33.110  1.00  0.00    -0.391 OA
ATOM     10  H   UNL     1      14.103  32.978  32.248  1.00  0.00     0.210 HD
ENDBRANCH   8   9
ENDBRANCH   1   8
BRANCH   2  11
ATOM     11  O   UNL     1      10.679  35.707  32.268  1.00  0.00    -0.385 OA
ATOM     12  H   UNL     1      11.128  36.586  32.162  1.00  0.00     0.211 HD
ENDBRANCH   2  11
BRANCH   3  13
ATOM     13  O   UNL     1       8.784  34.209  34.251  1.00  0.00    -0.387 OA
ATOM     14  H   UNL     1       8.695  35.056  34.761  1.00  0.00     0.211 HD
ENDBRANCH   3  13
BRANCH   4  15
ATOM     15  C   UNL     1      11.033  31.927  35.001  1.00  0.00     0.191 C 
BRANCH  15  16
ATOM     16  O   UNL     1      10.003  31.432  34.191  1.00  0.00    -0.394 OA
ATOM     17  H   UNL     1      10.435  31.127  33.351  1.00  0.00     0.210 HD
ENDBRANCH  15  16
ENDBRANCH   4  15
TORSDOF 7
ENDMDL
MODEL 8
REMARK VINA RESULT:    -3.159     10.828     13.264
REMARK INTER + INTRA:          -4.593
REMARK INTER:                  -4.021
REMARK INTRA:                  -0.572
REMARK UNBOUND:                -0.511
REMARK SMILES CO[C@@]1(CO)O[C@H](CO)[C@@H](O)[C@@H]1O
REMARK SMILES IDX 3 1 12 2 10 3 7 4 6 5 2 6 1 7 4 8 5 9 13 11 11 13 8 15 9 16
REMARK H PARENT 5 10 13 12 11 14 9 17
REMARK Flexibility Score: inf
ROOT
ATOM      1  C   UNL     1      18.063  36.745  32.671  1.00  0.00     0.221 C 
ATOM      2  C   UNL     1      19.110  35.694  32.244  1.00  0.00     0.207 C 
ATOM      3  C   UNL     1      20.409  36.394  32.542  1.00  0.00     0.180 C 
ATOM      4  C   UNL     1      20.036  37.313  33.709  1.00  0.00     0.179 C 
ATOM      5  O   UNL     1      18.653  37.599  33.644  1.00  0.00    -0.337 OA
ENDROOT
BRANCH   1   6
ATOM      6  O   UNL     1      16.894  36.095  33.164  1.00  0.00    -0.349 OA
ATOM      7  C   UNL     1      16.264  36.812  34.207  1.00  0.00     0.198 C 
ENDBRANCH   1   6
BRANCH   1   8
ATOM      8  C   UNL     1      17.631  37.636  31.485  1.00  0.00     0.224 C 
BRANCH   8   9
ATOM      9  O   UNL     1      16.775  36.932  30.624  1.00  0.00    -0.391 OA
ATOM     10  H   UNL     1      16.517  37.561  29.900  1.00  0.00     0.210 HD
ENDBRANCH   8   9
ENDBRANCH   1   8
BRANCH   2  11
ATOM     11  O   UNL     1      19.031  35.345  30.885  1.00  0.00    -0.385 OA
ATOM     12  H   UNL     1      18.078  35.130  30.708  1.00  0.00     0.211 HD
ENDBRANCH   2  11
BRANCH   3  13
ATOM     13  O   UNL     1      21.447  35.499  32.861  1.00  0.00    -0.387 OA
ATOM     14  H   UNL     1      21.516  34.827  32.134  1.00  0.00     0.211 HD
ENDBRANCH   3  13
BRANCH   4  15
ATOM     15  C   UNL     1      20.830  38.622  33.696  1.00  0.00     0.191 C 
BRANCH  15  16
ATOM     16  O   UNL     1      21.945  38.498  32.856  1.00  0.00    -0.394 OA
ATOM     17  H   UNL     1      22.577  37.894  33.326  1.00  0.00     0.210 HD
ENDBRANCH  15  16
ENDBRANCH   4  15
TORSDOF 7
ENDMDL
MODEL 9
REMARK VINA RESULT:    -3.154      2.448      3.784
REMARK INTER + INTRA:          -4.587
REMARK INTER:                  -4.096
REMARK INTRA:                  -0.491
REMARK UNBOUND:                -0.511
REMARK SMILES CO[C@@]1(CO)O[C@H](CO)[C@@H](O)[C@@H]1O
REMARK SMILES IDX 3 1 12 2 10 3 7 4 6 5 2 6 1 7 4 8 5 9 13 11 11 13 8 15 9 16
REMARK H PARENT 5 10 13 12 11 14 9 17
REMARK Flexibility Score: inf
ROOT
ATOM      1  C   UNL     1       9.906  34.747  34.032  1.00  0.00     0.221 C 
ATOM      2  C   UNL     1       8.612  35.421  34.539  1.00  0.00     0.207 C 
ATOM      3  C   UNL     1       7.547  34.701  33.754  1.00  0.00     0.180 C 
ATOM      4  C   UNL     1       8.172  33.322  33.524  1.00  0.00     0.179 C 
ATOM      5  O   UNL     1       9.580  33.446  33.558  1.00  0.00    -0.337 OA
ENDROOT
BRANCH   1   6
ATOM      6  O   UNL     1      10.876  34.712  35.075  1.00  0.00    -0.349 OA
ATOM      7  C   UNL     1      11.631  33.516  35.085  1.00  0.00     0.198 C 
ENDBRANCH   1   6
BRANCH   1   8
ATOM      8  C   UNL     1      10.527  35.520  32.848  1.00  0.00     0.224 C 
BRANCH   8   9
ATOM      9  O   UNL     1      10.896  34.639  31.821  1.00  0.00    -0.391 OA
ATOM     10  H   UNL     1      11.398  35.174  31.151  1.00  0.00     0.210 HD
ENDBRANCH   8   9
ENDBRANCH   1   8
BRANCH   2  11
ATOM     11  O   UNL     1       8.566  36.803  34.291  1.00  0.00    -0.385 OA
ATOM     12  H   UNL     1       7.608  37.035  34.180  1.00  0.00     0.211 HD
ENDBRANCH   2  11
BRANCH   3  13
ATOM     13  O   UNL     1       6.319  34.636  34.440  1.00  0.00    -0.387 OA
ATOM     14  H   UNL     1       6.146  33.690  34.685  1.00  0.00     0.211 HD
ENDBRANCH   3  13
BRANCH   4  15
ATOM     15  C   UNL     1       7.745  32.706  32.189  1.00  0.00     0.191 C 
BRANCH  15  16
ATOM     16  O   UNL     1       8.851  32.595  31.337  1.00  0.00    -0.394 OA
ATOM     17  H   UNL     1       8.516  32.172  30.504  1.00  0.00     0.210 HD
ENDBRANCH  15  16
ENDBRANCH   4  15
TORSDOF 7
ENDMDL
