MODEL 1
REMARK VINA RESULT:    -4.560      0.000      0.000
REMARK INTER + INTRA:          -4.917
REMARK INTER:                  -4.827
REMARK INTRA:                  -0.090
REMARK UNBOUND:                -0.090
REMARK SMILES C=C(C)[C@H]1CC=C(C)C(=O)C1
REMARK SMILES IDX 8 1 7 2 6 3 5 4 4 5 11 6 9 7 10 8 2 9 1 10 3 11
REMARK H PARENT
REMARK Flexibility Score: inf
ROOT
ATOM      1  C   UNL     1      28.654  13.863  22.746  1.00  0.00     0.048 C 
ATOM      2  C   UNL     1      28.586  12.607  23.571  1.00  0.00    -0.012 C 
ATOM      3  C   UNL     1      27.923  11.535  23.103  1.00  0.00    -0.019 C 
ATOM      4  C   UNL     1      27.808  10.260  23.894  1.00  0.00     0.036 C 
ATOM      5  C   UNL     1      29.062  10.029  24.759  1.00  0.00     0.025 C 
ATOM      6  C   UNL     1      29.325  11.250  25.657  1.00  0.00     0.089 C 
ATOM      7  C   UNL     1      29.351  12.512  24.839  1.00  0.00     0.158 C 
ATOM      8  O   UNL     1      30.003  13.505  25.263  1.00  0.00    -0.295 OA
ENDROOT
BRANCH   5   9
ATOM      9  C   UNL     1      28.946   8.751  25.578  1.00  0.00    -0.077 C 
ATOM     10  C   UNL     1      30.039   8.010  25.829  1.00  0.00     0.008 C 
ATOM     11  C   UNL     1      27.620   8.285  26.125  1.00  0.00     0.039 C 
ENDBRANCH   5   9
TORSDOF 1
ENDMDL
MODEL 2
REMARK VINA RESULT:    -4.454      1.669      2.422
REMARK INTER + INTRA:          -4.804
REMARK INTER:                  -4.706
REMARK INTRA:                  -0.098
REMARK UNBOUND:                -0.090
REMARK SMILES C=C(C)[C@H]1CC=C(C)C(=O)C1
REMARK SMILES IDX 8 1 7 2 6 3 5 4 4 5 11 6 9 7 10 8 2 9 1 10 3 11
REMARK H PARENT
REMARK Flexibility Score: inf
ROOT
ATOM      1  C   UNL     1      29.465  14.604  22.659  1.00  0.00     0.048 C 
ATOM      2  C   UNL     1      29.336  13.181  23.130  1.00  0.00    -0.012 C 
ATOM      3  C   UNL     1      30.125  12.731  24.121  1.00  0.00    -0.019 C 
ATOM      4  C   UNL     1      30.051  11.312  24.618  1.00  0.00     0.036 C 
ATOM      5  C   UNL     1      28.616  10.763  24.515  1.00  0.00     0.025 C 
ATOM      6  C   UNL     1      28.091  10.904  23.076  1.00  0.00     0.089 C 
ATOM      7  C   UNL     1      28.258  12.317  22.588  1.00  0.00     0.158 C 
ATOM      8  O   UNL     1      27.493  12.749  21.683  1.00  0.00    -0.295 OA
ENDROOT
BRANCH   5   9
ATOM      9  C   UNL     1      28.534   9.321  24.998  1.00  0.00    -0.077 C 
ATOM     10  C   UNL     1      27.502   8.545  24.630  1.00  0.00     0.008 C 
ATOM     11  C   UNL     1      29.598   8.730  25.890  1.00  0.00     0.039 C 
ENDBRANCH   5   9
TORSDOF 1
ENDMDL
MODEL 3
REMARK VINA RESULT:    -4.202      1.969      4.771
REMARK INTER + INTRA:          -4.538
REMARK INTER:                  -4.440
REMARK INTRA:                  -0.098
REMARK UNBOUND:                -0.090
REMARK SMILES C=C(C)[C@H]1CC=C(C)C(=O)C1
REMARK SMILES IDX 8 1 7 2 6 3 5 4 4 5 11 6 9 7 10 8 2 9 1 10 3 11
REMARK H PARENT
REMARK Flexibility Score: inf
ROOT
ATOM      1  C   UNL     1      29.504   8.213  26.125  1.00  0.00     0.048 C 
ATOM      2  C   UNL     1      29.263   9.491  25.370  1.00  0.00    -0.012 C 
ATOM      3  C   UNL     1      30.122  10.517  25.499  1.00  0.00    -0.019 C 
ATOM      4  C   UNL     1      29.918  11.824  24.781  1.00  0.00     0.036 C 
ATOM      5  C   UNL     1      29.232  11.608  23.420  1.00  0.00     0.025 C 
ATOM      6  C   UNL     1      27.916  10.831  23.601  1.00  0.00     0.089 C 
ATOM      7  C   UNL     1      28.149   9.574  24.393  1.00  0.00     0.158 C 
ATOM      8  O   UNL     1      27.362   8.599  24.243  1.00  0.00    -0.295 OA
ENDROOT
BRANCH   5   9
ATOM      9  C   UNL     1      29.004  12.927  22.694  1.00  0.00    -0.077 C 
ATOM     10  C   UNL     1      28.022  13.035  21.785  1.00  0.00     0.008 C 
ATOM     11  C   UNL     1      29.863  14.136  22.974  1.00  0.00     0.039 C 
ENDBRANCH   5   9
TORSDOF 1
ENDMDL
MODEL 4
REMARK VINA RESULT:    -3.461      2.071      5.333
REMARK INTER + INTRA:          -3.753
REMARK INTER:                  -3.661
REMARK INTRA:                  -0.092
REMARK UNBOUND:                -0.090
REMARK SMILES C=C(C)[C@H]1CC=C(C)C(=O)C1
REMARK SMILES IDX 8 1 7 2 6 3 5 4 4 5 11 6 9 7 10 8 2 9 1 10 3 11
REMARK H PARENT
REMARK Flexibility Score: inf
ROOT
ATOM      1  C   UNL     1      28.484  10.070  24.637  1.00  0.00     0.048 C 
ATOM      2  C   UNL     1      28.753  11.495  24.236  1.00  0.00    -0.012 C 
ATOM      3  C   UNL     1      29.797  12.153  24.769  1.00  0.00    -0.019 C 
ATOM      4  C   UNL     1      30.102  13.585  24.418  1.00  0.00     0.036 C 
ATOM      5  C   UNL     1      29.703  13.896  22.964  1.00  0.00     0.025 C 
ATOM      6  C   UNL     1      28.225  13.539  22.726  1.00  0.00     0.089 C 
ATOM      7  C   UNL     1      27.944  12.128  23.166  1.00  0.00     0.158 C 
ATOM      8  O   UNL     1      26.986  11.500  22.639  1.00  0.00    -0.295 OA
ENDROOT
BRANCH   5   9
ATOM      9  C   UNL     1      29.989  15.347  22.605  1.00  0.00    -0.077 C 
ATOM     10  C   UNL     1      30.125  15.709  21.318  1.00  0.00     0.008 C 
ATOM     11  C   UNL     1      30.125  16.408  23.669  1.00  0.00     0.039 C 
ENDBRANCH   5   9
TORSDOF 1
ENDMDL
MODEL 5
REMARK VINA RESULT:    -3.405      1.675      4.312
REMARK INTER + INTRA:          -3.694
REMARK INTER:                  -3.597
REMARK INTRA:                  -0.097
REMARK UNBOUND:                -0.090
REMARK SMILES C=C(C)[C@H]1CC=C(C)C(=O)C1
REMARK SMILES IDX 8 1 7 2 6 3 5 4 4 5 11 6 9 7 10 8 2 9 1 10 3 11
REMARK H PARENT
REMARK Flexibility Score: inf
ROOT
ATOM      1  C   UNL     1      27.390   8.624  25.713  1.00  0.00     0.048 C 
ATOM      2  C   UNL     1      28.071   9.628  24.823  1.00  0.00    -0.012 C 
ATOM      3  C   UNL     1      27.396  10.184  23.803  1.00  0.00    -0.019 C 
ATOM      4  C   UNL     1      28.034  11.179  22.871  1.00  0.00     0.036 C 
ATOM      5  C   UNL     1      29.087  12.030  23.605  1.00  0.00     0.025 C 
ATOM      6  C   UNL     1      30.125  11.124  24.290  1.00  0.00     0.089 C 
ATOM      7  C   UNL     1      29.443  10.092  25.147  1.00  0.00     0.158 C 
ATOM      8  O   UNL     1      30.066   9.598  26.125  1.00  0.00    -0.295 OA
ENDROOT
BRANCH   5   9
ATOM      9  C   UNL     1      29.752  13.027  22.666  1.00  0.00    -0.077 C 
ATOM     10  C   UNL     1      30.037  12.675  21.402  1.00  0.00     0.008 C 
ATOM     11  C   UNL     1      30.104  14.421  23.122  1.00  0.00     0.039 C 
ENDBRANCH   5   9
TORSDOF 1
ENDMDL
MODEL 6
REMARK VINA RESULT:    -3.359      2.215      3.083
REMARK INTER + INTRA:          -3.645
REMARK INTER:                  -3.550
REMARK INTRA:                  -0.095
REMARK UNBOUND:                -0.090
REMARK SMILES C=C(C)[C@H]1CC=C(C)C(=O)C1
REMARK SMILES IDX 8 1 7 2 6 3 5 4 4 5 11 6 9 7 10 8 2 9 1 10 3 11
REMARK H PARENT
REMARK Flexibility Score: inf
ROOT
ATOM      1  C   UNL     1      30.124  11.950  20.398  1.00  0.00     0.048 C 
ATOM      2  C   UNL     1      29.240  11.938  21.614  1.00  0.00    -0.012 C 
ATOM      3  C   UNL     1      28.820  10.767  22.124  1.00  0.00    -0.019 C 
ATOM      4  C   UNL     1      27.919  10.698  23.328  1.00  0.00     0.036 C 
ATOM      5  C   UNL     1      28.197  11.863  24.296  1.00  0.00     0.025 C 
ATOM      6  C   UNL     1      28.084  13.209  23.560  1.00  0.00     0.089 C 
ATOM      7  C   UNL     1      28.935  13.207  22.320  1.00  0.00     0.158 C 
ATOM      8  O   UNL     1      29.358  14.304  21.864  1.00  0.00    -0.295 OA
ENDROOT
BRANCH   5   9
ATOM      9  C   UNL     1      27.278  11.812  25.508  1.00  0.00    -0.077 C 
ATOM     10  C   UNL     1      27.039  10.643  26.125  1.00  0.00     0.008 C 
ATOM     11  C   UNL     1      26.617  13.057  26.046  1.00  0.00     0.039 C 
ENDBRANCH   5   9
TORSDOF 1
ENDMDL
MODEL 7
REMARK VINA RESULT:    -3.260      1.597      4.529
REMARK INTER + INTRA:          -3.541
REMARK INTER:                  -3.443
REMARK INTRA:                  -0.097
REMARK UNBOUND:                -0.090
REMARK SMILES C=C(C)[C@H]1CC=C(C)C(=O)C1
REMARK SMILES IDX 8 1 7 2 6 3 5 4 4 5 11 6 9 7 10 8 2 9 1 10 3 11
REMARK H PARENT
REMARK Flexibility Score: inf
ROOT
ATOM      1  C   UNL     1      27.523   9.769  25.620  1.00  0.00     0.048 C 
ATOM      2  C   UNL     1      28.172  10.778  24.713  1.00  0.00    -0.012 C 
ATOM      3  C   UNL     1      27.517  11.220  23.626  1.00  0.00    -0.019 C 
ATOM      4  C   UNL     1      28.126  12.215  22.675  1.00  0.00     0.036 C 
ATOM      5  C   UNL     1      29.058  13.191  23.416  1.00  0.00     0.025 C 
ATOM      6  C   UNL     1      30.124  12.414  24.210  1.00  0.00     0.089 C 
ATOM      7  C   UNL     1      29.479  11.375  25.086  1.00  0.00     0.158 C 
ATOM      8  O   UNL     1      30.079  10.989  26.125  1.00  0.00    -0.295 OA
ENDROOT
BRANCH   5   9
ATOM      9  C   UNL     1      29.695  14.189  22.460  1.00  0.00    -0.077 C 
ATOM     10  C   UNL     1      30.100  13.792  21.242  1.00  0.00     0.008 C 
ATOM     11  C   UNL     1      29.886  15.635  22.846  1.00  0.00     0.039 C 
ENDBRANCH   5   9
TORSDOF 1
ENDMDL
MODEL 8
REMARK VINA RESULT:    -2.935      2.041      4.656
REMARK INTER + INTRA:          -3.197
REMARK INTER:                  -3.106
REMARK INTRA:                  -0.091
REMARK UNBOUND:                -0.090
REMARK SMILES C=C(C)[C@H]1CC=C(C)C(=O)C1
REMARK SMILES IDX 8 1 7 2 6 3 5 4 4 5 11 6 9 7 10 8 2 9 1 10 3 11
REMARK H PARENT
REMARK Flexibility Score: inf
ROOT
ATOM      1  C   UNL     1      27.398   8.870  26.123  1.00  0.00     0.048 C 
ATOM      2  C   UNL     1      27.743  10.113  25.350  1.00  0.00    -0.012 C 
ATOM      3  C   UNL     1      27.762  11.304  25.973  1.00  0.00    -0.019 C 
ATOM      4  C   UNL     1      28.082  12.581  25.243  1.00  0.00     0.036 C 
ATOM      5  C   UNL     1      29.089  12.332  24.105  1.00  0.00     0.025 C 
ATOM      6  C   UNL     1      28.567  11.236  23.159  1.00  0.00     0.089 C 
ATOM      7  C   UNL     1      28.181  10.007  23.936  1.00  0.00     0.158 C 
ATOM      8  O   UNL     1      28.199   8.886  23.360  1.00  0.00    -0.295 OA
ENDROOT
BRANCH   5   9
ATOM      9  C   UNL     1      29.405  13.615  23.349  1.00  0.00    -0.077 C 
ATOM     10  C   UNL     1      30.125  14.584  23.937  1.00  0.00     0.008 C 
ATOM     11  C   UNL     1      28.927  13.832  21.935  1.00  0.00     0.039 C 
ENDBRANCH   5   9
TORSDOF 1
ENDMDL
