MODEL 1
REMARK VINA RESULT:    -5.518      0.000      0.000
REMARK INTER + INTRA:          -6.776
REMARK INTER:                  -6.486
REMARK INTRA:                  -0.290
REMARK UNBOUND:                -0.290
REMARK SMILES O=c1cc(-c2ccc(O)c(O)c2)oc2cc(O)cc(O)c12
REMARK SMILES IDX 4 1 3 2 2 3 1 4 21 5 19 6 18 7 16 8 15 9 14 10 13 11 5 12
REMARK SMILES IDX 6 13 7 14 8 15 12 16 10 17 9 18 11 20 20 22 17 24
REMARK H PARENT 9 19 11 21 20 23 17 25
REMARK Flexibility Score: inf
ROOT
ATOM      1  C   UNL     1      -6.835  18.404  -9.366  1.00  0.00     0.138 A 
ATOM      2  C   UNL     1      -6.541  19.495 -10.196  1.00  0.00     0.100 A 
ATOM      3  C   UNL     1      -7.295  19.706 -11.351  1.00  0.00     0.197 A 
ATOM      4  O   UNL     1      -6.971  20.660 -12.104  1.00  0.00    -0.289 OA
ATOM      5  C   UNL     1      -8.371  18.839 -11.658  1.00  0.00     0.107 A 
ATOM      6  C   UNL     1      -9.231  18.977 -12.790  1.00  0.00     0.134 A 
ATOM      7  C   UNL     1     -10.202  17.999 -13.041  1.00  0.00     0.093 A 
ATOM      8  C   UNL     1     -10.384  16.923 -12.174  1.00  0.00     0.123 A 
ATOM      9  C   UNL     1      -9.583  16.806 -11.036  1.00  0.00     0.094 A 
ATOM     10  C   UNL     1      -8.583  17.745 -10.776  1.00  0.00     0.146 A 
ATOM     11  O   UNL     1      -7.831  17.587  -9.692  1.00  0.00    -0.456 OA
ENDROOT
BRANCH   1  12
ATOM     12  C   UNL     1      -6.068  18.134  -8.124  1.00  0.00     0.021 A 
ATOM     13  C   UNL     1      -5.997  16.821  -7.628  1.00  0.00     0.016 A 
ATOM     14  C   UNL     1      -5.277  16.537  -6.465  1.00  0.00     0.051 A 
ATOM     15  C   UNL     1      -4.607  17.560  -5.783  1.00  0.00     0.157 A 
ATOM     16  C   UNL     1      -5.379  19.156  -7.440  1.00  0.00     0.062 A 
ATOM     17  C   UNL     1      -4.655  18.870  -6.274  1.00  0.00     0.158 A 
BRANCH  15  18
ATOM     18  O   UNL     1      -3.887  17.282  -4.622  1.00  0.00    -0.504 OA
ATOM     19  H   UNL     1      -3.355  16.425  -4.520  1.00  0.00     0.293 HD
ENDBRANCH  15  18
BRANCH  17  20
ATOM     20  O   UNL     1      -3.976  19.884  -5.599  1.00  0.00    -0.504 OA
ATOM     21  H   UNL     1      -4.377  20.344  -4.789  1.00  0.00     0.293 HD
ENDBRANCH  17  20
ENDBRANCH   1  12
BRANCH   6  22
ATOM     22  O   UNL     1      -9.189  20.054 -13.680  1.00  0.00    -0.507 OA
ATOM     23  H   UNL     1      -9.878  20.244 -14.391  1.00  0.00     0.293 HD
ENDBRANCH   6  22
BRANCH   8  24
ATOM     24  O   UNL     1     -11.370  15.978 -12.448  1.00  0.00    -0.508 OA
ATOM     25  H   UNL     1     -12.347  16.236 -12.519  1.00  0.00     0.293 HD
ENDBRANCH   8  24
TORSDOF 5
ENDMDL
MODEL 2
REMARK VINA RESULT:    -5.417      1.367      1.734
REMARK INTER + INTRA:          -6.657
REMARK INTER:                  -6.383
REMARK INTRA:                  -0.273
REMARK UNBOUND:                -0.290
REMARK SMILES O=c1cc(-c2ccc(O)c(O)c2)oc2cc(O)cc(O)c12
REMARK SMILES IDX 4 1 3 2 2 3 1 4 21 5 19 6 18 7 16 8 15 9 14 10 13 11 5 12
REMARK SMILES IDX 6 13 7 14 8 15 12 16 10 17 9 18 11 20 20 22 17 24
REMARK H PARENT 9 19 11 21 20 23 17 25
REMARK Flexibility Score: inf
ROOT
ATOM      1  C   UNL     1      -7.847  18.346 -10.634  1.00  0.00     0.138 A 
ATOM      2  C   UNL     1      -7.341  19.214 -11.610  1.00  0.00     0.100 A 
ATOM      3  C   UNL     1      -8.130  19.552 -12.711  1.00  0.00     0.197 A 
ATOM      4  O   UNL     1      -7.627  20.289 -13.597  1.00  0.00    -0.289 OA
ATOM      5  C   UNL     1      -9.448  19.043 -12.815  1.00  0.00     0.107 A 
ATOM      6  C   UNL     1     -10.356  19.346 -13.875  1.00  0.00     0.134 A 
ATOM      7  C   UNL     1     -11.600  18.704 -13.921  1.00  0.00     0.093 A 
ATOM      8  C   UNL     1     -11.992  17.817 -12.919  1.00  0.00     0.123 A 
ATOM      9  C   UNL     1     -11.132  17.552 -11.852  1.00  0.00     0.094 A 
ATOM     10  C   UNL     1      -9.871  18.150 -11.795  1.00  0.00     0.146 A 
ATOM     11  O   UNL     1      -9.076  17.856 -10.771  1.00  0.00    -0.456 OA
ENDROOT
BRANCH   1  12
ATOM     12  C   UNL     1      -7.053  17.955  -9.442  1.00  0.00     0.021 A 
ATOM     13  C   UNL     1      -6.905  16.594  -9.127  1.00  0.00     0.016 A 
ATOM     14  C   UNL     1      -6.157  16.198  -8.014  1.00  0.00     0.051 A 
ATOM     15  C   UNL     1      -5.537  17.157  -7.205  1.00  0.00     0.157 A 
ATOM     16  C   UNL     1      -6.414  18.914  -8.630  1.00  0.00     0.062 A 
ATOM     17  C   UNL     1      -5.662  18.516  -7.515  1.00  0.00     0.158 A 
BRANCH  15  18
ATOM     18  O   UNL     1      -4.790  16.767  -6.094  1.00  0.00    -0.504 OA
ATOM     19  H   UNL     1      -4.274  17.439  -5.539  1.00  0.00     0.293 HD
ENDBRANCH  15  18
BRANCH  17  20
ATOM     20  O   UNL     1      -5.033  19.468  -6.713  1.00  0.00    -0.504 OA
ATOM     21  H   UNL     1      -4.177  19.257  -6.212  1.00  0.00     0.293 HD
ENDBRANCH  17  20
ENDBRANCH   1  12
BRANCH   6  22
ATOM     22  O   UNL     1     -10.099  20.277 -14.886  1.00  0.00    -0.507 OA
ATOM     23  H   UNL     1     -10.798  20.688 -15.485  1.00  0.00     0.293 HD
ENDBRANCH   6  22
BRANCH   8  24
ATOM     24  O   UNL     1     -13.243  17.209 -12.990  1.00  0.00    -0.508 OA
ATOM     25  H   UNL     1     -14.031  17.553 -12.455  1.00  0.00     0.293 HD
ENDBRANCH   8  24
TORSDOF 5
ENDMDL
MODEL 3
REMARK VINA RESULT:    -5.102      2.799      7.275
REMARK INTER + INTRA:          -6.287
REMARK INTER:                  -6.020
REMARK INTRA:                  -0.267
REMARK UNBOUND:                -0.290
REMARK SMILES O=c1cc(-c2ccc(O)c(O)c2)oc2cc(O)cc(O)c12
REMARK SMILES IDX 4 1 3 2 2 3 1 4 21 5 19 6 18 7 16 8 15 9 14 10 13 11 5 12
REMARK SMILES IDX 6 13 7 14 8 15 12 16 10 17 9 18 11 20 20 22 17 24
REMARK H PARENT 9 19 11 21 20 23 17 25
REMARK Flexibility Score: inf
ROOT
ATOM      1  C   UNL     1      -9.396  19.374 -12.000  1.00  0.00     0.138 A 
ATOM      2  C   UNL     1      -8.314  20.071 -12.554  1.00  0.00     0.100 A 
ATOM      3  C   UNL     1      -7.012  19.737 -12.178  1.00  0.00     0.197 A 
ATOM      4  O   UNL     1      -6.066  20.418 -12.651  1.00  0.00    -0.289 OA
ATOM      5  C   UNL     1      -6.792  18.676 -11.267  1.00  0.00     0.107 A 
ATOM      6  C   UNL     1      -5.507  18.224 -10.837  1.00  0.00     0.134 A 
ATOM      7  C   UNL     1      -5.419  17.228  -9.856  1.00  0.00     0.093 A 
ATOM      8  C   UNL     1      -6.563  16.628  -9.333  1.00  0.00     0.123 A 
ATOM      9  C   UNL     1      -7.823  17.026  -9.783  1.00  0.00     0.094 A 
ATOM     10  C   UNL     1      -7.946  18.041 -10.735  1.00  0.00     0.146 A 
ATOM     11  O   UNL     1      -9.164  18.402 -11.122  1.00  0.00    -0.456 OA
ENDROOT
BRANCH   1  12
ATOM     12  C   UNL     1     -10.800  19.685 -12.366  1.00  0.00     0.021 A 
ATOM     13  C   UNL     1     -11.431  20.805 -11.797  1.00  0.00     0.016 A 
ATOM     14  C   UNL     1     -12.750  21.124 -12.129  1.00  0.00     0.051 A 
ATOM     15  C   UNL     1     -13.457  20.335 -13.044  1.00  0.00     0.157 A 
ATOM     16  C   UNL     1     -11.514  18.903 -13.296  1.00  0.00     0.062 A 
ATOM     17  C   UNL     1     -12.837  19.226 -13.631  1.00  0.00     0.158 A 
BRANCH  15  18
ATOM     18  O   UNL     1     -14.773  20.650 -13.378  1.00  0.00    -0.504 OA
ATOM     19  H   UNL     1     -15.166  21.564 -13.185  1.00  0.00     0.293 HD
ENDBRANCH  15  18
BRANCH  17  20
ATOM     20  O   UNL     1     -13.542  18.449 -14.551  1.00  0.00    -0.504 OA
ATOM     21  H   UNL     1     -13.955  18.856 -15.382  1.00  0.00     0.293 HD
ENDBRANCH  17  20
ENDBRANCH   1  12
BRANCH   6  22
ATOM     22  O   UNL     1      -4.297  18.699 -11.351  1.00  0.00    -0.507 OA
ATOM     23  H   UNL     1      -3.955  19.642 -11.249  1.00  0.00     0.293 HD
ENDBRANCH   6  22
BRANCH   8  24
ATOM     24  O   UNL     1      -6.436  15.629  -8.370  1.00  0.00    -0.508 OA
ATOM     25  H   UNL     1      -6.687  14.667  -8.567  1.00  0.00     0.293 HD
ENDBRANCH   8  24
TORSDOF 5
ENDMDL
MODEL 4
REMARK VINA RESULT:    -5.092      1.686      6.843
REMARK INTER + INTRA:          -6.275
REMARK INTER:                  -5.986
REMARK INTRA:                  -0.289
REMARK UNBOUND:                -0.290
REMARK SMILES O=c1cc(-c2ccc(O)c(O)c2)oc2cc(O)cc(O)c12
REMARK SMILES IDX 4 1 3 2 2 3 1 4 21 5 19 6 18 7 16 8 15 9 14 10 13 11 5 12
REMARK SMILES IDX 6 13 7 14 8 15 12 16 10 17 9 18 11 20 20 22 17 24
REMARK H PARENT 9 19 11 21 20 23 17 25
REMARK Flexibility Score: inf
ROOT
ATOM      1  C   UNL     1      -8.436  18.502 -10.661  1.00  0.00     0.138 A 
ATOM      2  C   UNL     1      -7.683  19.664 -10.877  1.00  0.00     0.100 A 
ATOM      3  C   UNL     1      -6.495  19.859 -10.171  1.00  0.00     0.197 A 
ATOM      4  O   UNL     1      -5.871  20.937 -10.346  1.00  0.00    -0.289 OA
ATOM      5  C   UNL     1      -6.042  18.867  -9.268  1.00  0.00     0.107 A 
ATOM      6  C   UNL     1      -4.828  18.941  -8.519  1.00  0.00     0.134 A 
ATOM      7  C   UNL     1      -4.534  17.941  -7.583  1.00  0.00     0.093 A 
ATOM      8  C   UNL     1      -5.376  16.844  -7.410  1.00  0.00     0.123 A 
ATOM      9  C   UNL     1      -6.540  16.736  -8.174  1.00  0.00     0.094 A 
ATOM     10  C   UNL     1      -6.879  17.733  -9.091  1.00  0.00     0.146 A 
ATOM     11  O   UNL     1      -8.005  17.600  -9.784  1.00  0.00    -0.456 OA
ENDROOT
BRANCH   1  12
ATOM     12  C   UNL     1      -9.705  18.242 -11.387  1.00  0.00     0.021 A 
ATOM     13  C   UNL     1     -10.122  16.916 -11.593  1.00  0.00     0.016 A 
ATOM     14  C   UNL     1     -11.315  16.643 -12.268  1.00  0.00     0.051 A 
ATOM     15  C   UNL     1     -12.116  17.692 -12.737  1.00  0.00     0.157 A 
ATOM     16  C   UNL     1     -10.523  19.292 -11.849  1.00  0.00     0.062 A 
ATOM     17  C   UNL     1     -11.721  19.017 -12.524  1.00  0.00     0.158 A 
BRANCH  15  18
ATOM     18  O   UNL     1     -13.307  17.423 -13.410  1.00  0.00    -0.504 OA
ATOM     19  H   UNL     1     -13.699  18.077 -14.077  1.00  0.00     0.293 HD
ENDBRANCH  15  18
BRANCH  17  20
ATOM     20  O   UNL     1     -12.528  20.059 -12.982  1.00  0.00    -0.504 OA
ATOM     21  H   UNL     1     -12.828  20.806 -12.368  1.00  0.00     0.293 HD
ENDBRANCH  17  20
ENDBRANCH   1  12
BRANCH   6  22
ATOM     22  O   UNL     1      -3.875  19.952  -8.668  1.00  0.00    -0.507 OA
ATOM     23  H   UNL     1      -2.904  19.875  -8.409  1.00  0.00     0.293 HD
ENDBRANCH   6  22
BRANCH   8  24
ATOM     24  O   UNL     1      -5.044  15.861  -6.481  1.00  0.00    -0.508 OA
ATOM     25  H   UNL     1      -4.703  16.098  -5.557  1.00  0.00     0.293 HD
ENDBRANCH   8  24
TORSDOF 5
ENDMDL
MODEL 5
REMARK VINA RESULT:    -4.931      2.255      6.978
REMARK INTER + INTRA:          -6.086
REMARK INTER:                  -5.780
REMARK INTRA:                  -0.306
REMARK UNBOUND:                -0.290
REMARK SMILES O=c1cc(-c2ccc(O)c(O)c2)oc2cc(O)cc(O)c12
REMARK SMILES IDX 4 1 3 2 2 3 1 4 21 5 19 6 18 7 16 8 15 9 14 10 13 11 5 12
REMARK SMILES IDX 6 13 7 14 8 15 12 16 10 17 9 18 11 20 20 22 17 24
REMARK H PARENT 9 19 11 21 20 23 17 25
REMARK Flexibility Score: inf
ROOT
ATOM      1  C   UNL     1      -8.280  19.222 -10.303  1.00  0.00     0.138 A 
ATOM      2  C   UNL     1      -7.940  20.104  -9.269  1.00  0.00     0.100 A 
ATOM      3  C   UNL     1      -6.808  19.854  -8.492  1.00  0.00     0.197 A 
ATOM      4  O   UNL     1      -6.561  20.634  -7.537  1.00  0.00    -0.289 OA
ATOM      5  C   UNL     1      -5.994  18.731  -8.775  1.00  0.00     0.107 A 
ATOM      6  C   UNL     1      -4.797  18.394  -8.071  1.00  0.00     0.134 A 
ATOM      7  C   UNL     1      -4.129  17.202  -8.379  1.00  0.00     0.093 A 
ATOM      8  C   UNL     1      -4.578  16.366  -9.400  1.00  0.00     0.123 A 
ATOM      9  C   UNL     1      -5.718  16.711 -10.128  1.00  0.00     0.094 A 
ATOM     10  C   UNL     1      -6.427  17.875  -9.823  1.00  0.00     0.146 A 
ATOM     11  O   UNL     1      -7.517  18.157 -10.528  1.00  0.00    -0.456 OA
ENDROOT
BRANCH   1  12
ATOM     12  C   UNL     1      -9.470  19.441 -11.163  1.00  0.00     0.021 A 
ATOM     13  C   UNL     1     -10.582  20.124 -10.641  1.00  0.00     0.016 A 
ATOM     14  C   UNL     1     -11.713  20.350 -11.431  1.00  0.00     0.051 A 
ATOM     15  C   UNL     1     -11.746  19.906 -12.758  1.00  0.00     0.157 A 
ATOM     16  C   UNL     1      -9.506  19.010 -12.504  1.00  0.00     0.062 A 
ATOM     17  C   UNL     1     -10.640  19.239 -13.296  1.00  0.00     0.158 A 
BRANCH  15  18
ATOM     18  O   UNL     1     -12.872  20.129 -13.549  1.00  0.00    -0.504 OA
ATOM     19  H   UNL     1     -13.697  19.546 -13.474  1.00  0.00     0.293 HD
ENDBRANCH  15  18
BRANCH  17  20
ATOM     20  O   UNL     1     -10.672  18.810 -14.623  1.00  0.00    -0.504 OA
ATOM     21  H   UNL     1     -11.017  19.407 -15.366  1.00  0.00     0.293 HD
ENDBRANCH  17  20
ENDBRANCH   1  12
BRANCH   6  22
ATOM     22  O   UNL     1      -4.215  19.197  -7.085  1.00  0.00    -0.507 OA
ATOM     23  H   UNL     1      -3.301  19.051  -6.686  1.00  0.00     0.293 HD
ENDBRANCH   6  22
BRANCH   8  24
ATOM     24  O   UNL     1      -3.878  15.196  -9.688  1.00  0.00    -0.508 OA
ATOM     25  H   UNL     1      -3.543  14.996 -10.623  1.00  0.00     0.293 HD
ENDBRANCH   8  24
TORSDOF 5
ENDMDL
MODEL 6
REMARK VINA RESULT:    -4.928      1.980      7.291
REMARK INTER + INTRA:          -6.083
REMARK INTER:                  -5.799
REMARK INTRA:                  -0.284
REMARK UNBOUND:                -0.290
REMARK SMILES O=c1cc(-c2ccc(O)c(O)c2)oc2cc(O)cc(O)c12
REMARK SMILES IDX 4 1 3 2 2 3 1 4 21 5 19 6 18 7 16 8 15 9 14 10 13 11 5 12
REMARK SMILES IDX 6 13 7 14 8 15 12 16 10 17 9 18 11 20 20 22 17 24
REMARK H PARENT 9 19 11 21 20 23 17 25
REMARK Flexibility Score: inf
ROOT
ATOM      1  C   UNL     1      -7.986  18.710 -10.329  1.00  0.00     0.138 A 
ATOM      2  C   UNL     1      -7.500  17.397 -10.270  1.00  0.00     0.100 A 
ATOM      3  C   UNL     1      -6.576  17.046  -9.285  1.00  0.00     0.197 A 
ATOM      4  O   UNL     1      -6.116  15.875  -9.293  1.00  0.00    -0.289 OA
ATOM      5  C   UNL     1      -6.164  18.008  -8.331  1.00  0.00     0.107 A 
ATOM      6  C   UNL     1      -5.253  17.755  -7.260  1.00  0.00     0.134 A 
ATOM      7  C   UNL     1      -4.845  18.814  -6.438  1.00  0.00     0.093 A 
ATOM      8  C   UNL     1      -5.356  20.099  -6.610  1.00  0.00     0.123 A 
ATOM      9  C   UNL     1      -6.286  20.346  -7.621  1.00  0.00     0.094 A 
ATOM     10  C   UNL     1      -6.687  19.320  -8.480  1.00  0.00     0.146 A 
ATOM     11  O   UNL     1      -7.559  19.603  -9.441  1.00  0.00    -0.456 OA
ENDROOT
BRANCH   1  12
ATOM     12  C   UNL     1      -8.972  19.137 -11.353  1.00  0.00     0.021 A 
ATOM     13  C   UNL     1      -8.704  18.894 -12.712  1.00  0.00     0.016 A 
ATOM     14  C   UNL     1      -9.618  19.280 -13.697  1.00  0.00     0.051 A 
ATOM     15  C   UNL     1     -10.818  19.905 -13.338  1.00  0.00     0.157 A 
ATOM     16  C   UNL     1     -10.189  19.753 -11.000  1.00  0.00     0.062 A 
ATOM     17  C   UNL     1     -11.106  20.138 -11.989  1.00  0.00     0.158 A 
BRANCH  15  18
ATOM     18  O   UNL     1     -11.732  20.291 -14.318  1.00  0.00    -0.504 OA
ATOM     19  H   UNL     1     -12.029  21.255 -14.416  1.00  0.00     0.293 HD
ENDBRANCH  15  18
BRANCH  17  20
ATOM     20  O   UNL     1     -12.309  20.749 -11.636  1.00  0.00    -0.504 OA
ATOM     21  H   UNL     1     -12.581  21.646 -12.021  1.00  0.00     0.293 HD
ENDBRANCH  17  20
ENDBRANCH   1  12
BRANCH   6  22
ATOM     22  O   UNL     1      -4.740  16.493  -6.949  1.00  0.00    -0.507 OA
ATOM     23  H   UNL     1      -5.279  15.722  -6.585  1.00  0.00     0.293 HD
ENDBRANCH   6  22
BRANCH   8  24
ATOM     24  O   UNL     1      -4.939  21.124  -5.763  1.00  0.00    -0.508 OA
ATOM     25  H   UNL     1      -4.944  22.092  -6.060  1.00  0.00     0.293 HD
ENDBRANCH   8  24
TORSDOF 5
ENDMDL
MODEL 7
REMARK VINA RESULT:    -4.697      1.247      1.891
REMARK INTER + INTRA:          -5.810
REMARK INTER:                  -5.505
REMARK INTRA:                  -0.305
REMARK UNBOUND:                -0.290
REMARK SMILES O=c1cc(-c2ccc(O)c(O)c2)oc2cc(O)cc(O)c12
REMARK SMILES IDX 4 1 3 2 2 3 1 4 21 5 19 6 18 7 16 8 15 9 14 10 13 11 5 12
REMARK SMILES IDX 6 13 7 14 8 15 12 16 10 17 9 18 11 20 20 22 17 24
REMARK H PARENT 9 19 11 21 20 23 17 25
REMARK Flexibility Score: inf
ROOT
ATOM      1  C   UNL     1      -7.407  18.869 -10.288  1.00  0.00     0.138 A 
ATOM      2  C   UNL     1      -7.102  19.840 -11.251  1.00  0.00     0.100 A 
ATOM      3  C   UNL     1      -7.973  20.050 -12.321  1.00  0.00     0.197 A 
ATOM      4  O   UNL     1      -7.644  20.889 -13.198  1.00  0.00    -0.289 OA
ATOM      5  C   UNL     1      -9.175  19.306 -12.406  1.00  0.00     0.107 A 
ATOM      6  C   UNL     1     -10.156  19.458 -13.433  1.00  0.00     0.134 A 
ATOM      7  C   UNL     1     -11.259  18.595 -13.466  1.00  0.00     0.093 A 
ATOM      8  C   UNL     1     -11.448  17.628 -12.481  1.00  0.00     0.123 A 
ATOM      9  C   UNL     1     -10.521  17.503 -11.444  1.00  0.00     0.094 A 
ATOM     10  C   UNL     1      -9.393  18.325 -11.402  1.00  0.00     0.146 A 
ATOM     11  O   UNL     1      -8.526  18.162 -10.408  1.00  0.00    -0.456 OA
ENDROOT
BRANCH   1  12
ATOM     12  C   UNL     1      -6.518  18.607  -9.128  1.00  0.00     0.021 A 
ATOM     13  C   UNL     1      -5.762  19.661  -8.586  1.00  0.00     0.016 A 
ATOM     14  C   UNL     1      -4.922  19.443  -7.491  1.00  0.00     0.051 A 
ATOM     15  C   UNL     1      -4.832  18.171  -6.913  1.00  0.00     0.157 A 
ATOM     16  C   UNL     1      -6.433  17.333  -8.532  1.00  0.00     0.062 A 
ATOM     17  C   UNL     1      -5.591  17.116  -7.431  1.00  0.00     0.158 A 
BRANCH  15  18
ATOM     18  O   UNL     1      -3.996  17.950  -5.820  1.00  0.00    -0.504 OA
ATOM     19  H   UNL     1      -3.008  18.173  -5.854  1.00  0.00     0.293 HD
ENDBRANCH  15  18
BRANCH  17  20
ATOM     20  O   UNL     1      -5.509  15.854  -6.845  1.00  0.00    -0.504 OA
ATOM     21  H   UNL     1      -4.724  15.591  -6.259  1.00  0.00     0.293 HD
ENDBRANCH  17  20
ENDBRANCH   1  12
BRANCH   6  22
ATOM     22  O   UNL     1     -10.108  20.443 -14.423  1.00  0.00    -0.507 OA
ATOM     23  H   UNL     1      -9.794  20.298 -15.370  1.00  0.00     0.293 HD
ENDBRANCH   6  22
BRANCH   8  24
ATOM     24  O   UNL     1     -12.565  16.797 -12.537  1.00  0.00    -0.508 OA
ATOM     25  H   UNL     1     -13.322  16.881 -11.869  1.00  0.00     0.293 HD
ENDBRANCH   8  24
TORSDOF 5
ENDMDL
MODEL 8
REMARK VINA RESULT:    -4.497      1.270      2.741
REMARK INTER + INTRA:          -5.575
REMARK INTER:                  -5.271
REMARK INTRA:                  -0.304
REMARK UNBOUND:                -0.290
REMARK SMILES O=c1cc(-c2ccc(O)c(O)c2)oc2cc(O)cc(O)c12
REMARK SMILES IDX 4 1 3 2 2 3 1 4 21 5 19 6 18 7 16 8 15 9 14 10 13 11 5 12
REMARK SMILES IDX 6 13 7 14 8 15 12 16 10 17 9 18 11 20 20 22 17 24
REMARK H PARENT 9 19 11 21 20 23 17 25
REMARK Flexibility Score: inf
ROOT
ATOM      1  C   UNL     1      -7.386  17.979  -9.859  1.00  0.00     0.138 A 
ATOM      2  C   UNL     1      -8.561  17.224  -9.970  1.00  0.00     0.100 A 
ATOM      3  C   UNL     1      -9.372  17.371 -11.096  1.00  0.00     0.197 A 
ATOM      4  O   UNL     1     -10.448  16.720 -11.140  1.00  0.00    -0.289 OA
ATOM      5  C   UNL     1      -8.985  18.254 -12.133  1.00  0.00     0.107 A 
ATOM      6  C   UNL     1      -9.716  18.460 -13.343  1.00  0.00     0.134 A 
ATOM      7  C   UNL     1      -9.284  19.435 -14.251  1.00  0.00     0.093 A 
ATOM      8  C   UNL     1      -8.120  20.167 -14.024  1.00  0.00     0.123 A 
ATOM      9  C   UNL     1      -7.371  19.939 -12.869  1.00  0.00     0.094 A 
ATOM     10  C   UNL     1      -7.793  18.999 -11.926  1.00  0.00     0.146 A 
ATOM     11  O   UNL     1      -7.061  18.825 -10.832  1.00  0.00    -0.456 OA
ENDROOT
BRANCH   1  12
ATOM     12  C   UNL     1      -6.484  17.860  -8.686  1.00  0.00     0.021 A 
ATOM     13  C   UNL     1      -6.358  16.621  -8.035  1.00  0.00     0.016 A 
ATOM     14  C   UNL     1      -5.511  16.480  -6.932  1.00  0.00     0.051 A 
ATOM     15  C   UNL     1      -4.769  17.573  -6.468  1.00  0.00     0.157 A 
ATOM     16  C   UNL     1      -5.723  18.952  -8.222  1.00  0.00     0.062 A 
ATOM     17  C   UNL     1      -4.872  18.808  -7.116  1.00  0.00     0.158 A 
BRANCH  15  18
ATOM     18  O   UNL     1      -3.923  17.436  -5.369  1.00  0.00    -0.504 OA
ATOM     19  H   UNL     1      -3.458  16.559  -5.163  1.00  0.00     0.293 HD
ENDBRANCH  15  18
BRANCH  17  20
ATOM     20  O   UNL     1      -4.121  19.891  -6.659  1.00  0.00    -0.504 OA
ATOM     21  H   UNL     1      -3.126  19.960  -6.836  1.00  0.00     0.293 HD
ENDBRANCH  17  20
ENDBRANCH   1  12
BRANCH   6  22
ATOM     22  O   UNL     1     -10.849  17.728 -13.709  1.00  0.00    -0.507 OA
ATOM     23  H   UNL     1     -11.472  17.965 -14.465  1.00  0.00     0.293 HD
ENDBRANCH   6  22
BRANCH   8  24
ATOM     24  O   UNL     1      -7.712  21.118 -14.958  1.00  0.00    -0.508 OA
ATOM     25  H   UNL     1      -7.892  22.105 -14.822  1.00  0.00     0.293 HD
ENDBRANCH   8  24
TORSDOF 5
ENDMDL
MODEL 9
REMARK VINA RESULT:    -4.487     21.157     22.365
REMARK INTER + INTRA:          -5.564
REMARK INTER:                  -5.269
REMARK INTRA:                  -0.295
REMARK UNBOUND:                -0.290
REMARK SMILES O=c1cc(-c2ccc(O)c(O)c2)oc2cc(O)cc(O)c12
REMARK SMILES IDX 4 1 3 2 2 3 1 4 21 5 19 6 18 7 16 8 15 9 14 10 13 11 5 12
REMARK SMILES IDX 6 13 7 14 8 15 12 16 10 17 9 18 11 20 20 22 17 24
REMARK H PARENT 9 19 11 21 20 23 17 25
REMARK Flexibility Score: inf
ROOT
ATOM      1  C   UNL     1     -21.360   1.102  -9.150  1.00  0.00     0.138 A 
ATOM      2  C   UNL     1     -22.565   1.188  -9.860  1.00  0.00     0.100 A 
ATOM      3  C   UNL     1     -22.546   1.180 -11.256  1.00  0.00     0.197 A 
ATOM      4  O   UNL     1     -23.639   1.315 -11.864  1.00  0.00    -0.289 OA
ATOM      5  C   UNL     1     -21.315   1.049 -11.943  1.00  0.00     0.107 A 
ATOM      6  C   UNL     1     -21.178   0.993 -13.363  1.00  0.00     0.134 A 
ATOM      7  C   UNL     1     -19.897   0.961 -13.931  1.00  0.00     0.093 A 
ATOM      8  C   UNL     1     -18.755   0.923 -13.133  1.00  0.00     0.123 A 
ATOM      9  C   UNL     1     -18.880   0.925 -11.743  1.00  0.00     0.094 A 
ATOM     10  C   UNL     1     -20.141   0.992 -11.146  1.00  0.00     0.146 A 
ATOM     11  O   UNL     1     -20.214   1.011  -9.820  1.00  0.00    -0.456 OA
ENDROOT
BRANCH   1  12
ATOM     12  C   UNL     1     -21.321   1.103  -7.666  1.00  0.00     0.021 A 
ATOM     13  C   UNL     1     -20.089   1.259  -7.008  1.00  0.00     0.016 A 
ATOM     14  C   UNL     1     -20.024   1.270  -5.612  1.00  0.00     0.051 A 
ATOM     15  C   UNL     1     -21.192   1.136  -4.851  1.00  0.00     0.157 A 
ATOM     16  C   UNL     1     -22.493   0.983  -6.894  1.00  0.00     0.062 A 
ATOM     17  C   UNL     1     -22.428   0.996  -5.493  1.00  0.00     0.158 A 
BRANCH  15  18
ATOM     18  O   UNL     1     -21.132   1.147  -3.459  1.00  0.00    -0.504 OA
ATOM     19  H   UNL     1     -20.522   1.784  -2.959  1.00  0.00     0.293 HD
ENDBRANCH  15  18
BRANCH  17  20
ATOM     20  O   UNL     1     -23.590   0.876  -4.731  1.00  0.00    -0.504 OA
ATOM     21  H   UNL     1     -24.487   1.196  -5.077  1.00  0.00     0.293 HD
ENDBRANCH  17  20
ENDBRANCH   1  12
BRANCH   6  22
ATOM     22  O   UNL     1     -22.254   0.947 -14.255  1.00  0.00    -0.507 OA
ATOM     23  H   UNL     1     -22.757   1.750 -14.597  1.00  0.00     0.293 HD
ENDBRANCH   6  22
BRANCH   8  24
ATOM     24  O   UNL     1     -17.498   0.875 -13.732  1.00  0.00    -0.508 OA
ATOM     25  H   UNL     1     -16.963   0.016 -13.773  1.00  0.00     0.293 HD
ENDBRANCH   8  24
TORSDOF 5
ENDMDL
