MODEL 1
REMARK VINA RESULT:    -1.759      0.000      0.000
REMARK INTER + INTRA:          -5.800
REMARK INTER:                  -4.639
REMARK INTRA:                  -1.161
REMARK UNBOUND:                -1.161
REMARK SMILES CCCCCCCCCCCCCCCCCCCCCCCCCCCCCC(=O)[O-]
REMARK SMILES IDX 16 1 17 2 18 3 19 4 20 5 21 6 22 7 23 8 24 9 25 10 26 11
REMARK SMILES IDX 27 12 28 13 29 14 30 15 31 16 32 17 15 18 14 19 13 20 12 21
REMARK SMILES IDX 11 22 10 23 9 24 8 25 7 26 6 27 5 28 4 29 3 30 2 31 1 32
REMARK H PARENT
REMARK Flexibility Score: inf
ROOT
ATOM      1  C   UNL     1      23.517  33.010  10.542  1.00  0.00     0.000 C 
ENDROOT
BRANCH   1   2
ATOM      2  C   UNL     1      24.260  31.788   9.982  1.00  0.00     0.000 C 
BRANCH   2   3
ATOM      3  C   UNL     1      25.767  31.878  10.269  1.00  0.00     0.000 C 
BRANCH   3   4
ATOM      4  C   UNL     1      26.198  30.990  11.447  1.00  0.00     0.000 C 
BRANCH   4   5
ATOM      5  C   UNL     1      26.122  31.721  12.798  1.00  0.00     0.000 C 
BRANCH   5   6
ATOM      6  C   UNL     1      27.485  31.802  13.509  1.00  0.00     0.000 C 
BRANCH   6   7
ATOM      7  C   UNL     1      27.594  30.880  14.743  1.00  0.00     0.000 C 
BRANCH   7   8
ATOM      8  C   UNL     1      26.874  31.462  15.969  1.00  0.00     0.000 C 
BRANCH   8   9
ATOM      9  C   UNL     1      26.900  32.998  15.946  1.00  0.00     0.000 C 
BRANCH   9  10
ATOM     10  C   UNL     1      25.558  33.605  15.504  1.00  0.00     0.000 C 
BRANCH  10  11
ATOM     11  C   UNL     1      25.299  34.989  16.123  1.00  0.00     0.000 C 
BRANCH  11  12
ATOM     12  C   UNL     1      24.960  36.051  15.054  1.00  0.00     0.000 C 
BRANCH  12  13
ATOM     13  C   UNL     1      23.979  37.133  15.547  1.00  0.00     0.006 C 
BRANCH  13  14
ATOM     14  C   UNL     1      24.494  38.572  15.386  1.00  0.00     0.053 C 
BRANCH  14  15
ATOM     15  C   UNL     1      24.310  39.096  13.994  1.00  0.00     0.041 C 
ATOM     16  O   UNL     1      23.339  39.851  13.719  1.00  0.00    -0.550 OA
ATOM     17  O   UNL     1      25.189  38.718  12.987  1.00  0.00    -0.550 OA
ENDBRANCH  14  15
ENDBRANCH  13  14
ENDBRANCH  12  13
ENDBRANCH  11  12
ENDBRANCH  10  11
ENDBRANCH   9  10
ENDBRANCH   8   9
ENDBRANCH   7   8
ENDBRANCH   6   7
ENDBRANCH   5   6
ENDBRANCH   4   5
ENDBRANCH   3   4
ENDBRANCH   2   3
ENDBRANCH   1   2
BRANCH   1  18
ATOM     18  C   UNL     1      23.576  33.089  12.079  1.00  0.00     0.000 C 
BRANCH  18  19
ATOM     19  C   UNL     1      23.192  34.461  12.671  1.00  0.00     0.000 C 
BRANCH  19  20
ATOM     20  C   UNL     1      22.326  34.407  13.947  1.00  0.00     0.000 C 
BRANCH  20  21
ATOM     21  C   UNL     1      21.930  32.992  14.408  1.00  0.00     0.000 C 
BRANCH  21  22
ATOM     22  C   UNL     1      20.906  33.005  15.557  1.00  0.00     0.000 C 
BRANCH  22  23
ATOM     23  C   UNL     1      20.628  31.605  16.125  1.00  0.00     0.000 C 
BRANCH  23  24
ATOM     24  C   UNL     1      19.490  30.876  15.388  1.00  0.00    -0.000 C 
BRANCH  24  25
ATOM     25  C   UNL     1      18.102  31.187  15.978  1.00  0.00    -0.000 C 
BRANCH  25  26
ATOM     26  C   UNL     1      17.136  31.923  15.029  1.00  0.00    -0.000 C 
BRANCH  26  27
ATOM     27  C   UNL     1      15.921  31.066  14.629  1.00  0.00    -0.000 C 
BRANCH  27  28
ATOM     28  C   UNL     1      14.727  31.251  15.581  1.00  0.00    -0.000 C 
BRANCH  28  29
ATOM     29  C   UNL     1      13.497  31.849  14.881  1.00  0.00    -0.000 C 
BRANCH  29  30
ATOM     30  C   UNL     1      12.610  32.601  15.881  1.00  0.00    -0.000 C 
BRANCH  30  31
ATOM     31  C   UNL     1      12.793  34.117  15.748  1.00  0.00    -0.003 C 
ATOM     32  C   UNL     1      11.631  34.747  14.985  1.00  0.00     0.004 C 
ENDBRANCH  30  31
ENDBRANCH  29  30
ENDBRANCH  28  29
ENDBRANCH  27  28
ENDBRANCH  26  27
ENDBRANCH  25  26
ENDBRANCH  24  25
ENDBRANCH  23  24
ENDBRANCH  22  23
ENDBRANCH  21  22
ENDBRANCH  20  21
ENDBRANCH  19  20
ENDBRANCH  18  19
ENDBRANCH   1  18
TORSDOF 28
ENDMDL
MODEL 2
REMARK VINA RESULT:    -1.296      3.777      9.650
REMARK INTER + INTRA:          -4.579
REMARK INTER:                  -4.462
REMARK INTRA:                  -0.117
REMARK UNBOUND:                -1.161
REMARK SMILES CCCCCCCCCCCCCCCCCCCCCCCCCCCCCC(=O)[O-]
REMARK SMILES IDX 16 1 17 2 18 3 19 4 20 5 21 6 22 7 23 8 24 9 25 10 26 11
REMARK SMILES IDX 27 12 28 13 29 14 30 15 31 16 32 17 15 18 14 19 13 20 12 21
REMARK SMILES IDX 11 22 10 23 9 24 8 25 7 26 6 27 5 28 4 29 3 30 2 31 1 32
REMARK H PARENT
REMARK Flexibility Score: inf
ROOT
ATOM      1  C   UNL     1      24.623  32.875  14.538  1.00  0.00     0.000 C 
ENDROOT
BRANCH   1   2
ATOM      2  C   UNL     1      24.088  32.480  15.922  1.00  0.00     0.000 C 
BRANCH   2   3
ATOM      3  C   UNL     1      23.550  31.042  15.917  1.00  0.00     0.000 C 
BRANCH   3   4
ATOM      4  C   UNL     1      22.167  30.931  15.255  1.00  0.00     0.000 C 
BRANCH   4   5
ATOM      5  C   UNL     1      21.077  31.686  16.033  1.00  0.00     0.000 C 
BRANCH   5   6
ATOM      6  C   UNL     1      19.686  31.043  15.887  1.00  0.00     0.000 C 
BRANCH   6   7
ATOM      7  C   UNL     1      18.770  31.775  14.882  1.00  0.00     0.000 C 
BRANCH   7   8
ATOM      8  C   UNL     1      17.386  31.117  14.771  1.00  0.00     0.000 C 
BRANCH   8   9
ATOM      9  C   UNL     1      16.268  32.131  15.061  1.00  0.00     0.000 C 
BRANCH   9  10
ATOM     10  C   UNL     1      15.278  31.632  16.124  1.00  0.00     0.000 C 
BRANCH  10  11
ATOM     11  C   UNL     1      14.069  30.902  15.514  1.00  0.00     0.000 C 
BRANCH  11  12
ATOM     12  C   UNL     1      13.192  31.842  14.658  1.00  0.00     0.000 C 
BRANCH  12  13
ATOM     13  C   UNL     1      12.201  32.685  15.485  1.00  0.00     0.006 C 
BRANCH  13  14
ATOM     14  C   UNL     1      12.104  34.154  15.045  1.00  0.00     0.053 C 
BRANCH  14  15
ATOM     15  C   UNL     1      10.830  34.806  15.496  1.00  0.00     0.041 C 
ATOM     16  O   UNL     1      10.793  36.045  15.721  1.00  0.00    -0.550 OA
ATOM     17  O   UNL     1       9.693  34.037  15.706  1.00  0.00    -0.550 OA
ENDBRANCH  14  15
ENDBRANCH  13  14
ENDBRANCH  12  13
ENDBRANCH  11  12
ENDBRANCH  10  11
ENDBRANCH   9  10
ENDBRANCH   8   9
ENDBRANCH   7   8
ENDBRANCH   6   7
ENDBRANCH   5   6
ENDBRANCH   4   5
ENDBRANCH   3   4
ENDBRANCH   2   3
ENDBRANCH   1   2
BRANCH   1  18
ATOM     18  C   UNL     1      25.918  32.129  14.165  1.00  0.00     0.000 C 
BRANCH  18  19
ATOM     19  C   UNL     1      25.849  31.328  12.850  1.00  0.00     0.000 C 
BRANCH  19  20
ATOM     20  C   UNL     1      26.022  32.161  11.563  1.00  0.00     0.000 C 
BRANCH  20  21
ATOM     21  C   UNL     1      26.976  33.362  11.685  1.00  0.00     0.000 C 
BRANCH  21  22
ATOM     22  C   UNL     1      26.313  34.693  11.288  1.00  0.00     0.000 C 
BRANCH  22  23
ATOM     23  C   UNL     1      24.961  34.917  11.984  1.00  0.00     0.000 C 
BRANCH  23  24
ATOM     24  C   UNL     1      23.856  33.983  11.459  1.00  0.00    -0.000 C 
BRANCH  24  25
ATOM     25  C   UNL     1      22.451  34.394  11.941  1.00  0.00    -0.000 C 
BRANCH  25  26
ATOM     26  C   UNL     1      22.093  33.944  13.371  1.00  0.00    -0.000 C 
BRANCH  26  27
ATOM     27  C   UNL     1      22.302  35.054  14.417  1.00  0.00    -0.000 C 
BRANCH  27  28
ATOM     28  C   UNL     1      23.325  36.110  13.964  1.00  0.00    -0.000 C 
BRANCH  28  29
ATOM     29  C   UNL     1      24.348  36.454  15.057  1.00  0.00    -0.000 C 
BRANCH  29  30
ATOM     30  C   UNL     1      24.225  37.923  15.480  1.00  0.00    -0.000 C 
BRANCH  30  31
ATOM     31  C   UNL     1      23.430  38.728  14.445  1.00  0.00    -0.003 C 
ATOM     32  C   UNL     1      24.323  39.173  13.291  1.00  0.00     0.004 C 
ENDBRANCH  30  31
ENDBRANCH  29  30
ENDBRANCH  28  29
ENDBRANCH  27  28
ENDBRANCH  26  27
ENDBRANCH  25  26
ENDBRANCH  24  25
ENDBRANCH  23  24
ENDBRANCH  22  23
ENDBRANCH  21  22
ENDBRANCH  20  21
ENDBRANCH  19  20
ENDBRANCH  18  19
ENDBRANCH   1  18
TORSDOF 28
ENDMDL
