MODEL 1
REMARK VINA RESULT:    32.818      0.000      0.000
REMARK INTER + INTRA:          40.849
REMARK INTER:                  41.452
REMARK INTRA:                  -0.603
REMARK UNBOUND:                -0.603
REMARK SMILES CC(C)[C@H](C)C=C[C@@H](C)[C@H]1CC[C@H]2C3=CC=C4C[C@H](O)CC[C@@]4(C)[C@@H]3CC[C@]12C
REMARK SMILES IDX 8 1 9 2 7 3 6 4 4 5 5 6 2 7 1 8 3 9 10 10 11 11 28 12 12 13
REMARK SMILES IDX 13 14 27 15 29 16 14 17 26 18 25 19 15 20 23 21 16 22 17 23
REMARK SMILES IDX 22 24 24 25 18 26 21 27 19 28 20 29
REMARK H PARENT 20 30
REMARK Flexibility Score: inf
ROOT
ATOM      1  C   UNL     1      13.933  12.638  34.071  1.00  0.00     0.012 C 
ATOM      2  C   UNL     1      12.828  13.429  33.355  1.00  0.00     0.012 C 
ENDROOT
BRANCH   1   3
ATOM      3  C   UNL     1      14.052  11.258  33.455  1.00  0.00    -0.028 C 
ATOM      4  C   UNL     1      13.093  10.725  32.678  1.00  0.00    -0.028 C 
BRANCH   4   5
ATOM      5  C   UNL     1      13.211   9.318  32.131  1.00  0.00     0.011 C 
ATOM      6  C   UNL     1      12.431   8.371  33.058  1.00  0.00     0.012 C 
BRANCH   5   7
ATOM      7  C   UNL     1      12.709   9.253  30.657  1.00  0.00    -0.011 C 
ATOM      8  C   UNL     1      11.602   8.196  30.495  1.00  0.00     0.008 C 
ATOM      9  C   UNL     1      12.179  10.611  30.163  1.00  0.00     0.008 C 
ENDBRANCH   5   7
ENDBRANCH   4   5
ENDBRANCH   1   3
BRANCH   1  10
ATOM     10  C   UNL     1      13.707  12.547  35.615  1.00  0.00     0.002 C 
ATOM     11  C   UNL     1      12.902  11.283  36.020  1.00  0.00     0.005 C 
ATOM     12  C   UNL     1      14.967  12.507  36.531  1.00  0.00    -0.023 C 
ATOM     13  C   UNL     1      13.420  10.838  37.394  1.00  0.00     0.009 C 
ATOM     14  C   UNL     1      14.337  11.974  37.829  1.00  0.00     0.021 C 
ATOM     15  C   UNL     1      15.630  13.896  36.814  1.00  0.00     0.008 C 
ATOM     16  C   UNL     1      16.034  11.519  35.960  1.00  0.00     0.012 C 
ATOM     17  C   UNL     1      15.389  11.743  38.886  1.00  0.00    -0.063 C 
ATOM     18  C   UNL     1      16.041  14.125  38.298  1.00  0.00     0.009 C 
ATOM     19  C   UNL     1      16.451  12.821  39.052  1.00  0.00     0.025 C 
ATOM     20  C   UNL     1      15.384  10.681  39.704  1.00  0.00    -0.000 C 
ATOM     21  C   UNL     1      16.819  13.031  40.568  1.00  0.00    -0.005 C 
ATOM     22  C   UNL     1      16.340  10.592  40.818  1.00  0.00    -0.000 C 
ATOM     23  C   UNL     1      17.066  11.656  41.209  1.00  0.00    -0.061 C 
ATOM     24  C   UNL     1      18.107  13.907  40.664  1.00  0.00     0.014 C 
ATOM     25  C   UNL     1      15.661  13.717  41.338  1.00  0.00     0.017 C 
ATOM     26  C   UNL     1      17.889  11.542  42.473  1.00  0.00     0.063 C 
ATOM     27  C   UNL     1      18.774  13.868  42.043  1.00  0.00     0.033 C 
ATOM     28  C   UNL     1      19.139  12.427  42.417  1.00  0.00     0.118 C 
BRANCH  28  29
ATOM     29  O   UNL     1      19.829  12.391  43.641  1.00  0.00    -0.393 OA
ATOM     30  H   UNL     1      20.068  11.443  43.826  1.00  0.00     0.210 HD
ENDBRANCH  28  29
ENDBRANCH   1  10
TORSDOF 5
ENDMDL
MODEL 2
REMARK VINA RESULT:    34.501      3.169      9.416
REMARK INTER + INTRA:          42.975
REMARK INTER:                  43.714
REMARK INTRA:                  -0.739
REMARK UNBOUND:                -0.603
REMARK SMILES CC(C)[C@H](C)C=C[C@@H](C)[C@H]1CC[C@H]2C3=CC=C4C[C@H](O)CC[C@@]4(C)[C@@H]3CC[C@]12C
REMARK SMILES IDX 8 1 9 2 7 3 6 4 4 5 5 6 2 7 1 8 3 9 10 10 11 11 28 12 12 13
REMARK SMILES IDX 13 14 27 15 29 16 14 17 26 18 25 19 15 20 23 21 16 22 17 23
REMARK SMILES IDX 22 24 24 25 18 26 21 27 19 28 20 29
REMARK H PARENT 20 30
REMARK Flexibility Score: inf
ROOT
ATOM      1  C   UNL     1      15.284  12.962  40.261  1.00  0.00     0.012 C 
ATOM      2  C   UNL     1      14.683  13.967  41.256  1.00  0.00     0.012 C 
ENDROOT
BRANCH   1   3
ATOM      3  C   UNL     1      16.740  12.715  40.602  1.00  0.00    -0.028 C 
ATOM      4  C   UNL     1      17.382  13.387  41.573  1.00  0.00    -0.028 C 
BRANCH   4   5
ATOM      5  C   UNL     1      18.854  13.165  41.847  1.00  0.00     0.011 C 
ATOM      6  C   UNL     1      19.662  14.125  40.956  1.00  0.00     0.012 C 
BRANCH   5   7
ATOM      7  C   UNL     1      19.171  13.352  43.361  1.00  0.00    -0.011 C 
ATOM      8  C   UNL     1      20.507  14.090  43.561  1.00  0.00     0.008 C 
ATOM      9  C   UNL     1      18.060  14.124  44.096  1.00  0.00     0.008 C 
ENDBRANCH   5   7
ENDBRANCH   4   5
ENDBRANCH   1   3
BRANCH   1  10
ATOM     10  C   UNL     1      15.124  13.416  38.774  1.00  0.00     0.002 C 
ATOM     11  C   UNL     1      16.404  14.099  38.224  1.00  0.00     0.005 C 
ATOM     12  C   UNL     1      14.790  12.323  37.714  1.00  0.00    -0.023 C 
ATOM     13  C   UNL     1      16.498  13.752  36.732  1.00  0.00     0.009 C 
ATOM     14  C   UNL     1      15.168  13.075  36.426  1.00  0.00     0.021 C 
ATOM     15  C   UNL     1      13.284  11.903  37.640  1.00  0.00     0.008 C 
ATOM     16  C   UNL     1      15.681  11.057  37.926  1.00  0.00     0.012 C 
ATOM     17  C   UNL     1      15.028  12.182  35.217  1.00  0.00    -0.063 C 
ATOM     18  C   UNL     1      12.722  11.767  36.195  1.00  0.00     0.009 C 
ATOM     19  C   UNL     1      13.780  11.312  35.141  1.00  0.00     0.025 C 
ATOM     20  C   UNL     1      15.907  12.176  34.206  1.00  0.00    -0.000 C 
ATOM     21  C   UNL     1      13.238  11.221  33.666  1.00  0.00    -0.005 C 
ATOM     22  C   UNL     1      15.633  11.405  32.983  1.00  0.00    -0.000 C 
ATOM     23  C   UNL     1      14.413  10.898  32.729  1.00  0.00    -0.061 C 
ATOM     24  C   UNL     1      12.163  10.091  33.588  1.00  0.00     0.014 C 
ATOM     25  C   UNL     1      12.617  12.567  33.210  1.00  0.00     0.017 C 
ATOM     26  C   UNL     1      14.158  10.278  31.373  1.00  0.00     0.063 C 
ATOM     27  C   UNL     1      11.838   9.653  32.155  1.00  0.00     0.033 C 
ATOM     28  C   UNL     1      13.108   9.163  31.449  1.00  0.00     0.118 C 
BRANCH  28  29
ATOM     29  O   UNL     1      12.806   8.678  30.164  1.00  0.00    -0.393 OA
ATOM     30  H   UNL     1      13.431   9.110  29.523  1.00  0.00     0.210 HD
ENDBRANCH  28  29
ENDBRANCH   1  10
TORSDOF 5
ENDMDL
MODEL 3
REMARK VINA RESULT:    34.890      1.503      1.899
REMARK INTER + INTRA:          43.465
REMARK INTER:                  43.851
REMARK INTRA:                  -0.385
REMARK UNBOUND:                -0.603
REMARK SMILES CC(C)[C@H](C)C=C[C@@H](C)[C@H]1CC[C@H]2C3=CC=C4C[C@H](O)CC[C@@]4(C)[C@@H]3CC[C@]12C
REMARK SMILES IDX 8 1 9 2 7 3 6 4 4 5 5 6 2 7 1 8 3 9 10 10 11 11 28 12 12 13
REMARK SMILES IDX 13 14 27 15 29 16 14 17 26 18 25 19 15 20 23 21 16 22 17 23
REMARK SMILES IDX 22 24 24 25 18 26 21 27 19 28 20 29
REMARK H PARENT 20 30
REMARK Flexibility Score: inf
ROOT
ATOM      1  C   UNL     1      14.053  12.695  33.832  1.00  0.00     0.012 C 
ATOM      2  C   UNL     1      12.881  13.323  33.062  1.00  0.00     0.012 C 
ENDROOT
BRANCH   1   3
ATOM      3  C   UNL     1      14.368  11.330  33.253  1.00  0.00    -0.028 C 
ATOM      4  C   UNL     1      15.408  11.113  32.430  1.00  0.00    -0.028 C 
BRANCH   4   5
ATOM      5  C   UNL     1      15.659   9.752  31.816  1.00  0.00     0.011 C 
ATOM      6  C   UNL     1      14.301   9.068  31.584  1.00  0.00     0.012 C 
BRANCH   5   7
ATOM      7  C   UNL     1      16.491   9.881  30.504  1.00  0.00    -0.011 C 
ATOM      8  C   UNL     1      17.794  10.663  30.749  1.00  0.00     0.008 C 
ATOM      9  C   UNL     1      16.838   8.509  29.899  1.00  0.00     0.008 C 
ENDBRANCH   5   7
ENDBRANCH   4   5
ENDBRANCH   1   3
BRANCH   1  10
ATOM     10  C   UNL     1      13.787  12.606  35.369  1.00  0.00     0.002 C 
ATOM     11  C   UNL     1      12.943  11.361  35.751  1.00  0.00     0.005 C 
ATOM     12  C   UNL     1      15.023  12.535  36.316  1.00  0.00    -0.023 C 
ATOM     13  C   UNL     1      13.416  10.901  37.137  1.00  0.00     0.009 C 
ATOM     14  C   UNL     1      14.349  12.015  37.597  1.00  0.00     0.021 C 
ATOM     15  C   UNL     1      15.711  13.908  36.618  1.00  0.00     0.008 C 
ATOM     16  C   UNL     1      16.080  11.523  35.769  1.00  0.00     0.012 C 
ATOM     17  C   UNL     1      15.369  11.757  38.679  1.00  0.00    -0.063 C 
ATOM     18  C   UNL     1      16.091  14.124  38.112  1.00  0.00     0.009 C 
ATOM     19  C   UNL     1      16.452  12.810  38.874  1.00  0.00     0.025 C 
ATOM     20  C   UNL     1      15.319  10.695  39.493  1.00  0.00    -0.000 C 
ATOM     21  C   UNL     1      16.787  13.009  40.399  1.00  0.00    -0.005 C 
ATOM     22  C   UNL     1      16.246  10.581  40.631  1.00  0.00    -0.000 C 
ATOM     23  C   UNL     1      16.986  11.626  41.042  1.00  0.00    -0.061 C 
ATOM     24  C   UNL     1      18.093  13.854  40.528  1.00  0.00     0.014 C 
ATOM     25  C   UNL     1      15.627  13.720  41.142  1.00  0.00     0.017 C 
ATOM     26  C   UNL     1      17.775  11.491  42.326  1.00  0.00     0.063 C 
ATOM     27  C   UNL     1      18.725  13.797  41.923  1.00  0.00     0.033 C 
ATOM     28  C   UNL     1      19.047  12.347  42.302  1.00  0.00     0.118 C 
BRANCH  28  29
ATOM     29  O   UNL     1      19.705  12.292  43.543  1.00  0.00    -0.393 OA
ATOM     30  H   UNL     1      19.024  12.085  44.238  1.00  0.00     0.210 HD
ENDBRANCH  28  29
ENDBRANCH   1  10
TORSDOF 5
ENDMDL
MODEL 4
REMARK VINA RESULT:    35.074      3.624      9.475
REMARK INTER + INTRA:          43.698
REMARK INTER:                  44.221
REMARK INTRA:                  -0.523
REMARK UNBOUND:                -0.603
REMARK SMILES CC(C)[C@H](C)C=C[C@@H](C)[C@H]1CC[C@H]2C3=CC=C4C[C@H](O)CC[C@@]4(C)[C@@H]3CC[C@]12C
REMARK SMILES IDX 8 1 9 2 7 3 6 4 4 5 5 6 2 7 1 8 3 9 10 10 11 11 28 12 12 13
REMARK SMILES IDX 13 14 27 15 29 16 14 17 26 18 25 19 15 20 23 21 16 22 17 23
REMARK SMILES IDX 22 24 24 25 18 26 21 27 19 28 20 29
REMARK H PARENT 20 30
REMARK Flexibility Score: inf
ROOT
ATOM      1  C   UNL     1      13.997  12.595  39.140  1.00  0.00     0.012 C 
ATOM      2  C   UNL     1      13.418  14.003  39.348  1.00  0.00     0.012 C 
ENDROOT
BRANCH   1   3
ATOM      3  C   UNL     1      15.036  12.309  40.207  1.00  0.00    -0.028 C 
ATOM      4  C   UNL     1      16.258  12.867  40.199  1.00  0.00    -0.028 C 
BRANCH   4   5
ATOM      5  C   UNL     1      17.296  12.511  41.242  1.00  0.00     0.011 C 
ATOM      6  C   UNL     1      18.338  11.585  40.591  1.00  0.00     0.012 C 
BRANCH   5   7
ATOM      7  C   UNL     1      17.939  13.796  41.845  1.00  0.00    -0.011 C 
ATOM      8  C   UNL     1      17.339  14.120  43.225  1.00  0.00     0.008 C 
ATOM      9  C   UNL     1      19.467  13.673  41.982  1.00  0.00     0.008 C 
ENDBRANCH   5   7
ENDBRANCH   4   5
ENDBRANCH   1   3
BRANCH   1  10
ATOM     10  C   UNL     1      14.592  12.393  37.709  1.00  0.00     0.002 C 
ATOM     11  C   UNL     1      15.285  11.014  37.547  1.00  0.00     0.005 C 
ATOM     12  C   UNL     1      13.612  12.471  36.499  1.00  0.00    -0.023 C 
ATOM     13  C   UNL     1      15.075  10.569  36.094  1.00  0.00     0.009 C 
ATOM     14  C   UNL     1      14.469  11.792  35.417  1.00  0.00     0.021 C 
ATOM     15  C   UNL     1      13.246  13.919  36.030  1.00  0.00     0.008 C 
ATOM     16  C   UNL     1      12.306  11.665  36.792  1.00  0.00     0.012 C 
ATOM     17  C   UNL     1      13.696  11.646  34.128  1.00  0.00    -0.063 C 
ATOM     18  C   UNL     1      13.261  14.121  34.487  1.00  0.00     0.009 C 
ATOM     19  C   UNL     1      12.874  12.845  33.675  1.00  0.00     0.025 C 
ATOM     20  C   UNL     1      13.758  10.551  33.359  1.00  0.00    -0.000 C 
ATOM     21  C   UNL     1      12.936  13.021  32.112  1.00  0.00    -0.005 C 
ATOM     22  C   UNL     1      13.112  10.530  32.036  1.00  0.00    -0.000 C 
ATOM     23  C   UNL     1      12.667  11.658  31.453  1.00  0.00    -0.061 C 
ATOM     24  C   UNL     1      11.851  14.053  31.672  1.00  0.00     0.014 C 
ATOM     25  C   UNL     1      14.337  13.505  31.655  1.00  0.00     0.017 C 
ATOM     26  C   UNL     1      12.183  11.586  30.021  1.00  0.00     0.063 C 
ATOM     27  C   UNL     1      11.557  14.029  30.168  1.00  0.00     0.033 C 
ATOM     28  C   UNL     1      11.098  12.632  29.738  1.00  0.00     0.118 C 
BRANCH  28  29
ATOM     29  O   UNL     1      10.743  12.621  28.377  1.00  0.00    -0.393 OA
ATOM     30  H   UNL     1       9.751  12.660  28.323  1.00  0.00     0.210 HD
ENDBRANCH  28  29
ENDBRANCH   1  10
TORSDOF 5
ENDMDL
