MODEL 1
REMARK VINA RESULT:    -5.445      0.000      0.000
REMARK INTER + INTRA:          -5.445
REMARK INTER:                  -5.445
REMARK INTRA:                   0.000
REMARK UNBOUND:                 0.000
REMARK SMILES CC(C)=C1CC[C@H](C)CC1=O
REMARK SMILES IDX 8 1 7 2 6 3 5 4 4 5 2 6 1 7 3 8 10 9 11 10 9 11
REMARK H PARENT
REMARK Flexibility Score: inf
ROOT
ATOM      1  C   UNL     1      15.170 -33.145  20.841  1.00  0.00     0.008 C 
ATOM      2  C   UNL     1      14.183 -32.406  21.750  1.00  0.00    -0.006 C 
ATOM      3  C   UNL     1      14.926 -31.436  22.682  1.00  0.00     0.008 C 
ATOM      4  C   UNL     1      13.963 -30.762  23.669  1.00  0.00     0.039 C 
ATOM      5  C   UNL     1      12.775 -30.110  22.974  1.00  0.00    -0.006 C 
ATOM      6  C   UNL     1      12.186 -28.987  23.479  1.00  0.00    -0.070 C 
ATOM      7  C   UNL     1      11.044 -28.299  22.768  1.00  0.00     0.039 C 
ATOM      8  C   UNL     1      12.677 -28.353  24.761  1.00  0.00     0.039 C 
ATOM      9  C   UNL     1      12.232 -30.836  21.786  1.00  0.00     0.159 C 
ATOM     10  O   UNL     1      11.006 -30.793  21.500  1.00  0.00    -0.295 OA
ATOM     11  C   UNL     1      13.149 -31.639  20.911  1.00  0.00     0.084 C 
ENDROOT
TORSDOF 0
ENDMDL
MODEL 2
REMARK VINA RESULT:    -5.364      1.271      4.064
REMARK INTER + INTRA:          -5.364
REMARK INTER:                  -5.364
REMARK INTRA:                   0.000
REMARK UNBOUND:                 0.000
REMARK SMILES CC(C)=C1CC[C@H](C)CC1=O
REMARK SMILES IDX 8 1 7 2 6 3 5 4 4 5 2 6 1 7 3 8 10 9 11 10 9 11
REMARK H PARENT
REMARK Flexibility Score: inf
ROOT
ATOM      1  C   UNL     1      10.889 -28.582  23.123  1.00  0.00     0.008 C 
ATOM      2  C   UNL     1      12.194 -29.284  22.730  1.00  0.00    -0.006 C 
ATOM      3  C   UNL     1      13.059 -29.554  23.971  1.00  0.00     0.008 C 
ATOM      4  C   UNL     1      14.413 -30.164  23.586  1.00  0.00     0.039 C 
ATOM      5  C   UNL     1      14.269 -31.391  22.696  1.00  0.00    -0.006 C 
ATOM      6  C   UNL     1      15.168 -32.417  22.750  1.00  0.00    -0.070 C 
ATOM      7  C   UNL     1      15.004 -33.665  21.913  1.00  0.00     0.039 C 
ATOM      8  C   UNL     1      16.356 -32.369  23.685  1.00  0.00     0.039 C 
ATOM      9  C   UNL     1      13.163 -31.347  21.692  1.00  0.00     0.159 C 
ATOM     10  O   UNL     1      13.270 -31.921  20.576  1.00  0.00    -0.295 OA
ATOM     11  C   UNL     1      11.897 -30.603  22.001  1.00  0.00     0.084 C 
ENDROOT
TORSDOF 0
ENDMDL
MODEL 3
REMARK VINA RESULT:    -5.271      2.085      5.176
REMARK INTER + INTRA:          -5.271
REMARK INTER:                  -5.271
REMARK INTRA:                   0.000
REMARK UNBOUND:                 0.000
REMARK SMILES CC(C)=C1CC[C@H](C)CC1=O
REMARK SMILES IDX 8 1 7 2 6 3 5 4 4 5 2 6 1 7 3 8 10 9 11 10 9 11
REMARK H PARENT
REMARK Flexibility Score: inf
ROOT
ATOM      1  C   UNL     1      12.637 -29.502  23.134  1.00  0.00     0.008 C 
ATOM      2  C   UNL     1      13.029 -30.933  22.751  1.00  0.00    -0.006 C 
ATOM      3  C   UNL     1      13.517 -30.990  21.295  1.00  0.00     0.008 C 
ATOM      4  C   UNL     1      13.817 -32.431  20.862  1.00  0.00     0.039 C 
ATOM      5  C   UNL     1      14.758 -33.145  21.823  1.00  0.00    -0.006 C 
ATOM      6  C   UNL     1      15.635 -34.095  21.383  1.00  0.00    -0.070 C 
ATOM      7  C   UNL     1      16.613 -34.770  22.316  1.00  0.00     0.039 C 
ATOM      8  C   UNL     1      15.694 -34.492  19.924  1.00  0.00     0.039 C 
ATOM      9  C   UNL     1      14.582 -32.828  23.272  1.00  0.00     0.159 C 
ATOM     10  O   UNL     1      14.807 -33.690  24.162  1.00  0.00    -0.295 OA
ATOM     11  C   UNL     1      14.122 -31.462  23.691  1.00  0.00     0.084 C 
ENDROOT
TORSDOF 0
ENDMDL
MODEL 4
REMARK VINA RESULT:    -5.051      2.124      4.641
REMARK INTER + INTRA:          -5.051
REMARK INTER:                  -5.051
REMARK INTRA:                   0.000
REMARK UNBOUND:                 0.000
REMARK SMILES CC(C)=C1CC[C@H](C)CC1=O
REMARK SMILES IDX 8 1 7 2 6 3 5 4 4 5 2 6 1 7 3 8 10 9 11 10 9 11
REMARK H PARENT
REMARK Flexibility Score: inf
ROOT
ATOM      1  C   UNL     1      12.427 -28.749  24.237  1.00  0.00     0.008 C 
ATOM      2  C   UNL     1      13.311 -29.376  23.154  1.00  0.00    -0.006 C 
ATOM      3  C   UNL     1      14.675 -28.670  23.093  1.00  0.00     0.008 C 
ATOM      4  C   UNL     1      15.536 -29.218  21.946  1.00  0.00     0.039 C 
ATOM      5  C   UNL     1      15.662 -30.735  21.983  1.00  0.00    -0.006 C 
ATOM      6  C   UNL     1      16.790 -31.364  21.541  1.00  0.00    -0.070 C 
ATOM      7  C   UNL     1      16.951 -32.864  21.626  1.00  0.00     0.039 C 
ATOM      8  C   UNL     1      17.954 -30.581  20.976  1.00  0.00     0.039 C 
ATOM      9  C   UNL     1      14.446 -31.484  22.421  1.00  0.00     0.159 C 
ATOM     10  O   UNL     1      14.182 -32.627  21.961  1.00  0.00    -0.295 OA
ATOM     11  C   UNL     1      13.507 -30.875  23.421  1.00  0.00     0.084 C 
ENDROOT
TORSDOF 0
ENDMDL
MODEL 5
REMARK VINA RESULT:    -5.019      1.723      2.692
REMARK INTER + INTRA:          -5.019
REMARK INTER:                  -5.019
REMARK INTRA:                   0.000
REMARK UNBOUND:                 0.000
REMARK SMILES CC(C)=C1CC[C@H](C)CC1=O
REMARK SMILES IDX 8 1 7 2 6 3 5 4 4 5 2 6 1 7 3 8 10 9 11 10 9 11
REMARK H PARENT
REMARK Flexibility Score: inf
ROOT
ATOM      1  C   UNL     1      16.905 -33.246  21.782  1.00  0.00     0.008 C 
ATOM      2  C   UNL     1      15.835 -32.166  21.592  1.00  0.00    -0.006 C 
ATOM      3  C   UNL     1      14.473 -32.803  21.276  1.00  0.00     0.008 C 
ATOM      4  C   UNL     1      13.411 -31.734  20.982  1.00  0.00     0.039 C 
ATOM      5  C   UNL     1      13.324 -30.680  22.078  1.00  0.00    -0.006 C 
ATOM      6  C   UNL     1      12.144 -30.064  22.379  1.00  0.00    -0.070 C 
ATOM      7  C   UNL     1      12.033 -29.059  23.501  1.00  0.00     0.039 C 
ATOM      8  C   UNL     1      10.875 -30.390  21.622  1.00  0.00     0.039 C 
ATOM      9  C   UNL     1      14.618 -30.285  22.712  1.00  0.00     0.159 C 
ATOM     10  O   UNL     1      14.807 -29.114  23.137  1.00  0.00    -0.295 OA
ATOM     11  C   UNL     1      15.726 -31.289  22.848  1.00  0.00     0.084 C 
ENDROOT
TORSDOF 0
ENDMDL
MODEL 6
REMARK VINA RESULT:    -5.010      8.723     10.031
REMARK INTER + INTRA:          -5.010
REMARK INTER:                  -5.010
REMARK INTRA:                   0.000
REMARK UNBOUND:                 0.000
REMARK SMILES CC(C)=C1CC[C@H](C)CC1=O
REMARK SMILES IDX 8 1 7 2 6 3 5 4 4 5 2 6 1 7 3 8 10 9 11 10 9 11
REMARK H PARENT
REMARK Flexibility Score: inf
ROOT
ATOM      1  C   UNL     1      23.619 -24.344  20.190  1.00  0.00     0.008 C 
ATOM      2  C   UNL     1      22.656 -25.312  20.884  1.00  0.00    -0.006 C 
ATOM      3  C   UNL     1      21.376 -25.492  20.053  1.00  0.00     0.008 C 
ATOM      4  C   UNL     1      20.357 -26.378  20.782  1.00  0.00     0.039 C 
ATOM      5  C   UNL     1      20.954 -27.705  21.232  1.00  0.00    -0.006 C 
ATOM      6  C   UNL     1      20.196 -28.839  21.295  1.00  0.00    -0.070 C 
ATOM      7  C   UNL     1      20.790 -30.173  21.685  1.00  0.00     0.039 C 
ATOM      8  C   UNL     1      18.727 -28.821  20.937  1.00  0.00     0.039 C 
ATOM      9  C   UNL     1      22.370 -27.660  21.706  1.00  0.00     0.159 C 
ATOM     10  O   UNL     1      22.782 -28.437  22.607  1.00  0.00    -0.295 OA
ATOM     11  C   UNL     1      23.331 -26.673  21.110  1.00  0.00     0.084 C 
ENDROOT
TORSDOF 0
ENDMDL
MODEL 7
REMARK VINA RESULT:    -4.956      2.520      3.258
REMARK INTER + INTRA:          -4.956
REMARK INTER:                  -4.956
REMARK INTRA:                   0.000
REMARK UNBOUND:                 0.000
REMARK SMILES CC(C)=C1CC[C@H](C)CC1=O
REMARK SMILES IDX 8 1 7 2 6 3 5 4 4 5 2 6 1 7 3 8 10 9 11 10 9 11
REMARK H PARENT
REMARK Flexibility Score: inf
ROOT
ATOM      1  C   UNL     1      16.173 -34.320  24.427  1.00  0.00     0.008 C 
ATOM      2  C   UNL     1      15.538 -33.098  23.755  1.00  0.00    -0.006 C 
ATOM      3  C   UNL     1      14.172 -32.782  24.385  1.00  0.00     0.008 C 
ATOM      4  C   UNL     1      13.476 -31.624  23.657  1.00  0.00     0.039 C 
ATOM      5  C   UNL     1      14.363 -30.392  23.536  1.00  0.00    -0.006 C 
ATOM      6  C   UNL     1      13.834 -29.133  23.540  1.00  0.00    -0.070 C 
ATOM      7  C   UNL     1      14.709 -27.902  23.478  1.00  0.00     0.039 C 
ATOM      8  C   UNL     1      12.342 -28.911  23.646  1.00  0.00     0.039 C 
ATOM      9  C   UNL     1      15.815 -30.651  23.299  1.00  0.00     0.159 C 
ATOM     10  O   UNL     1      16.517 -29.857  22.618  1.00  0.00    -0.295 OA
ATOM     11  C   UNL     1      16.464 -31.878  23.871  1.00  0.00     0.084 C 
ENDROOT
TORSDOF 0
ENDMDL
MODEL 8
REMARK VINA RESULT:    -4.880      2.195      4.793
REMARK INTER + INTRA:          -4.880
REMARK INTER:                  -4.880
REMARK INTRA:                   0.000
REMARK UNBOUND:                 0.000
REMARK SMILES CC(C)=C1CC[C@H](C)CC1=O
REMARK SMILES IDX 8 1 7 2 6 3 5 4 4 5 2 6 1 7 3 8 10 9 11 10 9 11
REMARK H PARENT
REMARK Flexibility Score: inf
ROOT
ATOM      1  C   UNL     1      11.772 -28.395  23.509  1.00  0.00     0.008 C 
ATOM      2  C   UNL     1      12.847 -29.484  23.429  1.00  0.00    -0.006 C 
ATOM      3  C   UNL     1      12.469 -30.541  22.379  1.00  0.00     0.008 C 
ATOM      4  C   UNL     1      13.483 -31.692  22.355  1.00  0.00     0.039 C 
ATOM      5  C   UNL     1      14.918 -31.205  22.204  1.00  0.00    -0.006 C 
ATOM      6  C   UNL     1      15.855 -31.949  21.547  1.00  0.00    -0.070 C 
ATOM      7  C   UNL     1      17.267 -31.450  21.341  1.00  0.00     0.039 C 
ATOM      8  C   UNL     1      15.512 -33.299  20.958  1.00  0.00     0.039 C 
ATOM      9  C   UNL     1      15.256 -29.933  22.912  1.00  0.00     0.159 C 
ATOM     10  O   UNL     1      16.409 -29.730  23.376  1.00  0.00    -0.295 OA
ATOM     11  C   UNL     1      14.212 -28.869  23.086  1.00  0.00     0.084 C 
ENDROOT
TORSDOF 0
ENDMDL
MODEL 9
REMARK VINA RESULT:    -4.857      2.276      2.994
REMARK INTER + INTRA:          -4.857
REMARK INTER:                  -4.857
REMARK INTRA:                   0.000
REMARK UNBOUND:                 0.000
REMARK SMILES CC(C)=C1CC[C@H](C)CC1=O
REMARK SMILES IDX 8 1 7 2 6 3 5 4 4 5 2 6 1 7 3 8 10 9 11 10 9 11
REMARK H PARENT
REMARK Flexibility Score: inf
ROOT
ATOM      1  C   UNL     1      17.967 -28.922  22.083  1.00  0.00     0.008 C 
ATOM      2  C   UNL     1      16.590 -29.303  22.635  1.00  0.00    -0.006 C 
ATOM      3  C   UNL     1      15.729 -28.049  22.857  1.00  0.00     0.008 C 
ATOM      4  C   UNL     1      14.384 -28.403  23.505  1.00  0.00     0.039 C 
ATOM      5  C   UNL     1      13.641 -29.497  22.750  1.00  0.00    -0.006 C 
ATOM      6  C   UNL     1      12.277 -29.532  22.711  1.00  0.00    -0.070 C 
ATOM      7  C   UNL     1      11.529 -30.578  21.918  1.00  0.00     0.039 C 
ATOM      8  C   UNL     1      11.446 -28.495  23.434  1.00  0.00     0.039 C 
ATOM      9  C   UNL     1      14.487 -30.577  22.161  1.00  0.00     0.159 C 
ATOM     10  O   UNL     1      14.062 -31.759  22.061  1.00  0.00    -0.295 OA
ATOM     11  C   UNL     1      15.875 -30.268  21.678  1.00  0.00     0.084 C 
ENDROOT
TORSDOF 0
ENDMDL
