MODEL 1
REMARK VINA RESULT:    -4.036      0.000      0.000
REMARK INTER + INTRA:          -4.036
REMARK INTER:                  -4.036
REMARK INTRA:                   0.000
REMARK UNBOUND:                 0.000
REMARK SMILES O=c1ccc2ccccc2o1
REMARK SMILES IDX 7 1 8 2 9 3 10 4 5 5 6 6 4 7 3 8 2 9 1 10 11 11
REMARK H PARENT
REMARK Flexibility Score: inf
ROOT
ATOM      1  C   UNL     1      64.366  40.720  15.990  1.00  0.00     0.001 A 
ATOM      2  C   UNL     1      63.825  40.682  17.278  1.00  0.00     0.004 A 
ATOM      3  C   UNL     1      63.306  41.844  17.859  1.00  0.00     0.048 A 
ATOM      4  C   UNL     1      63.326  43.051  17.151  1.00  0.00     0.138 A 
ATOM      5  C   UNL     1      63.872  43.090  15.848  1.00  0.00     0.018 A 
ATOM      6  C   UNL     1      64.391  41.922  15.272  1.00  0.00     0.012 A 
ATOM      7  C   UNL     1      63.878  44.309  15.165  1.00  0.00     0.019 A 
ATOM      8  C   UNL     1      63.350  45.443  15.783  1.00  0.00     0.094 A 
ATOM      9  C   UNL     1      62.826  45.329  17.075  1.00  0.00     0.336 A 
ATOM     10  O   UNL     1      62.344  46.340  17.649  1.00  0.00    -0.246 OA
ATOM     11  O   UNL     1      62.832  44.156  17.703  1.00  0.00    -0.423 OA
ENDROOT
TORSDOF 0
ENDMDL
MODEL 2
REMARK VINA RESULT:    -3.903      1.863      3.757
REMARK INTER + INTRA:          -3.903
REMARK INTER:                  -3.903
REMARK INTRA:                   0.000
REMARK UNBOUND:                 0.000
REMARK SMILES O=c1ccc2ccccc2o1
REMARK SMILES IDX 7 1 8 2 9 3 10 4 5 5 6 6 4 7 3 8 2 9 1 10 11 11
REMARK H PARENT
REMARK Flexibility Score: inf
ROOT
ATOM      1  C   UNL     1      61.789  45.692  17.590  1.00  0.00     0.001 A 
ATOM      2  C   UNL     1      61.681  44.723  18.592  1.00  0.00     0.004 A 
ATOM      3  C   UNL     1      62.264  43.463  18.418  1.00  0.00     0.048 A 
ATOM      4  C   UNL     1      62.958  43.169  17.238  1.00  0.00     0.138 A 
ATOM      5  C   UNL     1      63.066  44.148  16.226  1.00  0.00     0.018 A 
ATOM      6  C   UNL     1      62.479  45.408  16.406  1.00  0.00     0.012 A 
ATOM      7  C   UNL     1      63.765  43.825  15.059  1.00  0.00     0.019 A 
ATOM      8  C   UNL     1      64.329  42.557  14.928  1.00  0.00     0.094 A 
ATOM      9  C   UNL     1      64.182  41.637  15.973  1.00  0.00     0.336 A 
ATOM     10  O   UNL     1      64.685  40.488  15.874  1.00  0.00    -0.246 OA
ATOM     11  O   UNL     1      63.512  41.970  17.074  1.00  0.00    -0.423 OA
ENDROOT
TORSDOF 0
ENDMDL
MODEL 3
REMARK VINA RESULT:    -3.883     15.864     16.515
REMARK INTER + INTRA:          -3.883
REMARK INTER:                  -3.883
REMARK INTRA:                   0.000
REMARK UNBOUND:                 0.000
REMARK SMILES O=c1ccc2ccccc2o1
REMARK SMILES IDX 7 1 8 2 9 3 10 4 5 5 6 6 4 7 3 8 2 9 1 10 11 11
REMARK H PARENT
REMARK Flexibility Score: inf
ROOT
ATOM      1  C   UNL     1      45.791  41.853  14.876  1.00  0.00     0.001 A 
ATOM      2  C   UNL     1      44.878  42.778  15.390  1.00  0.00     0.004 A 
ATOM      3  C   UNL     1      45.281  44.093  15.652  1.00  0.00     0.048 A 
ATOM      4  C   UNL     1      46.600  44.485  15.400  1.00  0.00     0.138 A 
ATOM      5  C   UNL     1      47.523  43.550  14.880  1.00  0.00     0.018 A 
ATOM      6  C   UNL     1      47.113  42.234  14.621  1.00  0.00     0.012 A 
ATOM      7  C   UNL     1      48.833  43.971  14.638  1.00  0.00     0.019 A 
ATOM      8  C   UNL     1      49.190  45.291  14.915  1.00  0.00     0.094 A 
ATOM      9  C   UNL     1      48.223  46.162  15.428  1.00  0.00     0.336 A 
ATOM     10  O   UNL     1      48.525  47.356  15.683  1.00  0.00    -0.246 OA
ATOM     11  O   UNL     1      46.981  45.736  15.649  1.00  0.00    -0.423 OA
ENDROOT
TORSDOF 0
ENDMDL
MODEL 4
REMARK VINA RESULT:    -3.793     16.764     17.370
REMARK INTER + INTRA:          -3.793
REMARK INTER:                  -3.793
REMARK INTRA:                   0.000
REMARK UNBOUND:                 0.000
REMARK SMILES O=c1ccc2ccccc2o1
REMARK SMILES IDX 7 1 8 2 9 3 10 4 5 5 6 6 4 7 3 8 2 9 1 10 11 11
REMARK H PARENT
REMARK Flexibility Score: inf
ROOT
ATOM      1  C   UNL     1      46.762  41.851  14.344  1.00  0.00     0.001 A 
ATOM      2  C   UNL     1      45.473  41.756  14.878  1.00  0.00     0.004 A 
ATOM      3  C   UNL     1      44.922  42.831  15.583  1.00  0.00     0.048 A 
ATOM      4  C   UNL     1      45.661  44.007  15.759  1.00  0.00     0.138 A 
ATOM      5  C   UNL     1      46.964  44.103  15.220  1.00  0.00     0.018 A 
ATOM      6  C   UNL     1      47.510  43.021  14.514  1.00  0.00     0.012 A 
ATOM      7  C   UNL     1      47.678  45.289  15.411  1.00  0.00     0.019 A 
ATOM      8  C   UNL     1      47.089  46.335  16.121  1.00  0.00     0.094 A 
ATOM      9  C   UNL     1      45.795  46.169  16.625  1.00  0.00     0.336 A 
ATOM     10  O   UNL     1      45.247  47.102  17.268  1.00  0.00    -0.246 OA
ATOM     11  O   UNL     1      45.136  45.029  16.429  1.00  0.00    -0.423 OA
ENDROOT
TORSDOF 0
ENDMDL
MODEL 5
REMARK VINA RESULT:    -3.734     13.731     14.919
REMARK INTER + INTRA:          -3.734
REMARK INTER:                  -3.734
REMARK INTRA:                   0.000
REMARK UNBOUND:                 0.000
REMARK SMILES O=c1ccc2ccccc2o1
REMARK SMILES IDX 7 1 8 2 9 3 10 4 5 5 6 6 4 7 3 8 2 9 1 10 11 11
REMARK H PARENT
REMARK Flexibility Score: inf
ROOT
ATOM      1  C   UNL     1      51.519  48.853  12.624  1.00  0.00     0.001 A 
ATOM      2  C   UNL     1      50.444  49.662  13.003  1.00  0.00     0.004 A 
ATOM      3  C   UNL     1      49.394  49.130  13.760  1.00  0.00     0.048 A 
ATOM      4  C   UNL     1      49.417  47.784  14.141  1.00  0.00     0.138 A 
ATOM      5  C   UNL     1      50.504  46.966  13.759  1.00  0.00     0.018 A 
ATOM      6  C   UNL     1      51.552  47.505  13.000  1.00  0.00     0.012 A 
ATOM      7  C   UNL     1      50.499  45.625  14.154  1.00  0.00     0.019 A 
ATOM      8  C   UNL     1      49.432  45.138  14.908  1.00  0.00     0.094 A 
ATOM      9  C   UNL     1      48.390  46.007  15.250  1.00  0.00     0.336 A 
ATOM     10  O   UNL     1      47.419  45.586  15.930  1.00  0.00    -0.246 OA
ATOM     11  O   UNL     1      48.419  47.279  14.861  1.00  0.00    -0.423 OA
ENDROOT
TORSDOF 0
ENDMDL
MODEL 6
REMARK VINA RESULT:    -3.714     13.792     14.691
REMARK INTER + INTRA:          -3.714
REMARK INTER:                  -3.714
REMARK INTRA:                   0.000
REMARK UNBOUND:                 0.000
REMARK SMILES O=c1ccc2ccccc2o1
REMARK SMILES IDX 7 1 8 2 9 3 10 4 5 5 6 6 4 7 3 8 2 9 1 10 11 11
REMARK H PARENT
REMARK Flexibility Score: inf
ROOT
ATOM      1  C   UNL     1      49.480  44.168  15.510  1.00  0.00     0.001 A 
ATOM      2  C   UNL     1      48.283  44.761  15.922  1.00  0.00     0.004 A 
ATOM      3  C   UNL     1      47.990  46.081  15.560  1.00  0.00     0.048 A 
ATOM      4  C   UNL     1      48.896  46.811  14.782  1.00  0.00     0.138 A 
ATOM      5  C   UNL     1      50.105  46.212  14.365  1.00  0.00     0.018 A 
ATOM      6  C   UNL     1      50.393  44.889  14.732  1.00  0.00     0.012 A 
ATOM      7  C   UNL     1      50.990  46.966  13.590  1.00  0.00     0.019 A 
ATOM      8  C   UNL     1      50.657  48.278  13.252  1.00  0.00     0.094 A 
ATOM      9  C   UNL     1      49.441  48.806  13.701  1.00  0.00     0.336 A 
ATOM     10  O   UNL     1      49.123  49.987  13.406  1.00  0.00    -0.246 OA
ATOM     11  O   UNL     1      48.616  48.066  14.438  1.00  0.00    -0.423 OA
ENDROOT
TORSDOF 0
ENDMDL
MODEL 7
REMARK VINA RESULT:    -3.689     16.412     17.099
REMARK INTER + INTRA:          -3.689
REMARK INTER:                  -3.689
REMARK INTRA:                   0.000
REMARK UNBOUND:                 0.000
REMARK SMILES O=c1ccc2ccccc2o1
REMARK SMILES IDX 7 1 8 2 9 3 10 4 5 5 6 6 4 7 3 8 2 9 1 10 11 11
REMARK H PARENT
REMARK Flexibility Score: inf
ROOT
ATOM      1  C   UNL     1      45.412  41.829  14.938  1.00  0.00     0.001 A 
ATOM      2  C   UNL     1      46.705  41.804  14.405  1.00  0.00     0.004 A 
ATOM      3  C   UNL     1      47.534  42.925  14.517  1.00  0.00     0.048 A 
ATOM      4  C   UNL     1      47.072  44.078  15.162  1.00  0.00     0.138 A 
ATOM      5  C   UNL     1      45.765  44.103  15.701  1.00  0.00     0.018 A 
ATOM      6  C   UNL     1      44.939  42.977  15.585  1.00  0.00     0.012 A 
ATOM      7  C   UNL     1      45.331  45.268  16.340  1.00  0.00     0.019 A 
ATOM      8  C   UNL     1      46.192  46.362  16.427  1.00  0.00     0.094 A 
ATOM      9  C   UNL     1      47.473  46.264  15.872  1.00  0.00     0.336 A 
ATOM     10  O   UNL     1      48.264  47.240  15.941  1.00  0.00    -0.246 OA
ATOM     11  O   UNL     1      47.861  45.143  15.269  1.00  0.00    -0.423 OA
ENDROOT
TORSDOF 0
ENDMDL
MODEL 8
REMARK VINA RESULT:    -3.672     13.568     14.723
REMARK INTER + INTRA:          -3.672
REMARK INTER:                  -3.672
REMARK INTRA:                   0.000
REMARK UNBOUND:                 0.000
REMARK SMILES O=c1ccc2ccccc2o1
REMARK SMILES IDX 7 1 8 2 9 3 10 4 5 5 6 6 4 7 3 8 2 9 1 10 11 11
REMARK H PARENT
REMARK Flexibility Score: inf
ROOT
ATOM      1  C   UNL     1      49.031  46.273  15.512  1.00  0.00     0.001 A 
ATOM      2  C   UNL     1      50.173  45.679  14.968  1.00  0.00     0.004 A 
ATOM      3  C   UNL     1      50.920  46.351  13.994  1.00  0.00     0.048 A 
ATOM      4  C   UNL     1      50.525  47.622  13.560  1.00  0.00     0.138 A 
ATOM      5  C   UNL     1      49.371  48.223  14.111  1.00  0.00     0.018 A 
ATOM      6  C   UNL     1      48.627  47.544  15.086  1.00  0.00     0.012 A 
ATOM      7  C   UNL     1      49.001  49.493  13.659  1.00  0.00     0.019 A 
ATOM      8  C   UNL     1      49.775  50.125  12.686  1.00  0.00     0.094 A 
ATOM      9  C   UNL     1      50.906  49.469  12.187  1.00  0.00     0.336 A 
ATOM     10  O   UNL     1      51.617  50.024  11.309  1.00  0.00    -0.246 OA
ATOM     11  O   UNL     1      51.236  48.260  12.635  1.00  0.00    -0.423 OA
ENDROOT
TORSDOF 0
ENDMDL
MODEL 9
REMARK VINA RESULT:    -3.669     15.028     15.973
REMARK INTER + INTRA:          -3.669
REMARK INTER:                  -3.669
REMARK INTRA:                   0.000
REMARK UNBOUND:                 0.000
REMARK SMILES O=c1ccc2ccccc2o1
REMARK SMILES IDX 7 1 8 2 9 3 10 4 5 5 6 6 4 7 3 8 2 9 1 10 11 11
REMARK H PARENT
REMARK Flexibility Score: inf
ROOT
ATOM      1  C   UNL     1      50.546  46.224  14.551  1.00  0.00     0.001 A 
ATOM      2  C   UNL     1      49.697  47.238  15.006  1.00  0.00     0.004 A 
ATOM      3  C   UNL     1      48.373  46.944  15.352  1.00  0.00     0.048 A 
ATOM      4  C   UNL     1      47.894  45.634  15.245  1.00  0.00     0.138 A 
ATOM      5  C   UNL     1      48.752  44.609  14.785  1.00  0.00     0.018 A 
ATOM      6  C   UNL     1      50.077  44.910  14.439  1.00  0.00     0.012 A 
ATOM      7  C   UNL     1      48.246  43.310  14.688  1.00  0.00     0.019 A 
ATOM      8  C   UNL     1      46.920  43.064  15.045  1.00  0.00     0.094 A 
ATOM      9  C   UNL     1      46.129  44.128  15.492  1.00  0.00     0.336 A 
ATOM     10  O   UNL     1      44.931  43.926  15.818  1.00  0.00    -0.246 OA
ATOM     11  O   UNL     1      46.636  45.356  15.575  1.00  0.00    -0.423 OA
ENDROOT
TORSDOF 0
ENDMDL
