MODEL 1
REMARK VINA RESULT:    -3.928      0.000      0.000
REMARK INTER + INTRA:          -4.518
REMARK INTER:                  -4.272
REMARK INTRA:                  -0.246
REMARK UNBOUND:                -0.246
REMARK SMILES O=C([O-])c1ccccc1O
REMARK SMILES IDX 4 1 9 2 5 3 8 4 6 5 7 6 2 7 1 8 3 9 10 10
REMARK H PARENT 10 11
REMARK Flexibility Score: inf
ROOT
ATOM      1  C   UNL     1      29.390  -6.605 -31.183  1.00  0.00     0.039 A 
ATOM      2  C   UNL     1      28.531  -7.727 -31.307  1.00  0.00     0.124 A 
ATOM      3  C   UNL     1      29.033  -5.568 -30.301  1.00  0.00     0.014 A 
ATOM      4  C   UNL     1      27.321  -7.754 -30.602  1.00  0.00     0.047 A 
ATOM      5  C   UNL     1      27.832  -5.620 -29.590  1.00  0.00     0.001 A 
ATOM      6  C   UNL     1      26.972  -6.706 -29.748  1.00  0.00     0.004 A 
ENDROOT
BRANCH   1   7
ATOM      7  C   UNL     1      30.632  -6.464 -31.976  1.00  0.00     0.075 C 
ATOM      8  O   UNL     1      30.818  -5.439 -32.684  1.00  0.00    -0.545 OA
ATOM      9  O   UNL     1      31.576  -7.483 -32.006  1.00  0.00    -0.545 OA
ENDBRANCH   1   7
BRANCH   2  10
ATOM     10  O   UNL     1      28.857  -8.841 -32.083  1.00  0.00    -0.507 OA
ATOM     11  H   UNL     1      29.093  -9.742 -31.691  1.00  0.00     0.293 HD
ENDBRANCH   2  10
TORSDOF 2
ENDMDL
MODEL 2
REMARK VINA RESULT:    -3.796      1.880      3.427
REMARK INTER + INTRA:          -4.374
REMARK INTER:                  -4.151
REMARK INTRA:                  -0.223
REMARK UNBOUND:                -0.246
REMARK SMILES O=C([O-])c1ccccc1O
REMARK SMILES IDX 4 1 9 2 5 3 8 4 6 5 7 6 2 7 1 8 3 9 10 10
REMARK H PARENT 10 11
REMARK Flexibility Score: inf
ROOT
ATOM      1  C   UNL     1      28.326  -6.696 -30.507  1.00  0.00     0.039 A 
ATOM      2  C   UNL     1      29.028  -7.492 -31.448  1.00  0.00     0.124 A 
ATOM      3  C   UNL     1      28.802  -5.403 -30.219  1.00  0.00     0.014 A 
ATOM      4  C   UNL     1      30.208  -7.005 -32.024  1.00  0.00     0.047 A 
ATOM      5  C   UNL     1      29.970  -4.925 -30.818  1.00  0.00     0.001 A 
ATOM      6  C   UNL     1      30.677  -5.728 -31.711  1.00  0.00     0.004 A 
ENDROOT
BRANCH   1   7
ATOM      7  C   UNL     1      27.132  -7.189 -29.785  1.00  0.00     0.075 C 
ATOM      8  O   UNL     1      26.422  -6.390 -29.118  1.00  0.00    -0.545 OA
ATOM      9  O   UNL     1      26.813  -8.541 -29.776  1.00  0.00    -0.545 OA
ENDBRANCH   1   7
BRANCH   2  10
ATOM     10  O   UNL     1      28.571  -8.744 -31.863  1.00  0.00    -0.507 OA
ATOM     11  H   UNL     1      29.046  -9.610 -31.647  1.00  0.00     0.293 HD
ENDBRANCH   2  10
TORSDOF 2
ENDMDL
MODEL 3
REMARK VINA RESULT:    -3.740      1.302      2.002
REMARK INTER + INTRA:          -4.314
REMARK INTER:                  -4.064
REMARK INTRA:                  -0.250
REMARK UNBOUND:                -0.246
REMARK SMILES O=C([O-])c1ccccc1O
REMARK SMILES IDX 4 1 9 2 5 3 8 4 6 5 7 6 2 7 1 8 3 9 10 10
REMARK H PARENT 10 11
REMARK Flexibility Score: inf
ROOT
ATOM      1  C   UNL     1      28.539  -7.028 -30.665  1.00  0.00     0.039 A 
ATOM      2  C   UNL     1      27.401  -7.476 -29.946  1.00  0.00     0.124 A 
ATOM      3  C   UNL     1      28.977  -5.702 -30.489  1.00  0.00     0.014 A 
ATOM      4  C   UNL     1      26.702  -6.580 -29.127  1.00  0.00     0.047 A 
ATOM      5  C   UNL     1      28.280  -4.827 -29.652  1.00  0.00     0.001 A 
ATOM      6  C   UNL     1      27.139  -5.263 -28.981  1.00  0.00     0.004 A 
ENDROOT
BRANCH   1   7
ATOM      7  C   UNL     1      29.262  -7.891 -31.625  1.00  0.00     0.075 C 
ATOM      8  O   UNL     1      28.621  -8.604 -32.442  1.00  0.00    -0.545 OA
ATOM      9  O   UNL     1      30.648  -7.981 -31.596  1.00  0.00    -0.545 OA
ENDBRANCH   1   7
BRANCH   2  10
ATOM     10  O   UNL     1      26.959  -8.799 -29.987  1.00  0.00    -0.507 OA
ATOM     11  H   UNL     1      26.001  -9.061 -30.179  1.00  0.00     0.293 HD
ENDBRANCH   2  10
TORSDOF 2
ENDMDL
MODEL 4
REMARK VINA RESULT:    -3.696      2.715      4.148
REMARK INTER + INTRA:          -4.266
REMARK INTER:                  -4.069
REMARK INTRA:                  -0.197
REMARK UNBOUND:                -0.246
REMARK SMILES O=C([O-])c1ccccc1O
REMARK SMILES IDX 4 1 9 2 5 3 8 4 6 5 7 6 2 7 1 8 3 9 10 10
REMARK H PARENT 10 11
REMARK Flexibility Score: inf
ROOT
ATOM      1  C   UNL     1      30.789  -7.874 -30.874  1.00  0.00     0.039 A 
ATOM      2  C   UNL     1      31.061  -8.195 -29.520  1.00  0.00     0.124 A 
ATOM      3  C   UNL     1      31.865  -7.738 -31.772  1.00  0.00     0.014 A 
ATOM      4  C   UNL     1      32.389  -8.309 -29.089  1.00  0.00     0.047 A 
ATOM      5  C   UNL     1      33.183  -7.875 -31.329  1.00  0.00     0.001 A 
ATOM      6  C   UNL     1      33.445  -8.151 -29.988  1.00  0.00     0.004 A 
ENDROOT
BRANCH   1   7
ATOM      7  C   UNL     1      29.416  -7.637 -31.373  1.00  0.00     0.075 C 
ATOM      8  O   UNL     1      28.730  -6.687 -30.911  1.00  0.00    -0.545 OA
ATOM      9  O   UNL     1      28.840  -8.493 -32.304  1.00  0.00    -0.545 OA
ENDBRANCH   1   7
BRANCH   2  10
ATOM     10  O   UNL     1      30.052  -8.444 -28.589  1.00  0.00    -0.507 OA
ATOM     11  H   UNL     1      30.232  -8.720 -27.633  1.00  0.00     0.293 HD
ENDBRANCH   2  10
TORSDOF 2
ENDMDL
MODEL 5
REMARK VINA RESULT:    -3.659      1.898      3.943
REMARK INTER + INTRA:          -4.225
REMARK INTER:                  -3.978
REMARK INTRA:                  -0.248
REMARK UNBOUND:                -0.246
REMARK SMILES O=C([O-])c1ccccc1O
REMARK SMILES IDX 4 1 9 2 5 3 8 4 6 5 7 6 2 7 1 8 3 9 10 10
REMARK H PARENT 10 11
REMARK Flexibility Score: inf
ROOT
ATOM      1  C   UNL     1      30.354  -6.597 -31.761  1.00  0.00     0.039 A 
ATOM      2  C   UNL     1      31.168  -7.748 -31.608  1.00  0.00     0.124 A 
ATOM      3  C   UNL     1      30.897  -5.456 -32.381  1.00  0.00     0.014 A 
ATOM      4  C   UNL     1      32.507  -7.709 -32.018  1.00  0.00     0.047 A 
ATOM      5  C   UNL     1      32.229  -5.441 -32.802  1.00  0.00     0.001 A 
ATOM      6  C   UNL     1      33.035  -6.562 -32.613  1.00  0.00     0.004 A 
ENDROOT
BRANCH   1   7
ATOM      7  C   UNL     1      28.964  -6.535 -31.257  1.00  0.00     0.075 C 
ATOM      8  O   UNL     1      28.147  -7.452 -31.540  1.00  0.00    -0.545 OA
ATOM      9  O   UNL     1      28.520  -5.440 -30.525  1.00  0.00    -0.545 OA
ENDBRANCH   1   7
BRANCH   2  10
ATOM     10  O   UNL     1      30.680  -8.951 -31.095  1.00  0.00    -0.507 OA
ATOM     11  H   UNL     1      30.016  -9.536 -31.583  1.00  0.00     0.293 HD
ENDBRANCH   2  10
TORSDOF 2
ENDMDL
MODEL 6
REMARK VINA RESULT:    -3.653     12.785     14.260
REMARK INTER + INTRA:          -4.219
REMARK INTER:                  -3.969
REMARK INTRA:                  -0.250
REMARK UNBOUND:                -0.246
REMARK SMILES O=C([O-])c1ccccc1O
REMARK SMILES IDX 4 1 9 2 5 3 8 4 6 5 7 6 2 7 1 8 3 9 10 10
REMARK H PARENT 10 11
REMARK Flexibility Score: inf
ROOT
ATOM      1  C   UNL     1      23.270   4.432 -25.737  1.00  0.00     0.039 A 
ATOM      2  C   UNL     1      23.708   5.412 -26.665  1.00  0.00     0.124 A 
ATOM      3  C   UNL     1      23.505   4.641 -24.365  1.00  0.00     0.014 A 
ATOM      4  C   UNL     1      24.416   6.531 -26.208  1.00  0.00     0.047 A 
ATOM      5  C   UNL     1      24.195   5.772 -23.925  1.00  0.00     0.001 A 
ATOM      6  C   UNL     1      24.659   6.711 -24.846  1.00  0.00     0.004 A 
ENDROOT
BRANCH   1   7
ATOM      7  C   UNL     1      22.608   3.178 -26.160  1.00  0.00     0.075 C 
ATOM      8  O   UNL     1      22.996   2.577 -27.196  1.00  0.00    -0.545 OA
ATOM      9  O   UNL     1      21.511   2.683 -25.465  1.00  0.00    -0.545 OA
ENDBRANCH   1   7
BRANCH   2  10
ATOM     10  O   UNL     1      23.430   5.331 -28.030  1.00  0.00    -0.507 OA
ATOM     11  H   UNL     1      23.442   6.131 -28.649  1.00  0.00     0.293 HD
ENDBRANCH   2  10
TORSDOF 2
ENDMDL
MODEL 7
REMARK VINA RESULT:    -3.624      3.795      4.587
REMARK INTER + INTRA:          -4.188
REMARK INTER:                  -3.944
REMARK INTRA:                  -0.244
REMARK UNBOUND:                -0.246
REMARK SMILES O=C([O-])c1ccccc1O
REMARK SMILES IDX 4 1 9 2 5 3 8 4 6 5 7 6 2 7 1 8 3 9 10 10
REMARK H PARENT 10 11
REMARK Flexibility Score: inf
ROOT
ATOM      1  C   UNL     1      32.207  -8.143 -29.837  1.00  0.00     0.039 A 
ATOM      2  C   UNL     1      31.347  -8.370 -28.732  1.00  0.00     0.124 A 
ATOM      3  C   UNL     1      33.598  -8.128 -29.625  1.00  0.00     0.014 A 
ATOM      4  C   UNL     1      31.891  -8.512 -27.449  1.00  0.00     0.047 A 
ATOM      5  C   UNL     1      34.125  -8.292 -28.342  1.00  0.00     0.001 A 
ATOM      6  C   UNL     1      33.272  -8.474 -27.254  1.00  0.00     0.004 A 
ENDROOT
BRANCH   1   7
ATOM      7  C   UNL     1      31.695  -7.883 -31.201  1.00  0.00     0.075 C 
ATOM      8  O   UNL     1      30.681  -8.500 -31.624  1.00  0.00    -0.545 OA
ATOM      9  O   UNL     1      32.357  -7.010 -32.055  1.00  0.00    -0.545 OA
ENDBRANCH   1   7
BRANCH   2  10
ATOM     10  O   UNL     1      29.964  -8.498 -28.869  1.00  0.00    -0.507 OA
ATOM     11  H   UNL     1      29.511  -8.754 -29.737  1.00  0.00     0.293 HD
ENDBRANCH   2  10
TORSDOF 2
ENDMDL
MODEL 8
REMARK VINA RESULT:    -3.518      1.053      2.512
REMARK INTER + INTRA:          -4.073
REMARK INTER:                  -3.820
REMARK INTRA:                  -0.252
REMARK UNBOUND:                -0.246
REMARK SMILES O=C([O-])c1ccccc1O
REMARK SMILES IDX 4 1 9 2 5 3 8 4 6 5 7 6 2 7 1 8 3 9 10 10
REMARK H PARENT 10 11
REMARK Flexibility Score: inf
ROOT
ATOM      1  C   UNL     1      28.583  -7.171 -30.780  1.00  0.00     0.039 A 
ATOM      2  C   UNL     1      28.908  -5.812 -30.537  1.00  0.00     0.124 A 
ATOM      3  C   UNL     1      27.468  -7.731 -30.130  1.00  0.00     0.014 A 
ATOM      4  C   UNL     1      28.157  -5.074 -29.613  1.00  0.00     0.047 A 
ATOM      5  C   UNL     1      26.717  -6.976 -29.227  1.00  0.00     0.001 A 
ATOM      6  C   UNL     1      27.066  -5.653 -28.961  1.00  0.00     0.004 A 
ENDROOT
BRANCH   1   7
ATOM      7  C   UNL     1      29.396  -8.035 -31.664  1.00  0.00     0.075 C 
ATOM      8  O   UNL     1      28.838  -8.901 -32.389  1.00  0.00    -0.545 OA
ATOM      9  O   UNL     1      30.783  -7.953 -31.660  1.00  0.00    -0.545 OA
ENDBRANCH   1   7
BRANCH   2  10
ATOM     10  O   UNL     1      29.936  -5.152 -31.213  1.00  0.00    -0.507 OA
ATOM     11  H   UNL     1      30.221  -4.205 -31.004  1.00  0.00     0.293 HD
ENDBRANCH   2  10
TORSDOF 2
ENDMDL
MODEL 9
REMARK VINA RESULT:    -3.498      2.478      3.099
REMARK INTER + INTRA:          -4.051
REMARK INTER:                  -3.801
REMARK INTRA:                  -0.250
REMARK UNBOUND:                -0.246
REMARK SMILES O=C([O-])c1ccccc1O
REMARK SMILES IDX 4 1 9 2 5 3 8 4 6 5 7 6 2 7 1 8 3 9 10 10
REMARK H PARENT 10 11
REMARK Flexibility Score: inf
ROOT
ATOM      1  C   UNL     1      30.388  -7.939 -30.119  1.00  0.00     0.039 A 
ATOM      2  C   UNL     1      29.381  -7.667 -29.158  1.00  0.00     0.124 A 
ATOM      3  C   UNL     1      30.045  -7.937 -31.484  1.00  0.00     0.014 A 
ATOM      4  C   UNL     1      28.060  -7.465 -29.577  1.00  0.00     0.047 A 
ATOM      5  C   UNL     1      28.726  -7.714 -31.886  1.00  0.00     0.001 A 
ATOM      6  C   UNL     1      27.733  -7.488 -30.933  1.00  0.00     0.004 A 
ENDROOT
BRANCH   1   7
ATOM      7  C   UNL     1      31.781  -8.263 -29.739  1.00  0.00     0.075 C 
ATOM      8  O   UNL     1      32.010  -8.989 -28.736  1.00  0.00    -0.545 OA
ATOM      9  O   UNL     1      32.853  -7.720 -30.437  1.00  0.00    -0.545 OA
ENDBRANCH   1   7
BRANCH   2  10
ATOM     10  O   UNL     1      29.655  -7.553 -27.794  1.00  0.00    -0.507 OA
ATOM     11  H   UNL     1      29.206  -8.118 -27.086  1.00  0.00     0.293 HD
ENDBRANCH   2  10
TORSDOF 2
ENDMDL
