MODEL 1
REMARK VINA RESULT:    -2.287      0.000      0.000
REMARK INTER + INTRA:          -2.146
REMARK INTER:                  -2.821
REMARK INTRA:                   0.675
REMARK UNBOUND:                 0.675
REMARK SMILES C=C1[C@@H]2CC[C@H]3[C@@H]2C(C)(C)CCC[C@@]13C
REMARK SMILES IDX 14 1 6 2 7 3 3 4 2 5 1 6 4 7 5 8 15 9 8 10 9 11 10 12 11 13
REMARK SMILES IDX 13 15 12 16
REMARK H PARENT
REMARK Flexibility Score: 80.00
ROOT
ATOM      1  C   UNL     1     166.479 173.924 139.408  1.00  0.00    -0.008 C 
ATOM      2  C   UNL     1     167.188 174.576 138.164  1.00  0.00     0.003 C 
ATOM      3  C   UNL     1     168.612 174.004 138.234  1.00  0.00     0.006 C 
ATOM      4  C   UNL     1     168.846 174.500 139.663  1.00  0.00     0.019 C 
ATOM      5  C   UNL     1     167.639 173.954 140.376  1.00  0.00    -0.068 C 
ATOM      6  C   UNL     1     167.598 173.636 141.676  1.00  0.00     0.009 C 
ATOM      7  C   UNL     1     168.601 176.014 139.510  1.00  0.00     0.008 C 
ATOM      8  C   UNL     1     167.501 176.075 138.429  1.00  0.00     0.005 C 
ATOM      9  C   UNL     1     165.295 174.768 139.949  1.00  0.00     0.016 C 
ENDROOT
BRANCH   3  10
ATOM     10  C   UNL     1     168.840 172.459 137.920  1.00  0.00    -0.032 C 
ATOM     11  C   UNL     1     170.043 172.361 136.940  1.00  0.00     0.011 C 
ATOM     12  C   UNL     1     169.266 171.600 139.144  1.00  0.00     0.011 C 
BRANCH  10  13
ATOM     13  C   UNL     1     167.633 171.798 137.178  1.00  0.00     0.007 CG0
ATOM     14  G   UNL     1     166.200 171.873 137.767  1.00  0.00     0.000 G0
ENDBRANCH  10  13
ENDBRANCH   3  10
BRANCH   1  15
ATOM     15  C   UNL     1     165.999 172.451 139.164  1.00  0.00     0.011 C 
BRANCH  15  16
ATOM     16  C   UNL     1     166.208 171.877 137.756  1.00  0.00     0.001 CG0
ATOM     17  G   UNL     1     167.648 171.800 137.183  1.00  0.00     0.000 G0
ENDBRANCH  15  16
ENDBRANCH   1  15
TORSDOF 0
ENDMDL
MODEL 2
REMARK VINA RESULT:    -2.105     14.137     15.794
REMARK INTER + INTRA:          -1.922
REMARK INTER:                  -2.581
REMARK INTRA:                   0.659
REMARK UNBOUND:                 0.675
REMARK SMILES C=C1[C@@H]2CC[C@H]3[C@@H]2C(C)(C)CCC[C@@]13C
REMARK SMILES IDX 14 1 6 2 7 3 3 4 2 5 1 6 4 7 5 8 15 9 8 10 9 11 10 12 11 13
REMARK SMILES IDX 13 15 12 16
REMARK H PARENT
REMARK Flexibility Score: 80.00
ROOT
ATOM      1  C   UNL     1     163.603 158.827 139.022  1.00  0.00    -0.008 C 
ATOM      2  C   UNL     1     163.371 157.527 139.877  1.00  0.00     0.003 C 
ATOM      3  C   UNL     1     164.691 157.377 140.649  1.00  0.00     0.006 C 
ATOM      4  C   UNL     1     165.546 157.381 139.381  1.00  0.00     0.019 C 
ATOM      5  C   UNL     1     165.064 158.628 138.692  1.00  0.00    -0.068 C 
ATOM      6  C   UNL     1     165.800 159.374 137.859  1.00  0.00     0.009 C 
ATOM      7  C   UNL     1     164.944 156.200 138.595  1.00  0.00     0.008 C 
ATOM      8  C   UNL     1     163.451 156.257 138.984  1.00  0.00     0.005 C 
ATOM      9  C   UNL     1     162.751 158.867 137.726  1.00  0.00     0.016 C 
ENDROOT
BRANCH   3  10
ATOM     10  C   UNL     1     165.034 158.423 141.801  1.00  0.00    -0.032 C 
ATOM     11  C   UNL     1     165.502 157.607 143.039  1.00  0.00     0.011 C 
ATOM     12  C   UNL     1     166.227 159.370 141.487  1.00  0.00     0.011 C 
BRANCH  10  13
ATOM     13  C   UNL     1     163.791 159.243 142.278  1.00  0.00     0.007 CG0
ATOM     14  G   UNL     1     162.929 160.040 141.265  1.00  0.00     0.000 G0
ENDBRANCH  10  13
ENDBRANCH   3  10
BRANCH   1  15
ATOM     15  C   UNL     1     163.392 160.159 139.824  1.00  0.00     0.011 C 
BRANCH  15  16
ATOM     16  C   UNL     1     162.912 160.027 141.275  1.00  0.00     0.001 CG0
ATOM     17  G   UNL     1     163.789 159.245 142.288  1.00  0.00     0.000 G0
ENDBRANCH  15  16
ENDBRANCH   1  15
TORSDOF 0
ENDMDL
MODEL 3
REMARK VINA RESULT:    -1.923     12.940     15.001
REMARK INTER + INTRA:          -1.697
REMARK INTER:                  -2.362
REMARK INTRA:                   0.664
REMARK UNBOUND:                 0.675
REMARK SMILES C=C1[C@@H]2CC[C@H]3[C@@H]2C(C)(C)CCC[C@@]13C
REMARK SMILES IDX 14 1 6 2 7 3 3 4 2 5 1 6 4 7 5 8 15 9 8 10 9 11 10 12 11 13
REMARK SMILES IDX 13 15 12 16
REMARK H PARENT
REMARK Flexibility Score: 80.00
ROOT
ATOM      1  C   UNL     1     165.302 158.748 139.193  1.00  0.00    -0.008 C 
ATOM      2  C   UNL     1     164.341 158.339 138.017  1.00  0.00     0.003 C 
ATOM      3  C   UNL     1     162.969 158.839 138.495  1.00  0.00     0.006 C 
ATOM      4  C   UNL     1     163.034 158.058 139.809  1.00  0.00     0.019 C 
ATOM      5  C   UNL     1     164.369 158.486 140.353  1.00  0.00    -0.068 C 
ATOM      6  C   UNL     1     164.684 158.537 141.654  1.00  0.00     0.009 C 
ATOM      7  C   UNL     1     163.223 156.614 139.304  1.00  0.00     0.008 C 
ATOM      8  C   UNL     1     164.073 156.808 138.029  1.00  0.00     0.005 C 
ATOM      9  C   UNL     1     166.562 157.850 139.294  1.00  0.00     0.016 C 
ENDROOT
BRANCH   3  10
ATOM     10  C   UNL     1     162.699 160.408 138.557  1.00  0.00    -0.032 C 
ATOM     11  C   UNL     1     161.316 160.663 137.894  1.00  0.00     0.011 C 
ATOM     12  C   UNL     1     162.554 160.989 139.992  1.00  0.00     0.011 C 
BRANCH  10  13
ATOM     13  C   UNL     1     163.728 161.243 137.727  1.00  0.00     0.007 CG0
ATOM     14  G   UNL     1     165.253 161.085 137.962  1.00  0.00     0.000 G0
ENDBRANCH  10  13
ENDBRANCH   3  10
BRANCH   1  15
ATOM     15  C   UNL     1     165.737 160.254 139.161  1.00  0.00     0.011 C 
BRANCH  15  16
ATOM     16  C   UNL     1     165.263 161.089 137.963  1.00  0.00     0.001 CG0
ATOM     17  G   UNL     1     163.740 161.252 137.717  1.00  0.00     0.000 G0
ENDBRANCH  15  16
ENDBRANCH   1  15
TORSDOF 0
ENDMDL
MODEL 4
REMARK VINA RESULT:    -1.917      1.634      2.216
REMARK INTER + INTRA:          -1.690
REMARK INTER:                  -2.339
REMARK INTRA:                   0.650
REMARK UNBOUND:                 0.675
REMARK SMILES C=C1[C@@H]2CC[C@H]3[C@@H]2C(C)(C)CCC[C@@]13C
REMARK SMILES IDX 14 1 6 2 7 3 3 4 2 5 1 6 4 7 5 8 15 9 8 10 9 11 10 12 11 13
REMARK SMILES IDX 13 15 12 16
REMARK H PARENT
REMARK Flexibility Score: 80.00
ROOT
ATOM      1  C   UNL     1     167.453 172.652 138.718  1.00  0.00    -0.008 C 
ATOM      2  C   UNL     1     168.507 173.605 138.042  1.00  0.00     0.003 C 
ATOM      3  C   UNL     1     169.592 173.747 139.121  1.00  0.00     0.006 C 
ATOM      4  C   UNL     1     168.609 174.237 140.185  1.00  0.00     0.019 C 
ATOM      5  C   UNL     1     167.549 173.172 140.135  1.00  0.00    -0.068 C 
ATOM      6  C   UNL     1     166.769 172.818 141.165  1.00  0.00     0.009 C 
ATOM      7  C   UNL     1     168.000 175.476 139.499  1.00  0.00     0.008 C 
ATOM      8  C   UNL     1     167.986 175.070 138.010  1.00  0.00     0.005 C 
ATOM      9  C   UNL     1     166.017 172.838 138.164  1.00  0.00     0.016 C 
ENDROOT
BRANCH   3  10
ATOM     10  C   UNL     1     170.513 172.491 139.459  1.00  0.00    -0.032 C 
ATOM     11  C   UNL     1     171.984 172.994 139.487  1.00  0.00     0.011 C 
ATOM     12  C   UNL     1     170.286 171.876 140.868  1.00  0.00     0.011 C 
BRANCH  10  13
ATOM     13  C   UNL     1     170.465 171.381 138.359  1.00  0.00     0.007 CG0
ATOM     14  G   UNL     1     169.112 170.795 137.879  1.00  0.00     0.000 G0
ENDBRANCH  10  13
ENDBRANCH   3  10
BRANCH   1  15
ATOM     15  C   UNL     1     167.842 171.134 138.657  1.00  0.00     0.011 C 
BRANCH  15  16
ATOM     16  C   UNL     1     169.117 170.774 137.882  1.00  0.00     0.001 CG0
ATOM     17  G   UNL     1     170.471 171.372 138.345  1.00  0.00     0.000 G0
ENDBRANCH  15  16
ENDBRANCH   1  15
TORSDOF 0
ENDMDL
MODEL 5
REMARK VINA RESULT:    -1.907      1.945      3.967
REMARK INTER + INTRA:          -1.678
REMARK INTER:                  -2.331
REMARK INTRA:                   0.653
REMARK UNBOUND:                 0.675
REMARK SMILES C=C1[C@@H]2CC[C@H]3[C@@H]2C(C)(C)CCC[C@@]13C
REMARK SMILES IDX 14 1 6 2 7 3 3 4 2 5 1 6 4 7 5 8 15 9 8 10 9 11 10 12 11 13
REMARK SMILES IDX 13 15 12 16
REMARK H PARENT
REMARK Flexibility Score: 80.00
ROOT
ATOM      1  C   UNL     1     168.706 172.912 139.222  1.00  0.00    -0.008 C 
ATOM      2  C   UNL     1     168.623 174.193 140.132  1.00  0.00     0.003 C 
ATOM      3  C   UNL     1     167.111 174.403 140.304  1.00  0.00     0.006 C 
ATOM      4  C   UNL     1     166.847 174.449 138.798  1.00  0.00     0.019 C 
ATOM      5  C   UNL     1     167.515 173.186 138.332  1.00  0.00    -0.068 C 
ATOM      6  C   UNL     1     167.152 172.482 137.252  1.00  0.00     0.009 C 
ATOM      7  C   UNL     1     167.766 175.605 138.356  1.00  0.00     0.008 C 
ATOM      8  C   UNL     1     168.967 175.472 139.317  1.00  0.00     0.005 C 
ATOM      9  C   UNL     1     170.009 172.840 138.384  1.00  0.00     0.016 C 
ENDROOT
BRANCH   3  10
ATOM     10  C   UNL     1     166.284 173.366 141.188  1.00  0.00    -0.032 C 
ATOM     11  C   UNL     1     165.383 174.196 142.146  1.00  0.00     0.011 C 
ATOM     12  C   UNL     1     165.289 172.477 140.391  1.00  0.00     0.011 C 
BRANCH  10  13
ATOM     13  C   UNL     1     167.189 172.488 142.112  1.00  0.00     0.007 CG0
ATOM     14  G   UNL     1     168.377 171.681 141.526  1.00  0.00     0.000 G0
ENDBRANCH  10  13
ENDBRANCH   3  10
BRANCH   1  15
ATOM     15  C   UNL     1     168.515 171.566 140.004  1.00  0.00     0.011 C 
BRANCH  15  16
ATOM     16  C   UNL     1     168.373 171.664 141.529  1.00  0.00     0.001 CG0
ATOM     17  G   UNL     1     167.197 172.481 142.124  1.00  0.00     0.000 G0
ENDBRANCH  15  16
ENDBRANCH   1  15
TORSDOF 0
ENDMDL
MODEL 6
REMARK VINA RESULT:    -1.888      1.929      4.274
REMARK INTER + INTRA:          -1.654
REMARK INTER:                  -2.319
REMARK INTRA:                   0.665
REMARK UNBOUND:                 0.675
REMARK SMILES C=C1[C@@H]2CC[C@H]3[C@@H]2C(C)(C)CCC[C@@]13C
REMARK SMILES IDX 14 1 6 2 7 3 3 4 2 5 1 6 4 7 5 8 15 9 8 10 9 11 10 12 11 13
REMARK SMILES IDX 13 15 12 16
REMARK H PARENT
REMARK Flexibility Score: 80.00
ROOT
ATOM      1  C   UNL     1     168.211 173.509 138.601  1.00  0.00    -0.008 C 
ATOM      2  C   UNL     1     166.659 173.611 138.363  1.00  0.00     0.003 C 
ATOM      3  C   UNL     1     166.073 173.333 139.756  1.00  0.00     0.006 C 
ATOM      4  C   UNL     1     166.793 171.991 139.899  1.00  0.00     0.019 C 
ATOM      5  C   UNL     1     168.216 172.375 139.601  1.00  0.00    -0.068 C 
ATOM      6  C   UNL     1     169.295 171.747 140.084  1.00  0.00     0.009 C 
ATOM      7  C   UNL     1     166.287 171.233 138.656  1.00  0.00     0.008 C 
ATOM      8  C   UNL     1     166.131 172.358 137.610  1.00  0.00     0.005 C 
ATOM      9  C   UNL     1     169.000 173.115 137.325  1.00  0.00     0.016 C 
ENDROOT
BRANCH   3  10
ATOM     10  C   UNL     1     166.262 174.423 140.904  1.00  0.00    -0.032 C 
ATOM     11  C   UNL     1     164.876 174.623 141.581  1.00  0.00     0.011 C 
ATOM     12  C   UNL     1     167.201 173.990 142.065  1.00  0.00     0.011 C 
BRANCH  10  13
ATOM     13  C   UNL     1     166.674 175.828 140.356  1.00  0.00     0.007 CG0
ATOM     14  G   UNL     1     167.906 175.989 139.428  1.00  0.00     0.000 G0
ENDBRANCH  10  13
ENDBRANCH   3  10
BRANCH   1  15
ATOM     15  C   UNL     1     168.842 174.801 139.226  1.00  0.00     0.011 C 
BRANCH  15  16
ATOM     16  C   UNL     1     167.906 175.998 139.440  1.00  0.00     0.001 CG0
ATOM     17  G   UNL     1     166.666 175.827 140.357  1.00  0.00     0.000 G0
ENDBRANCH  15  16
ENDBRANCH   1  15
TORSDOF 0
ENDMDL
MODEL 7
REMARK VINA RESULT:    -1.827     13.811     15.430
REMARK INTER + INTRA:          -1.579
REMARK INTER:                  -2.234
REMARK INTRA:                   0.655
REMARK UNBOUND:                 0.675
REMARK SMILES C=C1[C@@H]2CC[C@H]3[C@@H]2C(C)(C)CCC[C@@]13C
REMARK SMILES IDX 14 1 6 2 7 3 3 4 2 5 1 6 4 7 5 8 15 9 8 10 9 11 10 12 11 13
REMARK SMILES IDX 13 15 12 16
REMARK H PARENT
REMARK Flexibility Score: 80.00
ROOT
ATOM      1  C   UNL     1     163.277 158.828 138.602  1.00  0.00    -0.008 C 
ATOM      2  C   UNL     1     164.691 158.679 137.930  1.00  0.00     0.003 C 
ATOM      3  C   UNL     1     165.659 158.845 139.111  1.00  0.00     0.006 C 
ATOM      4  C   UNL     1     165.085 160.203 139.518  1.00  0.00     0.019 C 
ATOM      5  C   UNL     1     163.616 159.896 139.616  1.00  0.00    -0.068 C 
ATOM      6  C   UNL     1     162.753 160.536 140.416  1.00  0.00     0.009 C 
ATOM      7  C   UNL     1     165.263 161.017 138.221  1.00  0.00     0.008 C 
ATOM      8  C   UNL     1     165.056 159.955 137.120  1.00  0.00     0.005 C 
ATOM      9  C   UNL     1     162.185 159.332 137.623  1.00  0.00     0.016 C 
ENDROOT
BRANCH   3  10
ATOM     10  C   UNL     1     165.739 157.695 140.211  1.00  0.00    -0.032 C 
ATOM     11  C   UNL     1     167.245 157.396 140.456  1.00  0.00     0.011 C 
ATOM     12  C   UNL     1     165.190 158.091 141.611  1.00  0.00     0.011 C 
BRANCH  10  13
ATOM     13  C   UNL     1     165.111 156.345 139.735  1.00  0.00     0.007 CG0
ATOM     14  G   UNL     1     163.657 156.291 139.197  1.00  0.00     0.000 G0
ENDBRANCH  10  13
ENDBRANCH   3  10
BRANCH   1  15
ATOM     15  C   UNL     1     162.774 157.525 139.316  1.00  0.00     0.011 C 
BRANCH  15  16
ATOM     16  C   UNL     1     163.662 156.279 139.192  1.00  0.00     0.001 CG0
ATOM     17  G   UNL     1     165.115 156.335 139.731  1.00  0.00     0.000 G0
ENDBRANCH  15  16
ENDBRANCH   1  15
TORSDOF 0
ENDMDL
MODEL 8
REMARK VINA RESULT:    -1.816     13.507     15.313
REMARK INTER + INTRA:          -1.566
REMARK INTER:                  -2.228
REMARK INTRA:                   0.662
REMARK UNBOUND:                 0.675
REMARK SMILES C=C1[C@@H]2CC[C@H]3[C@@H]2C(C)(C)CCC[C@@]13C
REMARK SMILES IDX 14 1 6 2 7 3 3 4 2 5 1 6 4 7 5 8 15 9 8 10 9 11 10 12 11 13
REMARK SMILES IDX 13 15 12 16
REMARK H PARENT
REMARK Flexibility Score: 80.00
ROOT
ATOM      1  C   UNL     1     163.099 160.140 140.111  1.00  0.00    -0.008 C 
ATOM      2  C   UNL     1     162.274 158.836 139.804  1.00  0.00     0.003 C 
ATOM      3  C   UNL     1     163.100 158.150 138.705  1.00  0.00     0.006 C 
ATOM      4  C   UNL     1     163.072 159.372 137.785  1.00  0.00     0.019 C 
ATOM      5  C   UNL     1     163.557 160.458 138.705  1.00  0.00    -0.068 C 
ATOM      6  C   UNL     1     164.208 161.560 138.312  1.00  0.00     0.009 C 
ATOM      7  C   UNL     1     161.557 159.601 137.618  1.00  0.00     0.008 C 
ATOM      8  C   UNL     1     160.994 159.171 138.990  1.00  0.00     0.005 C 
ATOM      9  C   UNL     1     162.231 161.294 140.676  1.00  0.00     0.016 C 
ENDROOT
BRANCH   3  10
ATOM     10  C   UNL     1     164.513 157.517 139.083  1.00  0.00    -0.032 C 
ATOM     11  C   UNL     1     164.558 156.092 138.463  1.00  0.00     0.011 C 
ATOM     12  C   UNL     1     165.740 158.247 138.468  1.00  0.00     0.011 C 
BRANCH  10  13
ATOM     13  C   UNL     1     164.705 157.317 140.621  1.00  0.00     0.007 CG0
ATOM     14  G   UNL     1     164.516 158.500 141.607  1.00  0.00     0.000 G0
ENDBRANCH  10  13
ENDBRANCH   3  10
BRANCH   1  15
ATOM     15  C   UNL     1     164.330 159.904 141.054  1.00  0.00     0.011 C 
BRANCH  15  16
ATOM     16  C   UNL     1     164.516 158.486 141.611  1.00  0.00     0.001 CG0
ATOM     17  G   UNL     1     164.721 157.311 140.620  1.00  0.00     0.000 G0
ENDBRANCH  15  16
ENDBRANCH   1  15
TORSDOF 0
ENDMDL
MODEL 9
REMARK VINA RESULT:    -1.813      1.735      3.144
REMARK INTER + INTRA:          -1.562
REMARK INTER:                  -2.215
REMARK INTRA:                   0.653
REMARK UNBOUND:                 0.675
REMARK SMILES C=C1[C@@H]2CC[C@H]3[C@@H]2C(C)(C)CCC[C@@]13C
REMARK SMILES IDX 14 1 6 2 7 3 3 4 2 5 1 6 4 7 5 8 15 9 8 10 9 11 10 12 11 13
REMARK SMILES IDX 13 15 12 16
REMARK H PARENT
REMARK Flexibility Score: 80.00
ROOT
ATOM      1  C   UNL     1     166.270 174.354 140.717  1.00  0.00    -0.008 C 
ATOM      2  C   UNL     1     167.785 174.018 140.978  1.00  0.00     0.003 C 
ATOM      3  C   UNL     1     168.060 172.864 140.002  1.00  0.00     0.006 C 
ATOM      4  C   UNL     1     166.922 172.000 140.549  1.00  0.00     0.019 C 
ATOM      5  C   UNL     1     165.759 172.950 140.486  1.00  0.00    -0.068 C 
ATOM      6  C   UNL     1     164.480 172.585 140.337  1.00  0.00     0.009 C 
ATOM      7  C   UNL     1     167.304 171.890 142.038  1.00  0.00     0.008 C 
ATOM      8  C   UNL     1     167.958 173.259 142.324  1.00  0.00     0.005 C 
ATOM      9  C   UNL     1     165.567 174.997 141.941  1.00  0.00     0.016 C 
ENDROOT
BRANCH   3  10
ATOM     10  C   UNL     1     168.097 173.169 138.438  1.00  0.00    -0.032 C 
ATOM     11  C   UNL     1     169.371 172.486 137.866  1.00  0.00     0.011 C 
ATOM     12  C   UNL     1     166.926 172.549 137.625  1.00  0.00     0.011 C 
BRANCH  10  13
ATOM     13  C   UNL     1     168.249 174.690 138.112  1.00  0.00     0.007 CG0
ATOM     14  G   UNL     1     167.272 175.734 138.714  1.00  0.00     0.000 G0
ENDBRANCH  10  13
ENDBRANCH   3  10
BRANCH   1  15
ATOM     15  C   UNL     1     166.029 175.247 139.451  1.00  0.00     0.011 C 
BRANCH  15  16
ATOM     16  C   UNL     1     167.275 175.742 138.702  1.00  0.00     0.001 CG0
ATOM     17  G   UNL     1     168.264 174.699 138.119  1.00  0.00     0.000 G0
ENDBRANCH  15  16
ENDBRANCH   1  15
TORSDOF 0
ENDMDL
