MODEL 1
REMARK VINA RESULT:     0.403      0.000      0.000
REMARK INTER + INTRA:          -0.649
REMARK INTER:                   0.922
REMARK INTRA:                  -1.570
REMARK UNBOUND:                -1.570
REMARK SMILES CCCCCCCCCCCCCCCCCCCCCCCC(=O)[O-]
REMARK SMILES IDX 13 1 14 2 15 3 16 4 17 5 18 6 19 7 20 8 21 9 22 10 23 11
REMARK SMILES IDX 24 12 25 13 26 14 12 15 11 16 10 17 9 18 8 19 7 20 6 21 5 22
REMARK SMILES IDX 4 23 3 24 2 25 1 26
REMARK H PARENT
REMARK Flexibility Score: inf
ROOT
ATOM      1  C   UNL     1       3.905   7.801   2.043  1.00  0.00     0.000 C 
ENDROOT
BRANCH   1   2
ATOM      2  C   UNL     1       5.230   7.341   2.674  1.00  0.00     0.000 C 
BRANCH   2   3
ATOM      3  C   UNL     1       5.844   6.128   1.939  1.00  0.00     0.000 C 
BRANCH   3   4
ATOM      4  C   UNL     1       6.174   4.948   2.870  1.00  0.00     0.000 C 
BRANCH   4   5
ATOM      5  C   UNL     1       5.211   3.750   2.750  1.00  0.00     0.000 C 
BRANCH   5   6
ATOM      6  C   UNL     1       5.866   2.386   3.077  1.00  0.00     0.000 C 
BRANCH   6   7
ATOM      7  C   UNL     1       6.538   1.701   1.875  1.00  0.00     0.000 C 
BRANCH   7   8
ATOM      8  C   UNL     1       8.073   1.817   1.907  1.00  0.00     0.000 C 
BRANCH   8   9
ATOM      9  C   UNL     1       8.755   0.572   2.506  1.00  0.00     0.000 C 
BRANCH   9  10
ATOM     10  C   UNL     1      10.289   0.654   2.589  1.00  0.00     0.006 C 
BRANCH  10  11
ATOM     11  C   UNL     1      10.984  -0.610   2.067  1.00  0.00     0.053 C 
BRANCH  11  12
ATOM     12  C   UNL     1      12.355  -0.731   2.655  1.00  0.00     0.041 C 
ATOM     13  O   UNL     1      12.533  -1.374   3.723  1.00  0.00    -0.550 OA
ATOM     14  O   UNL     1      13.445  -0.174   1.996  1.00  0.00    -0.550 OA
ENDBRANCH  11  12
ENDBRANCH  10  11
ENDBRANCH   9  10
ENDBRANCH   8   9
ENDBRANCH   7   8
ENDBRANCH   6   7
ENDBRANCH   5   6
ENDBRANCH   4   5
ENDBRANCH   3   4
ENDBRANCH   2   3
ENDBRANCH   1   2
BRANCH   1  15
ATOM     15  C   UNL     1       3.234   8.953   2.814  1.00  0.00     0.000 C 
BRANCH  15  16
ATOM     16  C   UNL     1       2.922   8.649   4.291  1.00  0.00     0.000 C 
BRANCH  16  17
ATOM     17  C   UNL     1       2.160   9.784   5.000  1.00  0.00     0.000 C 
BRANCH  17  18
ATOM     18  C   UNL     1       0.776   9.349   5.515  1.00  0.00    -0.000 C 
BRANCH  18  19
ATOM     19  C   UNL     1      -0.420  10.065   4.862  1.00  0.00    -0.000 C 
BRANCH  19  20
ATOM     20  C   UNL     1      -0.328  10.125   3.328  1.00  0.00    -0.000 C 
BRANCH  20  21
ATOM     21  C   UNL     1      -0.446   8.724   2.686  1.00  0.00    -0.000 C 
BRANCH  21  22
ATOM     22  C   UNL     1      -0.952   7.631   3.649  1.00  0.00    -0.000 C 
BRANCH  22  23
ATOM     23  C   UNL     1      -0.431   6.213   3.362  1.00  0.00    -0.000 C 
BRANCH  23  24
ATOM     24  C   UNL     1       0.668   5.764   4.341  1.00  0.00    -0.000 C 
BRANCH  24  25
ATOM     25  C   UNL     1       0.287   4.481   5.098  1.00  0.00    -0.003 C 
ATOM     26  C   UNL     1      -1.067   3.919   4.667  1.00  0.00     0.004 C 
ENDBRANCH  24  25
ENDBRANCH  23  24
ENDBRANCH  22  23
ENDBRANCH  21  22
ENDBRANCH  20  21
ENDBRANCH  19  20
ENDBRANCH  18  19
ENDBRANCH  17  18
ENDBRANCH  16  17
ENDBRANCH  15  16
ENDBRANCH   1  15
TORSDOF 22
ENDMDL
MODEL 2
REMARK VINA RESULT:     1.179      4.032      9.804
REMARK INTER + INTRA:           1.126
REMARK INTER:                   1.345
REMARK INTRA:                  -0.219
REMARK UNBOUND:                -1.570
REMARK SMILES CCCCCCCCCCCCCCCCCCCCCCCC(=O)[O-]
REMARK SMILES IDX 13 1 14 2 15 3 16 4 17 5 18 6 19 7 20 8 21 9 22 10 23 11
REMARK SMILES IDX 24 12 25 13 26 14 12 15 11 16 10 17 9 18 8 19 7 20 6 21 5 22
REMARK SMILES IDX 4 23 3 24 2 25 1 26
REMARK H PARENT
REMARK Flexibility Score: inf
ROOT
ATOM      1  C   UNL     1       5.391   8.782   2.134  1.00  0.00     0.000 C 
ENDROOT
BRANCH   1   2
ATOM      2  C   UNL     1       4.641   9.341   3.355  1.00  0.00     0.000 C 
BRANCH   2   3
ATOM      3  C   UNL     1       3.756   8.278   4.044  1.00  0.00     0.000 C 
BRANCH   3   4
ATOM      4  C   UNL     1       2.249   8.492   3.819  1.00  0.00     0.000 C 
BRANCH   4   5
ATOM      5  C   UNL     1       1.865   9.918   3.378  1.00  0.00     0.000 C 
BRANCH   5   6
ATOM      6  C   UNL     1       1.185   9.981   1.988  1.00  0.00     0.000 C 
BRANCH   6   7
ATOM      7  C   UNL     1      -0.353   9.957   2.034  1.00  0.00     0.000 C 
BRANCH   7   8
ATOM      8  C   UNL     1      -0.923   8.528   2.087  1.00  0.00     0.000 C 
BRANCH   8   9
ATOM      9  C   UNL     1       0.174   7.446   2.112  1.00  0.00     0.000 C 
BRANCH   9  10
ATOM     10  C   UNL     1      -0.343   6.007   2.279  1.00  0.00     0.006 C 
BRANCH  10  11
ATOM     11  C   UNL     1      -1.034   5.773   3.628  1.00  0.00     0.053 C 
BRANCH  11  12
ATOM     12  C   UNL     1      -0.351   4.673   4.380  1.00  0.00     0.041 C 
ATOM     13  O   UNL     1       0.901   4.680   4.514  1.00  0.00    -0.550 OA
ATOM     14  O   UNL     1      -1.103   3.667   4.974  1.00  0.00    -0.550 OA
ENDBRANCH  11  12
ENDBRANCH  10  11
ENDBRANCH   9  10
ENDBRANCH   8   9
ENDBRANCH   7   8
ENDBRANCH   6   7
ENDBRANCH   5   6
ENDBRANCH   4   5
ENDBRANCH   3   4
ENDBRANCH   2   3
ENDBRANCH   1   2
BRANCH   1  15
ATOM     15  C   UNL     1       6.913   8.695   2.346  1.00  0.00     0.000 C 
BRANCH  15  16
ATOM     16  C   UNL     1       7.399   7.406   3.036  1.00  0.00     0.000 C 
BRANCH  16  17
ATOM     17  C   UNL     1       6.259   6.421   3.361  1.00  0.00     0.000 C 
BRANCH  17  18
ATOM     18  C   UNL     1       6.444   5.048   2.692  1.00  0.00    -0.000 C 
BRANCH  18  19
ATOM     19  C   UNL     1       5.144   4.259   2.447  1.00  0.00    -0.000 C 
BRANCH  19  20
ATOM     20  C   UNL     1       5.231   2.791   2.897  1.00  0.00    -0.000 C 
BRANCH  20  21
ATOM     21  C   UNL     1       5.991   1.916   1.875  1.00  0.00    -0.000 C 
BRANCH  21  22
ATOM     22  C   UNL     1       7.520   1.903   2.072  1.00  0.00    -0.000 C 
BRANCH  22  23
ATOM     23  C   UNL     1       8.178   0.514   2.004  1.00  0.00    -0.000 C 
BRANCH  23  24
ATOM     24  C   UNL     1       9.710   0.565   2.140  1.00  0.00    -0.000 C 
BRANCH  24  25
ATOM     25  C   UNL     1      10.283  -0.715   2.770  1.00  0.00    -0.003 C 
ATOM     26  C   UNL     1      11.637  -1.110   2.182  1.00  0.00     0.004 C 
ENDBRANCH  24  25
ENDBRANCH  23  24
ENDBRANCH  22  23
ENDBRANCH  21  22
ENDBRANCH  20  21
ENDBRANCH  19  20
ENDBRANCH  18  19
ENDBRANCH  17  18
ENDBRANCH  16  17
ENDBRANCH  15  16
ENDBRANCH   1  15
TORSDOF 22
ENDMDL
MODEL 3
REMARK VINA RESULT:     2.371      5.214      9.649
REMARK INTER + INTRA:           3.850
REMARK INTER:                   4.260
REMARK INTRA:                  -0.410
REMARK UNBOUND:                -1.570
REMARK SMILES CCCCCCCCCCCCCCCCCCCCCCCC(=O)[O-]
REMARK SMILES IDX 13 1 14 2 15 3 16 4 17 5 18 6 19 7 20 8 21 9 22 10 23 11
REMARK SMILES IDX 24 12 25 13 26 14 12 15 11 16 10 17 9 18 8 19 7 20 6 21 5 22
REMARK SMILES IDX 4 23 3 24 2 25 1 26
REMARK H PARENT
REMARK Flexibility Score: inf
ROOT
ATOM      1  C   UNL     1       6.005   6.946   5.801  1.00  0.00     0.000 C 
ENDROOT
BRANCH   1   2
ATOM      2  C   UNL     1       5.700   8.435   5.564  1.00  0.00     0.000 C 
BRANCH   2   3
ATOM      3  C   UNL     1       4.184   8.734   5.553  1.00  0.00     0.000 C 
BRANCH   3   4
ATOM      4  C   UNL     1       3.653   9.173   4.178  1.00  0.00     0.000 C 
BRANCH   4   5
ATOM      5  C   UNL     1       2.303   9.915   4.221  1.00  0.00     0.000 C 
BRANCH   5   6
ATOM      6  C   UNL     1       1.441   9.573   5.461  1.00  0.00     0.000 C 
BRANCH   6   7
ATOM      7  C   UNL     1      -0.060   9.866   5.290  1.00  0.00     0.000 C 
BRANCH   7   8
ATOM      8  C   UNL     1      -0.643   9.245   4.008  1.00  0.00     0.000 C 
BRANCH   8   9
ATOM      9  C   UNL     1      -0.485   7.714   3.958  1.00  0.00     0.000 C 
BRANCH   9  10
ATOM     10  C   UNL     1       0.208   7.176   2.694  1.00  0.00     0.006 C 
BRANCH  10  11
ATOM     11  C   UNL     1       0.110   5.652   2.562  1.00  0.00     0.053 C 
BRANCH  11  12
ATOM     12  C   UNL     1      -0.016   5.018   3.912  1.00  0.00     0.041 C 
ATOM     13  O   UNL     1      -1.096   4.470   4.258  1.00  0.00    -0.550 OA
ATOM     14  O   UNL     1       1.077   4.990   4.771  1.00  0.00    -0.550 OA
ENDBRANCH  11  12
ENDBRANCH  10  11
ENDBRANCH   9  10
ENDBRANCH   8   9
ENDBRANCH   7   8
ENDBRANCH   6   7
ENDBRANCH   5   6
ENDBRANCH   4   5
ENDBRANCH   3   4
ENDBRANCH   2   3
ENDBRANCH   1   2
BRANCH   1  15
ATOM     15  C   UNL     1       5.994   6.112   4.507  1.00  0.00     0.000 C 
BRANCH  15  16
ATOM     16  C   UNL     1       4.635   5.479   4.155  1.00  0.00     0.000 C 
BRANCH  16  17
ATOM     17  C   UNL     1       3.716   6.417   3.350  1.00  0.00     0.000 C 
BRANCH  17  18
ATOM     18  C   UNL     1       4.267   6.743   1.950  1.00  0.00    -0.000 C 
BRANCH  18  19
ATOM     19  C   UNL     1       5.166   7.991   1.875  1.00  0.00    -0.000 C 
BRANCH  19  20
ATOM     20  C   UNL     1       6.667   7.658   1.877  1.00  0.00    -0.000 C 
BRANCH  20  21
ATOM     21  C   UNL     1       7.457   8.553   2.859  1.00  0.00    -0.000 C 
BRANCH  21  22
ATOM     22  C   UNL     1       8.023   9.838   2.223  1.00  0.00    -0.000 C 
BRANCH  22  23
ATOM     23  C   UNL     1       9.523   9.799   1.888  1.00  0.00    -0.000 C 
BRANCH  23  24
ATOM     24  C   UNL     1      10.305   8.783   2.740  1.00  0.00    -0.000 C 
BRANCH  24  25
ATOM     25  C   UNL     1      11.558   8.259   2.021  1.00  0.00    -0.003 C 
ATOM     26  C   UNL     1      12.830   8.999   2.432  1.00  0.00     0.004 C 
ENDBRANCH  24  25
ENDBRANCH  23  24
ENDBRANCH  22  23
ENDBRANCH  21  22
ENDBRANCH  20  21
ENDBRANCH  19  20
ENDBRANCH  18  19
ENDBRANCH  17  18
ENDBRANCH  16  17
ENDBRANCH  15  16
ENDBRANCH   1  15
TORSDOF 22
ENDMDL
MODEL 4
REMARK VINA RESULT:     2.670      4.544      7.113
REMARK INTER + INTRA:           4.533
REMARK INTER:                   3.410
REMARK INTRA:                   1.123
REMARK UNBOUND:                -1.570
REMARK SMILES CCCCCCCCCCCCCCCCCCCCCCCC(=O)[O-]
REMARK SMILES IDX 13 1 14 2 15 3 16 4 17 5 18 6 19 7 20 8 21 9 22 10 23 11
REMARK SMILES IDX 24 12 25 13 26 14 12 15 11 16 10 17 9 18 8 19 7 20 6 21 5 22
REMARK SMILES IDX 4 23 3 24 2 25 1 26
REMARK H PARENT
REMARK Flexibility Score: inf
ROOT
ATOM      1  C   UNL     1       2.705   8.954   6.663  1.00  0.00     0.000 C 
ENDROOT
BRANCH   1   2
ATOM      2  C   UNL     1       2.972   7.835   5.644  1.00  0.00     0.000 C 
BRANCH   2   3
ATOM      3  C   UNL     1       1.674   7.304   4.994  1.00  0.00     0.000 C 
BRANCH   3   4
ATOM      4  C   UNL     1       1.178   5.981   5.602  1.00  0.00     0.000 C 
BRANCH   4   5
ATOM      5  C   UNL     1       0.396   5.081   4.624  1.00  0.00     0.000 C 
BRANCH   5   6
ATOM      6  C   UNL     1      -0.975   5.662   4.200  1.00  0.00     0.000 C 
BRANCH   6   7
ATOM      7  C   UNL     1      -1.099   5.962   2.697  1.00  0.00     0.000 C 
BRANCH   7   8
ATOM      8  C   UNL     1       0.120   5.477   1.893  1.00  0.00     0.000 C 
BRANCH   8   9
ATOM      9  C   UNL     1       1.360   6.370   2.086  1.00  0.00     0.000 C 
BRANCH   9  10
ATOM     10  C   UNL     1       2.689   5.609   2.231  1.00  0.00     0.006 C 
BRANCH  10  11
ATOM     11  C   UNL     1       3.845   6.507   2.689  1.00  0.00     0.053 C 
BRANCH  11  12
ATOM     12  C   UNL     1       4.998   5.674   3.158  1.00  0.00     0.041 C 
ATOM     13  O   UNL     1       5.058   4.452   2.862  1.00  0.00    -0.550 OA
ATOM     14  O   UNL     1       6.029   6.261   3.881  1.00  0.00    -0.550 OA
ENDBRANCH  11  12
ENDBRANCH  10  11
ENDBRANCH   9  10
ENDBRANCH   8   9
ENDBRANCH   7   8
ENDBRANCH   6   7
ENDBRANCH   5   6
ENDBRANCH   4   5
ENDBRANCH   3   4
ENDBRANCH   2   3
ENDBRANCH   1   2
BRANCH   1  15
ATOM     15  C   UNL     1       1.367   9.679   6.430  1.00  0.00     0.000 C 
BRANCH  15  16
ATOM     16  C   UNL     1       0.413   8.979   5.445  1.00  0.00     0.000 C 
BRANCH  16  17
ATOM     17  C   UNL     1      -0.482   9.958   4.661  1.00  0.00     0.000 C 
BRANCH  17  18
ATOM     18  C   UNL     1      -0.664   9.556   3.186  1.00  0.00    -0.000 C 
BRANCH  18  19
ATOM     19  C   UNL     1       0.447  10.036   2.235  1.00  0.00    -0.000 C 
BRANCH  19  20
ATOM     20  C   UNL     1       1.827  10.124   2.909  1.00  0.00    -0.000 C 
BRANCH  20  21
ATOM     21  C   UNL     1       2.977  10.112   1.878  1.00  0.00    -0.000 C 
BRANCH  21  22
ATOM     22  C   UNL     1       4.256   9.404   2.369  1.00  0.00    -0.000 C 
BRANCH  22  23
ATOM     23  C   UNL     1       5.576  10.077   1.958  1.00  0.00    -0.000 C 
BRANCH  23  24
ATOM     24  C   UNL     1       6.789   9.565   2.756  1.00  0.00    -0.000 C 
BRANCH  24  25
ATOM     25  C   UNL     1       7.617   8.538   1.967  1.00  0.00    -0.003 C 
ATOM     26  C   UNL     1       9.096   8.551   2.348  1.00  0.00     0.004 C 
ENDBRANCH  24  25
ENDBRANCH  23  24
ENDBRANCH  22  23
ENDBRANCH  21  22
ENDBRANCH  20  21
ENDBRANCH  19  20
ENDBRANCH  18  19
ENDBRANCH  17  18
ENDBRANCH  16  17
ENDBRANCH  15  16
ENDBRANCH   1  15
TORSDOF 22
ENDMDL
MODEL 5
REMARK VINA RESULT:     2.729      3.800      8.652
REMARK INTER + INTRA:           4.668
REMARK INTER:                   3.805
REMARK INTRA:                   0.862
REMARK UNBOUND:                -1.570
REMARK SMILES CCCCCCCCCCCCCCCCCCCCCCCC(=O)[O-]
REMARK SMILES IDX 13 1 14 2 15 3 16 4 17 5 18 6 19 7 20 8 21 9 22 10 23 11
REMARK SMILES IDX 24 12 25 13 26 14 12 15 11 16 10 17 9 18 8 19 7 20 6 21 5 22
REMARK SMILES IDX 4 23 3 24 2 25 1 26
REMARK H PARENT
REMARK Flexibility Score: inf
ROOT
ATOM      1  C   UNL     1       3.123   9.903   5.913  1.00  0.00     0.000 C 
ENDROOT
BRANCH   1   2
ATOM      2  C   UNL     1       1.750  10.099   5.250  1.00  0.00     0.000 C 
BRANCH   2   3
ATOM      3  C   UNL     1       0.584   9.987   6.258  1.00  0.00     0.000 C 
BRANCH   3   4
ATOM      4  C   UNL     1      -0.806  10.077   5.604  1.00  0.00     0.000 C 
BRANCH   4   5
ATOM      5  C   UNL     1      -0.996   9.161   4.380  1.00  0.00     0.000 C 
BRANCH   5   6
ATOM      6  C   UNL     1       0.323   8.553   3.842  1.00  0.00     0.000 C 
BRANCH   6   7
ATOM      7  C   UNL     1       0.258   8.095   2.375  1.00  0.00     0.000 C 
BRANCH   7   8
ATOM      8  C   UNL     1       1.005   6.771   2.134  1.00  0.00     0.000 C 
BRANCH   8   9
ATOM      9  C   UNL     1       2.356   6.702   2.871  1.00  0.00     0.000 C 
BRANCH   9  10
ATOM     10  C   UNL     1       3.317   5.615   2.359  1.00  0.00     0.006 C 
BRANCH  10  11
ATOM     11  C   UNL     1       4.273   5.105   3.443  1.00  0.00     0.053 C 
BRANCH  11  12
ATOM     12  C   UNL     1       5.466   4.449   2.820  1.00  0.00     0.041 C 
ATOM     13  O   UNL     1       6.417   5.149   2.381  1.00  0.00    -0.550 OA
ATOM     14  O   UNL     1       5.549   3.063   2.767  1.00  0.00    -0.550 OA
ENDBRANCH  11  12
ENDBRANCH  10  11
ENDBRANCH   9  10
ENDBRANCH   8   9
ENDBRANCH   7   8
ENDBRANCH   6   7
ENDBRANCH   5   6
ENDBRANCH   4   5
ENDBRANCH   3   4
ENDBRANCH   2   3
ENDBRANCH   1   2
BRANCH   1  15
ATOM     15  C   UNL     1       3.973   8.812   5.235  1.00  0.00     0.000 C 
BRANCH  15  16
ATOM     16  C   UNL     1       4.565   9.206   3.870  1.00  0.00     0.000 C 
BRANCH  16  17
ATOM     17  C   UNL     1       5.018   7.998   3.029  1.00  0.00     0.000 C 
BRANCH  17  18
ATOM     18  C   UNL     1       6.003   8.380   1.910  1.00  0.00    -0.000 C 
BRANCH  18  19
ATOM     19  C   UNL     1       6.568   9.809   1.996  1.00  0.00    -0.000 C 
BRANCH  19  20
ATOM     20  C   UNL     1       7.690   9.957   3.038  1.00  0.00    -0.000 C 
BRANCH  20  21
ATOM     21  C   UNL     1       8.599   8.708   3.091  1.00  0.00    -0.000 C 
BRANCH  21  22
ATOM     22  C   UNL     1       9.616   8.620   1.936  1.00  0.00    -0.000 C 
BRANCH  22  23
ATOM     23  C   UNL     1      11.024   9.146   2.261  1.00  0.00    -0.000 C 
BRANCH  23  24
ATOM     24  C   UNL     1      12.088   8.035   2.302  1.00  0.00    -0.000 C 
BRANCH  24  25
ATOM     25  C   UNL     1      11.479   6.635   2.126  1.00  0.00    -0.003 C 
ATOM     26  C   UNL     1      12.533   5.556   1.882  1.00  0.00     0.004 C 
ENDBRANCH  24  25
ENDBRANCH  23  24
ENDBRANCH  22  23
ENDBRANCH  21  22
ENDBRANCH  20  21
ENDBRANCH  19  20
ENDBRANCH  18  19
ENDBRANCH  17  18
ENDBRANCH  16  17
ENDBRANCH  15  16
ENDBRANCH   1  15
TORSDOF 22
ENDMDL
