MODEL 1
REMARK VINA RESULT:    -5.062      0.000      0.000
REMARK INTER + INTRA:          -6.963
REMARK INTER:                  -6.542
REMARK INTRA:                  -0.421
REMARK UNBOUND:                -0.421
REMARK SMILES CCO[C@@H]1O[C@@H](CO)[C@H](O)[C@@H](O)[C@@H]1O
REMARK SMILES IDX 4 1 13 2 11 3 9 4 6 5 5 6 3 7 2 8 1 9 14 10 12 12 7 14 8 15
REMARK SMILES IDX 10 17
REMARK H PARENT 14 11 12 13 8 16 10 18
REMARK Flexibility Score: inf
ROOT
ATOM      1  C   UNL     1      20.542   1.252  40.768  1.00  0.00     0.281 C 
ATOM      2  C   UNL     1      20.427   1.878  42.174  1.00  0.00     0.202 C 
ATOM      3  C   UNL     1      21.396   3.059  42.323  1.00  0.00     0.179 C 
ATOM      4  C   UNL     1      21.209   4.034  41.142  1.00  0.00     0.177 C 
ATOM      5  C   UNL     1      21.300   3.260  39.802  1.00  0.00     0.178 C 
ATOM      6  O   UNL     1      20.323   2.229  39.754  1.00  0.00    -0.341 OA
ENDROOT
BRANCH   1   7
ATOM      7  O   UNL     1      21.804   0.622  40.610  1.00  0.00    -0.350 OA
BRANCH   7   8
ATOM      8  C   UNL     1      21.718  -0.420  39.660  1.00  0.00     0.160 C 
ATOM      9  C   UNL     1      22.767  -0.202  38.575  1.00  0.00     0.035 C 
ENDBRANCH   7   8
ENDBRANCH   1   7
BRANCH   2  10
ATOM     10  O   UNL     1      20.710   0.914  43.158  1.00  0.00    -0.385 OA
ATOM     11  H   UNL     1      21.652   1.061  43.442  1.00  0.00     0.211 HD
ENDBRANCH   2  10
BRANCH   3  12
ATOM     12  O   UNL     1      21.144   3.715  43.539  1.00  0.00    -0.387 OA
ATOM     13  H   UNL     1      20.504   4.451  43.342  1.00  0.00     0.211 HD
ENDBRANCH   3  12
BRANCH   5  14
ATOM     14  C   UNL     1      21.100   4.189  38.599  1.00  0.00     0.191 C 
BRANCH  14  15
ATOM     15  O   UNL     1      22.309   4.796  38.235  1.00  0.00    -0.394 OA
ATOM     16  H   UNL     1      22.968   4.060  38.137  1.00  0.00     0.210 HD
ENDBRANCH  14  15
ENDBRANCH   5  14
BRANCH   4  17
ATOM     17  O   UNL     1      22.158   5.073  41.196  1.00  0.00    -0.387 OA
ATOM     18  H   UNL     1      22.197   5.389  42.132  1.00  0.00     0.211 HD
ENDBRANCH   4  17
TORSDOF 7
ENDMDL
MODEL 2
REMARK VINA RESULT:    -4.957      1.490      3.812
REMARK INTER + INTRA:          -6.827
REMARK INTER:                  -6.385
REMARK INTRA:                  -0.442
REMARK UNBOUND:                -0.421
REMARK SMILES CCO[C@@H]1O[C@@H](CO)[C@H](O)[C@@H](O)[C@@H]1O
REMARK SMILES IDX 4 1 13 2 11 3 9 4 6 5 5 6 3 7 2 8 1 9 14 10 12 12 7 14 8 15
REMARK SMILES IDX 10 17
REMARK H PARENT 14 11 12 13 8 16 10 18
REMARK Flexibility Score: inf
ROOT
ATOM      1  C   UNL     1      21.425   2.592  39.216  1.00  0.00     0.281 C 
ATOM      2  C   UNL     1      22.479   3.600  39.720  1.00  0.00     0.202 C 
ATOM      3  C   UNL     1      21.953   4.367  40.942  1.00  0.00     0.179 C 
ATOM      4  C   UNL     1      21.430   3.368  41.995  1.00  0.00     0.177 C 
ATOM      5  C   UNL     1      20.424   2.391  41.336  1.00  0.00     0.178 C 
ATOM      6  O   UNL     1      21.034   1.699  40.256  1.00  0.00    -0.341 OA
ENDROOT
BRANCH   1   7
ATOM      7  O   UNL     1      20.304   3.275  38.678  1.00  0.00    -0.350 OA
BRANCH   7   8
ATOM      8  C   UNL     1      19.875   2.653  37.484  1.00  0.00     0.160 C 
ATOM      9  C   UNL     1      20.189   3.562  36.300  1.00  0.00     0.035 C 
ENDBRANCH   7   8
ENDBRANCH   1   7
BRANCH   2  10
ATOM     10  O   UNL     1      22.803   4.512  38.700  1.00  0.00    -0.385 OA
ATOM     11  H   UNL     1      22.816   5.416  39.116  1.00  0.00     0.211 HD
ENDBRANCH   2  10
BRANCH   3  12
ATOM     12  O   UNL     1      22.991   5.143  41.483  1.00  0.00    -0.387 OA
ATOM     13  H   UNL     1      23.802   4.567  41.503  1.00  0.00     0.211 HD
ENDBRANCH   3  12
BRANCH   5  14
ATOM     14  C   UNL     1      19.891   1.365  42.345  1.00  0.00     0.191 C 
BRANCH  14  15
ATOM     15  O   UNL     1      20.823   1.143  43.366  1.00  0.00    -0.394 OA
ATOM     16  H   UNL     1      21.682   0.933  42.914  1.00  0.00     0.210 HD
ENDBRANCH  14  15
ENDBRANCH   5  14
BRANCH   4  17
ATOM     17  O   UNL     1      20.846   4.046  43.081  1.00  0.00    -0.387 OA
ATOM     18  H   UNL     1      19.871   4.087  42.915  1.00  0.00     0.211 HD
ENDBRANCH   4  17
TORSDOF 7
ENDMDL
MODEL 3
REMARK VINA RESULT:    -4.685     10.587     12.005
REMARK INTER + INTRA:          -6.475
REMARK INTER:                  -6.126
REMARK INTRA:                  -0.349
REMARK UNBOUND:                -0.421
REMARK SMILES CCO[C@@H]1O[C@@H](CO)[C@H](O)[C@@H](O)[C@@H]1O
REMARK SMILES IDX 4 1 13 2 11 3 9 4 6 5 5 6 3 7 2 8 1 9 14 10 12 12 7 14 8 15
REMARK SMILES IDX 10 17
REMARK H PARENT 14 11 12 13 8 16 10 18
REMARK Flexibility Score: inf
ROOT
ATOM      1  C   UNL     1      32.216   3.658  40.007  1.00  0.00     0.281 C 
ATOM      2  C   UNL     1      31.891   2.650  38.885  1.00  0.00     0.202 C 
ATOM      3  C   UNL     1      32.225   1.219  39.330  1.00  0.00     0.179 C 
ATOM      4  C   UNL     1      31.565   0.933  40.695  1.00  0.00     0.177 C 
ATOM      5  C   UNL     1      31.939   2.049  41.702  1.00  0.00     0.178 C 
ATOM      6  O   UNL     1      31.534   3.320  41.212  1.00  0.00    -0.341 OA
ENDROOT
BRANCH   1   7
ATOM      7  O   UNL     1      33.618   3.732  40.215  1.00  0.00    -0.350 OA
BRANCH   7   8
ATOM      8  C   UNL     1      33.950   4.911  40.918  1.00  0.00     0.160 C 
ATOM      9  C   UNL     1      35.211   4.669  41.742  1.00  0.00     0.035 C 
ENDBRANCH   7   8
ENDBRANCH   1   7
BRANCH   2  10
ATOM     10  O   UNL     1      32.623   2.962  37.726  1.00  0.00    -0.385 OA
ATOM     11  H   UNL     1      32.876   3.922  37.796  1.00  0.00     0.211 HD
ENDBRANCH   2  10
BRANCH   3  12
ATOM     12  O   UNL     1      31.756   0.313  38.365  1.00  0.00    -0.387 OA
ATOM     13  H   UNL     1      31.717   0.806  37.501  1.00  0.00     0.211 HD
ENDBRANCH   3  12
BRANCH   5  14
ATOM     14  C   UNL     1      31.287   1.815  43.071  1.00  0.00     0.191 C 
BRANCH  14  15
ATOM     15  O   UNL     1      31.949   0.796  43.768  1.00  0.00    -0.394 OA
ATOM     16  H   UNL     1      31.306   0.466  44.449  1.00  0.00     0.210 HD
ENDBRANCH  14  15
ENDBRANCH   5  14
BRANCH   4  17
ATOM     17  O   UNL     1      31.942  -0.336  41.176  1.00  0.00    -0.387 OA
ATOM     18  H   UNL     1      32.784  -0.586  40.722  1.00  0.00     0.211 HD
ENDBRANCH   4  17
TORSDOF 7
ENDMDL
MODEL 4
REMARK VINA RESULT:    -4.604      9.965     10.928
REMARK INTER + INTRA:          -6.370
REMARK INTER:                  -5.933
REMARK INTRA:                  -0.437
REMARK UNBOUND:                -0.421
REMARK SMILES CCO[C@@H]1O[C@@H](CO)[C@H](O)[C@@H](O)[C@@H]1O
REMARK SMILES IDX 4 1 13 2 11 3 9 4 6 5 5 6 3 7 2 8 1 9 14 10 12 12 7 14 8 15
REMARK SMILES IDX 10 17
REMARK H PARENT 14 11 12 13 8 16 10 18
REMARK Flexibility Score: inf
ROOT
ATOM      1  C   UNL     1      32.154   1.839  42.189  1.00  0.00     0.281 C 
ATOM      2  C   UNL     1      32.413   0.973  40.938  1.00  0.00     0.202 C 
ATOM      3  C   UNL     1      31.644   1.524  39.729  1.00  0.00     0.179 C 
ATOM      4  C   UNL     1      31.941   3.030  39.569  1.00  0.00     0.177 C 
ATOM      5  C   UNL     1      31.685   3.760  40.912  1.00  0.00     0.178 C 
ATOM      6  O   UNL     1      32.487   3.203  41.944  1.00  0.00    -0.341 OA
ENDROOT
BRANCH   1   7
ATOM      7  O   UNL     1      30.804   1.709  42.610  1.00  0.00    -0.350 OA
BRANCH   7   8
ATOM      8  C   UNL     1      30.704   1.901  44.006  1.00  0.00     0.160 C 
ATOM      9  C   UNL     1      31.885   1.227  44.695  1.00  0.00     0.035 C 
ENDBRANCH   7   8
ENDBRANCH   1   7
BRANCH   2  10
ATOM     10  O   UNL     1      32.016  -0.355  41.179  1.00  0.00    -0.385 OA
ATOM     11  H   UNL     1      31.062  -0.424  40.905  1.00  0.00     0.211 HD
ENDBRANCH   2  10
BRANCH   3  12
ATOM     12  O   UNL     1      32.037   0.827  38.574  1.00  0.00    -0.387 OA
ATOM     13  H   UNL     1      31.457   1.148  37.832  1.00  0.00     0.211 HD
ENDBRANCH   3  12
BRANCH   5  14
ATOM     14  C   UNL     1      31.986   5.260  40.804  1.00  0.00     0.191 C 
BRANCH  14  15
ATOM     15  O   UNL     1      30.891   5.949  40.268  1.00  0.00    -0.394 OA
ATOM     16  H   UNL     1      30.082   5.454  40.565  1.00  0.00     0.210 HD
ENDBRANCH  14  15
ENDBRANCH   5  14
BRANCH   4  17
ATOM     17  O   UNL     1      31.168   3.584  38.532  1.00  0.00    -0.387 OA
ATOM     18  H   UNL     1      31.086   4.554  38.710  1.00  0.00     0.211 HD
ENDBRANCH   4  17
TORSDOF 7
ENDMDL
MODEL 5
REMARK VINA RESULT:    -4.421     16.908     17.695
REMARK INTER + INTRA:          -6.134
REMARK INTER:                  -5.885
REMARK INTRA:                  -0.249
REMARK UNBOUND:                -0.421
REMARK SMILES CCO[C@@H]1O[C@@H](CO)[C@H](O)[C@@H](O)[C@@H]1O
REMARK SMILES IDX 4 1 13 2 11 3 9 4 6 5 5 6 3 7 2 8 1 9 14 10 12 12 7 14 8 15
REMARK SMILES IDX 10 17
REMARK H PARENT 14 11 12 13 8 16 10 18
REMARK Flexibility Score: inf
ROOT
ATOM      1  C   UNL     1      37.430   7.570  43.757  1.00  0.00     0.281 C 
ATOM      2  C   UNL     1      36.475   8.103  44.847  1.00  0.00     0.202 C 
ATOM      3  C   UNL     1      36.793   9.569  45.175  1.00  0.00     0.179 C 
ATOM      4  C   UNL     1      36.843  10.393  43.871  1.00  0.00     0.177 C 
ATOM      5  C   UNL     1      37.798   9.713  42.857  1.00  0.00     0.178 C 
ATOM      6  O   UNL     1      37.376   8.384  42.588  1.00  0.00    -0.341 OA
ENDROOT
BRANCH   1   7
ATOM      7  O   UNL     1      38.754   7.481  44.261  1.00  0.00    -0.350 OA
BRANCH   7   8
ATOM      8  C   UNL     1      39.409   6.351  43.723  1.00  0.00     0.160 C 
ATOM      9  C   UNL     1      38.985   5.106  44.497  1.00  0.00     0.035 C 
ENDBRANCH   7   8
ENDBRANCH   1   7
BRANCH   2  10
ATOM     10  O   UNL     1      36.590   7.327  46.013  1.00  0.00    -0.385 OA
ATOM     11  H   UNL     1      36.982   7.916  46.713  1.00  0.00     0.211 HD
ENDBRANCH   2  10
BRANCH   3  12
ATOM     12  O   UNL     1      35.803  10.076  46.032  1.00  0.00    -0.387 OA
ATOM     13  H   UNL     1      34.975  10.175  45.490  1.00  0.00     0.211 HD
ENDBRANCH   3  12
BRANCH   5  14
ATOM     14  C   UNL     1      37.864  10.490  41.537  1.00  0.00     0.191 C 
BRANCH  14  15
ATOM     15  O   UNL     1      38.305   9.663  40.496  1.00  0.00    -0.394 OA
ATOM     16  H   UNL     1      39.285   9.564  40.619  1.00  0.00     0.210 HD
ENDBRANCH  14  15
ENDBRANCH   5  14
BRANCH   4  17
ATOM     17  O   UNL     1      37.237  11.719  44.132  1.00  0.00    -0.387 OA
ATOM     18  H   UNL     1      37.425  11.786  45.101  1.00  0.00     0.211 HD
ENDBRANCH   4  17
TORSDOF 7
ENDMDL
MODEL 6
REMARK VINA RESULT:    -4.407     10.221     11.454
REMARK INTER + INTRA:          -6.116
REMARK INTER:                  -5.862
REMARK INTRA:                  -0.253
REMARK UNBOUND:                -0.421
REMARK SMILES CCO[C@@H]1O[C@@H](CO)[C@H](O)[C@@H](O)[C@@H]1O
REMARK SMILES IDX 4 1 13 2 11 3 9 4 6 5 5 6 3 7 2 8 1 9 14 10 12 12 7 14 8 15
REMARK SMILES IDX 10 17
REMARK H PARENT 14 11 12 13 8 16 10 18
REMARK Flexibility Score: inf
ROOT
ATOM      1  C   UNL     1      31.414   2.143  41.620  1.00  0.00     0.281 C 
ATOM      2  C   UNL     1      31.457   3.386  40.706  1.00  0.00     0.202 C 
ATOM      3  C   UNL     1      32.658   3.314  39.750  1.00  0.00     0.179 C 
ATOM      4  C   UNL     1      32.661   1.952  39.025  1.00  0.00     0.177 C 
ATOM      5  C   UNL     1      32.564   0.805  40.062  1.00  0.00     0.178 C 
ATOM      6  O   UNL     1      31.391   0.943  40.850  1.00  0.00    -0.341 OA
ENDROOT
BRANCH   1   7
ATOM      7  O   UNL     1      32.511   2.154  42.520  1.00  0.00    -0.350 OA
BRANCH   7   8
ATOM      8  C   UNL     1      32.139   1.578  43.755  1.00  0.00     0.160 C 
ATOM      9  C   UNL     1      30.703   1.971  44.083  1.00  0.00     0.035 C 
ENDBRANCH   7   8
ENDBRANCH   1   7
BRANCH   2  10
ATOM     10  O   UNL     1      31.547   4.555  41.482  1.00  0.00    -0.385 OA
ATOM     11  H   UNL     1      31.300   4.302  42.412  1.00  0.00     0.211 HD
ENDBRANCH   2  10
BRANCH   3  12
ATOM     12  O   UNL     1      32.570   4.361  38.818  1.00  0.00    -0.387 OA
ATOM     13  H   UNL     1      32.081   4.004  38.028  1.00  0.00     0.211 HD
ENDBRANCH   3  12
BRANCH   5  14
ATOM     14  C   UNL     1      32.546  -0.569  39.382  1.00  0.00     0.191 C 
BRANCH  14  15
ATOM     15  O   UNL     1      31.234  -1.045  39.259  1.00  0.00    -0.394 OA
ATOM     16  H   UNL     1      31.305  -1.944  38.841  1.00  0.00     0.210 HD
ENDBRANCH  14  15
ENDBRANCH   5  14
BRANCH   4  17
ATOM     17  O   UNL     1      33.809   1.817  38.221  1.00  0.00    -0.387 OA
ATOM     18  H   UNL     1      33.515   1.846  37.277  1.00  0.00     0.211 HD
ENDBRANCH   4  17
TORSDOF 7
ENDMDL
MODEL 7
REMARK VINA RESULT:    -4.377     10.355     11.262
REMARK INTER + INTRA:          -6.077
REMARK INTER:                  -5.625
REMARK INTRA:                  -0.453
REMARK UNBOUND:                -0.421
REMARK SMILES CCO[C@@H]1O[C@@H](CO)[C@H](O)[C@@H](O)[C@@H]1O
REMARK SMILES IDX 4 1 13 2 11 3 9 4 6 5 5 6 3 7 2 8 1 9 14 10 12 12 7 14 8 15
REMARK SMILES IDX 10 17
REMARK H PARENT 14 11 12 13 8 16 10 18
REMARK Flexibility Score: inf
ROOT
ATOM      1  C   UNL     1      32.688   1.278  38.991  1.00  0.00     0.281 C 
ATOM      2  C   UNL     1      31.704   0.762  40.062  1.00  0.00     0.202 C 
ATOM      3  C   UNL     1      31.688   1.699  41.278  1.00  0.00     0.179 C 
ATOM      4  C   UNL     1      31.461   3.152  40.810  1.00  0.00     0.177 C 
ATOM      5  C   UNL     1      32.484   3.512  39.703  1.00  0.00     0.178 C 
ATOM      6  O   UNL     1      32.372   2.615  38.608  1.00  0.00    -0.341 OA
ENDROOT
BRANCH   1   7
ATOM      7  O   UNL     1      34.024   1.181  39.458  1.00  0.00    -0.350 OA
BRANCH   7   8
ATOM      8  C   UNL     1      34.900   0.890  38.389  1.00  0.00     0.160 C 
ATOM      9  C   UNL     1      34.953  -0.620  38.176  1.00  0.00     0.035 C 
ENDBRANCH   7   8
ENDBRANCH   1   7
BRANCH   2  10
ATOM     10  O   UNL     1      32.071  -0.531  40.473  1.00  0.00    -0.385 OA
ATOM     11  H   UNL     1      31.233  -0.997  40.740  1.00  0.00     0.211 HD
ENDBRANCH   2  10
BRANCH   3  12
ATOM     12  O   UNL     1      30.661   1.305  42.152  1.00  0.00    -0.387 OA
ATOM     13  H   UNL     1      29.928   1.971  42.055  1.00  0.00     0.211 HD
ENDBRANCH   3  12
BRANCH   5  14
ATOM     14  C   UNL     1      32.283   4.945  39.194  1.00  0.00     0.191 C 
BRANCH  14  15
ATOM     15  O   UNL     1      30.948   5.341  39.340  1.00  0.00    -0.394 OA
ATOM     16  H   UNL     1      30.883   5.764  40.236  1.00  0.00     0.210 HD
ENDBRANCH  14  15
ENDBRANCH   5  14
BRANCH   4  17
ATOM     17  O   UNL     1      31.546   4.046  41.894  1.00  0.00    -0.387 OA
ATOM     18  H   UNL     1      30.846   4.733  41.767  1.00  0.00     0.211 HD
ENDBRANCH   4  17
TORSDOF 7
ENDMDL
MODEL 8
REMARK VINA RESULT:    -4.237     10.713     11.650
REMARK INTER + INTRA:          -5.896
REMARK INTER:                  -5.519
REMARK INTRA:                  -0.377
REMARK UNBOUND:                -0.421
REMARK SMILES CCO[C@@H]1O[C@@H](CO)[C@H](O)[C@@H](O)[C@@H]1O
REMARK SMILES IDX 4 1 13 2 11 3 9 4 6 5 5 6 3 7 2 8 1 9 14 10 12 12 7 14 8 15
REMARK SMILES IDX 10 17
REMARK H PARENT 14 11 12 13 8 16 10 18
REMARK Flexibility Score: inf
ROOT
ATOM      1  C   UNL     1      32.344   1.573  42.174  1.00  0.00     0.281 C 
ATOM      2  C   UNL     1      31.497   1.653  40.887  1.00  0.00     0.202 C 
ATOM      3  C   UNL     1      31.484   3.086  40.335  1.00  0.00     0.179 C 
ATOM      4  C   UNL     1      32.931   3.608  40.214  1.00  0.00     0.177 C 
ATOM      5  C   UNL     1      33.671   3.418  41.562  1.00  0.00     0.178 C 
ATOM      6  O   UNL     1      33.667   2.050  41.945  1.00  0.00    -0.341 OA
ENDROOT
BRANCH   1   7
ATOM      7  O   UNL     1      31.715   2.290  43.225  1.00  0.00    -0.350 OA
BRANCH   7   8
ATOM      8  C   UNL     1      31.742   1.537  44.420  1.00  0.00     0.160 C 
ATOM      9  C   UNL     1      30.502   1.859  45.247  1.00  0.00     0.035 C 
ENDBRANCH   7   8
ENDBRANCH   1   7
BRANCH   2  10
ATOM     10  O   UNL     1      30.178   1.241  41.148  1.00  0.00    -0.385 OA
ATOM     11  H   UNL     1      29.677   1.319  40.292  1.00  0.00     0.211 HD
ENDBRANCH   2  10
BRANCH   3  12
ATOM     12  O   UNL     1      30.859   3.092  39.077  1.00  0.00    -0.387 OA
ATOM     13  H   UNL     1      31.236   2.328  38.564  1.00  0.00     0.211 HD
ENDBRANCH   3  12
BRANCH   5  14
ATOM     14  C   UNL     1      35.123   3.906  41.482  1.00  0.00     0.191 C 
BRANCH  14  15
ATOM     15  O   UNL     1      35.174   5.306  41.441  1.00  0.00    -0.394 OA
ATOM     16  H   UNL     1      34.342   5.598  40.985  1.00  0.00     0.210 HD
ENDBRANCH  14  15
ENDBRANCH   5  14
BRANCH   4  17
ATOM     17  O   UNL     1      32.945   4.956  39.810  1.00  0.00    -0.387 OA
ATOM     18  H   UNL     1      32.813   5.509  40.620  1.00  0.00     0.211 HD
ENDBRANCH   4  17
TORSDOF 7
ENDMDL
MODEL 9
REMARK VINA RESULT:    -4.190     10.315     11.415
REMARK INTER + INTRA:          -5.836
REMARK INTER:                  -5.404
REMARK INTRA:                  -0.432
REMARK UNBOUND:                -0.421
REMARK SMILES CCO[C@@H]1O[C@@H](CO)[C@H](O)[C@@H](O)[C@@H]1O
REMARK SMILES IDX 4 1 13 2 11 3 9 4 6 5 5 6 3 7 2 8 1 9 14 10 12 12 7 14 8 15
REMARK SMILES IDX 10 17
REMARK H PARENT 14 11 12 13 8 16 10 18
REMARK Flexibility Score: inf
ROOT
ATOM      1  C   UNL     1      32.804   0.690  39.405  1.00  0.00     0.281 C 
ATOM      2  C   UNL     1      33.152   2.067  38.800  1.00  0.00     0.202 C 
ATOM      3  C   UNL     1      32.227   3.155  39.363  1.00  0.00     0.179 C 
ATOM      4  C   UNL     1      32.224   3.087  40.905  1.00  0.00     0.177 C 
ATOM      5  C   UNL     1      31.910   1.640  41.364  1.00  0.00     0.178 C 
ATOM      6  O   UNL     1      32.860   0.729  40.829  1.00  0.00    -0.341 OA
ENDROOT
BRANCH   1   7
ATOM      7  O   UNL     1      31.530   0.260  38.953  1.00  0.00    -0.350 OA
BRANCH   7   8
ATOM      8  C   UNL     1      31.514  -1.143  38.790  1.00  0.00     0.160 C 
ATOM      9  C   UNL     1      32.825  -1.592  38.152  1.00  0.00     0.035 C 
ENDBRANCH   7   8
ENDBRANCH   1   7
BRANCH   2  10
ATOM     10  O   UNL     1      33.028   2.026  37.400  1.00  0.00    -0.385 OA
ATOM     11  H   UNL     1      32.624   2.891  37.122  1.00  0.00     0.211 HD
ENDBRANCH   2  10
BRANCH   3  12
ATOM     12  O   UNL     1      32.679   4.414  38.935  1.00  0.00    -0.387 OA
ATOM     13  H   UNL     1      32.097   5.094  39.370  1.00  0.00     0.211 HD
ENDBRANCH   3  12
BRANCH   5  14
ATOM     14  C   UNL     1      31.915   1.521  42.893  1.00  0.00     0.191 C 
BRANCH  14  15
ATOM     15  O   UNL     1      30.618   1.650  43.406  1.00  0.00    -0.394 OA
ATOM     16  H   UNL     1      30.080   2.074  42.688  1.00  0.00     0.210 HD
ENDBRANCH  14  15
ENDBRANCH   5  14
BRANCH   4  17
ATOM     17  O   UNL     1      31.303   4.004  41.445  1.00  0.00    -0.387 OA
ATOM     18  H   UNL     1      31.820   4.679  41.951  1.00  0.00     0.211 HD
ENDBRANCH   4  17
TORSDOF 7
ENDMDL
