MODEL 1
REMARK VINA RESULT:    29.645      0.000      0.000
REMARK INTER + INTRA:          35.792
REMARK INTER:                  35.710
REMARK INTRA:                   0.082
REMARK UNBOUND:                 0.082
REMARK SMILES O=c1c(O)c(-c2ccc(O)c(O)c2)oc2cc(O)cc(O)c12
REMARK SMILES IDX 5 1 3 2 2 3 1 4 22 5 20 6 19 7 17 8 16 9 15 10 14 11 6 12
REMARK SMILES IDX 7 13 8 14 9 15 13 16 11 17 10 18 12 20 4 22 21 24 18 26
REMARK H PARENT 10 19 12 21 4 23 21 25 18 27
REMARK Flexibility Score: inf
ROOT
ATOM      1  C   UNL     1       7.791   1.655  40.086  1.00  0.00     0.180 A 
ATOM      2  C   UNL     1       8.005   3.041  40.183  1.00  0.00     0.208 A 
ATOM      3  C   UNL     1       7.676   3.858  39.090  1.00  0.00     0.238 A 
ATOM      4  O   UNL     1       7.820   5.104  39.202  1.00  0.00    -0.285 OA
ATOM      5  C   UNL     1       7.153   3.279  37.908  1.00  0.00     0.111 A 
ATOM      6  C   UNL     1       6.824   4.008  36.727  1.00  0.00     0.134 A 
ATOM      7  C   UNL     1       6.191   3.351  35.664  1.00  0.00     0.093 A 
ATOM      8  C   UNL     1       5.936   1.978  35.716  1.00  0.00     0.123 A 
ATOM      9  C   UNL     1       6.307   1.248  36.842  1.00  0.00     0.094 A 
ATOM     10  C   UNL     1       6.908   1.882  37.932  1.00  0.00     0.146 A 
ATOM     11  O   UNL     1       7.237   1.150  38.990  1.00  0.00    -0.452 OA
ENDROOT
BRANCH   1  12
ATOM     12  C   UNL     1       8.135   0.725  41.186  1.00  0.00     0.025 A 
ATOM     13  C   UNL     1       7.273  -0.341  41.486  1.00  0.00     0.016 A 
ATOM     14  C   UNL     1       7.588  -1.242  42.506  1.00  0.00     0.051 A 
ATOM     15  C   UNL     1       8.775  -1.102  43.231  1.00  0.00     0.157 A 
ATOM     16  C   UNL     1       9.339   0.853  41.902  1.00  0.00     0.062 A 
ATOM     17  C   UNL     1       9.658  -0.052  42.926  1.00  0.00     0.158 A 
BRANCH  15  18
ATOM     18  O   UNL     1       9.062  -2.015  44.245  1.00  0.00    -0.504 OA
ATOM     19  H   UNL     1       9.960  -2.034  44.713  1.00  0.00     0.293 HD
ENDBRANCH  15  18
BRANCH  17  20
ATOM     20  O   UNL     1      10.850   0.086  43.636  1.00  0.00    -0.504 OA
ATOM     21  H   UNL     1      11.720   0.319  43.172  1.00  0.00     0.293 HD
ENDBRANCH  17  20
ENDBRANCH   1  12
BRANCH   2  22
ATOM     22  O   UNL     1       8.502   3.593  41.366  1.00  0.00    -0.502 OA
ATOM     23  H   UNL     1       9.177   4.350  41.372  1.00  0.00     0.293 HD
ENDBRANCH   2  22
BRANCH   6  24
ATOM     24  O   UNL     1       7.119   5.361  36.536  1.00  0.00    -0.507 OA
ATOM     25  H   UNL     1       6.622   5.975  35.907  1.00  0.00     0.293 HD
ENDBRANCH   6  24
BRANCH   8  26
ATOM     26  O   UNL     1       5.319   1.329  34.648  1.00  0.00    -0.508 OA
ATOM     27  H   UNL     1       4.885   0.421  34.760  1.00  0.00     0.293 HD
ENDBRANCH   8  26
TORSDOF 6
ENDMDL
MODEL 2
REMARK VINA RESULT:    30.020      1.797      2.905
REMARK INTER + INTRA:          36.244
REMARK INTER:                  36.400
REMARK INTRA:                  -0.156
REMARK UNBOUND:                 0.082
REMARK SMILES O=c1c(O)c(-c2ccc(O)c(O)c2)oc2cc(O)cc(O)c12
REMARK SMILES IDX 5 1 3 2 2 3 1 4 22 5 20 6 19 7 17 8 16 9 15 10 14 11 6 12
REMARK SMILES IDX 7 13 8 14 9 15 13 16 11 17 10 18 12 20 4 22 21 24 18 26
REMARK H PARENT 10 19 12 21 4 23 21 25 18 27
REMARK Flexibility Score: inf
ROOT
ATOM      1  C   UNL     1       6.766   1.881  38.135  1.00  0.00     0.180 A 
ATOM      2  C   UNL     1       6.922   3.220  37.736  1.00  0.00     0.208 A 
ATOM      3  C   UNL     1       6.538   3.593  36.438  1.00  0.00     0.238 A 
ATOM      4  O   UNL     1       6.631   4.803  36.106  1.00  0.00    -0.285 OA
ATOM      5  C   UNL     1       6.018   2.621  35.550  1.00  0.00     0.111 A 
ATOM      6  C   UNL     1       5.635   2.880  34.200  1.00  0.00     0.134 A 
ATOM      7  C   UNL     1       5.011   1.872  33.455  1.00  0.00     0.093 A 
ATOM      8  C   UNL     1       4.815   0.596  33.990  1.00  0.00     0.123 A 
ATOM      9  C   UNL     1       5.239   0.318  35.286  1.00  0.00     0.094 A 
ATOM     10  C   UNL     1       5.833   1.312  36.068  1.00  0.00     0.146 A 
ATOM     11  O   UNL     1       6.213   1.007  37.302  1.00  0.00    -0.452 OA
ENDROOT
BRANCH   1  12
ATOM     12  C   UNL     1       7.171   1.406  39.478  1.00  0.00     0.025 A 
ATOM     13  C   UNL     1       8.523   1.459  39.851  1.00  0.00     0.016 A 
ATOM     14  C   UNL     1       8.924   1.036  41.121  1.00  0.00     0.051 A 
ATOM     15  C   UNL     1       7.981   0.569  42.041  1.00  0.00     0.157 A 
ATOM     16  C   UNL     1       6.221   0.956  40.412  1.00  0.00     0.062 A 
ATOM     17  C   UNL     1       6.622   0.533  41.689  1.00  0.00     0.158 A 
BRANCH  15  18
ATOM     18  O   UNL     1       8.412   0.152  43.301  1.00  0.00    -0.504 OA
ATOM     19  H   UNL     1       9.327   0.390  43.662  1.00  0.00     0.293 HD
ENDBRANCH  15  18
BRANCH  17  20
ATOM     20  O   UNL     1       5.674   0.082  42.607  1.00  0.00    -0.504 OA
ATOM     21  H   UNL     1       5.004  -0.639  42.367  1.00  0.00     0.293 HD
ENDBRANCH  17  20
ENDBRANCH   1  12
BRANCH   2  22
ATOM     22  O   UNL     1       7.418   4.167  38.636  1.00  0.00    -0.502 OA
ATOM     23  H   UNL     1       6.851   4.928  38.993  1.00  0.00     0.293 HD
ENDBRANCH   2  22
BRANCH   6  24
ATOM     24  O   UNL     1       5.868   4.090  33.541  1.00  0.00    -0.507 OA
ATOM     25  H   UNL     1       6.519   4.214  32.780  1.00  0.00     0.293 HD
ENDBRANCH   6  24
BRANCH   8  26
ATOM     26  O   UNL     1       4.206  -0.405  33.235  1.00  0.00    -0.508 OA
ATOM     27  H   UNL     1       4.001  -0.276  32.252  1.00  0.00     0.293 HD
ENDBRANCH   8  26
TORSDOF 6
ENDMDL
MODEL 3
REMARK VINA RESULT:    30.738      1.871      7.482
REMARK INTER + INTRA:          37.108
REMARK INTER:                  37.101
REMARK INTRA:                   0.008
REMARK UNBOUND:                 0.082
REMARK SMILES O=c1c(O)c(-c2ccc(O)c(O)c2)oc2cc(O)cc(O)c12
REMARK SMILES IDX 5 1 3 2 2 3 1 4 22 5 20 6 19 7 17 8 16 9 15 10 14 11 6 12
REMARK SMILES IDX 7 13 8 14 9 15 13 16 11 17 10 18 12 20 4 22 21 24 18 26
REMARK H PARENT 10 19 12 21 4 23 21 25 18 27
REMARK Flexibility Score: inf
ROOT
ATOM      1  C   UNL     1       8.241   0.890  41.344  1.00  0.00     0.180 A 
ATOM      2  C   UNL     1       7.186   0.086  41.810  1.00  0.00     0.208 A 
ATOM      3  C   UNL     1       7.481  -1.029  42.610  1.00  0.00     0.238 A 
ATOM      4  O   UNL     1       6.529  -1.714  43.067  1.00  0.00    -0.285 OA
ATOM      5  C   UNL     1       8.828  -1.337  42.921  1.00  0.00     0.111 A 
ATOM      6  C   UNL     1       9.244  -2.465  43.689  1.00  0.00     0.134 A 
ATOM      7  C   UNL     1      10.592  -2.598  44.045  1.00  0.00     0.093 A 
ATOM      8  C   UNL     1      11.547  -1.678  43.606  1.00  0.00     0.123 A 
ATOM      9  C   UNL     1      11.159  -0.607  42.806  1.00  0.00     0.094 A 
ATOM     10  C   UNL     1       9.816  -0.427  42.464  1.00  0.00     0.146 A 
ATOM     11  O   UNL     1       9.487   0.614  41.708  1.00  0.00    -0.452 OA
ENDROOT
BRANCH   1  12
ATOM     12  C   UNL     1       8.011   2.067  40.476  1.00  0.00     0.025 A 
ATOM     13  C   UNL     1       8.678   3.271  40.753  1.00  0.00     0.016 A 
ATOM     14  C   UNL     1       8.491   4.388  39.935  1.00  0.00     0.051 A 
ATOM     15  C   UNL     1       7.650   4.317  38.821  1.00  0.00     0.157 A 
ATOM     16  C   UNL     1       7.181   1.990  39.343  1.00  0.00     0.062 A 
ATOM     17  C   UNL     1       6.994   3.111  38.519  1.00  0.00     0.158 A 
BRANCH  15  18
ATOM     18  O   UNL     1       7.482   5.449  38.024  1.00  0.00    -0.504 OA
ATOM     19  H   UNL     1       7.217   5.385  37.050  1.00  0.00     0.293 HD
ENDBRANCH  15  18
BRANCH  17  20
ATOM     20  O   UNL     1       6.165   3.028  37.402  1.00  0.00    -0.504 OA
ATOM     21  H   UNL     1       5.527   2.252  37.270  1.00  0.00     0.293 HD
ENDBRANCH  17  20
ENDBRANCH   1  12
BRANCH   2  22
ATOM     22  O   UNL     1       5.863   0.420  41.508  1.00  0.00    -0.502 OA
ATOM     23  H   UNL     1       5.621   1.092  40.789  1.00  0.00     0.293 HD
ENDBRANCH   2  22
BRANCH   6  24
ATOM     24  O   UNL     1       8.386  -3.489  44.101  1.00  0.00    -0.507 OA
ATOM     25  H   UNL     1       8.679  -4.427  44.329  1.00  0.00     0.293 HD
ENDBRANCH   6  24
BRANCH   8  26
ATOM     26  O   UNL     1      12.889  -1.826  43.952  1.00  0.00    -0.508 OA
ATOM     27  H   UNL     1      13.574  -1.114  43.732  1.00  0.00     0.293 HD
ENDBRANCH   8  26
TORSDOF 6
ENDMDL
MODEL 4
REMARK VINA RESULT:    31.151      1.613      6.821
REMARK INTER + INTRA:          37.606
REMARK INTER:                  37.141
REMARK INTRA:                   0.465
REMARK UNBOUND:                 0.082
REMARK SMILES O=c1c(O)c(-c2ccc(O)c(O)c2)oc2cc(O)cc(O)c12
REMARK SMILES IDX 5 1 3 2 2 3 1 4 22 5 20 6 19 7 17 8 16 9 15 10 14 11 6 12
REMARK SMILES IDX 7 13 8 14 9 15 13 16 11 17 10 18 12 20 4 22 21 24 18 26
REMARK H PARENT 10 19 12 21 4 23 21 25 18 27
REMARK Flexibility Score: inf
ROOT
ATOM      1  C   UNL     1       6.592   2.289  37.102  1.00  0.00     0.180 A 
ATOM      2  C   UNL     1       7.000   3.622  37.281  1.00  0.00     0.208 A 
ATOM      3  C   UNL     1       7.597   3.994  38.496  1.00  0.00     0.238 A 
ATOM      4  O   UNL     1       8.008   5.176  38.630  1.00  0.00    -0.285 OA
ATOM      5  C   UNL     1       7.765   3.034  39.522  1.00  0.00     0.111 A 
ATOM      6  C   UNL     1       8.321   3.311  40.807  1.00  0.00     0.134 A 
ATOM      7  C   UNL     1       8.559   2.256  41.697  1.00  0.00     0.093 A 
ATOM      8  C   UNL     1       8.202   0.945  41.374  1.00  0.00     0.123 A 
ATOM      9  C   UNL     1       7.605   0.674  40.145  1.00  0.00     0.094 A 
ATOM     10  C   UNL     1       7.386   1.700  39.222  1.00  0.00     0.146 A 
ATOM     11  O   UNL     1       6.823   1.397  38.058  1.00  0.00    -0.452 OA
ENDROOT
BRANCH   1  12
ATOM     12  C   UNL     1       5.933   1.826  35.860  1.00  0.00     0.025 A 
ATOM     13  C   UNL     1       6.060   2.585  34.686  1.00  0.00     0.016 A 
ATOM     14  C   UNL     1       5.464   2.157  33.497  1.00  0.00     0.051 A 
ATOM     15  C   UNL     1       4.746   0.959  33.458  1.00  0.00     0.157 A 
ATOM     16  C   UNL     1       5.227   0.610  35.814  1.00  0.00     0.062 A 
ATOM     17  C   UNL     1       4.629   0.177  34.621  1.00  0.00     0.158 A 
BRANCH  15  18
ATOM     18  O   UNL     1       4.160   0.557  32.258  1.00  0.00    -0.504 OA
ATOM     19  H   UNL     1       3.212   0.815  32.010  1.00  0.00     0.293 HD
ENDBRANCH  15  18
BRANCH  17  20
ATOM     20  O   UNL     1       3.927  -1.026  34.586  1.00  0.00    -0.504 OA
ATOM     21  H   UNL     1       3.641  -1.499  35.435  1.00  0.00     0.293 HD
ENDBRANCH  17  20
ENDBRANCH   1  12
BRANCH   2  22
ATOM     22  O   UNL     1       6.844   4.549  36.247  1.00  0.00    -0.502 OA
ATOM     23  H   UNL     1       6.626   4.272  35.296  1.00  0.00     0.293 HD
ENDBRANCH   2  22
BRANCH   6  24
ATOM     24  O   UNL     1       8.628   4.595  41.265  1.00  0.00    -0.507 OA
ATOM     25  H   UNL     1       9.194   5.264  40.764  1.00  0.00     0.293 HD
ENDBRANCH   6  24
BRANCH   8  26
ATOM     26  O   UNL     1       8.429  -0.097  42.272  1.00  0.00    -0.508 OA
ATOM     27  H   UNL     1       7.730  -0.809  42.444  1.00  0.00     0.293 HD
ENDBRANCH   8  26
TORSDOF 6
ENDMDL
