MODEL 1
REMARK VINA RESULT:    -6.116      0.000      0.000
REMARK INTER + INTRA:          -7.726
REMARK INTER:                  -7.367
REMARK INTRA:                  -0.359
REMARK UNBOUND:                -0.359
REMARK SMILES Oc1cc(O)c2c(c1)O[C@H](c1ccc(O)c(O)c1)[C@@H](O)C2
REMARK SMILES IDX 21 1 19 2 10 3 9 4 7 5 8 6 2 7 3 8 4 9 6 10 20 11 11 13
REMARK SMILES IDX 18 14 12 15 16 16 13 17 14 18 17 19 15 21 5 23 1 25
REMARK H PARENT 20 12 17 20 15 22 5 24 1 26
REMARK Flexibility Score: inf
ROOT
ATOM      1  C   UNL     1      64.691  41.267  47.337  1.00  0.00     0.079 C 
ATOM      2  C   UNL     1      65.836  40.622  48.141  1.00  0.00     0.164 C 
ATOM      3  C   UNL     1      65.787  39.093  47.987  1.00  0.00     0.232 C 
ATOM      4  O   UNL     1      64.509  38.606  48.399  1.00  0.00    -0.482 OA
ATOM      5  C   UNL     1      63.323  39.291  48.118  1.00  0.00     0.131 A 
ATOM      6  C   UNL     1      62.100  38.667  48.383  1.00  0.00     0.093 A 
ATOM      7  C   UNL     1      60.900  39.319  48.098  1.00  0.00     0.122 A 
ATOM      8  C   UNL     1      60.920  40.601  47.536  1.00  0.00     0.092 A 
ATOM      9  C   UNL     1      62.135  41.240  47.265  1.00  0.00     0.126 A 
ATOM     10  C   UNL     1      63.355  40.600  47.592  1.00  0.00     0.039 A 
ENDROOT
BRANCH   2  11
ATOM     11  O   UNL     1      67.071  41.106  47.680  1.00  0.00    -0.389 OA
ATOM     12  H   UNL     1      67.117  42.063  47.937  1.00  0.00     0.211 HD
ENDBRANCH   2  11
BRANCH   3  13
ATOM     13  C   UNL     1      66.871  38.427  48.802  1.00  0.00    -0.001 A 
ATOM     14  C   UNL     1      67.933  37.767  48.162  1.00  0.00     0.057 A 
ATOM     15  C   UNL     1      66.855  38.499  50.205  1.00  0.00     0.012 A 
ATOM     16  C   UNL     1      68.956  37.171  48.910  1.00  0.00     0.157 A 
ATOM     17  C   UNL     1      67.874  37.905  50.954  1.00  0.00     0.050 A 
ATOM     18  C   UNL     1      68.926  37.239  50.312  1.00  0.00     0.157 A 
BRANCH  16  19
ATOM     19  O   UNL     1      69.992  36.520  48.241  1.00  0.00    -0.504 OA
ATOM     20  H   UNL     1      70.649  35.919  48.723  1.00  0.00     0.293 HD
ENDBRANCH  16  19
BRANCH  18  21
ATOM     21  O   UNL     1      69.941  36.646  51.063  1.00  0.00    -0.504 OA
ATOM     22  H   UNL     1      70.515  35.902  50.686  1.00  0.00     0.293 HD
ENDBRANCH  18  21
ENDBRANCH   3  13
BRANCH   9  23
ATOM     23  O   UNL     1      62.094  42.500  46.661  1.00  0.00    -0.507 OA
ATOM     24  H   UNL     1      62.848  43.172  46.725  1.00  0.00     0.293 HD
ENDBRANCH   9  23
BRANCH   7  25
ATOM     25  O   UNL     1      59.691  38.682  48.370  1.00  0.00    -0.508 OA
ATOM     26  H   UNL     1      59.598  37.675  48.310  1.00  0.00     0.293 HD
ENDBRANCH   7  25
TORSDOF 6
ENDMDL
MODEL 2
REMARK VINA RESULT:    -5.795     11.961     13.525
REMARK INTER + INTRA:          -7.339
REMARK INTER:                  -6.998
REMARK INTRA:                  -0.342
REMARK UNBOUND:                -0.359
REMARK SMILES Oc1cc(O)c2c(c1)O[C@H](c1ccc(O)c(O)c1)[C@@H](O)C2
REMARK SMILES IDX 21 1 19 2 10 3 9 4 7 5 8 6 2 7 3 8 4 9 6 10 20 11 11 13
REMARK SMILES IDX 18 14 12 15 16 16 13 17 14 18 17 19 15 21 5 23 1 25
REMARK H PARENT 20 12 17 20 15 22 5 24 1 26
REMARK Flexibility Score: inf
ROOT
ATOM      1  C   UNL     1      65.552  53.194  49.999  1.00  0.00     0.079 C 
ATOM      2  C   UNL     1      66.760  52.425  49.432  1.00  0.00     0.164 C 
ATOM      3  C   UNL     1      67.079  52.925  48.013  1.00  0.00     0.232 C 
ATOM      4  O   UNL     1      65.926  52.791  47.181  1.00  0.00    -0.482 OA
ATOM      5  C   UNL     1      64.634  53.051  47.649  1.00  0.00     0.131 A 
ATOM      6  C   UNL     1      63.576  53.083  46.736  1.00  0.00     0.093 A 
ATOM      7  C   UNL     1      62.278  53.356  47.171  1.00  0.00     0.122 A 
ATOM      8  C   UNL     1      62.036  53.606  48.526  1.00  0.00     0.092 A 
ATOM      9  C   UNL     1      63.084  53.578  49.454  1.00  0.00     0.126 A 
ATOM     10  C   UNL     1      64.394  53.260  49.025  1.00  0.00     0.039 A 
ENDROOT
BRANCH   2  11
ATOM     11  O   UNL     1      67.876  52.612  50.263  1.00  0.00    -0.389 OA
ATOM     12  H   UNL     1      67.727  52.056  51.071  1.00  0.00     0.211 HD
ENDBRANCH   2  11
BRANCH   3  13
ATOM     13  C   UNL     1      68.232  52.157  47.409  1.00  0.00    -0.001 A 
ATOM     14  C   UNL     1      68.217  50.753  47.394  1.00  0.00     0.057 A 
ATOM     15  C   UNL     1      69.308  52.838  46.815  1.00  0.00     0.012 A 
ATOM     16  C   UNL     1      69.268  50.035  46.812  1.00  0.00     0.157 A 
ATOM     17  C   UNL     1      70.359  52.124  46.233  1.00  0.00     0.050 A 
ATOM     18  C   UNL     1      70.346  50.723  46.230  1.00  0.00     0.157 A 
BRANCH  16  19
ATOM     19  O   UNL     1      69.222  48.641  46.819  1.00  0.00    -0.504 OA
ATOM     20  H   UNL     1      69.974  48.081  47.201  1.00  0.00     0.293 HD
ENDBRANCH  16  19
BRANCH  18  21
ATOM     21  O   UNL     1      71.397  50.015  45.649  1.00  0.00    -0.504 OA
ATOM     22  H   UNL     1      72.138  50.484  45.142  1.00  0.00     0.293 HD
ENDBRANCH  18  21
ENDBRANCH   3  13
BRANCH   9  23
ATOM     23  O   UNL     1      62.790  53.881  50.786  1.00  0.00    -0.507 OA
ATOM     24  H   UNL     1      62.730  54.827  51.141  1.00  0.00     0.293 HD
ENDBRANCH   9  23
BRANCH   7  25
ATOM     25  O   UNL     1      61.236  53.382  46.247  1.00  0.00    -0.508 OA
ATOM     26  H   UNL     1      61.148  52.674  45.527  1.00  0.00     0.293 HD
ENDBRANCH   7  25
TORSDOF 6
ENDMDL
MODEL 3
REMARK VINA RESULT:    -5.598     11.298     14.851
REMARK INTER + INTRA:          -7.102
REMARK INTER:                  -6.834
REMARK INTRA:                  -0.269
REMARK UNBOUND:                -0.359
REMARK SMILES Oc1cc(O)c2c(c1)O[C@H](c1ccc(O)c(O)c1)[C@@H](O)C2
REMARK SMILES IDX 21 1 19 2 10 3 9 4 7 5 8 6 2 7 3 8 4 9 6 10 20 11 11 13
REMARK SMILES IDX 18 14 12 15 16 16 13 17 14 18 17 19 15 21 5 23 1 25
REMARK H PARENT 20 12 17 20 15 22 5 24 1 26
REMARK Flexibility Score: inf
ROOT
ATOM      1  C   UNL     1      66.649  49.914  47.115  1.00  0.00     0.079 C 
ATOM      2  C   UNL     1      65.384  50.502  47.769  1.00  0.00     0.164 C 
ATOM      3  C   UNL     1      65.016  51.832  47.091  1.00  0.00     0.232 C 
ATOM      4  O   UNL     1      66.119  52.735  47.164  1.00  0.00    -0.482 OA
ATOM      5  C   UNL     1      67.443  52.311  47.006  1.00  0.00     0.131 A 
ATOM      6  C   UNL     1      68.455  53.270  46.901  1.00  0.00     0.093 A 
ATOM      7  C   UNL     1      69.783  52.877  46.727  1.00  0.00     0.122 A 
ATOM      8  C   UNL     1      70.101  51.516  46.649  1.00  0.00     0.092 A 
ATOM      9  C   UNL     1      69.101  50.543  46.753  1.00  0.00     0.126 A 
ATOM     10  C   UNL     1      67.759  50.935  46.973  1.00  0.00     0.039 A 
ENDROOT
BRANCH   2  11
ATOM     11  O   UNL     1      64.320  49.595  47.645  1.00  0.00    -0.389 OA
ATOM     12  H   UNL     1      64.622  48.884  47.022  1.00  0.00     0.211 HD
ENDBRANCH   2  11
BRANCH   3  13
ATOM     13  C   UNL     1      63.804  52.459  47.741  1.00  0.00    -0.001 A 
ATOM     14  C   UNL     1      62.786  53.017  46.950  1.00  0.00     0.057 A 
ATOM     15  C   UNL     1      63.658  52.448  49.138  1.00  0.00     0.012 A 
ATOM     16  C   UNL     1      61.648  53.575  47.543  1.00  0.00     0.157 A 
ATOM     17  C   UNL     1      62.523  53.004  49.733  1.00  0.00     0.050 A 
ATOM     18  C   UNL     1      61.515  53.570  48.941  1.00  0.00     0.157 A 
BRANCH  16  19
ATOM     19  O   UNL     1      60.659  54.125  46.727  1.00  0.00    -0.504 OA
ATOM     20  H   UNL     1      59.925  54.716  47.096  1.00  0.00     0.293 HD
ENDBRANCH  16  19
BRANCH  18  21
ATOM     21  O   UNL     1      60.384  54.125  49.539  1.00  0.00    -0.504 OA
ATOM     22  H   UNL     1      59.559  54.359  48.999  1.00  0.00     0.293 HD
ENDBRANCH  18  21
ENDBRANCH   3  13
BRANCH   9  23
ATOM     23  O   UNL     1      69.473  49.202  46.622  1.00  0.00    -0.507 OA
ATOM     24  H   UNL     1      70.425  48.903  46.457  1.00  0.00     0.293 HD
ENDBRANCH   9  23
BRANCH   7  25
ATOM     25  O   UNL     1      70.778  53.847  46.626  1.00  0.00    -0.508 OA
ATOM     26  H   UNL     1      70.551  54.831  46.548  1.00  0.00     0.293 HD
ENDBRANCH   7  25
TORSDOF 6
ENDMDL
MODEL 4
REMARK VINA RESULT:    -5.571      6.862      8.353
REMARK INTER + INTRA:          -7.070
REMARK INTER:                  -6.727
REMARK INTRA:                  -0.343
REMARK UNBOUND:                -0.359
REMARK SMILES Oc1cc(O)c2c(c1)O[C@H](c1ccc(O)c(O)c1)[C@@H](O)C2
REMARK SMILES IDX 21 1 19 2 10 3 9 4 7 5 8 6 2 7 3 8 4 9 6 10 20 11 11 13
REMARK SMILES IDX 18 14 12 15 16 16 13 17 14 18 17 19 15 21 5 23 1 25
REMARK H PARENT 20 12 17 20 15 22 5 24 1 26
REMARK Flexibility Score: inf
ROOT
ATOM      1  C   UNL     1      65.436  37.459  42.190  1.00  0.00     0.079 C 
ATOM      2  C   UNL     1      66.254  38.181  41.102  1.00  0.00     0.164 C 
ATOM      3  C   UNL     1      67.573  38.698  41.697  1.00  0.00     0.232 C 
ATOM      4  O   UNL     1      67.302  39.551  42.810  1.00  0.00    -0.482 OA
ATOM      5  C   UNL     1      66.278  39.281  43.725  1.00  0.00     0.131 A 
ATOM      6  C   UNL     1      66.190  40.049  44.889  1.00  0.00     0.093 A 
ATOM      7  C   UNL     1      65.189  39.792  45.828  1.00  0.00     0.122 A 
ATOM      8  C   UNL     1      64.276  38.755  45.606  1.00  0.00     0.092 A 
ATOM      9  C   UNL     1      64.350  37.977  44.446  1.00  0.00     0.126 A 
ATOM     10  C   UNL     1      65.336  38.261  43.471  1.00  0.00     0.039 A 
ENDROOT
BRANCH   2  11
ATOM     11  O   UNL     1      66.524  37.297  40.045  1.00  0.00    -0.389 OA
ATOM     12  H   UNL     1      66.314  36.384  40.375  1.00  0.00     0.211 HD
ENDBRANCH   2  11
BRANCH   3  13
ATOM     13  C   UNL     1      68.379  39.453  40.666  1.00  0.00    -0.001 A 
ATOM     14  C   UNL     1      67.790  40.494  39.930  1.00  0.00     0.057 A 
ATOM     15  C   UNL     1      69.738  39.155  40.464  1.00  0.00     0.012 A 
ATOM     16  C   UNL     1      68.538  41.216  38.992  1.00  0.00     0.157 A 
ATOM     17  C   UNL     1      70.486  39.873  39.528  1.00  0.00     0.050 A 
ATOM     18  C   UNL     1      69.892  40.904  38.789  1.00  0.00     0.157 A 
BRANCH  16  19
ATOM     19  O   UNL     1      67.919  42.240  38.276  1.00  0.00    -0.504 OA
ATOM     20  H   UNL     1      67.075  42.086  37.738  1.00  0.00     0.293 HD
ENDBRANCH  16  19
BRANCH  18  21
ATOM     21  O   UNL     1      70.642  41.618  37.856  1.00  0.00    -0.504 OA
ATOM     22  H   UNL     1      70.333  42.513  37.498  1.00  0.00     0.293 HD
ENDBRANCH  18  21
ENDBRANCH   3  13
BRANCH   9  23
ATOM     23  O   UNL     1      63.439  36.926  44.300  1.00  0.00    -0.507 OA
ATOM     24  H   UNL     1      62.441  37.036  44.420  1.00  0.00     0.293 HD
ENDBRANCH   9  23
BRANCH   7  25
ATOM     25  O   UNL     1      65.115  40.569  46.982  1.00  0.00    -0.508 OA
ATOM     26  H   UNL     1      65.490  41.510  47.012  1.00  0.00     0.293 HD
ENDBRANCH   7  25
TORSDOF 6
ENDMDL
MODEL 5
REMARK VINA RESULT:    -5.401      1.197      6.959
REMARK INTER + INTRA:          -6.865
REMARK INTER:                  -6.510
REMARK INTRA:                  -0.356
REMARK UNBOUND:                -0.359
REMARK SMILES Oc1cc(O)c2c(c1)O[C@H](c1ccc(O)c(O)c1)[C@@H](O)C2
REMARK SMILES IDX 21 1 19 2 10 3 9 4 7 5 8 6 2 7 3 8 4 9 6 10 20 11 11 13
REMARK SMILES IDX 18 14 12 15 16 16 13 17 14 18 17 19 15 21 5 23 1 25
REMARK H PARENT 20 12 17 20 15 22 5 24 1 26
REMARK Flexibility Score: inf
ROOT
ATOM      1  C   UNL     1      67.188  38.663  46.783  1.00  0.00     0.079 C 
ATOM      2  C   UNL     1      65.661  38.866  46.796  1.00  0.00     0.164 C 
ATOM      3  C   UNL     1      65.250  39.658  48.048  1.00  0.00     0.232 C 
ATOM      4  O   UNL     1      65.705  38.982  49.220  1.00  0.00    -0.482 OA
ATOM      5  C   UNL     1      66.947  38.342  49.278  1.00  0.00     0.131 A 
ATOM      6  C   UNL     1      67.407  37.865  50.509  1.00  0.00     0.093 A 
ATOM      7  C   UNL     1      68.650  37.237  50.601  1.00  0.00     0.122 A 
ATOM      8  C   UNL     1      69.442  37.090  49.457  1.00  0.00     0.092 A 
ATOM      9  C   UNL     1      68.997  37.562  48.216  1.00  0.00     0.126 A 
ATOM     10  C   UNL     1      67.719  38.161  48.110  1.00  0.00     0.039 A 
ENDROOT
BRANCH   2  11
ATOM     11  O   UNL     1      65.265  39.562  45.642  1.00  0.00    -0.389 OA
ATOM     12  H   UNL     1      66.047  39.570  45.031  1.00  0.00     0.211 HD
ENDBRANCH   2  11
BRANCH   3  13
ATOM     13  C   UNL     1      63.751  39.836  48.114  1.00  0.00    -0.001 A 
ATOM     14  C   UNL     1      63.180  41.107  47.939  1.00  0.00     0.057 A 
ATOM     15  C   UNL     1      62.909  38.727  48.303  1.00  0.00     0.012 A 
ATOM     16  C   UNL     1      61.791  41.276  47.971  1.00  0.00     0.157 A 
ATOM     17  C   UNL     1      61.522  38.892  48.336  1.00  0.00     0.050 A 
ATOM     18  C   UNL     1      60.957  40.164  48.172  1.00  0.00     0.157 A 
BRANCH  16  19
ATOM     19  O   UNL     1      61.260  42.554  47.799  1.00  0.00    -0.504 OA
ATOM     20  H   UNL     1      61.537  43.334  48.382  1.00  0.00     0.293 HD
ENDBRANCH  16  19
BRANCH  18  21
ATOM     21  O   UNL     1      59.573  40.324  48.207  1.00  0.00    -0.504 OA
ATOM     22  H   UNL     1      58.976  39.683  48.715  1.00  0.00     0.293 HD
ENDBRANCH  18  21
ENDBRANCH   3  13
BRANCH   9  23
ATOM     23  O   UNL     1      69.851  37.429  47.118  1.00  0.00    -0.507 OA
ATOM     24  H   UNL     1      70.381  36.589  46.925  1.00  0.00     0.293 HD
ENDBRANCH   9  23
BRANCH   7  25
ATOM     25  O   UNL     1      69.092  36.767  51.836  1.00  0.00    -0.508 OA
ATOM     26  H   UNL     1      68.670  35.956  52.275  1.00  0.00     0.293 HD
ENDBRANCH   7  25
TORSDOF 6
ENDMDL
MODEL 6
REMARK VINA RESULT:    -5.347     11.045     13.171
REMARK INTER + INTRA:          -6.800
REMARK INTER:                  -6.514
REMARK INTRA:                  -0.286
REMARK UNBOUND:                -0.359
REMARK SMILES Oc1cc(O)c2c(c1)O[C@H](c1ccc(O)c(O)c1)[C@@H](O)C2
REMARK SMILES IDX 21 1 19 2 10 3 9 4 7 5 8 6 2 7 3 8 4 9 6 10 20 11 11 13
REMARK SMILES IDX 18 14 12 15 16 16 13 17 14 18 17 19 15 21 5 23 1 25
REMARK H PARENT 20 12 17 20 15 22 5 24 1 26
REMARK Flexibility Score: inf
ROOT
ATOM      1  C   UNL     1      65.852  52.369  46.839  1.00  0.00     0.079 C 
ATOM      2  C   UNL     1      64.848  51.933  47.923  1.00  0.00     0.164 C 
ATOM      3  C   UNL     1      65.566  51.797  49.276  1.00  0.00     0.232 C 
ATOM      4  O   UNL     1      66.651  50.877  49.158  1.00  0.00    -0.482 OA
ATOM      5  C   UNL     1      67.465  50.824  48.021  1.00  0.00     0.131 A 
ATOM      6  C   UNL     1      68.619  50.036  48.050  1.00  0.00     0.093 A 
ATOM      7  C   UNL     1      69.459  49.976  46.937  1.00  0.00     0.122 A 
ATOM      8  C   UNL     1      69.149  50.717  45.790  1.00  0.00     0.092 A 
ATOM      9  C   UNL     1      67.998  51.512  45.745  1.00  0.00     0.126 A 
ATOM     10  C   UNL     1      67.121  51.541  46.855  1.00  0.00     0.039 A 
ENDROOT
BRANCH   2  11
ATOM     11  O   UNL     1      63.818  52.882  48.026  1.00  0.00    -0.389 OA
ATOM     12  H   UNL     1      63.077  52.563  47.448  1.00  0.00     0.211 HD
ENDBRANCH   2  11
BRANCH   3  13
ATOM     13  C   UNL     1      64.617  51.326  50.353  1.00  0.00    -0.001 A 
ATOM     14  C   UNL     1      64.344  49.957  50.508  1.00  0.00     0.057 A 
ATOM     15  C   UNL     1      64.034  52.245  51.242  1.00  0.00     0.012 A 
ATOM     16  C   UNL     1      63.488  49.511  51.521  1.00  0.00     0.157 A 
ATOM     17  C   UNL     1      63.178  51.803  52.254  1.00  0.00     0.050 A 
ATOM     18  C   UNL     1      62.900  50.437  52.398  1.00  0.00     0.157 A 
BRANCH  16  19
ATOM     19  O   UNL     1      63.236  48.144  51.642  1.00  0.00    -0.504 OA
ATOM     20  H   UNL     1      63.660  47.463  51.024  1.00  0.00     0.293 HD
ENDBRANCH  16  19
BRANCH  18  21
ATOM     21  O   UNL     1      62.045  50.000  53.408  1.00  0.00    -0.504 OA
ATOM     22  H   UNL     1      62.176  50.280  54.373  1.00  0.00     0.293 HD
ENDBRANCH  18  21
ENDBRANCH   3  13
BRANCH   9  23
ATOM     23  O   UNL     1      67.765  52.264  44.591  1.00  0.00    -0.507 OA
ATOM     24  H   UNL     1      67.963  51.927  43.658  1.00  0.00     0.293 HD
ENDBRANCH   9  23
BRANCH   7  25
ATOM     25  O   UNL     1      70.604  49.184  46.982  1.00  0.00    -0.508 OA
ATOM     26  H   UNL     1      71.297  49.295  47.714  1.00  0.00     0.293 HD
ENDBRANCH   7  25
TORSDOF 6
ENDMDL
MODEL 7
REMARK VINA RESULT:    -5.272      5.346      6.979
REMARK INTER + INTRA:          -6.709
REMARK INTER:                  -6.508
REMARK INTRA:                  -0.201
REMARK UNBOUND:                -0.359
REMARK SMILES Oc1cc(O)c2c(c1)O[C@H](c1ccc(O)c(O)c1)[C@@H](O)C2
REMARK SMILES IDX 21 1 19 2 10 3 9 4 7 5 8 6 2 7 3 8 4 9 6 10 20 11 11 13
REMARK SMILES IDX 18 14 12 15 16 16 13 17 14 18 17 19 15 21 5 23 1 25
REMARK H PARENT 20 12 17 20 15 22 5 24 1 26
REMARK Flexibility Score: inf
ROOT
ATOM      1  C   UNL     1      63.894  38.042  45.383  1.00  0.00     0.079 C 
ATOM      2  C   UNL     1      64.293  38.023  43.895  1.00  0.00     0.164 C 
ATOM      3  C   UNL     1      65.805  38.263  43.756  1.00  0.00     0.232 C 
ATOM      4  O   UNL     1      66.160  39.495  44.385  1.00  0.00    -0.482 OA
ATOM      5  C   UNL     1      65.578  39.915  45.586  1.00  0.00     0.131 A 
ATOM      6  C   UNL     1      66.104  41.033  46.240  1.00  0.00     0.093 A 
ATOM      7  C   UNL     1      65.555  41.466  47.448  1.00  0.00     0.122 A 
ATOM      8  C   UNL     1      64.477  40.772  48.010  1.00  0.00     0.092 A 
ATOM      9  C   UNL     1      63.938  39.651  47.369  1.00  0.00     0.126 A 
ATOM     10  C   UNL     1      64.464  39.235  46.123  1.00  0.00     0.039 A 
ENDROOT
BRANCH   2  11
ATOM     11  O   UNL     1      63.956  36.783  43.328  1.00  0.00    -0.389 OA
ATOM     12  H   UNL     1      64.091  36.872  42.348  1.00  0.00     0.211 HD
ENDBRANCH   2  11
BRANCH   3  13
ATOM     13  C   UNL     1      66.223  38.297  42.305  1.00  0.00    -0.001 A 
ATOM     14  C   UNL     1      66.629  37.118  41.657  1.00  0.00     0.057 A 
ATOM     15  C   UNL     1      66.165  39.495  41.572  1.00  0.00     0.012 A 
ATOM     16  C   UNL     1      66.990  37.135  40.305  1.00  0.00     0.157 A 
ATOM     17  C   UNL     1      66.525  39.515  40.223  1.00  0.00     0.050 A 
ATOM     18  C   UNL     1      66.940  38.340  39.584  1.00  0.00     0.157 A 
BRANCH  16  19
ATOM     19  O   UNL     1      67.393  35.947  39.697  1.00  0.00    -0.504 OA
ATOM     20  H   UNL     1      67.723  35.154  40.233  1.00  0.00     0.293 HD
ENDBRANCH  16  19
BRANCH  18  21
ATOM     21  O   UNL     1      67.300  38.364  38.238  1.00  0.00    -0.504 OA
ATOM     22  H   UNL     1      66.636  38.614  37.515  1.00  0.00     0.293 HD
ENDBRANCH  18  21
ENDBRANCH   3  13
BRANCH   9  23
ATOM     23  O   UNL     1      62.892  38.972  48.001  1.00  0.00    -0.507 OA
ATOM     24  H   UNL     1      62.585  39.177  48.942  1.00  0.00     0.293 HD
ENDBRANCH   9  23
BRANCH   7  25
ATOM     25  O   UNL     1      66.091  42.582  48.085  1.00  0.00    -0.508 OA
ATOM     26  H   UNL     1      67.087  42.668  48.254  1.00  0.00     0.293 HD
ENDBRANCH   7  25
TORSDOF 6
ENDMDL
MODEL 8
REMARK VINA RESULT:    -5.256      5.255      6.765
REMARK INTER + INTRA:          -6.691
REMARK INTER:                  -6.334
REMARK INTRA:                  -0.357
REMARK UNBOUND:                -0.359
REMARK SMILES Oc1cc(O)c2c(c1)O[C@H](c1ccc(O)c(O)c1)[C@@H](O)C2
REMARK SMILES IDX 21 1 19 2 10 3 9 4 7 5 8 6 2 7 3 8 4 9 6 10 20 11 11 13
REMARK SMILES IDX 18 14 12 15 16 16 13 17 14 18 17 19 15 21 5 23 1 25
REMARK H PARENT 20 12 17 20 15 22 5 24 1 26
REMARK Flexibility Score: inf
ROOT
ATOM      1  C   UNL     1      64.417  38.056  44.603  1.00  0.00     0.079 C 
ATOM      2  C   UNL     1      65.291  38.164  43.338  1.00  0.00     0.164 C 
ATOM      3  C   UNL     1      66.749  38.448  43.733  1.00  0.00     0.232 C 
ATOM      4  O   UNL     1      66.814  39.635  44.525  1.00  0.00    -0.482 OA
ATOM      5  C   UNL     1      65.845  39.946  45.485  1.00  0.00     0.131 A 
ATOM      6  C   UNL     1      66.068  41.020  46.351  1.00  0.00     0.093 A 
ATOM      7  C   UNL     1      65.127  41.344  47.329  1.00  0.00     0.122 A 
ATOM      8  C   UNL     1      63.957  40.584  47.449  1.00  0.00     0.092 A 
ATOM      9  C   UNL     1      63.718  39.505  46.590  1.00  0.00     0.126 A 
ATOM     10  C   UNL     1      64.649  39.200  45.569  1.00  0.00     0.039 A 
ENDROOT
BRANCH   2  11
ATOM     11  O   UNL     1      65.222  36.965  42.610  1.00  0.00    -0.389 OA
ATOM     12  H   UNL     1      64.266  36.824  42.382  1.00  0.00     0.211 HD
ENDBRANCH   2  11
BRANCH   3  13
ATOM     13  C   UNL     1      67.625  38.605  42.512  1.00  0.00    -0.001 A 
ATOM     14  C   UNL     1      67.293  39.539  41.518  1.00  0.00     0.057 A 
ATOM     15  C   UNL     1      68.806  37.855  42.380  1.00  0.00     0.012 A 
ATOM     16  C   UNL     1      68.114  39.710  40.397  1.00  0.00     0.157 A 
ATOM     17  C   UNL     1      69.627  38.023  41.263  1.00  0.00     0.050 A 
ATOM     18  C   UNL     1      69.287  38.948  40.268  1.00  0.00     0.157 A 
BRANCH  16  19
ATOM     19  O   UNL     1      67.750  40.643  39.427  1.00  0.00    -0.504 OA
ATOM     20  H   UNL     1      68.438  41.172  38.905  1.00  0.00     0.293 HD
ENDBRANCH  16  19
BRANCH  18  21
ATOM     21  O   UNL     1      70.109  39.112  39.154  1.00  0.00    -0.504 OA
ATOM     22  H   UNL     1      70.975  38.597  39.053  1.00  0.00     0.293 HD
ENDBRANCH  18  21
ENDBRANCH   3  13
BRANCH   9  23
ATOM     23  O   UNL     1      62.555  38.755  46.786  1.00  0.00    -0.507 OA
ATOM     24  H   UNL     1      62.381  38.207  47.618  1.00  0.00     0.293 HD
ENDBRANCH   9  23
BRANCH   7  25
ATOM     25  O   UNL     1      65.365  42.419  48.183  1.00  0.00    -0.508 OA
ATOM     26  H   UNL     1      66.296  42.622  48.530  1.00  0.00     0.293 HD
ENDBRANCH   7  25
TORSDOF 6
ENDMDL
MODEL 9
REMARK VINA RESULT:    -5.115      8.065     10.147
REMARK INTER + INTRA:          -6.521
REMARK INTER:                  -6.160
REMARK INTRA:                  -0.361
REMARK UNBOUND:                -0.359
REMARK SMILES Oc1cc(O)c2c(c1)O[C@H](c1ccc(O)c(O)c1)[C@@H](O)C2
REMARK SMILES IDX 21 1 19 2 10 3 9 4 7 5 8 6 2 7 3 8 4 9 6 10 20 11 11 13
REMARK SMILES IDX 18 14 12 15 16 16 13 17 14 18 17 19 15 21 5 23 1 25
REMARK H PARENT 20 12 17 20 15 22 5 24 1 26
REMARK Flexibility Score: inf
ROOT
ATOM      1  C   UNL     1      69.590  37.779  39.637  1.00  0.00     0.079 C 
ATOM      2  C   UNL     1      68.578  37.504  40.765  1.00  0.00     0.164 C 
ATOM      3  C   UNL     1      67.212  38.109  40.402  1.00  0.00     0.232 C 
ATOM      4  O   UNL     1      67.354  39.507  40.146  1.00  0.00    -0.482 OA
ATOM      5  C   UNL     1      68.460  40.033  39.471  1.00  0.00     0.131 A 
ATOM      6  C   UNL     1      68.445  41.378  39.090  1.00  0.00     0.093 A 
ATOM      7  C   UNL     1      69.527  41.928  38.400  1.00  0.00     0.122 A 
ATOM      8  C   UNL     1      70.629  41.126  38.082  1.00  0.00     0.092 A 
ATOM      9  C   UNL     1      70.661  39.778  38.455  1.00  0.00     0.126 A 
ATOM     10  C   UNL     1      69.585  39.227  39.192  1.00  0.00     0.039 A 
ENDROOT
BRANCH   2  11
ATOM     11  O   UNL     1      68.447  36.119  40.959  1.00  0.00    -0.389 OA
ATOM     12  H   UNL     1      68.092  35.992  41.877  1.00  0.00     0.211 HD
ENDBRANCH   2  11
BRANCH   3  13
ATOM     13  C   UNL     1      66.208  37.896  41.510  1.00  0.00    -0.001 A 
ATOM     14  C   UNL     1      65.103  37.051  41.311  1.00  0.00     0.057 A 
ATOM     15  C   UNL     1      66.391  38.500  42.765  1.00  0.00     0.012 A 
ATOM     16  C   UNL     1      64.183  36.827  42.341  1.00  0.00     0.157 A 
ATOM     17  C   UNL     1      65.474  38.278  43.795  1.00  0.00     0.050 A 
ATOM     18  C   UNL     1      64.367  37.444  43.589  1.00  0.00     0.157 A 
BRANCH  16  19
ATOM     19  O   UNL     1      63.095  35.986  42.106  1.00  0.00    -0.504 OA
ATOM     20  H   UNL     1      63.152  35.197  41.474  1.00  0.00     0.293 HD
ENDBRANCH  16  19
BRANCH  18  21
ATOM     21  O   UNL     1      63.454  37.225  44.620  1.00  0.00    -0.504 OA
ATOM     22  H   UNL     1      63.326  36.309  45.031  1.00  0.00     0.293 HD
ENDBRANCH  18  21
ENDBRANCH   3  13
BRANCH   9  23
ATOM     23  O   UNL     1      71.767  39.015  38.070  1.00  0.00    -0.507 OA
ATOM     24  H   UNL     1      71.691  38.141  37.566  1.00  0.00     0.293 HD
ENDBRANCH   9  23
BRANCH   7  25
ATOM     25  O   UNL     1      69.495  43.271  38.030  1.00  0.00    -0.508 OA
ATOM     26  H   UNL     1      68.993  43.959  38.579  1.00  0.00     0.293 HD
ENDBRANCH   7  25
TORSDOF 6
ENDMDL
