MODEL 1
REMARK VINA RESULT:    -6.673      0.000      0.000
REMARK INTER + INTRA:         -11.079
REMARK INTER:                  -9.209
REMARK INTRA:                  -1.870
REMARK UNBOUND:                -1.870
REMARK SMILES O=C([O-])[C@H]1O[C@H](Oc2cc3oc(-c4ccccc4)cc(=O)c3c(O)c2O)[C@@H](O)[C@H](O)[C@@H]1O
REMARK SMILES IDX 7 1 6 2 4 3 31 4 5 5 29 6 27 7 2 8 1 9 3 10 32 11 30 13
REMARK SMILES IDX 28 15 8 17 25 18 9 19 23 20 10 21 22 22 11 23 20 24 12 25
REMARK SMILES IDX 19 26 21 27 26 28 24 30 13 32 14 33 18 34 15 35 17 36 16 37
REMARK H PARENT 32 12 30 14 28 16 26 29 24 31
REMARK Flexibility Score: inf
ROOT
ATOM      1  O   UNL     1      49.552 -29.138 -31.150  1.00  0.00    -0.458 OA
ENDROOT
BRANCH   1   2
ATOM      2  C   UNL     1      50.512 -28.951 -30.100  1.00  0.00     0.339 C 
ATOM      3  C   UNL     1      52.413 -28.442 -31.504  1.00  0.00     0.199 C 
ATOM      4  C   UNL     1      51.536 -27.239 -32.005  1.00  0.00     0.180 C 
ATOM      5  O   UNL     1      51.800 -29.339 -30.549  1.00  0.00    -0.328 OA
ATOM      6  C   UNL     1      50.784 -26.543 -30.830  1.00  0.00     0.181 C 
ATOM      7  C   UNL     1      50.498 -27.483 -29.629  1.00  0.00     0.214 C 
BRANCH   3   8
ATOM      8  C   UNL     1      53.748 -27.999 -30.955  1.00  0.00     0.073 C 
ATOM      9  O   UNL     1      54.668 -27.601 -31.717  1.00  0.00    -0.547 OA
ATOM     10  O   UNL     1      53.961 -28.011 -29.579  1.00  0.00    -0.547 OA
ENDBRANCH   3   8
BRANCH   4  11
ATOM     11  O   UNL     1      50.624 -27.742 -32.953  1.00  0.00    -0.387 OA
ATOM     12  H   UNL     1      50.513 -28.725 -32.814  1.00  0.00     0.211 HD
ENDBRANCH   4  11
BRANCH   6  13
ATOM     13  O   UNL     1      49.593 -25.926 -31.257  1.00  0.00    -0.387 OA
ATOM     14  H   UNL     1      49.639 -24.976 -30.980  1.00  0.00     0.211 HD
ENDBRANCH   6  13
BRANCH   7  15
ATOM     15  O   UNL     1      51.434 -27.241 -28.596  1.00  0.00    -0.384 OA
ATOM     16  H   UNL     1      50.985 -26.793 -27.837  1.00  0.00     0.211 HD
ENDBRANCH   7  15
ENDBRANCH   1   2
BRANCH   1  17
ATOM     17  C   UNL     1      48.171 -29.207 -30.944  1.00  0.00     0.172 A 
ATOM     18  C   UNL     1      47.277 -28.510 -31.780  1.00  0.00     0.201 A 
ATOM     19  C   UNL     1      47.674 -29.928 -29.852  1.00  0.00     0.098 A 
ATOM     20  C   UNL     1      45.902 -28.528 -31.518  1.00  0.00     0.176 A 
ATOM     21  C   UNL     1      46.311 -29.877 -29.523  1.00  0.00     0.146 A 
ATOM     22  C   UNL     1      45.412 -29.139 -30.327  1.00  0.00     0.111 A 
ATOM     23  O   UNL     1      45.880 -30.549 -28.456  1.00  0.00    -0.456 OA
ATOM     24  C   UNL     1      44.073 -29.057 -29.874  1.00  0.00     0.197 A 
ATOM     25  C   UNL     1      44.606 -30.564 -28.077  1.00  0.00     0.138 A 
ATOM     26  C   UNL     1      43.666 -29.787 -28.752  1.00  0.00     0.100 A 
ATOM     27  O   UNL     1      43.227 -28.329 -30.465  1.00  0.00    -0.289 OA
BRANCH  18  28
ATOM     28  O   UNL     1      47.726 -27.777 -32.882  1.00  0.00    -0.502 OA
ATOM     29  H   UNL     1      47.247 -27.871 -33.772  1.00  0.00     0.293 HD
ENDBRANCH  18  28
BRANCH  20  30
ATOM     30  O   UNL     1      45.069 -27.990 -32.509  1.00  0.00    -0.504 OA
ATOM     31  H   UNL     1      45.054 -28.362 -33.459  1.00  0.00     0.293 HD
ENDBRANCH  20  30
BRANCH  25  32
ATOM     32  C   UNL     1      44.196 -31.437 -26.964  1.00  0.00     0.017 A 
ATOM     33  C   UNL     1      45.071 -32.420 -26.471  1.00  0.00     0.012 A 
ATOM     34  C   UNL     1      42.885 -31.368 -26.477  1.00  0.00     0.012 A 
ATOM     35  C   UNL     1      44.649 -33.286 -25.462  1.00  0.00     0.001 A 
ATOM     36  C   UNL     1      42.452 -32.266 -25.499  1.00  0.00     0.001 A 
ATOM     37  C   UNL     1      43.340 -33.204 -24.964  1.00  0.00     0.000 A 
ENDBRANCH  25  32
ENDBRANCH   1  17
TORSDOF 9
ENDMDL
MODEL 2
REMARK VINA RESULT:    -6.498     13.322     14.738
REMARK INTER + INTRA:         -10.837
REMARK INTER:                  -9.361
REMARK INTRA:                  -1.476
REMARK UNBOUND:                -1.870
REMARK SMILES O=C([O-])[C@H]1O[C@H](Oc2cc3oc(-c4ccccc4)cc(=O)c3c(O)c2O)[C@@H](O)[C@H](O)[C@@H]1O
REMARK SMILES IDX 7 1 6 2 4 3 31 4 5 5 29 6 27 7 2 8 1 9 3 10 32 11 30 13
REMARK SMILES IDX 28 15 8 17 25 18 9 19 23 20 10 21 22 22 11 23 20 24 12 25
REMARK SMILES IDX 19 26 21 27 26 28 24 30 13 32 14 33 18 34 15 35 17 36 16 37
REMARK H PARENT 32 12 30 14 28 16 26 29 24 31
REMARK Flexibility Score: inf
ROOT
ATOM      1  O   UNL     1      54.932 -41.994 -27.773  1.00  0.00    -0.458 OA
ENDROOT
BRANCH   1   2
ATOM      2  C   UNL     1      53.729 -42.353 -28.467  1.00  0.00     0.339 C 
ATOM      3  C   UNL     1      54.102 -41.019 -30.448  1.00  0.00     0.199 C 
ATOM      4  C   UNL     1      55.404 -41.884 -30.608  1.00  0.00     0.180 C 
ATOM      5  O   UNL     1      53.295 -41.271 -29.274  1.00  0.00    -0.328 OA
ATOM      6  C   UNL     1      55.140 -43.389 -30.295  1.00  0.00     0.181 C 
ATOM      7  C   UNL     1      53.965 -43.624 -29.308  1.00  0.00     0.214 C 
BRANCH   3   8
ATOM      8  C   UNL     1      53.210 -41.081 -31.665  1.00  0.00     0.073 C 
ATOM      9  O   UNL     1      52.040 -41.542 -31.593  1.00  0.00    -0.547 OA
ATOM     10  O   UNL     1      53.681 -40.604 -32.884  1.00  0.00    -0.547 OA
ENDBRANCH   3   8
BRANCH   4  11
ATOM     11  O   UNL     1      56.376 -41.357 -29.736  1.00  0.00    -0.387 OA
ATOM     12  H   UNL     1      56.750 -40.518 -30.128  1.00  0.00     0.211 HD
ENDBRANCH   4  11
BRANCH   6  13
ATOM     13  O   UNL     1      56.297 -44.044 -29.837  1.00  0.00    -0.387 OA
ATOM     14  H   UNL     1      57.076 -43.571 -30.224  1.00  0.00     0.211 HD
ENDBRANCH   6  13
BRANCH   7  15
ATOM     15  O   UNL     1      52.810 -44.020 -30.021  1.00  0.00    -0.384 OA
ATOM     16  H   UNL     1      52.968 -43.924 -30.993  1.00  0.00     0.211 HD
ENDBRANCH   7  15
ENDBRANCH   1   2
BRANCH   1  17
ATOM     17  C   UNL     1      54.967 -41.170 -26.644  1.00  0.00     0.172 A 
ATOM     18  C   UNL     1      56.066 -40.322 -26.399  1.00  0.00     0.201 A 
ATOM     19  C   UNL     1      53.925 -41.235 -25.711  1.00  0.00     0.098 A 
ATOM     20  C   UNL     1      56.122 -39.557 -25.228  1.00  0.00     0.176 A 
ATOM     21  C   UNL     1      54.014 -40.548 -24.492  1.00  0.00     0.146 A 
ATOM     22  C   UNL     1      55.136 -39.734 -24.214  1.00  0.00     0.111 A 
ATOM     23  O   UNL     1      53.018 -40.662 -23.614  1.00  0.00    -0.456 OA
ATOM     24  C   UNL     1      55.196 -39.153 -22.924  1.00  0.00     0.197 A 
ATOM     25  C   UNL     1      53.015 -40.039 -22.439  1.00  0.00     0.138 A 
ATOM     26  C   UNL     1      54.122 -39.293 -22.040  1.00  0.00     0.100 A 
ATOM     27  O   UNL     1      56.212 -38.502 -22.548  1.00  0.00    -0.289 OA
BRANCH  18  28
ATOM     28  O   UNL     1      57.129 -40.222 -27.301  1.00  0.00    -0.502 OA
ATOM     29  H   UNL     1      57.614 -41.063 -27.595  1.00  0.00     0.293 HD
ENDBRANCH  18  28
BRANCH  20  30
ATOM     30  O   UNL     1      57.135 -38.591 -25.161  1.00  0.00    -0.504 OA
ATOM     31  H   UNL     1      58.119 -38.848 -25.077  1.00  0.00     0.293 HD
ENDBRANCH  20  30
BRANCH  25  32
ATOM     32  C   UNL     1      51.816 -40.117 -21.587  1.00  0.00     0.017 A 
ATOM     33  C   UNL     1      51.593 -39.160 -20.583  1.00  0.00     0.012 A 
ATOM     34  C   UNL     1      50.959 -41.219 -21.698  1.00  0.00     0.012 A 
ATOM     35  C   UNL     1      50.490 -39.280 -19.737  1.00  0.00     0.001 A 
ATOM     36  C   UNL     1      49.882 -41.360 -20.820  1.00  0.00     0.001 A 
ATOM     37  C   UNL     1      49.624 -40.376 -19.861  1.00  0.00     0.000 A 
ENDBRANCH  25  32
ENDBRANCH   1  17
TORSDOF 9
ENDMDL
MODEL 3
REMARK VINA RESULT:    -6.395      0.947      1.453
REMARK INTER + INTRA:         -10.696
REMARK INTER:                  -8.819
REMARK INTRA:                  -1.877
REMARK UNBOUND:                -1.870
REMARK SMILES O=C([O-])[C@H]1O[C@H](Oc2cc3oc(-c4ccccc4)cc(=O)c3c(O)c2O)[C@@H](O)[C@H](O)[C@@H]1O
REMARK SMILES IDX 7 1 6 2 4 3 31 4 5 5 29 6 27 7 2 8 1 9 3 10 32 11 30 13
REMARK SMILES IDX 28 15 8 17 25 18 9 19 23 20 10 21 22 22 11 23 20 24 12 25
REMARK SMILES IDX 19 26 21 27 26 28 24 30 13 32 14 33 18 34 15 35 17 36 16 37
REMARK H PARENT 32 12 30 14 28 16 26 29 24 31
REMARK Flexibility Score: inf
ROOT
ATOM      1  O   UNL     1      48.488 -29.118 -31.093  1.00  0.00    -0.458 OA
ENDROOT
BRANCH   1   2
ATOM      2  C   UNL     1      49.563 -28.983 -30.152  1.00  0.00     0.339 C 
ATOM      3  C   UNL     1      51.313 -28.489 -31.745  1.00  0.00     0.199 C 
ATOM      4  C   UNL     1      50.421 -27.251 -32.119  1.00  0.00     0.180 C 
ATOM      5  O   UNL     1      50.782 -29.394 -30.749  1.00  0.00    -0.328 OA
ATOM      6  C   UNL     1      49.823 -26.566 -30.854  1.00  0.00     0.181 C 
ATOM      7  C   UNL     1      49.644 -27.528 -29.649  1.00  0.00     0.214 C 
BRANCH   3   8
ATOM      8  C   UNL     1      52.712 -28.096 -31.337  1.00  0.00     0.073 C 
ATOM      9  O   UNL     1      53.095 -28.192 -30.141  1.00  0.00    -0.547 OA
ATOM     10  O   UNL     1      53.603 -27.636 -32.303  1.00  0.00    -0.547 OA
ENDBRANCH   3   8
BRANCH   4  11
ATOM     11  O   UNL     1      49.396 -27.706 -32.971  1.00  0.00    -0.387 OA
ATOM     12  H   UNL     1      49.799 -28.048 -33.818  1.00  0.00     0.211 HD
ENDBRANCH   4  11
BRANCH   6  13
ATOM     13  O   UNL     1      48.611 -25.907 -31.132  1.00  0.00    -0.387 OA
ATOM     14  H   UNL     1      48.353 -25.409 -30.315  1.00  0.00     0.211 HD
ENDBRANCH   6  13
BRANCH   7  15
ATOM     15  O   UNL     1      50.694 -27.337 -28.721  1.00  0.00    -0.384 OA
ATOM     16  H   UNL     1      51.326 -26.659 -29.067  1.00  0.00     0.211 HD
ENDBRANCH   7  15
ENDBRANCH   1   2
BRANCH   1  17
ATOM     17  C   UNL     1      47.143 -29.239 -30.732  1.00  0.00     0.172 A 
ATOM     18  C   UNL     1      46.144 -28.505 -31.401  1.00  0.00     0.201 A 
ATOM     19  C   UNL     1      46.792 -30.053 -29.648  1.00  0.00     0.098 A 
ATOM     20  C   UNL     1      44.810 -28.580 -30.982  1.00  0.00     0.176 A 
ATOM     21  C   UNL     1      45.478 -30.063 -29.159  1.00  0.00     0.146 A 
ATOM     22  C   UNL     1      44.477 -29.291 -29.792  1.00  0.00     0.111 A 
ATOM     23  O   UNL     1      45.189 -30.824 -28.104  1.00  0.00    -0.456 OA
ATOM     24  C   UNL     1      43.200 -29.279 -29.180  1.00  0.00     0.197 A 
ATOM     25  C   UNL     1      43.969 -30.901 -27.581  1.00  0.00     0.138 A 
ATOM     26  C   UNL     1      42.942 -30.101 -28.079  1.00  0.00     0.100 A 
ATOM     27  O   UNL     1      42.277 -28.532 -29.610  1.00  0.00    -0.289 OA
BRANCH  18  28
ATOM     28  O   UNL     1      46.445 -27.680 -32.489  1.00  0.00    -0.502 OA
ATOM     29  H   UNL     1      47.091 -26.908 -32.365  1.00  0.00     0.293 HD
ENDBRANCH  18  28
BRANCH  20  30
ATOM     30  O   UNL     1      43.856 -27.992 -31.824  1.00  0.00    -0.504 OA
ATOM     31  H   UNL     1      43.638 -26.996 -31.776  1.00  0.00     0.293 HD
ENDBRANCH  20  30
BRANCH  25  32
ATOM     32  C   UNL     1      43.710 -31.865 -26.498  1.00  0.00     0.017 A 
ATOM     33  C   UNL     1      42.459 -31.901 -25.861  1.00  0.00     0.012 A 
ATOM     34  C   UNL     1      44.755 -32.665 -26.020  1.00  0.00     0.012 A 
ATOM     35  C   UNL     1      42.245 -32.772 -24.791  1.00  0.00     0.001 A 
ATOM     36  C   UNL     1      44.552 -33.503 -24.921  1.00  0.00     0.001 A 
ATOM     37  C   UNL     1      43.289 -33.584 -24.325  1.00  0.00     0.000 A 
ENDBRANCH  25  32
ENDBRANCH   1  17
TORSDOF 9
ENDMDL
MODEL 4
REMARK VINA RESULT:    -6.307     12.576     15.938
REMARK INTER + INTRA:         -10.574
REMARK INTER:                  -8.969
REMARK INTRA:                  -1.605
REMARK UNBOUND:                -1.870
REMARK SMILES O=C([O-])[C@H]1O[C@H](Oc2cc3oc(-c4ccccc4)cc(=O)c3c(O)c2O)[C@@H](O)[C@H](O)[C@@H]1O
REMARK SMILES IDX 7 1 6 2 4 3 31 4 5 5 29 6 27 7 2 8 1 9 3 10 32 11 30 13
REMARK SMILES IDX 28 15 8 17 25 18 9 19 23 20 10 21 22 22 11 23 20 24 12 25
REMARK SMILES IDX 19 26 21 27 26 28 24 30 13 32 14 33 18 34 15 35 17 36 16 37
REMARK H PARENT 32 12 30 14 28 16 26 29 24 31
REMARK Flexibility Score: inf
ROOT
ATOM      1  O   UNL     1      51.398 -38.928 -20.255  1.00  0.00    -0.458 OA
ENDROOT
BRANCH   1   2
ATOM      2  C   UNL     1      50.125 -38.975 -20.915  1.00  0.00     0.339 C 
ATOM      3  C   UNL     1      48.838 -39.820 -19.051  1.00  0.00     0.199 C 
ATOM      4  C   UNL     1      49.309 -38.511 -18.321  1.00  0.00     0.180 C 
ATOM      5  O   UNL     1      49.346 -40.037 -20.388  1.00  0.00    -0.328 OA
ATOM      6  C   UNL     1      49.248 -37.270 -19.263  1.00  0.00     0.181 C 
ATOM      7  C   UNL     1      49.404 -37.620 -20.767  1.00  0.00     0.214 C 
BRANCH   3   8
ATOM      8  C   UNL     1      47.334 -39.959 -19.083  1.00  0.00     0.073 C 
ATOM      9  O   UNL     1      46.695 -39.889 -20.165  1.00  0.00    -0.547 OA
ATOM     10  O   UNL     1      46.643 -40.187 -17.897  1.00  0.00    -0.547 OA
ENDBRANCH   3   8
BRANCH   4  11
ATOM     11  O   UNL     1      50.624 -38.727 -17.866  1.00  0.00    -0.387 OA
ATOM     12  H   UNL     1      50.672 -39.612 -17.405  1.00  0.00     0.211 HD
ENDBRANCH   4  11
BRANCH   6  13
ATOM     13  O   UNL     1      50.181 -36.282 -18.896  1.00  0.00    -0.387 OA
ATOM     14  H   UNL     1      49.692 -35.422 -18.846  1.00  0.00     0.211 HD
ENDBRANCH   6  13
BRANCH   7  15
ATOM     15  O   UNL     1      48.136 -37.613 -21.396  1.00  0.00    -0.384 OA
ATOM     16  H   UNL     1      47.509 -38.182 -20.886  1.00  0.00     0.211 HD
ENDBRANCH   7  15
ENDBRANCH   1   2
BRANCH   1  17
ATOM     17  C   UNL     1      52.610 -38.693 -20.910  1.00  0.00     0.172 A 
ATOM     18  C   UNL     1      53.384 -37.553 -20.617  1.00  0.00     0.201 A 
ATOM     19  C   UNL     1      53.030 -39.571 -21.916  1.00  0.00     0.098 A 
ATOM     20  C   UNL     1      54.559 -37.292 -21.332  1.00  0.00     0.176 A 
ATOM     21  C   UNL     1      54.152 -39.272 -22.703  1.00  0.00     0.146 A 
ATOM     22  C   UNL     1      54.907 -38.103 -22.451  1.00  0.00     0.111 A 
ATOM     23  O   UNL     1      54.501 -40.115 -23.675  1.00  0.00    -0.456 OA
ATOM     24  C   UNL     1      55.964 -37.823 -23.349  1.00  0.00     0.197 A 
ATOM     25  C   UNL     1      55.554 -39.915 -24.461  1.00  0.00     0.138 A 
ATOM     26  C   UNL     1      56.299 -38.742 -24.349  1.00  0.00     0.100 A 
ATOM     27  O   UNL     1      56.621 -36.747 -23.269  1.00  0.00    -0.289 OA
BRANCH  18  28
ATOM     28  O   UNL     1      53.006 -36.648 -19.621  1.00  0.00    -0.502 OA
ATOM     29  H   UNL     1      52.709 -36.998 -18.715  1.00  0.00     0.293 HD
ENDBRANCH  18  28
BRANCH  20  30
ATOM     30  O   UNL     1      55.373 -36.261 -20.841  1.00  0.00    -0.504 OA
ATOM     31  H   UNL     1      55.603 -36.183 -19.850  1.00  0.00     0.293 HD
ENDBRANCH  20  30
BRANCH  25  32
ATOM     32  C   UNL     1      55.943 -40.960 -25.422  1.00  0.00     0.017 A 
ATOM     33  C   UNL     1      56.261 -40.625 -26.749  1.00  0.00     0.012 A 
ATOM     34  C   UNL     1      55.877 -42.307 -25.043  1.00  0.00     0.012 A 
ATOM     35  C   UNL     1      56.563 -41.631 -27.669  1.00  0.00     0.001 A 
ATOM     36  C   UNL     1      56.135 -43.312 -25.978  1.00  0.00     0.001 A 
ATOM     37  C   UNL     1      56.512 -42.978 -27.283  1.00  0.00     0.000 A 
ENDBRANCH  25  32
ENDBRANCH   1  17
TORSDOF 9
ENDMDL
MODEL 5
REMARK VINA RESULT:    -6.270     13.107     14.527
REMARK INTER + INTRA:         -10.523
REMARK INTER:                  -9.049
REMARK INTRA:                  -1.473
REMARK UNBOUND:                -1.870
REMARK SMILES O=C([O-])[C@H]1O[C@H](Oc2cc3oc(-c4ccccc4)cc(=O)c3c(O)c2O)[C@@H](O)[C@H](O)[C@@H]1O
REMARK SMILES IDX 7 1 6 2 4 3 31 4 5 5 29 6 27 7 2 8 1 9 3 10 32 11 30 13
REMARK SMILES IDX 28 15 8 17 25 18 9 19 23 20 10 21 22 22 11 23 20 24 12 25
REMARK SMILES IDX 19 26 21 27 26 28 24 30 13 32 14 33 18 34 15 35 17 36 16 37
REMARK H PARENT 32 12 30 14 28 16 26 29 24 31
REMARK Flexibility Score: inf
ROOT
ATOM      1  O   UNL     1      55.675 -41.265 -28.015  1.00  0.00    -0.458 OA
ENDROOT
BRANCH   1   2
ATOM      2  C   UNL     1      54.380 -41.707 -28.447  1.00  0.00     0.339 C 
ATOM      3  C   UNL     1      54.457 -40.768 -30.673  1.00  0.00     0.199 C 
ATOM      4  C   UNL     1      55.716 -41.688 -30.860  1.00  0.00     0.180 C 
ATOM      5  O   UNL     1      53.834 -40.776 -29.368  1.00  0.00    -0.328 OA
ATOM      6  C   UNL     1      55.497 -43.101 -30.240  1.00  0.00     0.181 C 
ATOM      7  C   UNL     1      54.483 -43.116 -29.065  1.00  0.00     0.214 C 
BRANCH   3   8
ATOM      8  C   UNL     1      53.392 -41.022 -31.713  1.00  0.00     0.073 C 
ATOM      9  O   UNL     1      53.599 -40.782 -32.931  1.00  0.00    -0.547 OA
ATOM     10  O   UNL     1      52.165 -41.549 -31.321  1.00  0.00    -0.547 OA
ENDBRANCH   3   8
BRANCH   4  11
ATOM     11  O   UNL     1      56.810 -41.042 -30.252  1.00  0.00    -0.387 OA
ATOM     12  H   UNL     1      57.248 -41.668 -29.609  1.00  0.00     0.211 HD
ENDBRANCH   4  11
BRANCH   6  13
ATOM     13  O   UNL     1      56.708 -43.698 -29.843  1.00  0.00    -0.387 OA
ATOM     14  H   UNL     1      56.635 -43.892 -28.874  1.00  0.00     0.211 HD
ENDBRANCH   6  13
BRANCH   7  15
ATOM     15  O   UNL     1      53.232 -43.599 -29.515  1.00  0.00    -0.384 OA
ATOM     16  H   UNL     1      52.681 -43.872 -28.741  1.00  0.00     0.211 HD
ENDBRANCH   7  15
ENDBRANCH   1   2
BRANCH   1  17
ATOM     17  C   UNL     1      55.882 -40.237 -27.090  1.00  0.00     0.172 A 
ATOM     18  C   UNL     1      56.943 -39.324 -27.247  1.00  0.00     0.201 A 
ATOM     19  C   UNL     1      55.063 -40.155 -25.958  1.00  0.00     0.098 A 
ATOM     20  C   UNL     1      57.184 -38.345 -26.275  1.00  0.00     0.176 A 
ATOM     21  C   UNL     1      55.351 -39.242 -24.933  1.00  0.00     0.146 A 
ATOM     22  C   UNL     1      56.444 -38.354 -25.057  1.00  0.00     0.111 A 
ATOM     23  O   UNL     1      54.568 -39.216 -23.854  1.00  0.00    -0.456 OA
ATOM     24  C   UNL     1      56.727 -37.533 -23.939  1.00  0.00     0.197 A 
ATOM     25  C   UNL     1      54.762 -38.378 -22.840  1.00  0.00     0.138 A 
ATOM     26  C   UNL     1      55.871 -37.534 -22.833  1.00  0.00     0.100 A 
ATOM     27  O   UNL     1      57.748 -36.790 -23.916  1.00  0.00    -0.289 OA
BRANCH  18  28
ATOM     28  O   UNL     1      57.787 -39.366 -28.360  1.00  0.00    -0.502 OA
ATOM     29  H   UNL     1      58.785 -39.233 -28.235  1.00  0.00     0.293 HD
ENDBRANCH  18  28
BRANCH  20  30
ATOM     30  O   UNL     1      58.116 -37.352 -26.606  1.00  0.00    -0.504 OA
ATOM     31  H   UNL     1      58.829 -37.042 -25.945  1.00  0.00     0.293 HD
ENDBRANCH  20  30
BRANCH  25  32
ATOM     32  C   UNL     1      53.774 -38.328 -21.749  1.00  0.00     0.017 A 
ATOM     33  C   UNL     1      52.637 -39.152 -21.781  1.00  0.00     0.012 A 
ATOM     34  C   UNL     1      53.908 -37.368 -20.739  1.00  0.00     0.012 A 
ATOM     35  C   UNL     1      51.673 -39.049 -20.777  1.00  0.00     0.001 A 
ATOM     36  C   UNL     1      52.920 -37.237 -19.761  1.00  0.00     0.001 A 
ATOM     37  C   UNL     1      51.818 -38.098 -19.757  1.00  0.00     0.000 A 
ENDBRANCH  25  32
ENDBRANCH   1  17
TORSDOF 9
ENDMDL
MODEL 6
REMARK VINA RESULT:    -6.211     13.955     17.167
REMARK INTER + INTRA:         -10.441
REMARK INTER:                  -8.877
REMARK INTRA:                  -1.564
REMARK UNBOUND:                -1.870
REMARK SMILES O=C([O-])[C@H]1O[C@H](Oc2cc3oc(-c4ccccc4)cc(=O)c3c(O)c2O)[C@@H](O)[C@H](O)[C@@H]1O
REMARK SMILES IDX 7 1 6 2 4 3 31 4 5 5 29 6 27 7 2 8 1 9 3 10 32 11 30 13
REMARK SMILES IDX 28 15 8 17 25 18 9 19 23 20 10 21 22 22 11 23 20 24 12 25
REMARK SMILES IDX 19 26 21 27 26 28 24 30 13 32 14 33 18 34 15 35 17 36 16 37
REMARK H PARENT 32 12 30 14 28 16 26 29 24 31
REMARK Flexibility Score: inf
ROOT
ATOM      1  O   UNL     1      48.523 -40.436 -19.377  1.00  0.00    -0.458 OA
ENDROOT
BRANCH   1   2
ATOM      2  C   UNL     1      48.341 -41.555 -18.498  1.00  0.00     0.339 C 
ATOM      3  C   UNL     1      47.164 -40.383 -16.741  1.00  0.00     0.199 C 
ATOM      4  C   UNL     1      46.107 -40.068 -17.860  1.00  0.00     0.180 C 
ATOM      5  O   UNL     1      48.343 -41.116 -17.150  1.00  0.00    -0.328 OA
ATOM      6  C   UNL     1      45.836 -41.308 -18.765  1.00  0.00     0.181 C 
ATOM      7  C   UNL     1      47.033 -42.294 -18.848  1.00  0.00     0.214 C 
BRANCH   3   8
ATOM      8  C   UNL     1      46.557 -41.081 -15.548  1.00  0.00     0.073 C 
ATOM      9  O   UNL     1      45.509 -40.647 -15.001  1.00  0.00    -0.547 OA
ATOM     10  O   UNL     1      47.156 -42.236 -15.053  1.00  0.00    -0.547 OA
ENDBRANCH   3   8
BRANCH   4  11
ATOM     11  O   UNL     1      46.601 -38.993 -18.623  1.00  0.00    -0.387 OA
ATOM     12  H   UNL     1      47.572 -38.868 -18.426  1.00  0.00     0.211 HD
ENDBRANCH   4  11
BRANCH   6  13
ATOM     13  O   UNL     1      45.422 -40.939 -20.058  1.00  0.00    -0.387 OA
ATOM     14  H   UNL     1      45.891 -40.097 -20.287  1.00  0.00     0.211 HD
ENDBRANCH   6  13
BRANCH   7  15
ATOM     15  O   UNL     1      46.800 -43.405 -18.004  1.00  0.00    -0.384 OA
ATOM     16  H   UNL     1      47.155 -43.218 -17.101  1.00  0.00     0.211 HD
ENDBRANCH   7  15
ENDBRANCH   1   2
BRANCH   1  17
ATOM     17  C   UNL     1      49.769 -39.901 -19.715  1.00  0.00     0.172 A 
ATOM     18  C   UNL     1      50.287 -38.783 -19.032  1.00  0.00     0.201 A 
ATOM     19  C   UNL     1      50.484 -40.446 -20.788  1.00  0.00     0.098 A 
ATOM     20  C   UNL     1      51.503 -38.213 -19.428  1.00  0.00     0.176 A 
ATOM     21  C   UNL     1      51.653 -39.827 -21.255  1.00  0.00     0.146 A 
ATOM     22  C   UNL     1      52.155 -38.674 -20.609  1.00  0.00     0.111 A 
ATOM     23  O   UNL     1      52.287 -40.354 -22.302  1.00  0.00    -0.456 OA
ATOM     24  C   UNL     1      53.282 -38.054 -21.199  1.00  0.00     0.197 A 
ATOM     25  C   UNL     1      53.406 -39.840 -22.804  1.00  0.00     0.138 A 
ATOM     26  C   UNL     1      53.919 -38.650 -22.292  1.00  0.00     0.100 A 
ATOM     27  O   UNL     1      53.732 -36.959 -20.757  1.00  0.00    -0.289 OA
BRANCH  18  28
ATOM     28  O   UNL     1      49.611 -38.206 -17.953  1.00  0.00    -0.502 OA
ATOM     29  H   UNL     1      49.609 -37.196 -17.849  1.00  0.00     0.293 HD
ENDBRANCH  18  28
BRANCH  20  30
ATOM     30  O   UNL     1      52.047 -37.245 -18.573  1.00  0.00    -0.504 OA
ATOM     31  H   UNL     1      53.026 -36.961 -18.635  1.00  0.00     0.293 HD
ENDBRANCH  20  30
BRANCH  25  32
ATOM     32  C   UNL     1      54.110 -40.560 -23.878  1.00  0.00     0.017 A 
ATOM     33  C   UNL     1      53.391 -41.320 -24.816  1.00  0.00     0.012 A 
ATOM     34  C   UNL     1      55.510 -40.587 -23.890  1.00  0.00     0.012 A 
ATOM     35  C   UNL     1      54.073 -42.053 -25.789  1.00  0.00     0.001 A 
ATOM     36  C   UNL     1      56.189 -41.358 -24.836  1.00  0.00     0.001 A 
ATOM     37  C   UNL     1      55.475 -42.065 -25.808  1.00  0.00     0.000 A 
ENDBRANCH  25  32
ENDBRANCH   1  17
TORSDOF 9
ENDMDL
MODEL 7
REMARK VINA RESULT:    -6.092     13.110     14.282
REMARK INTER + INTRA:         -10.277
REMARK INTER:                  -8.391
REMARK INTRA:                  -1.886
REMARK UNBOUND:                -1.870
REMARK SMILES O=C([O-])[C@H]1O[C@H](Oc2cc3oc(-c4ccccc4)cc(=O)c3c(O)c2O)[C@@H](O)[C@H](O)[C@@H]1O
REMARK SMILES IDX 7 1 6 2 4 3 31 4 5 5 29 6 27 7 2 8 1 9 3 10 32 11 30 13
REMARK SMILES IDX 28 15 8 17 25 18 9 19 23 20 10 21 22 22 11 23 20 24 12 25
REMARK SMILES IDX 19 26 21 27 26 28 24 30 13 32 14 33 18 34 15 35 17 36 16 37
REMARK H PARENT 32 12 30 14 28 16 26 29 24 31
REMARK Flexibility Score: inf
ROOT
ATOM      1  O   UNL     1      54.206 -39.414 -24.471  1.00  0.00    -0.458 OA
ENDROOT
BRANCH   1   2
ATOM      2  C   UNL     1      54.695 -40.763 -24.521  1.00  0.00     0.339 C 
ATOM      3  C   UNL     1      55.690 -40.652 -26.721  1.00  0.00     0.199 C 
ATOM      4  C   UNL     1      56.572 -39.507 -26.105  1.00  0.00     0.180 C 
ATOM      5  O   UNL     1      54.683 -41.231 -25.859  1.00  0.00    -0.328 OA
ATOM      6  C   UNL     1      57.055 -39.861 -24.665  1.00  0.00     0.181 C 
ATOM      7  C   UNL     1      56.110 -40.834 -23.911  1.00  0.00     0.214 C 
BRANCH   3   8
ATOM      8  C   UNL     1      56.517 -41.770 -27.309  1.00  0.00     0.073 C 
ATOM      9  O   UNL     1      56.451 -42.941 -26.851  1.00  0.00    -0.547 OA
ATOM     10  O   UNL     1      57.354 -41.507 -28.390  1.00  0.00    -0.547 OA
ENDBRANCH   3   8
BRANCH   4  11
ATOM     11  O   UNL     1      55.798 -38.331 -26.095  1.00  0.00    -0.387 OA
ATOM     12  H   UNL     1      55.836 -37.904 -26.997  1.00  0.00     0.211 HD
ENDBRANCH   4  11
BRANCH   6  13
ATOM     13  O   UNL     1      57.288 -38.711 -23.888  1.00  0.00    -0.387 OA
ATOM     14  H   UNL     1      56.450 -38.184 -23.886  1.00  0.00     0.211 HD
ENDBRANCH   6  13
BRANCH   7  15
ATOM     15  O   UNL     1      56.643 -42.144 -23.942  1.00  0.00    -0.384 OA
ATOM     16  H   UNL     1      57.523 -42.135 -24.392  1.00  0.00     0.211 HD
ENDBRANCH   7  15
ENDBRANCH   1   2
BRANCH   1  17
ATOM     17  C   UNL     1      53.636 -38.831 -23.335  1.00  0.00     0.172 A 
ATOM     18  C   UNL     1      54.131 -37.617 -22.819  1.00  0.00     0.201 A 
ATOM     19  C   UNL     1      52.602 -39.495 -22.666  1.00  0.00     0.098 A 
ATOM     20  C   UNL     1      53.599 -37.081 -21.639  1.00  0.00     0.176 A 
ATOM     21  C   UNL     1      52.126 -39.019 -21.435  1.00  0.00     0.146 A 
ATOM     22  C   UNL     1      52.651 -37.829 -20.882  1.00  0.00     0.111 A 
ATOM     23  O   UNL     1      51.164 -39.698 -20.810  1.00  0.00    -0.456 OA
ATOM     24  C   UNL     1      52.189 -37.469 -19.593  1.00  0.00     0.197 A 
ATOM     25  C   UNL     1      50.649 -39.314 -19.646  1.00  0.00     0.138 A 
ATOM     26  C   UNL     1      51.171 -38.207 -18.981  1.00  0.00     0.100 A 
ATOM     27  O   UNL     1      52.682 -36.484 -18.973  1.00  0.00    -0.289 OA
BRANCH  18  28
ATOM     28  O   UNL     1      55.162 -36.917 -23.452  1.00  0.00    -0.502 OA
ATOM     29  H   UNL     1      55.138 -36.797 -24.459  1.00  0.00     0.293 HD
ENDBRANCH  18  28
BRANCH  20  30
ATOM     30  O   UNL     1      53.996 -35.778 -21.311  1.00  0.00    -0.504 OA
ATOM     31  H   UNL     1      54.963 -35.554 -21.071  1.00  0.00     0.293 HD
ENDBRANCH  20  30
BRANCH  25  32
ATOM     32  C   UNL     1      49.500 -40.049 -19.091  1.00  0.00     0.017 A 
ATOM     33  C   UNL     1      48.974 -39.705 -17.835  1.00  0.00     0.012 A 
ATOM     34  C   UNL     1      49.009 -41.175 -19.764  1.00  0.00     0.012 A 
ATOM     35  C   UNL     1      47.929 -40.451 -17.288  1.00  0.00     0.001 A 
ATOM     36  C   UNL     1      47.994 -41.946 -19.194  1.00  0.00     0.001 A 
ATOM     37  C   UNL     1      47.427 -41.568 -17.972  1.00  0.00     0.000 A 
ENDBRANCH  25  32
ENDBRANCH   1  17
TORSDOF 9
ENDMDL
MODEL 8
REMARK VINA RESULT:    -6.027     12.388     14.802
REMARK INTER + INTRA:         -10.188
REMARK INTER:                  -8.740
REMARK INTRA:                  -1.448
REMARK UNBOUND:                -1.870
REMARK SMILES O=C([O-])[C@H]1O[C@H](Oc2cc3oc(-c4ccccc4)cc(=O)c3c(O)c2O)[C@@H](O)[C@H](O)[C@@H]1O
REMARK SMILES IDX 7 1 6 2 4 3 31 4 5 5 29 6 27 7 2 8 1 9 3 10 32 11 30 13
REMARK SMILES IDX 28 15 8 17 25 18 9 19 23 20 10 21 22 22 11 23 20 24 12 25
REMARK SMILES IDX 19 26 21 27 26 28 24 30 13 32 14 33 18 34 15 35 17 36 16 37
REMARK H PARENT 32 12 30 14 28 16 26 29 24 31
REMARK Flexibility Score: inf
ROOT
ATOM      1  O   UNL     1      54.617 -38.575 -23.975  1.00  0.00    -0.458 OA
ENDROOT
BRANCH   1   2
ATOM      2  C   UNL     1      53.449 -37.805 -23.659  1.00  0.00     0.339 C 
ATOM      3  C   UNL     1      53.451 -38.198 -21.274  1.00  0.00     0.199 C 
ATOM      4  C   UNL     1      54.867 -37.520 -21.311  1.00  0.00     0.180 C 
ATOM      5  O   UNL     1      52.782 -38.373 -22.545  1.00  0.00    -0.328 OA
ATOM      6  C   UNL     1      54.887 -36.274 -22.248  1.00  0.00     0.181 C 
ATOM      7  C   UNL     1      53.841 -36.337 -23.393  1.00  0.00     0.214 C 
BRANCH   3   8
ATOM      8  C   UNL     1      52.501 -37.509 -20.324  1.00  0.00     0.073 C 
ATOM      9  O   UNL     1      51.440 -36.971 -20.738  1.00  0.00    -0.547 OA
ATOM     10  O   UNL     1      52.792 -37.485 -18.963  1.00  0.00    -0.547 OA
ENDBRANCH   3   8
BRANCH   4  11
ATOM     11  O   UNL     1      55.792 -38.487 -21.748  1.00  0.00    -0.387 OA
ATOM     12  H   UNL     1      55.666 -38.645 -22.726  1.00  0.00     0.211 HD
ENDBRANCH   4  11
BRANCH   6  13
ATOM     13  O   UNL     1      56.169 -36.029 -22.775  1.00  0.00    -0.387 OA
ATOM     14  H   UNL     1      56.247 -36.554 -23.611  1.00  0.00     0.211 HD
ENDBRANCH   6  13
BRANCH   7  15
ATOM     15  O   UNL     1      52.724 -35.532 -23.069  1.00  0.00    -0.384 OA
ATOM     16  H   UNL     1      52.232 -35.934 -22.311  1.00  0.00     0.211 HD
ENDBRANCH   7  15
ENDBRANCH   1   2
BRANCH   1  17
ATOM     17  C   UNL     1      54.586 -39.817 -24.616  1.00  0.00     0.172 A 
ATOM     18  C   UNL     1      55.604 -40.768 -24.405  1.00  0.00     0.201 A 
ATOM     19  C   UNL     1      53.561 -40.095 -25.528  1.00  0.00     0.098 A 
ATOM     20  C   UNL     1      55.599 -41.979 -25.109  1.00  0.00     0.176 A 
ATOM     21  C   UNL     1      53.596 -41.260 -26.309  1.00  0.00     0.146 A 
ATOM     22  C   UNL     1      54.641 -42.198 -26.141  1.00  0.00     0.111 A 
ATOM     23  O   UNL     1      52.621 -41.473 -27.192  1.00  0.00    -0.456 OA
ATOM     24  C   UNL     1      54.658 -43.297 -27.032  1.00  0.00     0.197 A 
ATOM     25  C   UNL     1      52.570 -42.554 -27.965  1.00  0.00     0.138 A 
ATOM     26  C   UNL     1      53.607 -43.484 -27.937  1.00  0.00     0.100 A 
ATOM     27  O   UNL     1      55.612 -44.125 -27.032  1.00  0.00    -0.289 OA
BRANCH  18  28
ATOM     28  O   UNL     1      56.647 -40.537 -23.504  1.00  0.00    -0.502 OA
ATOM     29  H   UNL     1      56.452 -40.525 -22.508  1.00  0.00     0.293 HD
ENDBRANCH  18  28
BRANCH  20  30
ATOM     30  O   UNL     1      56.520 -42.948 -24.690  1.00  0.00    -0.504 OA
ATOM     31  H   UNL     1      57.162 -43.397 -25.344  1.00  0.00     0.293 HD
ENDBRANCH  20  30
BRANCH  25  32
ATOM     32  C   UNL     1      51.390 -42.773 -28.818  1.00  0.00     0.017 A 
ATOM     33  C   UNL     1      50.114 -42.911 -28.247  1.00  0.00     0.012 A 
ATOM     34  C   UNL     1      51.558 -42.965 -30.195  1.00  0.00     0.012 A 
ATOM     35  C   UNL     1      49.012 -43.185 -29.059  1.00  0.00     0.001 A 
ATOM     36  C   UNL     1      50.461 -43.283 -30.998  1.00  0.00     0.001 A 
ATOM     37  C   UNL     1      49.181 -43.361 -30.440  1.00  0.00     0.000 A 
ENDBRANCH  25  32
ENDBRANCH   1  17
TORSDOF 9
ENDMDL
MODEL 9
REMARK VINA RESULT:    -6.012      1.945      8.460
REMARK INTER + INTRA:         -10.167
REMARK INTER:                  -8.521
REMARK INTRA:                  -1.646
REMARK UNBOUND:                -1.870
REMARK SMILES O=C([O-])[C@H]1O[C@H](Oc2cc3oc(-c4ccccc4)cc(=O)c3c(O)c2O)[C@@H](O)[C@H](O)[C@@H]1O
REMARK SMILES IDX 7 1 6 2 4 3 31 4 5 5 29 6 27 7 2 8 1 9 3 10 32 11 30 13
REMARK SMILES IDX 28 15 8 17 25 18 9 19 23 20 10 21 22 22 11 23 20 24 12 25
REMARK SMILES IDX 19 26 21 27 26 28 24 30 13 32 14 33 18 34 15 35 17 36 16 37
REMARK H PARENT 32 12 30 14 28 16 26 29 24 31
REMARK Flexibility Score: inf
ROOT
ATOM      1  O   UNL     1      46.108 -29.642 -28.778  1.00  0.00    -0.458 OA
ENDROOT
BRANCH   1   2
ATOM      2  C   UNL     1      45.599 -28.924 -27.645  1.00  0.00     0.339 C 
ATOM      3  C   UNL     1      43.287 -28.835 -28.345  1.00  0.00     0.199 C 
ATOM      4  C   UNL     1      43.371 -30.403 -28.322  1.00  0.00     0.180 C 
ATOM      5  O   UNL     1      44.503 -28.114 -28.038  1.00  0.00    -0.328 OA
ATOM      6  C   UNL     1      44.153 -30.922 -27.077  1.00  0.00     0.181 C 
ATOM      7  C   UNL     1      45.198 -29.913 -26.531  1.00  0.00     0.214 C 
BRANCH   3   8
ATOM      8  C   UNL     1      42.180 -28.299 -27.469  1.00  0.00     0.073 C 
ATOM      9  O   UNL     1      42.434 -27.644 -26.424  1.00  0.00    -0.547 OA
ATOM     10  O   UNL     1      40.854 -28.517 -27.831  1.00  0.00    -0.547 OA
ENDBRANCH   3   8
BRANCH   4  11
ATOM     11  O   UNL     1      44.002 -30.813 -29.513  1.00  0.00    -0.387 OA
ATOM     12  H   UNL     1      43.965 -31.809 -29.579  1.00  0.00     0.211 HD
ENDBRANCH   4  11
BRANCH   6  13
ATOM     13  O   UNL     1      44.761 -32.168 -27.316  1.00  0.00    -0.387 OA
ATOM     14  H   UNL     1      45.085 -32.162 -28.252  1.00  0.00     0.211 HD
ENDBRANCH   6  13
BRANCH   7  15
ATOM     15  O   UNL     1      44.681 -29.256 -25.389  1.00  0.00    -0.384 OA
ATOM     16  H   UNL     1      44.147 -28.472 -25.669  1.00  0.00     0.211 HD
ENDBRANCH   7  15
ENDBRANCH   1   2
BRANCH   1  17
ATOM     17  C   UNL     1      46.999 -29.103 -29.710  1.00  0.00     0.172 A 
ATOM     18  C   UNL     1      46.531 -28.472 -30.880  1.00  0.00     0.201 A 
ATOM     19  C   UNL     1      48.377 -29.248 -29.509  1.00  0.00     0.098 A 
ATOM     20  C   UNL     1      47.435 -28.001 -31.840  1.00  0.00     0.176 A 
ATOM     21  C   UNL     1      49.288 -28.867 -30.504  1.00  0.00     0.146 A 
ATOM     22  C   UNL     1      48.826 -28.279 -31.705  1.00  0.00     0.111 A 
ATOM     23  O   UNL     1      50.591 -29.052 -30.291  1.00  0.00    -0.456 OA
ATOM     24  C   UNL     1      49.799 -28.013 -32.698  1.00  0.00     0.197 A 
ATOM     25  C   UNL     1      51.523 -28.712 -31.176  1.00  0.00     0.138 A 
ATOM     26  C   UNL     1      51.156 -28.216 -32.425  1.00  0.00     0.100 A 
ATOM     27  O   UNL     1      49.466 -27.593 -33.842  1.00  0.00    -0.289 OA
BRANCH  18  28
ATOM     28  O   UNL     1      45.165 -28.304 -31.124  1.00  0.00    -0.502 OA
ATOM     29  H   UNL     1      44.858 -27.985 -32.037  1.00  0.00     0.293 HD
ENDBRANCH  18  28
BRANCH  20  30
ATOM     30  O   UNL     1      46.901 -27.206 -32.863  1.00  0.00    -0.504 OA
ATOM     31  H   UNL     1      45.910 -26.965 -32.896  1.00  0.00     0.293 HD
ENDBRANCH  20  30
BRANCH  25  32
ATOM     32  C   UNL     1      52.943 -28.832 -30.805  1.00  0.00     0.017 A 
ATOM     33  C   UNL     1      53.348 -29.753 -29.825  1.00  0.00     0.012 A 
ATOM     34  C   UNL     1      53.876 -27.937 -31.344  1.00  0.00     0.012 A 
ATOM     35  C   UNL     1      54.687 -29.812 -29.432  1.00  0.00     0.001 A 
ATOM     36  C   UNL     1      55.206 -27.968 -30.916  1.00  0.00     0.001 A 
ATOM     37  C   UNL     1      55.622 -28.926 -29.986  1.00  0.00     0.000 A 
ENDBRANCH  25  32
ENDBRANCH   1  17
TORSDOF 9
ENDMDL
