MODEL 1
REMARK VINA RESULT:    -5.272      0.000      0.000
REMARK INTER + INTRA:          -5.973
REMARK INTER:                  -5.889
REMARK INTRA:                  -0.085
REMARK UNBOUND:                -0.085
REMARK SMILES CCc1ccc(O)cc1O
REMARK SMILES IDX 3 1 9 2 8 3 6 4 5 5 4 6 2 7 1 8 10 9 7 11
REMARK H PARENT 10 10 7 12
REMARK Flexibility Score: inf
ROOT
ATOM      1  C   UNL     1     371.799 243.375 276.225  1.00  0.00    -0.006 A 
ATOM      2  C   UNL     1     370.826 242.634 275.509  1.00  0.00     0.122 A 
ATOM      3  C   UNL     1     369.486 242.675 275.915  1.00  0.00     0.092 A 
ATOM      4  C   UNL     1     369.096 243.454 277.011  1.00  0.00     0.119 A 
ATOM      5  C   UNL     1     370.050 244.199 277.706  1.00  0.00     0.047 A 
ATOM      6  C   UNL     1     371.390 244.164 277.314  1.00  0.00     0.011 A 
ENDROOT
BRANCH   1   7
ATOM      7  C   UNL     1     373.257 243.381 275.830  1.00  0.00     0.036 C 
ATOM      8  C   UNL     1     374.114 244.033 276.912  1.00  0.00     0.009 C 
ENDBRANCH   1   7
BRANCH   2   9
ATOM      9  O   UNL     1     371.148 241.856 274.395  1.00  0.00    -0.508 OA
ATOM     10  H   UNL     1     370.461 241.371 273.833  1.00  0.00     0.293 HD
ENDBRANCH   2   9
BRANCH   4  11
ATOM     11  O   UNL     1     367.763 243.496 277.415  1.00  0.00    -0.508 OA
ATOM     12  H   UNL     1     367.394 242.835 278.089  1.00  0.00     0.293 HD
ENDBRANCH   4  11
TORSDOF 3
ENDMDL
MODEL 2
REMARK VINA RESULT:    -5.163      0.781      0.781
REMARK INTER + INTRA:          -5.852
REMARK INTER:                  -5.746
REMARK INTRA:                  -0.106
REMARK UNBOUND:                -0.085
REMARK SMILES CCc1ccc(O)cc1O
REMARK SMILES IDX 3 1 9 2 8 3 6 4 5 5 4 6 2 7 1 8 10 9 7 11
REMARK H PARENT 10 10 7 12
REMARK Flexibility Score: inf
ROOT
ATOM      1  C   UNL     1     371.329 243.433 276.554  1.00  0.00    -0.006 A 
ATOM      2  C   UNL     1     370.431 242.820 275.644  1.00  0.00     0.122 A 
ATOM      3  C   UNL     1     369.052 243.010 275.797  1.00  0.00     0.092 A 
ATOM      4  C   UNL     1     368.552 243.812 276.829  1.00  0.00     0.119 A 
ATOM      5  C   UNL     1     369.435 244.432 277.715  1.00  0.00     0.047 A 
ATOM      6  C   UNL     1     370.813 244.248 277.576  1.00  0.00     0.011 A 
ENDROOT
BRANCH   1   7
ATOM      7  C   UNL     1     372.826 243.276 276.435  1.00  0.00     0.036 C 
ATOM      8  C   UNL     1     373.422 244.367 275.550  1.00  0.00     0.009 C 
ENDBRANCH   1   7
BRANCH   2   9
ATOM      9  O   UNL     1     370.867 242.025 274.582  1.00  0.00    -0.508 OA
ATOM     10  H   UNL     1     370.355 241.227 274.231  1.00  0.00     0.293 HD
ENDBRANCH   2   9
BRANCH   4  11
ATOM     11  O   UNL     1     367.180 244.003 276.981  1.00  0.00    -0.508 OA
ATOM     12  H   UNL     1     366.617 244.406 276.241  1.00  0.00     0.293 HD
ENDBRANCH   4  11
TORSDOF 3
ENDMDL
MODEL 3
REMARK VINA RESULT:    -4.817      1.870      2.747
REMARK INTER + INTRA:          -5.465
REMARK INTER:                  -5.361
REMARK INTRA:                  -0.103
REMARK UNBOUND:                -0.085
REMARK SMILES CCc1ccc(O)cc1O
REMARK SMILES IDX 3 1 9 2 8 3 6 4 5 5 4 6 2 7 1 8 10 9 7 11
REMARK H PARENT 10 10 7 12
REMARK Flexibility Score: inf
ROOT
ATOM      1  C   UNL     1     372.243 242.983 275.896  1.00  0.00    -0.006 A 
ATOM      2  C   UNL     1     371.052 243.195 276.636  1.00  0.00     0.122 A 
ATOM      3  C   UNL     1     370.120 242.157 276.760  1.00  0.00     0.092 A 
ATOM      4  C   UNL     1     370.360 240.909 276.175  1.00  0.00     0.119 A 
ATOM      5  C   UNL     1     371.540 240.692 275.462  1.00  0.00     0.047 A 
ATOM      6  C   UNL     1     372.477 241.720 275.326  1.00  0.00     0.011 A 
ENDROOT
BRANCH   1   7
ATOM      7  C   UNL     1     373.292 244.058 275.735  1.00  0.00     0.036 C 
ATOM      8  C   UNL     1     374.280 244.035 276.898  1.00  0.00     0.009 C 
ENDBRANCH   1   7
BRANCH   2   9
ATOM      9  O   UNL     1     370.765 244.410 277.261  1.00  0.00    -0.508 OA
ATOM     10  H   UNL     1     370.070 244.516 277.987  1.00  0.00     0.293 HD
ENDBRANCH   2   9
BRANCH   4  11
ATOM     11  O   UNL     1     369.433 239.876 276.299  1.00  0.00    -0.508 OA
ATOM     12  H   UNL     1     368.756 239.860 277.053  1.00  0.00     0.293 HD
ENDBRANCH   4  11
TORSDOF 3
ENDMDL
MODEL 4
REMARK VINA RESULT:    -4.802      2.396      3.253
REMARK INTER + INTRA:          -5.448
REMARK INTER:                  -5.363
REMARK INTRA:                  -0.085
REMARK UNBOUND:                -0.085
REMARK SMILES CCc1ccc(O)cc1O
REMARK SMILES IDX 3 1 9 2 8 3 6 4 5 5 4 6 2 7 1 8 10 9 7 11
REMARK H PARENT 10 10 7 12
REMARK Flexibility Score: inf
ROOT
ATOM      1  C   UNL     1     373.453 241.814 276.230  1.00  0.00    -0.006 A 
ATOM      2  C   UNL     1     373.006 243.155 276.342  1.00  0.00     0.122 A 
ATOM      3  C   UNL     1     371.698 243.483 275.966  1.00  0.00     0.092 A 
ATOM      4  C   UNL     1     370.821 242.498 275.498  1.00  0.00     0.119 A 
ATOM      5  C   UNL     1     371.253 241.173 275.405  1.00  0.00     0.047 A 
ATOM      6  C   UNL     1     372.557 240.833 275.772  1.00  0.00     0.011 A 
ENDROOT
BRANCH   1   7
ATOM      7  C   UNL     1     374.848 241.395 276.629  1.00  0.00     0.036 C 
ATOM      8  C   UNL     1     374.983 239.875 276.630  1.00  0.00     0.009 C 
ENDBRANCH   1   7
BRANCH   2   9
ATOM      9  O   UNL     1     373.825 244.180 276.821  1.00  0.00    -0.508 OA
ATOM     10  H   UNL     1     374.149 244.238 277.777  1.00  0.00     0.293 HD
ENDBRANCH   2   9
BRANCH   4  11
ATOM     11  O   UNL     1     369.518 242.823 275.125  1.00  0.00    -0.508 OA
ATOM     12  H   UNL     1     369.030 242.306 274.404  1.00  0.00     0.293 HD
ENDBRANCH   4  11
TORSDOF 3
ENDMDL
MODEL 5
REMARK VINA RESULT:    -4.763      1.572      3.761
REMARK INTER + INTRA:          -5.405
REMARK INTER:                  -5.320
REMARK INTRA:                  -0.084
REMARK UNBOUND:                -0.085
REMARK SMILES CCc1ccc(O)cc1O
REMARK SMILES IDX 3 1 9 2 8 3 6 4 5 5 4 6 2 7 1 8 10 9 7 11
REMARK H PARENT 10 10 7 12
REMARK Flexibility Score: inf
ROOT
ATOM      1  C   UNL     1     370.624 243.565 277.322  1.00  0.00    -0.006 A 
ATOM      2  C   UNL     1     370.225 242.204 277.304  1.00  0.00     0.122 A 
ATOM      3  C   UNL     1     370.979 241.271 276.581  1.00  0.00     0.092 A 
ATOM      4  C   UNL     1     372.131 241.665 275.891  1.00  0.00     0.119 A 
ATOM      5  C   UNL     1     372.536 243.001 275.923  1.00  0.00     0.047 A 
ATOM      6  C   UNL     1     371.791 243.943 276.636  1.00  0.00     0.011 A 
ENDROOT
BRANCH   1   7
ATOM      7  C   UNL     1     369.859 244.616 278.092  1.00  0.00     0.036 C 
ATOM      8  C   UNL     1     368.654 245.109 277.295  1.00  0.00     0.009 C 
ENDBRANCH   1   7
BRANCH   2   9
ATOM      9  O   UNL     1     369.099 241.744 277.989  1.00  0.00    -0.508 OA
ATOM     10  H   UNL     1     368.881 241.997 278.943  1.00  0.00     0.293 HD
ENDBRANCH   2   9
BRANCH   4  11
ATOM     11  O   UNL     1     372.882 240.737 275.172  1.00  0.00    -0.508 OA
ATOM     12  H   UNL     1     372.904 239.758 275.434  1.00  0.00     0.293 HD
ENDBRANCH   4  11
TORSDOF 3
ENDMDL
MODEL 6
REMARK VINA RESULT:    -4.696      2.094      2.443
REMARK INTER + INTRA:          -5.329
REMARK INTER:                  -5.243
REMARK INTRA:                  -0.086
REMARK UNBOUND:                -0.085
REMARK SMILES CCc1ccc(O)cc1O
REMARK SMILES IDX 3 1 9 2 8 3 6 4 5 5 4 6 2 7 1 8 10 9 7 11
REMARK H PARENT 10 10 7 12
REMARK Flexibility Score: inf
ROOT
ATOM      1  C   UNL     1     372.656 241.542 276.102  1.00  0.00    -0.006 A 
ATOM      2  C   UNL     1     371.282 241.282 276.335  1.00  0.00     0.122 A 
ATOM      3  C   UNL     1     370.423 242.338 276.665  1.00  0.00     0.092 A 
ATOM      4  C   UNL     1     370.904 243.649 276.749  1.00  0.00     0.119 A 
ATOM      5  C   UNL     1     372.252 243.910 276.501  1.00  0.00     0.047 A 
ATOM      6  C   UNL     1     373.121 242.866 276.176  1.00  0.00     0.011 A 
ENDROOT
BRANCH   1   7
ATOM      7  C   UNL     1     373.630 240.448 275.733  1.00  0.00     0.036 C 
ATOM      8  C   UNL     1     374.892 240.528 276.587  1.00  0.00     0.009 C 
ENDBRANCH   1   7
BRANCH   2   9
ATOM      9  O   UNL     1     370.736 239.999 276.246  1.00  0.00    -0.508 OA
ATOM     10  H   UNL     1     370.057 239.633 276.899  1.00  0.00     0.293 HD
ENDBRANCH   2   9
BRANCH   4  11
ATOM     11  O   UNL     1     370.049 244.701 277.076  1.00  0.00    -0.508 OA
ATOM     12  H   UNL     1     369.193 244.544 277.594  1.00  0.00     0.293 HD
ENDBRANCH   4  11
TORSDOF 3
ENDMDL
MODEL 7
REMARK VINA RESULT:    -4.690      2.405      4.190
REMARK INTER + INTRA:          -5.323
REMARK INTER:                  -5.221
REMARK INTRA:                  -0.103
REMARK UNBOUND:                -0.085
REMARK SMILES CCc1ccc(O)cc1O
REMARK SMILES IDX 3 1 9 2 8 3 6 4 5 5 4 6 2 7 1 8 10 9 7 11
REMARK H PARENT 10 10 7 12
REMARK Flexibility Score: inf
ROOT
ATOM      1  C   UNL     1     371.939 241.718 276.069  1.00  0.00    -0.006 A 
ATOM      2  C   UNL     1     371.563 243.081 276.175  1.00  0.00     0.122 A 
ATOM      3  C   UNL     1     372.542 244.053 276.414  1.00  0.00     0.092 A 
ATOM      4  C   UNL     1     373.889 243.695 276.532  1.00  0.00     0.119 A 
ATOM      5  C   UNL     1     374.265 242.356 276.409  1.00  0.00     0.047 A 
ATOM      6  C   UNL     1     373.298 241.375 276.175  1.00  0.00     0.011 A 
ENDROOT
BRANCH   1   7
ATOM      7  C   UNL     1     370.932 240.624 275.801  1.00  0.00     0.036 C 
ATOM      8  C   UNL     1     370.469 239.977 277.103  1.00  0.00     0.009 C 
ENDBRANCH   1   7
BRANCH   2   9
ATOM      9  O   UNL     1     370.238 243.504 276.046  1.00  0.00    -0.508 OA
ATOM     10  H   UNL     1     369.444 242.965 276.364  1.00  0.00     0.293 HD
ENDBRANCH   2   9
BRANCH   4  11
ATOM     11  O   UNL     1     374.864 244.663 276.769  1.00  0.00    -0.508 OA
ATOM     12  H   UNL     1     375.850 244.458 276.655  1.00  0.00     0.293 HD
ENDBRANCH   4  11
TORSDOF 3
ENDMDL
MODEL 8
REMARK VINA RESULT:    -4.540      2.166      3.754
REMARK INTER + INTRA:          -5.155
REMARK INTER:                  -5.064
REMARK INTRA:                  -0.092
REMARK UNBOUND:                -0.085
REMARK SMILES CCc1ccc(O)cc1O
REMARK SMILES IDX 3 1 9 2 8 3 6 4 5 5 4 6 2 7 1 8 10 9 7 11
REMARK H PARENT 10 10 7 12
REMARK Flexibility Score: inf
ROOT
ATOM      1  C   UNL     1     370.757 243.204 277.009  1.00  0.00    -0.006 A 
ATOM      2  C   UNL     1     371.913 243.311 276.195  1.00  0.00     0.122 A 
ATOM      3  C   UNL     1     372.357 242.196 275.471  1.00  0.00     0.092 A 
ATOM      4  C   UNL     1     371.660 240.984 275.530  1.00  0.00     0.119 A 
ATOM      5  C   UNL     1     370.511 240.882 276.316  1.00  0.00     0.047 A 
ATOM      6  C   UNL     1     370.060 241.984 277.046  1.00  0.00     0.011 A 
ENDROOT
BRANCH   1   7
ATOM      7  C   UNL     1     370.223 244.372 277.803  1.00  0.00     0.036 C 
ATOM      8  C   UNL     1     368.795 244.711 277.383  1.00  0.00     0.009 C 
ENDBRANCH   1   7
BRANCH   2   9
ATOM      9  O   UNL     1     372.640 244.497 276.077  1.00  0.00    -0.508 OA
ATOM     10  H   UNL     1     372.514 245.159 275.322  1.00  0.00     0.293 HD
ENDBRANCH   2   9
BRANCH   4  11
ATOM     11  O   UNL     1     372.100 239.875 274.810  1.00  0.00    -0.508 OA
ATOM     12  H   UNL     1     372.700 239.975 273.999  1.00  0.00     0.293 HD
ENDBRANCH   4  11
TORSDOF 3
ENDMDL
MODEL 9
REMARK VINA RESULT:    -4.526      1.957      2.382
REMARK INTER + INTRA:          -5.140
REMARK INTER:                  -5.047
REMARK INTRA:                  -0.093
REMARK UNBOUND:                -0.085
REMARK SMILES CCc1ccc(O)cc1O
REMARK SMILES IDX 3 1 9 2 8 3 6 4 5 5 4 6 2 7 1 8 10 9 7 11
REMARK H PARENT 10 10 7 12
REMARK Flexibility Score: inf
ROOT
ATOM      1  C   UNL     1     371.913 241.750 276.059  1.00  0.00    -0.006 A 
ATOM      2  C   UNL     1     372.126 243.147 275.942  1.00  0.00     0.122 A 
ATOM      3  C   UNL     1     371.255 244.037 276.583  1.00  0.00     0.092 A 
ATOM      4  C   UNL     1     370.187 243.560 277.352  1.00  0.00     0.119 A 
ATOM      5  C   UNL     1     369.987 242.185 277.485  1.00  0.00     0.047 A 
ATOM      6  C   UNL     1     370.846 241.287 276.847  1.00  0.00     0.011 A 
ENDROOT
BRANCH   1   7
ATOM      7  C   UNL     1     372.823 240.741 275.401  1.00  0.00     0.036 C 
ATOM      8  C   UNL     1     374.056 240.474 276.261  1.00  0.00     0.009 C 
ENDBRANCH   1   7
BRANCH   2   9
ATOM      9  O   UNL     1     373.185 243.685 275.207  1.00  0.00    -0.508 OA
ATOM     10  H   UNL     1     373.458 243.352 274.292  1.00  0.00     0.293 HD
ENDBRANCH   2   9
BRANCH   4  11
ATOM     11  O   UNL     1     369.321 244.445 277.992  1.00  0.00    -0.508 OA
ATOM     12  H   UNL     1     369.120 244.366 278.982  1.00  0.00     0.293 HD
ENDBRANCH   4  11
TORSDOF 3
ENDMDL
