MODEL 1
REMARK VINA RESULT:    -3.819      0.000      0.000
REMARK INTER + INTRA:          -3.819
REMARK INTER:                  -3.819
REMARK INTRA:                   0.000
REMARK UNBOUND:                 0.000
REMARK SMILES C=C1[C@@H]2CC[C@@H](C2)C1(C)C
REMARK SMILES IDX 9 1 8 2 6 3 5 4 4 5 3 6 7 7 2 8 1 9 10 10
REMARK H PARENT
REMARK Flexibility Score: inf
ROOT
ATOM      1  C   UNL     1     140.109 137.169 133.346  1.00  0.00     0.016 C 
ATOM      2  C   UNL     1     139.338 137.846 134.501  1.00  0.00    -0.012 C 
ATOM      3  C   UNL     1     140.255 138.848 135.288  1.00  0.00    -0.001 C 
ATOM      4  C   UNL     1     139.436 139.663 136.318  1.00  0.00     0.005 C 
ATOM      5  C   UNL     1     139.029 138.596 137.356  1.00  0.00     0.008 C 
ATOM      6  C   UNL     1     139.753 137.333 136.855  1.00  0.00     0.015 C 
ATOM      7  C   UNL     1     141.004 137.926 136.245  1.00  0.00     0.012 C 
ATOM      8  C   UNL     1     139.041 136.869 135.613  1.00  0.00    -0.068 C 
ATOM      9  C   UNL     1     138.239 135.799 135.539  1.00  0.00     0.008 C 
ATOM     10  C   UNL     1     138.048 138.486 133.939  1.00  0.00     0.016 C 
ENDROOT
TORSDOF 0
ENDMDL
MODEL 2
REMARK VINA RESULT:    -3.779      5.725      7.405
REMARK INTER + INTRA:          -3.779
REMARK INTER:                  -3.779
REMARK INTRA:                   0.000
REMARK UNBOUND:                 0.000
REMARK SMILES C=C1[C@@H]2CC[C@@H](C2)C1(C)C
REMARK SMILES IDX 9 1 8 2 6 3 5 4 4 5 3 6 7 7 2 8 1 9 10 10
REMARK H PARENT
REMARK Flexibility Score: inf
ROOT
ATOM      1  C   UNL     1     131.938 137.009 134.364  1.00  0.00     0.016 C 
ATOM      2  C   UNL     1     132.968 136.039 134.986  1.00  0.00    -0.012 C 
ATOM      3  C   UNL     1     132.386 134.585 135.095  1.00  0.00    -0.001 C 
ATOM      4  C   UNL     1     133.477 133.580 135.538  1.00  0.00     0.005 C 
ATOM      5  C   UNL     1     133.766 134.004 136.994  1.00  0.00     0.008 C 
ATOM      6  C   UNL     1     132.733 135.120 137.239  1.00  0.00     0.015 C 
ATOM      7  C   UNL     1     131.576 134.651 136.386  1.00  0.00     0.012 C 
ATOM      8  C   UNL     1     133.177 136.324 136.453  1.00  0.00    -0.068 C 
ATOM      9  C   UNL     1     133.717 137.431 136.979  1.00  0.00     0.008 C 
ATOM     10  C   UNL     1     134.289 136.128 134.189  1.00  0.00     0.016 C 
ENDROOT
TORSDOF 0
ENDMDL
MODEL 3
REMARK VINA RESULT:    -3.777      3.651      5.712
REMARK INTER + INTRA:          -3.777
REMARK INTER:                  -3.777
REMARK INTRA:                   0.000
REMARK UNBOUND:                 0.000
REMARK SMILES C=C1[C@@H]2CC[C@@H](C2)C1(C)C
REMARK SMILES IDX 9 1 8 2 6 3 5 4 4 5 3 6 7 7 2 8 1 9 10 10
REMARK H PARENT
REMARK Flexibility Score: inf
ROOT
ATOM      1  C   UNL     1     138.946 133.878 138.163  1.00  0.00     0.016 C 
ATOM      2  C   UNL     1     138.151 133.914 136.839  1.00  0.00    -0.012 C 
ATOM      3  C   UNL     1     137.137 132.719 136.751  1.00  0.00    -0.001 C 
ATOM      4  C   UNL     1     136.211 132.861 135.519  1.00  0.00     0.005 C 
ATOM      5  C   UNL     1     137.178 132.650 134.335  1.00  0.00     0.008 C 
ATOM      6  C   UNL     1     138.507 132.305 135.032  1.00  0.00     0.015 C 
ATOM      7  C   UNL     1     138.019 131.574 136.263  1.00  0.00     0.012 C 
ATOM      8  C   UNL     1     139.028 133.571 135.659  1.00  0.00    -0.068 C 
ATOM      9  C   UNL     1     140.062 134.287 135.201  1.00  0.00     0.008 C 
ATOM     10  C   UNL     1     137.496 135.305 136.682  1.00  0.00     0.016 C 
ENDROOT
TORSDOF 0
ENDMDL
MODEL 4
REMARK VINA RESULT:    -3.776      4.099      5.280
REMARK INTER + INTRA:          -3.776
REMARK INTER:                  -3.776
REMARK INTRA:                   0.000
REMARK UNBOUND:                 0.000
REMARK SMILES C=C1[C@@H]2CC[C@@H](C2)C1(C)C
REMARK SMILES IDX 9 1 8 2 6 3 5 4 4 5 3 6 7 7 2 8 1 9 10 10
REMARK H PARENT
REMARK Flexibility Score: inf
ROOT
ATOM      1  C   UNL     1     135.325 140.130 133.292  1.00  0.00     0.016 C 
ATOM      2  C   UNL     1     134.730 139.359 134.491  1.00  0.00    -0.012 C 
ATOM      3  C   UNL     1     133.761 140.267 135.328  1.00  0.00    -0.001 C 
ATOM      4  C   UNL     1     133.021 139.446 136.411  1.00  0.00     0.005 C 
ATOM      5  C   UNL     1     134.153 139.066 137.389  1.00  0.00     0.008 C 
ATOM      6  C   UNL     1     135.372 139.806 136.808  1.00  0.00     0.015 C 
ATOM      7  C   UNL     1     134.724 141.041 136.223  1.00  0.00     0.012 C 
ATOM      8  C   UNL     1     135.775 139.089 135.547  1.00  0.00    -0.068 C 
ATOM      9  C   UNL     1     136.852 138.304 135.418  1.00  0.00     0.008 C 
ATOM     10  C   UNL     1     134.080 138.054 133.979  1.00  0.00     0.016 C 
ENDROOT
TORSDOF 0
ENDMDL
MODEL 5
REMARK VINA RESULT:    -3.764      4.563      5.730
REMARK INTER + INTRA:          -3.764
REMARK INTER:                  -3.764
REMARK INTRA:                   0.000
REMARK UNBOUND:                 0.000
REMARK SMILES C=C1[C@@H]2CC[C@@H](C2)C1(C)C
REMARK SMILES IDX 9 1 8 2 6 3 5 4 4 5 3 6 7 7 2 8 1 9 10 10
REMARK H PARENT
REMARK Flexibility Score: inf
ROOT
ATOM      1  C   UNL     1     135.604 131.862 134.238  1.00  0.00     0.016 C 
ATOM      2  C   UNL     1     136.595 132.893 134.823  1.00  0.00    -0.012 C 
ATOM      3  C   UNL     1     138.033 132.282 134.968  1.00  0.00    -0.001 C 
ATOM      4  C   UNL     1     139.062 133.365 135.372  1.00  0.00     0.005 C 
ATOM      5  C   UNL     1     138.636 133.726 136.811  1.00  0.00     0.008 C 
ATOM      6  C   UNL     1     137.493 132.733 137.091  1.00  0.00     0.015 C 
ATOM      7  C   UNL     1     137.939 131.529 136.292  1.00  0.00     0.012 C 
ATOM      8  C   UNL     1     136.305 133.172 136.278  1.00  0.00    -0.068 C 
ATOM      9  C   UNL     1     135.209 133.761 136.772  1.00  0.00     0.008 C 
ATOM     10  C   UNL     1     136.544 134.181 133.970  1.00  0.00     0.016 C 
ENDROOT
TORSDOF 0
ENDMDL
MODEL 6
REMARK VINA RESULT:    -3.762      5.339      7.437
REMARK INTER + INTRA:          -3.762
REMARK INTER:                  -3.762
REMARK INTRA:                   0.000
REMARK UNBOUND:                 0.000
REMARK SMILES C=C1[C@@H]2CC[C@@H](C2)C1(C)C
REMARK SMILES IDX 9 1 8 2 6 3 5 4 4 5 3 6 7 7 2 8 1 9 10 10
REMARK H PARENT
REMARK Flexibility Score: inf
ROOT
ATOM      1  C   UNL     1     134.089 133.825 138.159  1.00  0.00     0.016 C 
ATOM      2  C   UNL     1     134.047 134.547 136.794  1.00  0.00    -0.012 C 
ATOM      3  C   UNL     1     132.847 135.556 136.720  1.00  0.00    -0.001 C 
ATOM      4  C   UNL     1     132.918 136.414 135.433  1.00  0.00     0.005 C 
ATOM      5  C   UNL     1     132.642 135.384 134.317  1.00  0.00     0.008 C 
ATOM      6  C   UNL     1     132.340 134.095 135.104  1.00  0.00     0.015 C 
ATOM      7  C   UNL     1     131.678 134.650 136.346  1.00  0.00     0.012 C 
ATOM      8  C   UNL     1     133.639 133.607 135.685  1.00  0.00    -0.068 C 
ATOM      9  C   UNL     1     134.331 132.549 135.244  1.00  0.00     0.008 C 
ATOM     10  C   UNL     1     135.426 135.191 136.523  1.00  0.00     0.016 C 
ENDROOT
TORSDOF 0
ENDMDL
MODEL 7
REMARK VINA RESULT:    -3.734      1.092      3.142
REMARK INTER + INTRA:          -3.734
REMARK INTER:                  -3.734
REMARK INTRA:                   0.000
REMARK UNBOUND:                 0.000
REMARK SMILES C=C1[C@@H]2CC[C@@H](C2)C1(C)C
REMARK SMILES IDX 9 1 8 2 6 3 5 4 4 5 3 6 7 7 2 8 1 9 10 10
REMARK H PARENT
REMARK Flexibility Score: inf
ROOT
ATOM      1  C   UNL     1     138.382 138.642 138.034  1.00  0.00     0.016 C 
ATOM      2  C   UNL     1     138.531 138.028 136.624  1.00  0.00    -0.012 C 
ATOM      3  C   UNL     1     139.756 137.049 136.556  1.00  0.00    -0.001 C 
ATOM      4  C   UNL     1     139.792 136.291 135.207  1.00  0.00     0.005 C 
ATOM      5  C   UNL     1     140.120 137.408 134.193  1.00  0.00     0.008 C 
ATOM      6  C   UNL     1     140.339 138.638 135.095  1.00  0.00     0.015 C 
ATOM      7  C   UNL     1     140.927 138.001 136.334  1.00  0.00     0.012 C 
ATOM      8  C   UNL     1     138.992 139.057 135.620  1.00  0.00    -0.068 C 
ATOM      9  C   UNL     1     138.308 140.133 135.213  1.00  0.00     0.008 C 
ATOM     10  C   UNL     1     137.189 137.382 136.210  1.00  0.00     0.016 C 
ENDROOT
TORSDOF 0
ENDMDL
MODEL 8
REMARK VINA RESULT:    -3.662      0.984      2.614
REMARK INTER + INTRA:          -3.662
REMARK INTER:                  -3.662
REMARK INTRA:                   0.000
REMARK UNBOUND:                 0.000
REMARK SMILES C=C1[C@@H]2CC[C@@H](C2)C1(C)C
REMARK SMILES IDX 9 1 8 2 6 3 5 4 4 5 3 6 7 7 2 8 1 9 10 10
REMARK H PARENT
REMARK Flexibility Score: inf
ROOT
ATOM      1  C   UNL     1     136.644 138.577 135.494  1.00  0.00     0.016 C 
ATOM      2  C   UNL     1     137.975 137.863 135.818  1.00  0.00    -0.012 C 
ATOM      3  C   UNL     1     138.708 138.546 137.026  1.00  0.00    -0.001 C 
ATOM      4  C   UNL     1     139.940 137.721 137.471  1.00  0.00     0.005 C 
ATOM      5  C   UNL     1     140.908 137.878 136.279  1.00  0.00     0.008 C 
ATOM      6  C   UNL     1     140.161 138.857 135.355  1.00  0.00     0.015 C 
ATOM      7  C   UNL     1     139.425 139.716 136.359  1.00  0.00     0.012 C 
ATOM      8  C   UNL     1     139.008 138.108 134.743  1.00  0.00    -0.068 C 
ATOM      9  C   UNL     1     138.948 137.689 133.473  1.00  0.00     0.008 C 
ATOM     10  C   UNL     1     137.703 136.356 136.020  1.00  0.00     0.016 C 
ENDROOT
TORSDOF 0
ENDMDL
MODEL 9
REMARK VINA RESULT:    -3.648      4.311      5.706
REMARK INTER + INTRA:          -3.648
REMARK INTER:                  -3.648
REMARK INTRA:                   0.000
REMARK UNBOUND:                 0.000
REMARK SMILES C=C1[C@@H]2CC[C@@H](C2)C1(C)C
REMARK SMILES IDX 9 1 8 2 6 3 5 4 4 5 3 6 7 7 2 8 1 9 10 10
REMARK H PARENT
REMARK Flexibility Score: inf
ROOT
ATOM      1  C   UNL     1     134.018 136.786 135.095  1.00  0.00     0.016 C 
ATOM      2  C   UNL     1     134.753 138.077 135.520  1.00  0.00    -0.012 C 
ATOM      3  C   UNL     1     134.175 138.645 136.864  1.00  0.00    -0.001 C 
ATOM      4  C   UNL     1     135.031 139.824 137.387  1.00  0.00     0.005 C 
ATOM      5  C   UNL     1     134.769 140.929 136.342  1.00  0.00     0.008 C 
ATOM      6  C   UNL     1     133.716 140.289 135.419  1.00  0.00     0.015 C 
ATOM      7  C   UNL     1     132.950 139.423 136.393  1.00  0.00     0.012 C 
ATOM      8  C   UNL     1     134.413 139.230 134.607  1.00  0.00    -0.068 C 
ATOM      9  C   UNL     1     134.721 139.334 133.309  1.00  0.00     0.008 C 
ATOM     10  C   UNL     1     136.273 137.803 135.558  1.00  0.00     0.016 C 
ENDROOT
TORSDOF 0
ENDMDL
