MODEL 1
REMARK VINA RESULT:    -4.300      0.000      0.000
REMARK INTER + INTRA:         -12.692
REMARK INTER:                  -9.830
REMARK INTRA:                  -2.862
REMARK UNBOUND:                -2.862
REMARK SMILES CCCCCCCCCCCCCCCCCCCCCCCC(=O)[O-]
REMARK SMILES IDX 13 1 14 2 15 3 16 4 17 5 18 6 19 7 20 8 21 9 22 10 23 11
REMARK SMILES IDX 24 12 25 13 26 14 12 15 11 16 10 17 9 18 8 19 7 20 6 21 5 22
REMARK SMILES IDX 4 23 3 24 2 25 1 26
REMARK H PARENT
REMARK Flexibility Score: inf
ROOT
ATOM      1  C   UNL     1       4.236  -1.506  -3.778  1.00  0.00     0.000 C 
ENDROOT
BRANCH   1   2
ATOM      2  C   UNL     1       5.420  -0.792  -4.444  1.00  0.00     0.000 C 
BRANCH   2   3
ATOM      3  C   UNL     1       6.595  -1.758  -4.658  1.00  0.00     0.000 C 
BRANCH   3   4
ATOM      4  C   UNL     1       6.205  -3.233  -4.451  1.00  0.00     0.000 C 
BRANCH   4   5
ATOM      5  C   UNL     1       7.391  -4.192  -4.219  1.00  0.00     0.000 C 
BRANCH   5   6
ATOM      6  C   UNL     1       8.371  -3.770  -3.108  1.00  0.00     0.000 C 
BRANCH   6   7
ATOM      7  C   UNL     1       7.772  -3.724  -1.689  1.00  0.00     0.000 C 
BRANCH   7   8
ATOM      8  C   UNL     1       8.157  -2.450  -0.919  1.00  0.00     0.000 C 
BRANCH   8   9
ATOM      9  C   UNL     1       6.962  -1.796  -0.199  1.00  0.00     0.000 C 
BRANCH   9  10
ATOM     10  C   UNL     1       6.377  -0.547  -0.892  1.00  0.00     0.006 C 
BRANCH  10  11
ATOM     11  C   UNL     1       5.362   0.237  -0.045  1.00  0.00     0.053 C 
BRANCH  11  12
ATOM     12  C   UNL     1       5.840   0.434   1.361  1.00  0.00     0.041 C 
ATOM     13  O   UNL     1       6.739   1.281   1.611  1.00  0.00    -0.550 OA
ATOM     14  O   UNL     1       5.282  -0.301   2.399  1.00  0.00    -0.550 OA
ENDBRANCH  11  12
ENDBRANCH  10  11
ENDBRANCH   9  10
ENDBRANCH   8   9
ENDBRANCH   7   8
ENDBRANCH   6   7
ENDBRANCH   5   6
ENDBRANCH   4   5
ENDBRANCH   3   4
ENDBRANCH   2   3
ENDBRANCH   1   2
BRANCH   1  15
ATOM     15  C   UNL     1       2.916  -1.322  -4.546  1.00  0.00     0.000 C 
BRANCH  15  16
ATOM     16  C   UNL     1       2.723  -2.368  -5.657  1.00  0.00     0.000 C 
BRANCH  16  17
ATOM     17  C   UNL     1       1.984  -3.627  -5.166  1.00  0.00     0.000 C 
BRANCH  17  18
ATOM     18  C   UNL     1       1.556  -3.597  -3.688  1.00  0.00    -0.000 C 
BRANCH  18  19
ATOM     19  C   UNL     1       0.628  -4.767  -3.307  1.00  0.00    -0.000 C 
BRANCH  19  20
ATOM     20  C   UNL     1       0.369  -4.835  -1.787  1.00  0.00    -0.000 C 
BRANCH  20  21
ATOM     21  C   UNL     1       1.078  -6.010  -1.090  1.00  0.00    -0.000 C 
BRANCH  21  22
ATOM     22  C   UNL     1       1.074  -7.294  -1.933  1.00  0.00    -0.000 C 
BRANCH  22  23
ATOM     23  C   UNL     1       2.411  -8.057  -1.881  1.00  0.00    -0.000 C 
BRANCH  23  24
ATOM     24  C   UNL     1       3.010  -8.440  -3.250  1.00  0.00    -0.000 C 
BRANCH  24  25
ATOM     25  C   UNL     1       2.782  -7.414  -4.375  1.00  0.00    -0.003 C 
ATOM     26  C   UNL     1       4.072  -6.741  -4.840  1.00  0.00     0.004 C 
ENDBRANCH  24  25
ENDBRANCH  23  24
ENDBRANCH  22  23
ENDBRANCH  21  22
ENDBRANCH  20  21
ENDBRANCH  19  20
ENDBRANCH  18  19
ENDBRANCH  17  18
ENDBRANCH  16  17
ENDBRANCH  15  16
ENDBRANCH   1  15
TORSDOF 22
ENDMDL
MODEL 2
REMARK VINA RESULT:    -4.241      1.161      3.200
REMARK INTER + INTRA:         -12.558
REMARK INTER:                  -9.868
REMARK INTRA:                  -2.690
REMARK UNBOUND:                -2.862
REMARK SMILES CCCCCCCCCCCCCCCCCCCCCCCC(=O)[O-]
REMARK SMILES IDX 13 1 14 2 15 3 16 4 17 5 18 6 19 7 20 8 21 9 22 10 23 11
REMARK SMILES IDX 24 12 25 13 26 14 12 15 11 16 10 17 9 18 8 19 7 20 6 21 5 22
REMARK SMILES IDX 4 23 3 24 2 25 1 26
REMARK H PARENT
REMARK Flexibility Score: inf
ROOT
ATOM      1  C   UNL     1       6.214  -3.208  -4.615  1.00  0.00     0.000 C 
ENDROOT
BRANCH   1   2
ATOM      2  C   UNL     1       7.110  -4.165  -3.815  1.00  0.00     0.000 C 
BRANCH   2   3
ATOM      3  C   UNL     1       8.417  -3.474  -3.399  1.00  0.00     0.000 C 
BRANCH   3   4
ATOM      4  C   UNL     1       8.698  -3.579  -1.888  1.00  0.00     0.000 C 
BRANCH   4   5
ATOM      5  C   UNL     1       7.516  -3.184  -0.979  1.00  0.00     0.000 C 
BRANCH   5   6
ATOM      6  C   UNL     1       7.571  -1.751  -0.413  1.00  0.00     0.000 C 
BRANCH   6   7
ATOM      7  C   UNL     1       6.446  -0.815  -0.895  1.00  0.00     0.000 C 
BRANCH   7   8
ATOM      8  C   UNL     1       6.980   0.455  -1.580  1.00  0.00     0.000 C 
BRANCH   8   9
ATOM      9  C   UNL     1       6.623   1.746  -0.820  1.00  0.00     0.000 C 
BRANCH   9  10
ATOM     10  C   UNL     1       5.541   1.592   0.270  1.00  0.00     0.006 C 
BRANCH  10  11
ATOM     11  C   UNL     1       6.039   1.834   1.704  1.00  0.00     0.053 C 
BRANCH  11  12
ATOM     12  C   UNL     1       6.412   0.555   2.390  1.00  0.00     0.041 C 
ATOM     13  O   UNL     1       7.609   0.338   2.717  1.00  0.00    -0.550 OA
ATOM     14  O   UNL     1       5.437  -0.390   2.685  1.00  0.00    -0.550 OA
ENDBRANCH  11  12
ENDBRANCH  10  11
ENDBRANCH   9  10
ENDBRANCH   8   9
ENDBRANCH   7   8
ENDBRANCH   6   7
ENDBRANCH   5   6
ENDBRANCH   4   5
ENDBRANCH   3   4
ENDBRANCH   2   3
ENDBRANCH   1   2
BRANCH   1  15
ATOM     15  C   UNL     1       6.650  -1.738  -4.493  1.00  0.00     0.000 C 
BRANCH  15  16
ATOM     16  C   UNL     1       5.462  -0.761  -4.532  1.00  0.00     0.000 C 
BRANCH  16  17
ATOM     17  C   UNL     1       4.139  -1.414  -4.092  1.00  0.00     0.000 C 
BRANCH  17  18
ATOM     18  C   UNL     1       2.980  -1.279  -5.096  1.00  0.00    -0.000 C 
BRANCH  18  19
ATOM     19  C   UNL     1       2.237  -2.607  -5.339  1.00  0.00    -0.000 C 
BRANCH  19  20
ATOM     20  C   UNL     1       1.916  -3.346  -4.022  1.00  0.00    -0.000 C 
BRANCH  20  21
ATOM     21  C   UNL     1       1.603  -4.841  -4.210  1.00  0.00    -0.000 C 
BRANCH  21  22
ATOM     22  C   UNL     1       0.158  -5.200  -3.829  1.00  0.00    -0.000 C 
BRANCH  22  23
ATOM     23  C   UNL     1      -0.147  -4.979  -2.336  1.00  0.00    -0.000 C 
BRANCH  23  24
ATOM     24  C   UNL     1       0.946  -5.457  -1.358  1.00  0.00    -0.000 C 
BRANCH  24  25
ATOM     25  C   UNL     1       0.942  -6.966  -1.058  1.00  0.00    -0.003 C 
ATOM     26  C   UNL     1       2.020  -7.731  -1.824  1.00  0.00     0.004 C 
ENDBRANCH  24  25
ENDBRANCH  23  24
ENDBRANCH  22  23
ENDBRANCH  21  22
ENDBRANCH  20  21
ENDBRANCH  19  20
ENDBRANCH  18  19
ENDBRANCH  17  18
ENDBRANCH  16  17
ENDBRANCH  15  16
ENDBRANCH   1  15
TORSDOF 22
ENDMDL
MODEL 3
REMARK VINA RESULT:    -4.224      1.163      2.390
REMARK INTER + INTRA:         -12.520
REMARK INTER:                  -9.324
REMARK INTRA:                  -3.196
REMARK UNBOUND:                -2.862
REMARK SMILES CCCCCCCCCCCCCCCCCCCCCCCC(=O)[O-]
REMARK SMILES IDX 13 1 14 2 15 3 16 4 17 5 18 6 19 7 20 8 21 9 22 10 23 11
REMARK SMILES IDX 24 12 25 13 26 14 12 15 11 16 10 17 9 18 8 19 7 20 6 21 5 22
REMARK SMILES IDX 4 23 3 24 2 25 1 26
REMARK H PARENT
REMARK Flexibility Score: inf
ROOT
ATOM      1  C   UNL     1       4.664  -1.476  -3.330  1.00  0.00     0.000 C 
ENDROOT
BRANCH   1   2
ATOM      2  C   UNL     1       5.343  -0.680  -4.454  1.00  0.00     0.000 C 
BRANCH   2   3
ATOM      3  C   UNL     1       6.612  -1.394  -4.943  1.00  0.00     0.000 C 
BRANCH   3   4
ATOM      4  C   UNL     1       6.707  -2.851  -4.455  1.00  0.00     0.000 C 
BRANCH   4   5
ATOM      5  C   UNL     1       8.009  -3.201  -3.703  1.00  0.00     0.000 C 
BRANCH   5   6
ATOM      6  C   UNL     1       7.821  -4.008  -2.403  1.00  0.00     0.000 C 
BRANCH   6   7
ATOM      7  C   UNL     1       7.944  -3.191  -1.103  1.00  0.00     0.000 C 
BRANCH   7   8
ATOM      8  C   UNL     1       8.620  -1.826  -1.318  1.00  0.00     0.000 C 
BRANCH   8   9
ATOM      9  C   UNL     1       7.700  -0.638  -0.980  1.00  0.00     0.000 C 
BRANCH   9  10
ATOM     10  C   UNL     1       6.497  -0.972  -0.072  1.00  0.00     0.006 C 
BRANCH  10  11
ATOM     11  C   UNL     1       5.535   0.202   0.171  1.00  0.00     0.053 C 
BRANCH  11  12
ATOM     12  C   UNL     1       5.495   0.603   1.615  1.00  0.00     0.041 C 
ATOM     13  O   UNL     1       5.511   1.821   1.933  1.00  0.00    -0.550 OA
ATOM     14  O   UNL     1       5.422  -0.366   2.608  1.00  0.00    -0.550 OA
ENDBRANCH  11  12
ENDBRANCH  10  11
ENDBRANCH   9  10
ENDBRANCH   8   9
ENDBRANCH   7   8
ENDBRANCH   6   7
ENDBRANCH   5   6
ENDBRANCH   4   5
ENDBRANCH   3   4
ENDBRANCH   2   3
ENDBRANCH   1   2
BRANCH   1  15
ATOM     15  C   UNL     1       3.209  -1.852  -3.658  1.00  0.00     0.000 C 
BRANCH  15  16
ATOM     16  C   UNL     1       2.647  -1.065  -4.855  1.00  0.00     0.000 C 
BRANCH  16  17
ATOM     17  C   UNL     1       2.256  -1.975  -6.034  1.00  0.00     0.000 C 
BRANCH  17  18
ATOM     18  C   UNL     1       3.377  -2.899  -6.543  1.00  0.00    -0.000 C 
BRANCH  18  19
ATOM     19  C   UNL     1       2.959  -4.381  -6.592  1.00  0.00    -0.000 C 
BRANCH  19  20
ATOM     20  C   UNL     1       3.096  -5.072  -5.219  1.00  0.00    -0.000 C 
BRANCH  20  21
ATOM     21  C   UNL     1       1.784  -5.685  -4.700  1.00  0.00    -0.000 C 
BRANCH  21  22
ATOM     22  C   UNL     1       0.910  -4.672  -3.944  1.00  0.00    -0.000 C 
BRANCH  22  23
ATOM     23  C   UNL     1       0.764  -4.997  -2.446  1.00  0.00    -0.000 C 
BRANCH  23  24
ATOM     24  C   UNL     1      -0.074  -6.249  -2.118  1.00  0.00    -0.000 C 
BRANCH  24  25
ATOM     25  C   UNL     1       0.720  -7.566  -2.038  1.00  0.00    -0.003 C 
ATOM     26  C   UNL     1       1.795  -7.551  -0.952  1.00  0.00     0.004 C 
ENDBRANCH  24  25
ENDBRANCH  23  24
ENDBRANCH  22  23
ENDBRANCH  21  22
ENDBRANCH  20  21
ENDBRANCH  19  20
ENDBRANCH  18  19
ENDBRANCH  17  18
ENDBRANCH  16  17
ENDBRANCH  15  16
ENDBRANCH   1  15
TORSDOF 22
ENDMDL
MODEL 4
REMARK VINA RESULT:    -4.224      1.308      2.644
REMARK INTER + INTRA:         -12.520
REMARK INTER:                  -9.561
REMARK INTRA:                  -2.959
REMARK UNBOUND:                -2.862
REMARK SMILES CCCCCCCCCCCCCCCCCCCCCCCC(=O)[O-]
REMARK SMILES IDX 13 1 14 2 15 3 16 4 17 5 18 6 19 7 20 8 21 9 22 10 23 11
REMARK SMILES IDX 24 12 25 13 26 14 12 15 11 16 10 17 9 18 8 19 7 20 6 21 5 22
REMARK SMILES IDX 4 23 3 24 2 25 1 26
REMARK H PARENT
REMARK Flexibility Score: inf
ROOT
ATOM      1  C   UNL     1       3.835  -1.435  -4.516  1.00  0.00     0.000 C 
ENDROOT
BRANCH   1   2
ATOM      2  C   UNL     1       4.830  -1.411  -3.347  1.00  0.00     0.000 C 
BRANCH   2   3
ATOM      3  C   UNL     1       6.185  -0.837  -3.790  1.00  0.00     0.000 C 
BRANCH   3   4
ATOM      4  C   UNL     1       7.162  -1.918  -4.287  1.00  0.00     0.000 C 
BRANCH   4   5
ATOM      5  C   UNL     1       8.205  -2.378  -3.248  1.00  0.00     0.000 C 
BRANCH   5   6
ATOM      6  C   UNL     1       7.711  -3.438  -2.244  1.00  0.00     0.000 C 
BRANCH   6   7
ATOM      7  C   UNL     1       7.634  -2.965  -0.780  1.00  0.00     0.000 C 
BRANCH   7   8
ATOM      8  C   UNL     1       8.544  -1.758  -0.494  1.00  0.00     0.000 C 
BRANCH   8   9
ATOM      9  C   UNL     1       7.833  -0.639   0.290  1.00  0.00     0.000 C 
BRANCH   9  10
ATOM     10  C   UNL     1       6.310  -0.818   0.461  1.00  0.00     0.006 C 
BRANCH  10  11
ATOM     11  C   UNL     1       5.458   0.259  -0.229  1.00  0.00     0.053 C 
BRANCH  11  12
ATOM     12  C   UNL     1       5.620   1.601   0.418  1.00  0.00     0.041 C 
ATOM     13  O   UNL     1       6.100   2.565  -0.235  1.00  0.00    -0.550 OA
ATOM     14  O   UNL     1       5.224   1.793   1.736  1.00  0.00    -0.550 OA
ENDBRANCH  11  12
ENDBRANCH  10  11
ENDBRANCH   9  10
ENDBRANCH   8   9
ENDBRANCH   7   8
ENDBRANCH   6   7
ENDBRANCH   5   6
ENDBRANCH   4   5
ENDBRANCH   3   4
ENDBRANCH   2   3
ENDBRANCH   1   2
BRANCH   1  15
ATOM     15  C   UNL     1       2.472  -2.033  -4.128  1.00  0.00     0.000 C 
BRANCH  15  16
ATOM     16  C   UNL     1       2.064  -3.214  -5.026  1.00  0.00     0.000 C 
BRANCH  16  17
ATOM     17  C   UNL     1       2.851  -4.500  -4.712  1.00  0.00     0.000 C 
BRANCH  17  18
ATOM     18  C   UNL     1       2.083  -5.811  -4.964  1.00  0.00    -0.000 C 
BRANCH  18  19
ATOM     19  C   UNL     1       2.775  -7.040  -4.344  1.00  0.00    -0.000 C 
BRANCH  19  20
ATOM     20  C   UNL     1       1.824  -7.850  -3.438  1.00  0.00    -0.000 C 
BRANCH  20  21
ATOM     21  C   UNL     1       1.938  -7.496  -1.945  1.00  0.00    -0.000 C 
BRANCH  21  22
ATOM     22  C   UNL     1       0.709  -6.741  -1.415  1.00  0.00    -0.000 C 
BRANCH  22  23
ATOM     23  C   UNL     1       0.871  -5.210  -1.460  1.00  0.00    -0.000 C 
BRANCH  23  24
ATOM     24  C   UNL     1      -0.146  -4.462  -2.346  1.00  0.00    -0.000 C 
BRANCH  24  25
ATOM     25  C   UNL     1      -1.114  -5.361  -3.136  1.00  0.00    -0.003 C 
ATOM     26  C   UNL     1      -2.567  -5.213  -2.688  1.00  0.00     0.004 C 
ENDBRANCH  24  25
ENDBRANCH  23  24
ENDBRANCH  22  23
ENDBRANCH  21  22
ENDBRANCH  20  21
ENDBRANCH  19  20
ENDBRANCH  18  19
ENDBRANCH  17  18
ENDBRANCH  16  17
ENDBRANCH  15  16
ENDBRANCH   1  15
TORSDOF 22
ENDMDL
MODEL 5
REMARK VINA RESULT:    -4.209      1.469      4.174
REMARK INTER + INTRA:         -12.485
REMARK INTER:                  -9.554
REMARK INTRA:                  -2.931
REMARK UNBOUND:                -2.862
REMARK SMILES CCCCCCCCCCCCCCCCCCCCCCCC(=O)[O-]
REMARK SMILES IDX 13 1 14 2 15 3 16 4 17 5 18 6 19 7 20 8 21 9 22 10 23 11
REMARK SMILES IDX 24 12 25 13 26 14 12 15 11 16 10 17 9 18 8 19 7 20 6 21 5 22
REMARK SMILES IDX 4 23 3 24 2 25 1 26
REMARK H PARENT
REMARK Flexibility Score: inf
ROOT
ATOM      1  C   UNL     1       7.551  -3.452  -3.438  1.00  0.00     0.000 C 
ENDROOT
BRANCH   1   2
ATOM      2  C   UNL     1       8.157  -2.674  -2.261  1.00  0.00     0.000 C 
BRANCH   2   3
ATOM      3  C   UNL     1       7.392  -2.962  -0.960  1.00  0.00     0.000 C 
BRANCH   3   4
ATOM      4  C   UNL     1       6.944  -1.682  -0.230  1.00  0.00     0.000 C 
BRANCH   4   5
ATOM      5  C   UNL     1       5.914  -0.825  -0.994  1.00  0.00     0.000 C 
BRANCH   5   6
ATOM      6  C   UNL     1       6.335   0.635  -1.252  1.00  0.00     0.000 C 
BRANCH   6   7
ATOM      7  C   UNL     1       7.839   0.922  -1.081  1.00  0.00     0.000 C 
BRANCH   7   8
ATOM      8  C   UNL     1       8.115   2.275  -0.403  1.00  0.00     0.000 C 
BRANCH   8   9
ATOM      9  C   UNL     1       8.676   2.130   1.024  1.00  0.00     0.000 C 
BRANCH   9  10
ATOM     10  C   UNL     1       8.495   0.738   1.667  1.00  0.00     0.006 C 
BRANCH  10  11
ATOM     11  C   UNL     1       7.581   0.718   2.901  1.00  0.00     0.053 C 
BRANCH  11  12
ATOM     12  C   UNL     1       6.130   0.697   2.524  1.00  0.00     0.041 C 
ATOM     13  O   UNL     1       5.457  -0.359   2.660  1.00  0.00    -0.550 OA
ATOM     14  O   UNL     1       5.517   1.846   2.040  1.00  0.00    -0.550 OA
ENDBRANCH  11  12
ENDBRANCH  10  11
ENDBRANCH   9  10
ENDBRANCH   8   9
ENDBRANCH   7   8
ENDBRANCH   6   7
ENDBRANCH   5   6
ENDBRANCH   4   5
ENDBRANCH   3   4
ENDBRANCH   2   3
ENDBRANCH   1   2
BRANCH   1  15
ATOM     15  C   UNL     1       7.355  -2.583  -4.692  1.00  0.00     0.000 C 
BRANCH  15  16
ATOM     16  C   UNL     1       7.243  -1.084  -4.365  1.00  0.00     0.000 C 
BRANCH  16  17
ATOM     17  C   UNL     1       5.975  -0.439  -4.955  1.00  0.00     0.000 C 
BRANCH  17  18
ATOM     18  C   UNL     1       4.818  -1.415  -5.238  1.00  0.00    -0.000 C 
BRANCH  18  19
ATOM     19  C   UNL     1       3.972  -1.722  -3.987  1.00  0.00    -0.000 C 
BRANCH  19  20
ATOM     20  C   UNL     1       2.464  -1.794  -4.307  1.00  0.00    -0.000 C 
BRANCH  20  21
ATOM     21  C   UNL     1       2.036  -3.106  -4.988  1.00  0.00    -0.000 C 
BRANCH  21  22
ATOM     22  C   UNL     1       1.945  -4.286  -4.007  1.00  0.00    -0.000 C 
BRANCH  22  23
ATOM     23  C   UNL     1       0.789  -4.148  -2.999  1.00  0.00    -0.000 C 
BRANCH  23  24
ATOM     24  C   UNL     1       0.223  -5.476  -2.456  1.00  0.00    -0.000 C 
BRANCH  24  25
ATOM     25  C   UNL     1       1.089  -6.171  -1.391  1.00  0.00    -0.003 C 
ATOM     26  C   UNL     1       1.831  -7.394  -1.929  1.00  0.00     0.004 C 
ENDBRANCH  24  25
ENDBRANCH  23  24
ENDBRANCH  22  23
ENDBRANCH  21  22
ENDBRANCH  20  21
ENDBRANCH  19  20
ENDBRANCH  18  19
ENDBRANCH  17  18
ENDBRANCH  16  17
ENDBRANCH  15  16
ENDBRANCH   1  15
TORSDOF 22
ENDMDL
MODEL 6
REMARK VINA RESULT:    -4.117      2.189      3.927
REMARK INTER + INTRA:         -12.274
REMARK INTER:                 -10.363
REMARK INTRA:                  -1.911
REMARK UNBOUND:                -2.862
REMARK SMILES CCCCCCCCCCCCCCCCCCCCCCCC(=O)[O-]
REMARK SMILES IDX 13 1 14 2 15 3 16 4 17 5 18 6 19 7 20 8 21 9 22 10 23 11
REMARK SMILES IDX 24 12 25 13 26 14 12 15 11 16 10 17 9 18 8 19 7 20 6 21 5 22
REMARK SMILES IDX 4 23 3 24 2 25 1 26
REMARK H PARENT
REMARK Flexibility Score: inf
ROOT
ATOM      1  C   UNL     1       7.231  -1.668  -4.129  1.00  0.00     0.000 C 
ENDROOT
BRANCH   1   2
ATOM      2  C   UNL     1       8.289  -2.219  -3.162  1.00  0.00     0.000 C 
BRANCH   2   3
ATOM      3  C   UNL     1       7.679  -3.270  -2.223  1.00  0.00     0.000 C 
BRANCH   3   4
ATOM      4  C   UNL     1       7.819  -2.899  -0.735  1.00  0.00     0.000 C 
BRANCH   4   5
ATOM      5  C   UNL     1       7.528  -1.421  -0.404  1.00  0.00     0.000 C 
BRANCH   5   6
ATOM      6  C   UNL     1       6.038  -1.029  -0.395  1.00  0.00     0.000 C 
BRANCH   6   7
ATOM      7  C   UNL     1       5.728   0.352   0.215  1.00  0.00     0.000 C 
BRANCH   7   8
ATOM      8  C   UNL     1       6.027   1.511  -0.751  1.00  0.00     0.000 C 
BRANCH   8   9
ATOM      9  C   UNL     1       6.390   2.821  -0.026  1.00  0.00     0.000 C 
BRANCH   9  10
ATOM     10  C   UNL     1       5.258   3.867   0.053  1.00  0.00     0.006 C 
BRANCH  10  11
ATOM     11  C   UNL     1       4.768   4.172   1.477  1.00  0.00     0.053 C 
BRANCH  11  12
ATOM     12  C   UNL     1       3.289   3.975   1.615  1.00  0.00     0.041 C 
ATOM     13  O   UNL     1       2.823   3.363   2.612  1.00  0.00    -0.550 OA
ATOM     14  O   UNL     1       2.423   4.481   0.653  1.00  0.00    -0.550 OA
ENDBRANCH  11  12
ENDBRANCH  10  11
ENDBRANCH   9  10
ENDBRANCH   8   9
ENDBRANCH   7   8
ENDBRANCH   6   7
ENDBRANCH   5   6
ENDBRANCH   4   5
ENDBRANCH   3   4
ENDBRANCH   2   3
ENDBRANCH   1   2
BRANCH   1  15
ATOM     15  C   UNL     1       5.882  -2.399  -4.021  1.00  0.00     0.000 C 
BRANCH  15  16
ATOM     16  C   UNL     1       4.710  -1.445  -3.733  1.00  0.00     0.000 C 
BRANCH  16  17
ATOM     17  C   UNL     1       3.937  -1.051  -5.005  1.00  0.00     0.000 C 
BRANCH  17  18
ATOM     18  C   UNL     1       2.514  -1.629  -5.109  1.00  0.00    -0.000 C 
BRANCH  18  19
ATOM     19  C   UNL     1       2.183  -2.619  -3.975  1.00  0.00    -0.000 C 
BRANCH  19  20
ATOM     20  C   UNL     1       2.091  -4.075  -4.479  1.00  0.00    -0.000 C 
BRANCH  20  21
ATOM     21  C   UNL     1       0.823  -4.813  -4.013  1.00  0.00    -0.000 C 
BRANCH  21  22
ATOM     22  C   UNL     1       0.415  -4.450  -2.577  1.00  0.00    -0.000 C 
BRANCH  22  23
ATOM     23  C   UNL     1       0.789  -5.533  -1.549  1.00  0.00    -0.000 C 
BRANCH  23  24
ATOM     24  C   UNL     1       1.445  -6.802  -2.132  1.00  0.00    -0.000 C 
BRANCH  24  25
ATOM     25  C   UNL     1       1.877  -7.852  -1.093  1.00  0.00    -0.003 C 
ATOM     26  C   UNL     1       0.847  -8.966  -0.904  1.00  0.00     0.004 C 
ENDBRANCH  24  25
ENDBRANCH  23  24
ENDBRANCH  22  23
ENDBRANCH  21  22
ENDBRANCH  20  21
ENDBRANCH  19  20
ENDBRANCH  18  19
ENDBRANCH  17  18
ENDBRANCH  16  17
ENDBRANCH  15  16
ENDBRANCH   1  15
TORSDOF 22
ENDMDL
MODEL 7
REMARK VINA RESULT:    -4.114      2.985      5.691
REMARK INTER + INTRA:         -12.269
REMARK INTER:                  -9.191
REMARK INTRA:                  -3.078
REMARK UNBOUND:                -2.862
REMARK SMILES CCCCCCCCCCCCCCCCCCCCCCCC(=O)[O-]
REMARK SMILES IDX 13 1 14 2 15 3 16 4 17 5 18 6 19 7 20 8 21 9 22 10 23 11
REMARK SMILES IDX 24 12 25 13 26 14 12 15 11 16 10 17 9 18 8 19 7 20 6 21 5 22
REMARK SMILES IDX 4 23 3 24 2 25 1 26
REMARK H PARENT
REMARK Flexibility Score: inf
ROOT
ATOM      1  C   UNL     1       7.492  -3.005  -0.748  1.00  0.00     0.000 C 
ENDROOT
BRANCH   1   2
ATOM      2  C   UNL     1       7.765  -1.569  -0.277  1.00  0.00     0.000 C 
BRANCH   2   3
ATOM      3  C   UNL     1       6.495  -0.931   0.306  1.00  0.00     0.000 C 
BRANCH   3   4
ATOM      4  C   UNL     1       5.713  -0.098  -0.726  1.00  0.00     0.000 C 
BRANCH   4   5
ATOM      5  C   UNL     1       6.571   0.503  -1.859  1.00  0.00     0.000 C 
BRANCH   5   6
ATOM      6  C   UNL     1       7.017   1.963  -1.644  1.00  0.00     0.000 C 
BRANCH   6   7
ATOM      7  C   UNL     1       7.955   2.188  -0.442  1.00  0.00     0.000 C 
BRANCH   7   8
ATOM      8  C   UNL     1       7.409   3.227   0.553  1.00  0.00     0.000 C 
BRANCH   8   9
ATOM      9  C   UNL     1       6.568   2.599   1.680  1.00  0.00     0.000 C 
BRANCH   9  10
ATOM     10  C   UNL     1       5.039   2.688   1.491  1.00  0.00     0.006 C 
BRANCH  10  11
ATOM     11  C   UNL     1       4.423   4.039   1.886  1.00  0.00     0.053 C 
BRANCH  11  12
ATOM     12  C   UNL     1       2.933   3.958   2.020  1.00  0.00     0.041 C 
ATOM     13  O   UNL     1       2.198   4.108   1.008  1.00  0.00    -0.550 OA
ATOM     14  O   UNL     1       2.355   3.698   3.257  1.00  0.00    -0.550 OA
ENDBRANCH  11  12
ENDBRANCH  10  11
ENDBRANCH   9  10
ENDBRANCH   8   9
ENDBRANCH   7   8
ENDBRANCH   6   7
ENDBRANCH   5   6
ENDBRANCH   4   5
ENDBRANCH   3   4
ENDBRANCH   2   3
ENDBRANCH   1   2
BRANCH   1  15
ATOM     15  C   UNL     1       8.703  -3.645  -1.449  1.00  0.00     0.000 C 
BRANCH  15  16
ATOM     16  C   UNL     1       8.392  -4.084  -2.890  1.00  0.00     0.000 C 
BRANCH  16  17
ATOM     17  C   UNL     1       7.204  -3.319  -3.503  1.00  0.00     0.000 C 
BRANCH  17  18
ATOM     18  C   UNL     1       6.602  -3.955  -4.769  1.00  0.00    -0.000 C 
BRANCH  18  19
ATOM     19  C   UNL     1       5.989  -2.918  -5.729  1.00  0.00    -0.000 C 
BRANCH  19  20
ATOM     20  C   UNL     1       6.141  -1.475  -5.204  1.00  0.00    -0.000 C 
BRANCH  20  21
ATOM     21  C   UNL     1       4.803  -0.789  -4.879  1.00  0.00    -0.000 C 
BRANCH  21  22
ATOM     22  C   UNL     1       4.046  -1.472  -3.729  1.00  0.00    -0.000 C 
BRANCH  22  23
ATOM     23  C   UNL     1       2.634  -1.942  -4.126  1.00  0.00    -0.000 C 
BRANCH  23  24
ATOM     24  C   UNL     1       2.224  -1.647  -5.583  1.00  0.00    -0.000 C 
BRANCH  24  25
ATOM     25  C   UNL     1       2.348  -2.835  -6.553  1.00  0.00    -0.003 C 
ATOM     26  C   UNL     1       2.329  -4.189  -5.844  1.00  0.00     0.004 C 
ENDBRANCH  24  25
ENDBRANCH  23  24
ENDBRANCH  22  23
ENDBRANCH  21  22
ENDBRANCH  20  21
ENDBRANCH  19  20
ENDBRANCH  18  19
ENDBRANCH  17  18
ENDBRANCH  16  17
ENDBRANCH  15  16
ENDBRANCH   1  15
TORSDOF 22
ENDMDL
MODEL 8
REMARK VINA RESULT:    -4.101      2.045      4.652
REMARK INTER + INTRA:         -12.239
REMARK INTER:                  -9.923
REMARK INTRA:                  -2.315
REMARK UNBOUND:                -2.862
REMARK SMILES CCCCCCCCCCCCCCCCCCCCCCCC(=O)[O-]
REMARK SMILES IDX 13 1 14 2 15 3 16 4 17 5 18 6 19 7 20 8 21 9 22 10 23 11
REMARK SMILES IDX 24 12 25 13 26 14 12 15 11 16 10 17 9 18 8 19 7 20 6 21 5 22
REMARK SMILES IDX 4 23 3 24 2 25 1 26
REMARK H PARENT
REMARK Flexibility Score: inf
ROOT
ATOM      1  C   UNL     1       7.478  -3.004  -2.040  1.00  0.00     0.000 C 
ENDROOT
BRANCH   1   2
ATOM      2  C   UNL     1       7.204  -2.232  -0.741  1.00  0.00     0.000 C 
BRANCH   2   3
ATOM      3  C   UNL     1       6.917  -0.751  -1.032  1.00  0.00     0.000 C 
BRANCH   3   4
ATOM      4  C   UNL     1       5.647  -0.236  -0.332  1.00  0.00     0.000 C 
BRANCH   4   5
ATOM      5  C   UNL     1       5.775  -0.053   1.194  1.00  0.00     0.000 C 
BRANCH   5   6
ATOM      6  C   UNL     1       7.168   0.381   1.690  1.00  0.00     0.000 C 
BRANCH   6   7
ATOM      7  C   UNL     1       7.166   1.273   2.947  1.00  0.00     0.000 C 
BRANCH   7   8
ATOM      8  C   UNL     1       7.714   2.685   2.678  1.00  0.00     0.000 C 
BRANCH   8   9
ATOM      9  C   UNL     1       7.612   3.099   1.198  1.00  0.00     0.000 C 
BRANCH   9  10
ATOM     10  C   UNL     1       6.529   4.151   0.880  1.00  0.00     0.006 C 
BRANCH  10  11
ATOM     11  C   UNL     1       5.241   3.578   0.267  1.00  0.00     0.053 C 
BRANCH  11  12
ATOM     12  C   UNL     1       4.097   3.613   1.234  1.00  0.00     0.041 C 
ATOM     13  O   UNL     1       4.188   3.023   2.343  1.00  0.00    -0.550 OA
ATOM     14  O   UNL     1       2.938   4.311   0.920  1.00  0.00    -0.550 OA
ENDBRANCH  11  12
ENDBRANCH  10  11
ENDBRANCH   9  10
ENDBRANCH   8   9
ENDBRANCH   7   8
ENDBRANCH   6   7
ENDBRANCH   5   6
ENDBRANCH   4   5
ENDBRANCH   3   4
ENDBRANCH   2   3
ENDBRANCH   1   2
BRANCH   1  15
ATOM     15  C   UNL     1       7.187  -2.174  -3.302  1.00  0.00     0.000 C 
BRANCH  15  16
ATOM     16  C   UNL     1       6.192  -2.863  -4.251  1.00  0.00     0.000 C 
BRANCH  16  17
ATOM     17  C   UNL     1       5.140  -1.892  -4.818  1.00  0.00     0.000 C 
BRANCH  17  18
ATOM     18  C   UNL     1       4.078  -1.419  -3.809  1.00  0.00    -0.000 C 
BRANCH  18  19
ATOM     19  C   UNL     1       2.661  -1.358  -4.411  1.00  0.00    -0.000 C 
BRANCH  19  20
ATOM     20  C   UNL     1       2.460  -2.395  -5.537  1.00  0.00    -0.000 C 
BRANCH  20  21
ATOM     21  C   UNL     1       2.184  -3.820  -5.025  1.00  0.00    -0.000 C 
BRANCH  21  22
ATOM     22  C   UNL     1       1.419  -3.838  -3.693  1.00  0.00    -0.000 C 
BRANCH  22  23
ATOM     23  C   UNL     1       1.050  -5.258  -3.225  1.00  0.00    -0.000 C 
BRANCH  23  24
ATOM     24  C   UNL     1       0.584  -5.372  -1.759  1.00  0.00    -0.000 C 
BRANCH  24  25
ATOM     25  C   UNL     1       1.206  -6.533  -0.963  1.00  0.00    -0.003 C 
ATOM     26  C   UNL     1       1.909  -7.559  -1.852  1.00  0.00     0.004 C 
ENDBRANCH  24  25
ENDBRANCH  23  24
ENDBRANCH  22  23
ENDBRANCH  21  22
ENDBRANCH  20  21
ENDBRANCH  19  20
ENDBRANCH  18  19
ENDBRANCH  17  18
ENDBRANCH  16  17
ENDBRANCH  15  16
ENDBRANCH   1  15
TORSDOF 22
ENDMDL
MODEL 9
REMARK VINA RESULT:    -4.100      1.784      3.190
REMARK INTER + INTRA:         -12.236
REMARK INTER:                  -9.892
REMARK INTRA:                  -2.343
REMARK UNBOUND:                -2.862
REMARK SMILES CCCCCCCCCCCCCCCCCCCCCCCC(=O)[O-]
REMARK SMILES IDX 13 1 14 2 15 3 16 4 17 5 18 6 19 7 20 8 21 9 22 10 23 11
REMARK SMILES IDX 24 12 25 13 26 14 12 15 11 16 10 17 9 18 8 19 7 20 6 21 5 22
REMARK SMILES IDX 4 23 3 24 2 25 1 26
REMARK H PARENT
REMARK Flexibility Score: inf
ROOT
ATOM      1  C   UNL     1       2.203  -2.481  -4.149  1.00  0.00     0.000 C 
ENDROOT
BRANCH   1   2
ATOM      2  C   UNL     1       2.614  -1.321  -5.068  1.00  0.00     0.000 C 
BRANCH   2   3
ATOM      3  C   UNL     1       4.133  -1.096  -5.023  1.00  0.00     0.000 C 
BRANCH   3   4
ATOM      4  C   UNL     1       4.745  -1.405  -3.644  1.00  0.00     0.000 C 
BRANCH   4   5
ATOM      5  C   UNL     1       6.011  -2.286  -3.678  1.00  0.00     0.000 C 
BRANCH   5   6
ATOM      6  C   UNL     1       7.174  -1.802  -2.791  1.00  0.00     0.000 C 
BRANCH   6   7
ATOM      7  C   UNL     1       7.379  -2.599  -1.489  1.00  0.00     0.000 C 
BRANCH   7   8
ATOM      8  C   UNL     1       6.967  -1.809  -0.235  1.00  0.00     0.000 C 
BRANCH   8   9
ATOM      9  C   UNL     1       6.262  -0.479  -0.565  1.00  0.00     0.000 C 
BRANCH   9  10
ATOM     10  C   UNL     1       5.702   0.291   0.650  1.00  0.00     0.006 C 
BRANCH  10  11
ATOM     11  C   UNL     1       6.752   1.086   1.442  1.00  0.00     0.053 C 
BRANCH  11  12
ATOM     12  C   UNL     1       6.972   0.516   2.810  1.00  0.00     0.041 C 
ATOM     13  O   UNL     1       6.007   0.026   3.454  1.00  0.00    -0.550 OA
ATOM     14  O   UNL     1       8.244   0.509   3.368  1.00  0.00    -0.550 OA
ENDBRANCH  11  12
ENDBRANCH  10  11
ENDBRANCH   9  10
ENDBRANCH   8   9
ENDBRANCH   7   8
ENDBRANCH   6   7
ENDBRANCH   5   6
ENDBRANCH   4   5
ENDBRANCH   3   4
ENDBRANCH   2   3
ENDBRANCH   1   2
BRANCH   1  15
ATOM     15  C   UNL     1       2.221  -3.844  -4.862  1.00  0.00     0.000 C 
BRANCH  15  16
ATOM     16  C   UNL     1       0.990  -4.705  -4.531  1.00  0.00     0.000 C 
BRANCH  16  17
ATOM     17  C   UNL     1       1.236  -5.668  -3.355  1.00  0.00     0.000 C 
BRANCH  17  18
ATOM     18  C   UNL     1       0.786  -5.146  -1.978  1.00  0.00    -0.000 C 
BRANCH  18  19
ATOM     19  C   UNL     1       1.131  -6.110  -0.827  1.00  0.00    -0.000 C 
BRANCH  19  20
ATOM     20  C   UNL     1       1.134  -7.585  -1.283  1.00  0.00    -0.000 C 
BRANCH  20  21
ATOM     21  C   UNL     1       0.135  -8.472  -0.520  1.00  0.00    -0.000 C 
BRANCH  21  22
ATOM     22  C   UNL     1      -1.218  -8.598  -1.236  1.00  0.00    -0.000 C 
BRANCH  22  23
ATOM     23  C   UNL     1      -1.111  -8.454  -2.765  1.00  0.00    -0.000 C 
BRANCH  23  24
ATOM     24  C   UNL     1      -2.074  -7.433  -3.404  1.00  0.00    -0.000 C 
BRANCH  24  25
ATOM     25  C   UNL     1      -2.894  -6.594  -2.408  1.00  0.00    -0.003 C 
ATOM     26  C   UNL     1      -2.753  -5.089  -2.635  1.00  0.00     0.004 C 
ENDBRANCH  24  25
ENDBRANCH  23  24
ENDBRANCH  22  23
ENDBRANCH  21  22
ENDBRANCH  20  21
ENDBRANCH  19  20
ENDBRANCH  18  19
ENDBRANCH  17  18
ENDBRANCH  16  17
ENDBRANCH  15  16
ENDBRANCH   1  15
TORSDOF 22
ENDMDL
