MODEL 1
REMARK VINA RESULT:    -2.895      0.000      0.000
REMARK INTER + INTRA:          -2.697
REMARK INTER:                  -3.234
REMARK INTRA:                   0.537
REMARK UNBOUND:                 0.537
REMARK SMILES O=C([O-])c1ccccc1C(=O)[O-]
REMARK SMILES IDX 4 1 9 2 5 3 8 4 6 5 7 6 2 7 1 8 3 9 10 10 11 11 12 12
REMARK H PARENT
REMARK Flexibility Score: inf
ROOT
ATOM      1  C   UNL     1      -5.695  37.126  22.454  1.00  0.00     0.006 A 
ATOM      2  C   UNL     1      -5.565  35.763  22.063  1.00  0.00     0.006 A 
ATOM      3  C   UNL     1      -5.955  37.429  23.803  1.00  0.00     0.010 A 
ATOM      4  C   UNL     1      -5.762  34.755  23.025  1.00  0.00     0.010 A 
ATOM      5  C   UNL     1      -6.125  36.413  24.744  1.00  0.00     0.001 A 
ATOM      6  C   UNL     1      -6.041  35.079  24.353  1.00  0.00     0.001 A 
ENDROOT
BRANCH   1   7
ATOM      7  C   UNL     1      -5.639  38.250  21.490  1.00  0.00     0.072 C 
ATOM      8  O   UNL     1      -5.617  38.036  20.250  1.00  0.00    -0.545 OA
ATOM      9  O   UNL     1      -5.681  39.562  21.949  1.00  0.00    -0.545 OA
ENDBRANCH   1   7
BRANCH   2  10
ATOM     10  C   UNL     1      -5.160  35.348  20.700  1.00  0.00     0.072 C 
ATOM     11  O   UNL     1      -3.949  35.138  20.423  1.00  0.00    -0.545 OA
ATOM     12  O   UNL     1      -6.124  35.121  19.726  1.00  0.00    -0.545 OA
ENDBRANCH   2  10
TORSDOF 2
ENDMDL
MODEL 2
REMARK VINA RESULT:    -2.870      0.131      3.074
REMARK INTER + INTRA:          -2.668
REMARK INTER:                  -3.259
REMARK INTRA:                   0.591
REMARK UNBOUND:                 0.537
REMARK SMILES O=C([O-])c1ccccc1C(=O)[O-]
REMARK SMILES IDX 4 1 9 2 5 3 8 4 6 5 7 6 2 7 1 8 3 9 10 10 11 11 12 12
REMARK H PARENT
REMARK Flexibility Score: inf
ROOT
ATOM      1  C   UNL     1      -5.566  35.697  21.993  1.00  0.00     0.006 A 
ATOM      2  C   UNL     1      -5.720  37.048  22.415  1.00  0.00     0.006 A 
ATOM      3  C   UNL     1      -5.741  34.664  22.932  1.00  0.00     0.010 A 
ATOM      4  C   UNL     1      -5.978  37.315  23.772  1.00  0.00     0.010 A 
ATOM      5  C   UNL     1      -6.019  34.951  24.268  1.00  0.00     0.001 A 
ATOM      6  C   UNL     1      -6.125  36.275  24.690  1.00  0.00     0.001 A 
ENDROOT
BRANCH   1   7
ATOM      7  C   UNL     1      -5.161  35.321  20.618  1.00  0.00     0.072 C 
ATOM      8  O   UNL     1      -3.955  35.088  20.342  1.00  0.00    -0.545 OA
ATOM      9  O   UNL     1      -6.125  35.156  19.630  1.00  0.00    -0.545 OA
ENDBRANCH   1   7
BRANCH   2  10
ATOM     10  C   UNL     1      -5.689  38.195  21.479  1.00  0.00     0.072 C 
ATOM     11  O   UNL     1      -5.510  38.016  20.244  1.00  0.00    -0.545 OA
ATOM     12  O   UNL     1      -5.926  39.483  21.945  1.00  0.00    -0.545 OA
ENDBRANCH   2  10
TORSDOF 2
ENDMDL
MODEL 3
REMARK VINA RESULT:    -2.579      1.845      3.651
REMARK INTER + INTRA:          -2.344
REMARK INTER:                  -2.629
REMARK INTRA:                   0.285
REMARK UNBOUND:                 0.537
REMARK SMILES O=C([O-])c1ccccc1C(=O)[O-]
REMARK SMILES IDX 4 1 9 2 5 3 8 4 6 5 7 6 2 7 1 8 3 9 10 10 11 11 12 12
REMARK H PARENT
REMARK Flexibility Score: inf
ROOT
ATOM      1  C   UNL     1      -5.443  36.892  21.179  1.00  0.00     0.006 A 
ATOM      2  C   UNL     1      -5.810  36.930  22.555  1.00  0.00     0.006 A 
ATOM      3  C   UNL     1      -5.341  38.100  20.466  1.00  0.00     0.010 A 
ATOM      4  C   UNL     1      -6.122  38.169  23.145  1.00  0.00     0.010 A 
ATOM      5  C   UNL     1      -5.633  39.319  21.078  1.00  0.00     0.001 A 
ATOM      6  C   UNL     1      -6.035  39.352  22.411  1.00  0.00     0.001 A 
ENDROOT
BRANCH   1   7
ATOM      7  C   UNL     1      -5.229  35.628  20.436  1.00  0.00     0.072 C 
ATOM      8  O   UNL     1      -6.124  35.162  19.684  1.00  0.00    -0.545 OA
ATOM      9  O   UNL     1      -4.002  34.977  20.509  1.00  0.00    -0.545 OA
ENDBRANCH   1   7
BRANCH   2  10
ATOM     10  C   UNL     1      -5.814  35.730  23.423  1.00  0.00     0.072 C 
ATOM     11  O   UNL     1      -6.123  34.600  22.960  1.00  0.00    -0.545 OA
ATOM     12  O   UNL     1      -5.410  35.828  24.749  1.00  0.00    -0.545 OA
ENDBRANCH   2  10
TORSDOF 2
ENDMDL
MODEL 4
REMARK VINA RESULT:    -2.553      1.865      3.243
REMARK INTER + INTRA:          -2.315
REMARK INTER:                  -2.632
REMARK INTRA:                   0.317
REMARK UNBOUND:                 0.537
REMARK SMILES O=C([O-])c1ccccc1C(=O)[O-]
REMARK SMILES IDX 4 1 9 2 5 3 8 4 6 5 7 6 2 7 1 8 3 9 10 10 11 11 12 12
REMARK H PARENT
REMARK Flexibility Score: inf
ROOT
ATOM      1  C   UNL     1      -5.810  36.924  22.539  1.00  0.00     0.006 A 
ATOM      2  C   UNL     1      -5.450  36.817  21.165  1.00  0.00     0.006 A 
ATOM      3  C   UNL     1      -6.114  38.192  23.070  1.00  0.00     0.010 A 
ATOM      4  C   UNL     1      -5.345  37.989  20.393  1.00  0.00     0.010 A 
ATOM      5  C   UNL     1      -6.026  39.337  22.279  1.00  0.00     0.001 A 
ATOM      6  C   UNL     1      -5.630  39.237  20.947  1.00  0.00     0.001 A 
ENDROOT
BRANCH   1   7
ATOM      7  C   UNL     1      -5.815  35.767  23.465  1.00  0.00     0.072 C 
ATOM      8  O   UNL     1      -6.125  34.617  23.058  1.00  0.00    -0.545 OA
ATOM      9  O   UNL     1      -5.408  35.930  24.784  1.00  0.00    -0.545 OA
ENDBRANCH   1   7
BRANCH   2  10
ATOM     10  C   UNL     1      -5.245  35.519  20.483  1.00  0.00     0.072 C 
ATOM     11  O   UNL     1      -6.125  35.048  19.715  1.00  0.00    -0.545 OA
ATOM     12  O   UNL     1      -4.043  34.836  20.632  1.00  0.00    -0.545 OA
ENDBRANCH   2  10
TORSDOF 2
ENDMDL
MODEL 5
REMARK VINA RESULT:    -2.286      2.183      3.336
REMARK INTER + INTRA:          -2.016
REMARK INTER:                  -2.077
REMARK INTRA:                   0.060
REMARK UNBOUND:                 0.537
REMARK SMILES O=C([O-])c1ccccc1C(=O)[O-]
REMARK SMILES IDX 4 1 9 2 5 3 8 4 6 5 7 6 2 7 1 8 3 9 10 10 11 11 12 12
REMARK H PARENT
REMARK Flexibility Score: inf
ROOT
ATOM      1  C   UNL     1      -5.478  36.313  21.844  1.00  0.00     0.006 A 
ATOM      2  C   UNL     1      -5.374  36.520  20.438  1.00  0.00     0.006 A 
ATOM      3  C   UNL     1      -5.751  37.413  22.678  1.00  0.00     0.010 A 
ATOM      4  C   UNL     1      -5.483  37.828  19.930  1.00  0.00     0.010 A 
ATOM      5  C   UNL     1      -5.878  38.697  22.149  1.00  0.00     0.001 A 
ATOM      6  C   UNL     1      -5.732  38.906  20.780  1.00  0.00     0.001 A 
ENDROOT
BRANCH   1   7
ATOM      7  C   UNL     1      -5.243  34.999  22.485  1.00  0.00     0.072 C 
ATOM      8  O   UNL     1      -6.125  34.469  23.212  1.00  0.00    -0.545 OA
ATOM      9  O   UNL     1      -4.067  34.301  22.234  1.00  0.00    -0.545 OA
ENDBRANCH   1   7
BRANCH   2  10
ATOM     10  C   UNL     1      -5.224  35.412  19.468  1.00  0.00     0.072 C 
ATOM     11  O   UNL     1      -4.251  35.382  18.668  1.00  0.00    -0.545 OA
ATOM     12  O   UNL     1      -6.124  34.353  19.475  1.00  0.00    -0.545 OA
ENDBRANCH   2  10
TORSDOF 2
ENDMDL
MODEL 6
REMARK VINA RESULT:    -1.098      2.116      4.169
REMARK INTER + INTRA:          -0.690
REMARK INTER:                  -2.837
REMARK INTRA:                   2.148
REMARK UNBOUND:                 0.537
REMARK SMILES O=C([O-])c1ccccc1C(=O)[O-]
REMARK SMILES IDX 4 1 9 2 5 3 8 4 6 5 7 6 2 7 1 8 3 9 10 10 11 11 12 12
REMARK H PARENT
REMARK Flexibility Score: inf
ROOT
ATOM      1  C   UNL     1      -5.556  36.380  22.198  1.00  0.00     0.006 A 
ATOM      2  C   UNL     1      -5.531  37.662  21.579  1.00  0.00     0.006 A 
ATOM      3  C   UNL     1      -5.312  35.237  21.413  1.00  0.00     0.010 A 
ATOM      4  C   UNL     1      -5.326  37.747  20.190  1.00  0.00     0.010 A 
ATOM      5  C   UNL     1      -5.088  35.347  20.041  1.00  0.00     0.001 A 
ATOM      6  C   UNL     1      -5.107  36.598  19.429  1.00  0.00     0.001 A 
ENDROOT
BRANCH   1   7
ATOM      7  C   UNL     1      -5.898  36.179  23.625  1.00  0.00     0.072 C 
ATOM      8  O   UNL     1      -6.125  37.162  24.379  1.00  0.00    -0.545 OA
ATOM      9  O   UNL     1      -6.039  34.892  24.133  1.00  0.00    -0.545 OA
ENDBRANCH   1   7
BRANCH   2  10
ATOM     10  C   UNL     1      -5.642  38.928  22.340  1.00  0.00     0.072 C 
ATOM     11  O   UNL     1      -5.245  39.000  23.534  1.00  0.00    -0.545 OA
ATOM     12  O   UNL     1      -6.125  40.074  21.720  1.00  0.00    -0.545 OA
ENDBRANCH   2  10
TORSDOF 2
ENDMDL
MODEL 7
REMARK VINA RESULT:    -0.111      2.233      3.561
REMARK INTER + INTRA:           0.413
REMARK INTER:                  -0.610
REMARK INTRA:                   1.023
REMARK UNBOUND:                 0.537
REMARK SMILES O=C([O-])c1ccccc1C(=O)[O-]
REMARK SMILES IDX 4 1 9 2 5 3 8 4 6 5 7 6 2 7 1 8 3 9 10 10 11 11 12 12
REMARK H PARENT
REMARK Flexibility Score: inf
ROOT
ATOM      1  C   UNL     1      -5.751  37.370  22.936  1.00  0.00     0.006 A 
ATOM      2  C   UNL     1      -5.461  36.560  24.071  1.00  0.00     0.006 A 
ATOM      3  C   UNL     1      -6.099  36.748  21.723  1.00  0.00     0.010 A 
ATOM      4  C   UNL     1      -5.467  35.160  23.930  1.00  0.00     0.010 A 
ATOM      5  C   UNL     1      -6.121  35.357  21.613  1.00  0.00     0.001 A 
ATOM      6  C   UNL     1      -5.794  34.565  22.711  1.00  0.00     0.001 A 
ENDROOT
BRANCH   1   7
ATOM      7  C   UNL     1      -5.638  38.847  22.949  1.00  0.00     0.072 C 
ATOM      8  O   UNL     1      -5.627  39.484  24.035  1.00  0.00    -0.545 OA
ATOM      9  O   UNL     1      -5.473  39.543  21.756  1.00  0.00    -0.545 OA
ENDBRANCH   1   7
BRANCH   2  10
ATOM     10  C   UNL     1      -5.218  37.118  25.420  1.00  0.00     0.072 C 
ATOM     11  O   UNL     1      -4.224  37.861  25.642  1.00  0.00    -0.545 OA
ATOM     12  O   UNL     1      -6.125  36.881  26.447  1.00  0.00    -0.545 OA
ENDBRANCH   2  10
TORSDOF 2
ENDMDL
