MODEL 1
REMARK VINA RESULT:    -4.727      0.000      0.000
REMARK INTER + INTRA:          -7.634
REMARK INTER:                  -6.937
REMARK INTRA:                  -0.697
REMARK UNBOUND:                -0.697
REMARK SMILES O=C([O-])CCCCCCCC(=O)[O-]
REMARK SMILES IDX 7 1 6 2 5 3 4 4 2 5 1 6 3 7 8 8 9 9 10 10 11 11 12 12 13 13
REMARK H PARENT
REMARK Flexibility Score: inf
ROOT
ATOM      1  C   UNL     1      15.279  -4.725  11.365  1.00  0.00     0.000 C 
ENDROOT
BRANCH   1   2
ATOM      2  C   UNL     1      13.898  -5.370  11.555  1.00  0.00     0.000 C 
BRANCH   2   3
ATOM      3  C   UNL     1      13.934  -6.424  12.673  1.00  0.00     0.006 C 
BRANCH   3   4
ATOM      4  C   UNL     1      14.413  -5.841  14.008  1.00  0.00     0.053 C 
BRANCH   4   5
ATOM      5  C   UNL     1      15.086  -6.874  14.857  1.00  0.00     0.041 C 
ATOM      6  O   UNL     1      14.954  -6.849  16.110  1.00  0.00    -0.550 OA
ATOM      7  O   UNL     1      15.888  -7.845  14.270  1.00  0.00    -0.550 OA
ENDBRANCH   4   5
ENDBRANCH   3   4
ENDBRANCH   2   3
ENDBRANCH   1   2
BRANCH   1   8
ATOM      8  C   UNL     1      16.275  -5.658  10.660  1.00  0.00     0.000 C 
BRANCH   8   9
ATOM      9  C   UNL     1      17.538  -5.919  11.500  1.00  0.00     0.006 C 
BRANCH   9  10
ATOM     10  C   UNL     1      17.730  -4.866  12.599  1.00  0.00     0.053 C 
BRANCH  10  11
ATOM     11  C   UNL     1      19.136  -4.349  12.637  1.00  0.00     0.041 C 
ATOM     12  O   UNL     1      20.105  -5.154  12.646  1.00  0.00    -0.550 OA
ATOM     13  O   UNL     1      19.376  -2.982  12.624  1.00  0.00    -0.550 OA
ENDBRANCH  10  11
ENDBRANCH   9  10
ENDBRANCH   8   9
ENDBRANCH   1   8
TORSDOF 8
ENDMDL
MODEL 2
REMARK VINA RESULT:    -4.650      2.476      5.148
REMARK INTER + INTRA:          -7.522
REMARK INTER:                  -6.794
REMARK INTRA:                  -0.728
REMARK UNBOUND:                -0.697
REMARK SMILES O=C([O-])CCCCCCCC(=O)[O-]
REMARK SMILES IDX 7 1 6 2 5 3 4 4 2 5 1 6 3 7 8 8 9 9 10 10 11 11 12 12 13 13
REMARK H PARENT
REMARK Flexibility Score: inf
ROOT
ATOM      1  C   UNL     1      15.613  -6.396  14.855  1.00  0.00     0.000 C 
ENDROOT
BRANCH   1   2
ATOM      2  C   UNL     1      16.066  -6.945  13.494  1.00  0.00     0.000 C 
BRANCH   2   3
ATOM      3  C   UNL     1      16.203  -5.815  12.463  1.00  0.00     0.006 C 
BRANCH   3   4
ATOM      4  C   UNL     1      17.606  -5.758  11.845  1.00  0.00     0.053 C 
BRANCH   4   5
ATOM      5  C   UNL     1      18.459  -4.713  12.495  1.00  0.00     0.041 C 
ATOM      6  O   UNL     1      19.688  -4.923  12.678  1.00  0.00    -0.550 OA
ATOM      7  O   UNL     1      17.892  -3.522  12.930  1.00  0.00    -0.550 OA
ENDBRANCH   4   5
ENDBRANCH   3   4
ENDBRANCH   2   3
ENDBRANCH   1   2
BRANCH   1   8
ATOM      8  C   UNL     1      16.793  -6.003  15.756  1.00  0.00     0.000 C 
BRANCH   8   9
ATOM      9  C   UNL     1      16.775  -4.513  16.140  1.00  0.00     0.006 C 
BRANCH   9  10
ATOM     10  C   UNL     1      15.501  -3.807  15.658  1.00  0.00     0.053 C 
BRANCH  10  11
ATOM     11  C   UNL     1      14.637  -3.373  16.803  1.00  0.00     0.041 C 
ATOM     12  O   UNL     1      13.411  -3.662  16.815  1.00  0.00    -0.550 OA
ATOM     13  O   UNL     1      15.193  -2.684  17.873  1.00  0.00    -0.550 OA
ENDBRANCH  10  11
ENDBRANCH   9  10
ENDBRANCH   8   9
ENDBRANCH   1   8
TORSDOF 8
ENDMDL
MODEL 3
REMARK VINA RESULT:    -4.610      0.843      4.560
REMARK INTER + INTRA:          -7.463
REMARK INTER:                  -6.768
REMARK INTRA:                  -0.695
REMARK UNBOUND:                -0.697
REMARK SMILES O=C([O-])CCCCCCCC(=O)[O-]
REMARK SMILES IDX 7 1 6 2 5 3 4 4 2 5 1 6 3 7 8 8 9 9 10 10 11 11 12 12 13 13
REMARK H PARENT
REMARK Flexibility Score: inf
ROOT
ATOM      1  C   UNL     1      15.321  -4.655  11.058  1.00  0.00     0.000 C 
ENDROOT
BRANCH   1   2
ATOM      2  C   UNL     1      16.350  -5.627  10.462  1.00  0.00     0.000 C 
BRANCH   2   3
ATOM      3  C   UNL     1      17.508  -5.870  11.442  1.00  0.00     0.006 C 
BRANCH   3   4
ATOM      4  C   UNL     1      17.628  -4.755  12.489  1.00  0.00     0.053 C 
BRANCH   4   5
ATOM      5  C   UNL     1      19.040  -4.277  12.634  1.00  0.00     0.041 C 
ATOM      6  O   UNL     1      19.995  -5.096  12.578  1.00  0.00    -0.550 OA
ATOM      7  O   UNL     1      19.300  -2.932  12.865  1.00  0.00    -0.550 OA
ENDBRANCH   4   5
ENDBRANCH   3   4
ENDBRANCH   2   3
ENDBRANCH   1   2
BRANCH   1   8
ATOM      8  C   UNL     1      13.890  -5.213  11.019  1.00  0.00     0.000 C 
BRANCH   8   9
ATOM      9  C   UNL     1      13.326  -5.496  12.422  1.00  0.00     0.006 C 
BRANCH   9  10
ATOM     10  C   UNL     1      14.031  -6.678  13.101  1.00  0.00     0.053 C 
BRANCH  10  11
ATOM     11  C   UNL     1      14.765  -6.253  14.336  1.00  0.00     0.041 C 
ATOM     12  O   UNL     1      15.443  -7.090  14.989  1.00  0.00    -0.550 OA
ATOM     13  O   UNL     1      14.729  -4.926  14.745  1.00  0.00    -0.550 OA
ENDBRANCH  10  11
ENDBRANCH   9  10
ENDBRANCH   8   9
ENDBRANCH   1   8
TORSDOF 8
ENDMDL
MODEL 4
REMARK VINA RESULT:    -4.600      2.465      3.636
REMARK INTER + INTRA:          -7.449
REMARK INTER:                  -6.723
REMARK INTRA:                  -0.726
REMARK UNBOUND:                -0.697
REMARK SMILES O=C([O-])CCCCCCCC(=O)[O-]
REMARK SMILES IDX 7 1 6 2 5 3 4 4 2 5 1 6 3 7 8 8 9 9 10 10 11 11 12 12 13 13
REMARK H PARENT
REMARK Flexibility Score: inf
ROOT
ATOM      1  C   UNL     1      15.667  -6.563  15.064  1.00  0.00     0.000 C 
ENDROOT
BRANCH   1   2
ATOM      2  C   UNL     1      16.912  -5.987  15.756  1.00  0.00     0.000 C 
BRANCH   2   3
ATOM      3  C   UNL     1      16.682  -4.527  16.176  1.00  0.00     0.006 C 
BRANCH   3   4
ATOM      4  C   UNL     1      15.347  -3.976  15.658  1.00  0.00     0.053 C 
BRANCH   4   5
ATOM      5  C   UNL     1      14.499  -3.438  16.769  1.00  0.00     0.041 C 
ATOM      6  O   UNL     1      13.254  -3.630  16.765  1.00  0.00    -0.550 OA
ATOM      7  O   UNL     1      15.077  -2.696  17.791  1.00  0.00    -0.550 OA
ENDBRANCH   4   5
ENDBRANCH   3   4
ENDBRANCH   2   3
ENDBRANCH   1   2
BRANCH   1   8
ATOM      8  C   UNL     1      15.972  -7.112  13.662  1.00  0.00     0.000 C 
BRANCH   8   9
ATOM      9  C   UNL     1      16.160  -5.998  12.617  1.00  0.00     0.006 C 
BRANCH   9  10
ATOM     10  C   UNL     1      17.581  -5.982  12.038  1.00  0.00     0.053 C 
BRANCH  10  11
ATOM     11  C   UNL     1      18.364  -4.799  12.519  1.00  0.00     0.041 C 
ATOM     12  O   UNL     1      17.769  -3.745  12.868  1.00  0.00    -0.550 OA
ATOM     13  O   UNL     1      19.747  -4.873  12.615  1.00  0.00    -0.550 OA
ENDBRANCH  10  11
ENDBRANCH   9  10
ENDBRANCH   8   9
ENDBRANCH   1   8
TORSDOF 8
ENDMDL
MODEL 5
REMARK VINA RESULT:    -4.590      4.344      5.379
REMARK INTER + INTRA:          -7.434
REMARK INTER:                  -7.000
REMARK INTRA:                  -0.434
REMARK UNBOUND:                -0.697
REMARK SMILES O=C([O-])CCCCCCCC(=O)[O-]
REMARK SMILES IDX 7 1 6 2 5 3 4 4 2 5 1 6 3 7 8 8 9 9 10 10 11 11 12 12 13 13
REMARK H PARENT
REMARK Flexibility Score: inf
ROOT
ATOM      1  C   UNL     1      13.919  -3.598  15.121  1.00  0.00     0.000 C 
ENDROOT
BRANCH   1   2
ATOM      2  C   UNL     1      13.886  -3.757  16.648  1.00  0.00     0.000 C 
BRANCH   2   3
ATOM      3  C   UNL     1      15.068  -3.024  17.303  1.00  0.00     0.006 C 
BRANCH   3   4
ATOM      4  C   UNL     1      16.399  -3.323  16.601  1.00  0.00     0.053 C 
BRANCH   4   5
ATOM      5  C   UNL     1      17.571  -3.062  17.496  1.00  0.00     0.041 C 
ATOM      6  O   UNL     1      17.391  -2.816  18.718  1.00  0.00    -0.550 OA
ATOM      7  O   UNL     1      18.858  -3.055  16.975  1.00  0.00    -0.550 OA
ENDBRANCH   4   5
ENDBRANCH   3   4
ENDBRANCH   2   3
ENDBRANCH   1   2
BRANCH   1   8
ATOM      8  C   UNL     1      12.649  -2.932  14.569  1.00  0.00     0.000 C 
BRANCH   8   9
ATOM      9  C   UNL     1      12.954  -1.881  13.487  1.00  0.00     0.006 C 
BRANCH   9  10
ATOM     10  C   UNL     1      14.066  -2.338  12.534  1.00  0.00     0.053 C 
BRANCH  10  11
ATOM     11  C   UNL     1      15.172  -1.331  12.446  1.00  0.00     0.041 C 
ATOM     12  O   UNL     1      15.093  -0.374  11.630  1.00  0.00    -0.550 OA
ATOM     13  O   UNL     1      16.271  -1.429  13.289  1.00  0.00    -0.550 OA
ENDBRANCH  10  11
ENDBRANCH   9  10
ENDBRANCH   8   9
ENDBRANCH   1   8
TORSDOF 8
ENDMDL
MODEL 6
REMARK VINA RESULT:    -4.531      3.771      4.863
REMARK INTER + INTRA:          -7.347
REMARK INTER:                  -6.949
REMARK INTRA:                  -0.398
REMARK UNBOUND:                -0.697
REMARK SMILES O=C([O-])CCCCCCCC(=O)[O-]
REMARK SMILES IDX 7 1 6 2 5 3 4 4 2 5 1 6 3 7 8 8 9 9 10 10 11 11 12 12 13 13
REMARK H PARENT
REMARK Flexibility Score: inf
ROOT
ATOM      1  C   UNL     1      17.116  -2.845  18.131  1.00  0.00     0.000 C 
ENDROOT
BRANCH   1   2
ATOM      2  C   UNL     1      15.643  -2.616  17.763  1.00  0.00     0.000 C 
BRANCH   2   3
ATOM      3  C   UNL     1      15.254  -3.429  16.519  1.00  0.00     0.006 C 
BRANCH   3   4
ATOM      4  C   UNL     1      13.741  -3.417  16.265  1.00  0.00     0.053 C 
BRANCH   4   5
ATOM      5  C   UNL     1      13.422  -3.242  14.812  1.00  0.00     0.041 C 
ATOM      6  O   UNL     1      12.677  -2.298  14.437  1.00  0.00    -0.550 OA
ATOM      7  O   UNL     1      13.918  -4.140  13.876  1.00  0.00    -0.550 OA
ENDBRANCH   4   5
ENDBRANCH   3   4
ENDBRANCH   2   3
ENDBRANCH   1   2
BRANCH   1   8
ATOM      8  C   UNL     1      17.842  -3.753  17.127  1.00  0.00     0.000 C 
BRANCH   8   9
ATOM      9  C   UNL     1      18.982  -3.028  16.389  1.00  0.00     0.006 C 
BRANCH   9  10
ATOM     10  C   UNL     1      19.320  -3.696  15.050  1.00  0.00     0.053 C 
BRANCH  10  11
ATOM     11  C   UNL     1      18.916  -2.845  13.885  1.00  0.00     0.041 C 
ATOM     12  O   UNL     1      19.433  -3.036  12.752  1.00  0.00    -0.550 OA
ATOM     13  O   UNL     1      17.942  -1.868  14.042  1.00  0.00    -0.550 OA
ENDBRANCH  10  11
ENDBRANCH   9  10
ENDBRANCH   8   9
ENDBRANCH   1   8
TORSDOF 8
ENDMDL
MODEL 7
REMARK VINA RESULT:    -4.516      3.243      4.449
REMARK INTER + INTRA:          -7.325
REMARK INTER:                  -6.780
REMARK INTRA:                  -0.545
REMARK UNBOUND:                -0.697
REMARK SMILES O=C([O-])CCCCCCCC(=O)[O-]
REMARK SMILES IDX 7 1 6 2 5 3 4 4 2 5 1 6 3 7 8 8 9 9 10 10 11 11 12 12 13 13
REMARK H PARENT
REMARK Flexibility Score: inf
ROOT
ATOM      1  C   UNL     1      15.114  -5.958  15.916  1.00  0.00     0.000 C 
ENDROOT
BRANCH   1   2
ATOM      2  C   UNL     1      14.518  -4.546  16.017  1.00  0.00     0.000 C 
BRANCH   2   3
ATOM      3  C   UNL     1      15.586  -3.527  16.441  1.00  0.00     0.006 C 
BRANCH   3   4
ATOM      4  C   UNL     1      16.966  -4.172  16.625  1.00  0.00     0.053 C 
BRANCH   4   5
ATOM      5  C   UNL     1      17.866  -3.328  17.473  1.00  0.00     0.041 C 
ATOM      6  O   UNL     1      19.000  -2.984  17.046  1.00  0.00    -0.550 OA
ATOM      7  O   UNL     1      17.468  -2.950  18.749  1.00  0.00    -0.550 OA
ENDBRANCH   4   5
ENDBRANCH   3   4
ENDBRANCH   2   3
ENDBRANCH   1   2
BRANCH   1   8
ATOM      8  C   UNL     1      14.801  -6.638  14.575  1.00  0.00     0.000 C 
BRANCH   8   9
ATOM      9  C   UNL     1      16.054  -6.840  13.705  1.00  0.00     0.006 C 
BRANCH   9  10
ATOM     10  C   UNL     1      16.473  -5.550  12.987  1.00  0.00     0.053 C 
BRANCH  10  11
ATOM     11  C   UNL     1      17.090  -5.833  11.651  1.00  0.00     0.041 C 
ATOM     12  O   UNL     1      16.427  -5.645  10.596  1.00  0.00    -0.550 OA
ATOM     13  O   UNL     1      18.406  -6.267  11.570  1.00  0.00    -0.550 OA
ENDBRANCH  10  11
ENDBRANCH   9  10
ENDBRANCH   8   9
ENDBRANCH   1   8
TORSDOF 8
ENDMDL
MODEL 8
REMARK VINA RESULT:    -4.489      2.575      3.647
REMARK INTER + INTRA:          -7.286
REMARK INTER:                  -6.656
REMARK INTRA:                  -0.629
REMARK UNBOUND:                -0.697
REMARK SMILES O=C([O-])CCCCCCCC(=O)[O-]
REMARK SMILES IDX 7 1 6 2 5 3 4 4 2 5 1 6 3 7 8 8 9 9 10 10 11 11 12 12 13 13
REMARK H PARENT
REMARK Flexibility Score: inf
ROOT
ATOM      1  C   UNL     1      15.078  -6.210  14.339  1.00  0.00     0.000 C 
ENDROOT
BRANCH   1   2
ATOM      2  C   UNL     1      15.502  -6.362  15.807  1.00  0.00     0.000 C 
BRANCH   2   3
ATOM      3  C   UNL     1      16.863  -5.696  16.059  1.00  0.00     0.006 C 
BRANCH   3   4
ATOM      4  C   UNL     1      16.760  -4.167  16.125  1.00  0.00     0.053 C 
BRANCH   4   5
ATOM      5  C   UNL     1      17.923  -3.561  16.848  1.00  0.00     0.041 C 
ATOM      6  O   UNL     1      18.939  -3.183  16.208  1.00  0.00    -0.550 OA
ATOM      7  O   UNL     1      17.899  -3.446  18.232  1.00  0.00    -0.550 OA
ENDBRANCH   4   5
ENDBRANCH   3   4
ENDBRANCH   2   3
ENDBRANCH   1   2
BRANCH   1   8
ATOM      8  C   UNL     1      16.121  -6.775  13.362  1.00  0.00     0.000 C 
BRANCH   8   9
ATOM      9  C   UNL     1      16.353  -5.859  12.147  1.00  0.00     0.006 C 
BRANCH   9  10
ATOM     10  C   UNL     1      17.837  -5.770  11.766  1.00  0.00     0.053 C 
BRANCH  10  11
ATOM     11  C   UNL     1      18.546  -4.698  12.535  1.00  0.00     0.041 C 
ATOM     12  O   UNL     1      19.775  -4.808  12.788  1.00  0.00    -0.550 OA
ATOM     13  O   UNL     1      17.859  -3.561  12.940  1.00  0.00    -0.550 OA
ENDBRANCH  10  11
ENDBRANCH   9  10
ENDBRANCH   8   9
ENDBRANCH   1   8
TORSDOF 8
ENDMDL
MODEL 9
REMARK VINA RESULT:    -4.469      3.129      4.618
REMARK INTER + INTRA:          -7.256
REMARK INTER:                  -6.666
REMARK INTRA:                  -0.590
REMARK UNBOUND:                -0.697
REMARK SMILES O=C([O-])CCCCCCCC(=O)[O-]
REMARK SMILES IDX 7 1 6 2 5 3 4 4 2 5 1 6 3 7 8 8 9 9 10 10 11 11 12 12 13 13
REMARK H PARENT
REMARK Flexibility Score: inf
ROOT
ATOM      1  C   UNL     1      15.423  -6.189  15.879  1.00  0.00     0.000 C 
ENDROOT
BRANCH   1   2
ATOM      2  C   UNL     1      14.867  -7.054  14.738  1.00  0.00     0.000 C 
BRANCH   2   3
ATOM      3  C   UNL     1      15.890  -7.187  13.600  1.00  0.00     0.006 C 
BRANCH   3   4
ATOM      4  C   UNL     1      15.824  -6.010  12.618  1.00  0.00     0.053 C 
BRANCH   4   5
ATOM      5  C   UNL     1      17.186  -5.477  12.296  1.00  0.00     0.041 C 
ATOM      6  O   UNL     1      17.849  -5.965  11.343  1.00  0.00    -0.550 OA
ATOM      7  O   UNL     1      17.738  -4.463  13.069  1.00  0.00    -0.550 OA
ENDBRANCH   4   5
ENDBRANCH   3   4
ENDBRANCH   2   3
ENDBRANCH   1   2
BRANCH   1   8
ATOM      8  C   UNL     1      14.742  -4.815  15.965  1.00  0.00     0.000 C 
BRANCH   8   9
ATOM      9  C   UNL     1      15.747  -3.666  16.163  1.00  0.00     0.006 C 
BRANCH   9  10
ATOM     10  C   UNL     1      17.147  -4.179  16.521  1.00  0.00     0.053 C 
BRANCH  10  11
ATOM     11  C   UNL     1      17.857  -3.250  17.459  1.00  0.00     0.041 C 
ATOM     12  O   UNL     1      19.071  -2.969  17.273  1.00  0.00    -0.550 OA
ATOM     13  O   UNL     1      17.169  -2.667  18.514  1.00  0.00    -0.550 OA
ENDBRANCH  10  11
ENDBRANCH   9  10
ENDBRANCH   8   9
ENDBRANCH   1   8
TORSDOF 8
ENDMDL
