MODEL 1
REMARK VINA RESULT:    -3.709      0.000      0.000
REMARK INTER + INTRA:          -7.182
REMARK INTER:                  -5.877
REMARK INTRA:                  -1.305
REMARK UNBOUND:                -1.305
REMARK SMILES CCCCCCCCCCCC(=O)[O-]
REMARK SMILES IDX 7 1 8 2 9 3 10 4 11 5 12 6 13 7 14 8 6 9 5 10 4 11 3 12 2 13
REMARK SMILES IDX 1 14
REMARK H PARENT
REMARK Flexibility Score: inf
ROOT
ATOM      1  C   UNL     1      13.432  63.858   7.662  1.00  0.00     0.000 C 
ENDROOT
BRANCH   1   2
ATOM      2  C   UNL     1      13.472  65.118   6.785  1.00  0.00     0.000 C 
BRANCH   2   3
ATOM      3  C   UNL     1      12.532  65.019   5.570  1.00  0.00     0.000 C 
BRANCH   3   4
ATOM      4  C   UNL     1      11.287  65.910   5.713  1.00  0.00     0.006 C 
BRANCH   4   5
ATOM      5  C   UNL     1      11.088  66.842   4.510  1.00  0.00     0.053 C 
BRANCH   5   6
ATOM      6  C   UNL     1      11.175  66.070   3.232  1.00  0.00     0.041 C 
ATOM      7  O   UNL     1      10.210  65.353   2.858  1.00  0.00    -0.550 OA
ATOM      8  O   UNL     1      12.303  66.179   2.429  1.00  0.00    -0.550 OA
ENDBRANCH   5   6
ENDBRANCH   4   5
ENDBRANCH   3   4
ENDBRANCH   2   3
ENDBRANCH   1   2
BRANCH   1   9
ATOM      9  C   UNL     1      12.829  62.647   6.928  1.00  0.00     0.000 C 
BRANCH   9  10
ATOM     10  C   UNL     1      11.653  62.020   7.693  1.00  0.00    -0.000 C 
BRANCH  10  11
ATOM     11  C   UNL     1      11.141  62.921   8.832  1.00  0.00    -0.000 C 
BRANCH  11  12
ATOM     12  C   UNL     1       9.676  63.354   8.618  1.00  0.00    -0.000 C 
BRANCH  12  13
ATOM     13  C   UNL     1       9.479  64.880   8.614  1.00  0.00    -0.003 C 
ATOM     14  C   UNL     1      10.584  65.628   9.356  1.00  0.00     0.004 C 
ENDBRANCH  12  13
ENDBRANCH  11  12
ENDBRANCH  10  11
ENDBRANCH   9  10
ENDBRANCH   1   9
TORSDOF 10
ENDMDL
MODEL 2
REMARK VINA RESULT:    -3.597      0.688      1.487
REMARK INTER + INTRA:          -7.004
REMARK INTER:                  -5.570
REMARK INTRA:                  -1.435
REMARK UNBOUND:                -1.305
REMARK SMILES CCCCCCCCCCCC(=O)[O-]
REMARK SMILES IDX 7 1 8 2 9 3 10 4 11 5 12 6 13 7 14 8 6 9 5 10 4 11 3 12 2 13
REMARK SMILES IDX 1 14
REMARK H PARENT
REMARK Flexibility Score: inf
ROOT
ATOM      1  C   UNL     1      12.621  62.547   6.999  1.00  0.00     0.000 C 
ENDROOT
BRANCH   1   2
ATOM      2  C   UNL     1      13.392  63.754   7.557  1.00  0.00     0.000 C 
BRANCH   2   3
ATOM      3  C   UNL     1      13.445  64.928   6.563  1.00  0.00     0.000 C 
BRANCH   3   4
ATOM      4  C   UNL     1      12.276  64.911   5.566  1.00  0.00     0.006 C 
BRANCH   4   5
ATOM      5  C   UNL     1      12.207  66.188   4.717  1.00  0.00     0.053 C 
BRANCH   5   6
ATOM      6  C   UNL     1      11.805  65.860   3.314  1.00  0.00     0.041 C 
ATOM      7  O   UNL     1      10.674  65.360   3.078  1.00  0.00    -0.550 OA
ATOM      8  O   UNL     1      12.662  66.150   2.260  1.00  0.00    -0.550 OA
ENDBRANCH   5   6
ENDBRANCH   4   5
ENDBRANCH   3   4
ENDBRANCH   2   3
ENDBRANCH   1   2
BRANCH   1   9
ATOM      9  C   UNL     1      11.560  62.020   7.980  1.00  0.00     0.000 C 
BRANCH   9  10
ATOM     10  C   UNL     1      11.032  63.114   8.921  1.00  0.00    -0.000 C 
BRANCH  10  11
ATOM     11  C   UNL     1       9.722  63.747   8.416  1.00  0.00    -0.000 C 
BRANCH  11  12
ATOM     12  C   UNL     1       9.770  65.289   8.450  1.00  0.00    -0.000 C 
BRANCH  12  13
ATOM     13  C   UNL     1      10.747  65.852   9.496  1.00  0.00    -0.003 C 
ATOM     14  C   UNL     1      11.649  66.953   8.944  1.00  0.00     0.004 C 
ENDBRANCH  12  13
ENDBRANCH  11  12
ENDBRANCH  10  11
ENDBRANCH   9  10
ENDBRANCH   1   9
TORSDOF 10
ENDMDL
MODEL 3
REMARK VINA RESULT:    -3.551      1.120      2.077
REMARK INTER + INTRA:          -6.931
REMARK INTER:                  -5.885
REMARK INTRA:                  -1.046
REMARK UNBOUND:                -1.305
REMARK SMILES CCCCCCCCCCCC(=O)[O-]
REMARK SMILES IDX 7 1 8 2 9 3 10 4 11 5 12 6 13 7 14 8 6 9 5 10 4 11 3 12 2 13
REMARK SMILES IDX 1 14
REMARK H PARENT
REMARK Flexibility Score: inf
ROOT
ATOM      1  C   UNL     1      13.083  65.233   6.614  1.00  0.00     0.000 C 
ENDROOT
BRANCH   1   2
ATOM      2  C   UNL     1      12.197  64.954   5.389  1.00  0.00     0.000 C 
BRANCH   2   3
ATOM      3  C   UNL     1      11.207  66.099   5.107  1.00  0.00     0.000 C 
BRANCH   3   4
ATOM      4  C   UNL     1      11.058  66.393   3.606  1.00  0.00     0.006 C 
BRANCH   4   5
ATOM      5  C   UNL     1      12.212  65.818   2.775  1.00  0.00     0.053 C 
BRANCH   5   6
ATOM      6  C   UNL     1      12.532  66.725   1.629  1.00  0.00     0.041 C 
ATOM      7  O   UNL     1      13.726  66.886   1.262  1.00  0.00    -0.550 OA
ATOM      8  O   UNL     1      11.508  67.356   0.935  1.00  0.00    -0.550 OA
ENDBRANCH   5   6
ENDBRANCH   4   5
ENDBRANCH   3   4
ENDBRANCH   2   3
ENDBRANCH   1   2
BRANCH   1   9
ATOM      9  C   UNL     1      13.376  63.962   7.431  1.00  0.00     0.000 C 
BRANCH   9  10
ATOM     10  C   UNL     1      12.788  62.698   6.785  1.00  0.00    -0.000 C 
BRANCH  10  11
ATOM     11  C   UNL     1      11.733  62.015   7.676  1.00  0.00    -0.000 C 
BRANCH  11  12
ATOM     12  C   UNL     1      11.207  62.955   8.780  1.00  0.00    -0.000 C 
BRANCH  12  13
ATOM     13  C   UNL     1       9.773  63.454   8.532  1.00  0.00    -0.003 C 
ATOM     14  C   UNL     1       9.678  64.974   8.421  1.00  0.00     0.004 C 
ENDBRANCH  12  13
ENDBRANCH  11  12
ENDBRANCH  10  11
ENDBRANCH   9  10
ENDBRANCH   1   9
TORSDOF 10
ENDMDL
MODEL 4
REMARK VINA RESULT:    -3.429      2.389      4.934
REMARK INTER + INTRA:          -6.739
REMARK INTER:                  -5.793
REMARK INTRA:                  -0.946
REMARK UNBOUND:                -1.305
REMARK SMILES CCCCCCCCCCCC(=O)[O-]
REMARK SMILES IDX 7 1 8 2 9 3 10 4 11 5 12 6 13 7 14 8 6 9 5 10 4 11 3 12 2 13
REMARK SMILES IDX 1 14
REMARK H PARENT
REMARK Flexibility Score: inf
ROOT
ATOM      1  C   UNL     1      13.404  63.718   7.645  1.00  0.00     0.000 C 
ENDROOT
BRANCH   1   2
ATOM      2  C   UNL     1      12.679  62.513   7.028  1.00  0.00     0.000 C 
BRANCH   2   3
ATOM      3  C   UNL     1      11.552  61.979   7.930  1.00  0.00     0.000 C 
BRANCH   3   4
ATOM      4  C   UNL     1      11.053  63.029   8.935  1.00  0.00     0.006 C 
BRANCH   4   5
ATOM      5  C   UNL     1       9.764  63.722   8.472  1.00  0.00     0.053 C 
BRANCH   5   6
ATOM      6  C   UNL     1       9.889  65.206   8.620  1.00  0.00     0.041 C 
ATOM      7  O   UNL     1      10.898  65.704   9.184  1.00  0.00    -0.550 OA
ATOM      8  O   UNL     1       8.913  66.041   8.091  1.00  0.00    -0.550 OA
ENDBRANCH   5   6
ENDBRANCH   4   5
ENDBRANCH   3   4
ENDBRANCH   2   3
ENDBRANCH   1   2
BRANCH   1   9
ATOM      9  C   UNL     1      13.419  64.941   6.710  1.00  0.00     0.000 C 
BRANCH   9  10
ATOM     10  C   UNL     1      12.307  64.886   5.651  1.00  0.00    -0.000 C 
BRANCH  10  11
ATOM     11  C   UNL     1      12.327  66.103   4.709  1.00  0.00    -0.000 C 
BRANCH  11  12
ATOM     12  C   UNL     1      12.024  65.712   3.247  1.00  0.00    -0.000 C 
BRANCH  12  13
ATOM     13  C   UNL     1      10.522  65.675   2.918  1.00  0.00    -0.003 C 
ATOM     14  C   UNL     1       9.728  66.775   3.619  1.00  0.00     0.004 C 
ENDBRANCH  12  13
ENDBRANCH  11  12
ENDBRANCH  10  11
ENDBRANCH   9  10
ENDBRANCH   1   9
TORSDOF 10
ENDMDL
MODEL 5
REMARK VINA RESULT:    -3.420      0.915      1.486
REMARK INTER + INTRA:          -6.725
REMARK INTER:                  -5.461
REMARK INTRA:                  -1.264
REMARK UNBOUND:                -1.305
REMARK SMILES CCCCCCCCCCCC(=O)[O-]
REMARK SMILES IDX 7 1 8 2 9 3 10 4 11 5 12 6 13 7 14 8 6 9 5 10 4 11 3 12 2 13
REMARK SMILES IDX 1 14
REMARK H PARENT
REMARK Flexibility Score: inf
ROOT
ATOM      1  C   UNL     1      13.415  65.590   8.131  1.00  0.00     0.000 C 
ENDROOT
BRANCH   1   2
ATOM      2  C   UNL     1      13.724  65.677   6.628  1.00  0.00     0.000 C 
BRANCH   2   3
ATOM      3  C   UNL     1      12.618  66.403   5.842  1.00  0.00     0.000 C 
BRANCH   3   4
ATOM      4  C   UNL     1      11.660  65.431   5.136  1.00  0.00     0.006 C 
BRANCH   4   5
ATOM      5  C   UNL     1      11.947  65.308   3.633  1.00  0.00     0.053 C 
BRANCH   5   6
ATOM      6  C   UNL     1      10.920  66.056   2.843  1.00  0.00     0.041 C 
ATOM      7  O   UNL     1       9.712  66.041   3.198  1.00  0.00    -0.550 OA
ATOM      8  O   UNL     1      11.304  66.810   1.742  1.00  0.00    -0.550 OA
ENDBRANCH   5   6
ENDBRANCH   4   5
ENDBRANCH   3   4
ENDBRANCH   2   3
ENDBRANCH   1   2
BRANCH   1   9
ATOM      9  C   UNL     1      13.437  64.143   8.654  1.00  0.00     0.000 C 
BRANCH   9  10
ATOM     10  C   UNL     1      13.204  63.110   7.541  1.00  0.00    -0.000 C 
BRANCH  10  11
ATOM     11  C   UNL     1      11.865  62.365   7.696  1.00  0.00    -0.000 C 
BRANCH  11  12
ATOM     12  C   UNL     1      11.061  62.860   8.916  1.00  0.00    -0.000 C 
BRANCH  12  13
ATOM     13  C   UNL     1       9.694  63.462   8.550  1.00  0.00    -0.003 C 
ATOM     14  C   UNL     1       9.741  64.974   8.343  1.00  0.00     0.004 C 
ENDBRANCH  12  13
ENDBRANCH  11  12
ENDBRANCH  10  11
ENDBRANCH   9  10
ENDBRANCH   1   9
TORSDOF 10
ENDMDL
MODEL 6
REMARK VINA RESULT:    -3.400      1.267      2.469
REMARK INTER + INTRA:          -6.693
REMARK INTER:                  -5.169
REMARK INTRA:                  -1.524
REMARK UNBOUND:                -1.305
REMARK SMILES CCCCCCCCCCCC(=O)[O-]
REMARK SMILES IDX 7 1 8 2 9 3 10 4 11 5 12 6 13 7 14 8 6 9 5 10 4 11 3 12 2 13
REMARK SMILES IDX 1 14
REMARK H PARENT
REMARK Flexibility Score: inf
ROOT
ATOM      1  C   UNL     1      11.600  62.054   7.894  1.00  0.00     0.000 C 
ENDROOT
BRANCH   1   2
ATOM      2  C   UNL     1      12.921  62.770   7.574  1.00  0.00     0.000 C 
BRANCH   2   3
ATOM      3  C   UNL     1      12.935  63.375   6.159  1.00  0.00     0.000 C 
BRANCH   3   4
ATOM      4  C   UNL     1      13.008  64.910   6.174  1.00  0.00     0.006 C 
BRANCH   4   5
ATOM      5  C   UNL     1      11.777  65.565   5.533  1.00  0.00     0.053 C 
BRANCH   5   6
ATOM      6  C   UNL     1      12.043  65.880   4.095  1.00  0.00     0.041 C 
ATOM      7  O   UNL     1      12.235  67.070   3.731  1.00  0.00    -0.550 OA
ATOM      8  O   UNL     1      12.127  64.853   3.163  1.00  0.00    -0.550 OA
ENDBRANCH   5   6
ENDBRANCH   4   5
ENDBRANCH   3   4
ENDBRANCH   2   3
ENDBRANCH   1   2
BRANCH   1   9
ATOM      9  C   UNL     1      10.805  62.755   9.010  1.00  0.00     0.000 C 
BRANCH   9  10
ATOM     10  C   UNL     1       9.940  63.910   8.482  1.00  0.00    -0.000 C 
BRANCH  10  11
ATOM     11  C   UNL     1      10.425  65.285   8.975  1.00  0.00    -0.000 C 
BRANCH  11  12
ATOM     12  C   UNL     1      11.561  65.165  10.012  1.00  0.00    -0.000 C 
BRANCH  12  13
ATOM     13  C   UNL     1      12.697  66.180   9.800  1.00  0.00    -0.003 C 
ATOM     14  C   UNL     1      12.295  67.353   8.908  1.00  0.00     0.004 C 
ENDBRANCH  12  13
ENDBRANCH  11  12
ENDBRANCH  10  11
ENDBRANCH   9  10
ENDBRANCH   1   9
TORSDOF 10
ENDMDL
MODEL 7
REMARK VINA RESULT:    -3.394      2.633      4.811
REMARK INTER + INTRA:          -6.684
REMARK INTER:                  -5.600
REMARK INTRA:                  -1.084
REMARK UNBOUND:                -1.305
REMARK SMILES CCCCCCCCCCCC(=O)[O-]
REMARK SMILES IDX 7 1 8 2 9 3 10 4 11 5 12 6 13 7 14 8 6 9 5 10 4 11 3 12 2 13
REMARK SMILES IDX 1 14
REMARK H PARENT
REMARK Flexibility Score: inf
ROOT
ATOM      1  C   UNL     1      11.564  62.055   7.889  1.00  0.00     0.000 C 
ENDROOT
BRANCH   1   2
ATOM      2  C   UNL     1      11.083  63.047   8.959  1.00  0.00     0.000 C 
BRANCH   2   3
ATOM      3  C   UNL     1       9.699  63.637   8.634  1.00  0.00     0.000 C 
BRANCH   3   4
ATOM      4  C   UNL     1       9.770  65.118   8.228  1.00  0.00     0.006 C 
BRANCH   4   5
ATOM      5  C   UNL     1       8.905  66.017   9.122  1.00  0.00     0.053 C 
BRANCH   5   6
ATOM      6  C   UNL     1       7.487  66.015   8.647  1.00  0.00     0.041 C 
ATOM      7  O   UNL     1       7.135  66.762   7.697  1.00  0.00    -0.550 OA
ATOM      8  O   UNL     1       6.563  65.151   9.222  1.00  0.00    -0.550 OA
ENDBRANCH   5   6
ENDBRANCH   4   5
ENDBRANCH   3   4
ENDBRANCH   2   3
ENDBRANCH   1   2
BRANCH   1   9
ATOM      9  C   UNL     1      12.735  62.606   7.056  1.00  0.00     0.000 C 
BRANCH   9  10
ATOM     10  C   UNL     1      13.394  63.833   7.707  1.00  0.00    -0.000 C 
BRANCH  10  11
ATOM     11  C   UNL     1      13.291  65.094   6.830  1.00  0.00    -0.000 C 
BRANCH  11  12
ATOM     12  C   UNL     1      12.542  64.824   5.508  1.00  0.00    -0.000 C 
BRANCH  12  13
ATOM     13  C   UNL     1      11.514  65.911   5.150  1.00  0.00    -0.003 C 
ATOM     14  C   UNL     1      11.076  65.864   3.688  1.00  0.00     0.004 C 
ENDBRANCH  12  13
ENDBRANCH  11  12
ENDBRANCH  10  11
ENDBRANCH   9  10
ENDBRANCH   1   9
TORSDOF 10
ENDMDL
MODEL 8
REMARK VINA RESULT:    -3.391      1.606      2.425
REMARK INTER + INTRA:          -6.678
REMARK INTER:                  -5.631
REMARK INTRA:                  -1.046
REMARK UNBOUND:                -1.305
REMARK SMILES CCCCCCCCCCCC(=O)[O-]
REMARK SMILES IDX 7 1 8 2 9 3 10 4 11 5 12 6 13 7 14 8 6 9 5 10 4 11 3 12 2 13
REMARK SMILES IDX 1 14
REMARK H PARENT
REMARK Flexibility Score: inf
ROOT
ATOM      1  C   UNL     1      13.261  65.296   6.382  1.00  0.00     0.000 C 
ENDROOT
BRANCH   1   2
ATOM      2  C   UNL     1      12.318  64.997   5.206  1.00  0.00     0.000 C 
BRANCH   2   3
ATOM      3  C   UNL     1      11.156  66.001   5.114  1.00  0.00     0.000 C 
BRANCH   3   4
ATOM      4  C   UNL     1      10.988  66.582   3.702  1.00  0.00     0.006 C 
BRANCH   4   5
ATOM      5  C   UNL     1       9.609  66.280   3.100  1.00  0.00     0.053 C 
BRANCH   5   6
ATOM      6  C   UNL     1       8.640  67.367   3.444  1.00  0.00     0.041 C 
ATOM      7  O   UNL     1       9.054  68.531   3.688  1.00  0.00    -0.550 OA
ATOM      8  O   UNL     1       7.276  67.106   3.450  1.00  0.00    -0.550 OA
ENDBRANCH   5   6
ENDBRANCH   4   5
ENDBRANCH   3   4
ENDBRANCH   2   3
ENDBRANCH   1   2
BRANCH   1   9
ATOM      9  C   UNL     1      13.518  64.058   7.261  1.00  0.00     0.000 C 
BRANCH   9  10
ATOM     10  C   UNL     1      12.902  62.780   6.673  1.00  0.00    -0.000 C 
BRANCH  10  11
ATOM     11  C   UNL     1      11.888  62.120   7.626  1.00  0.00    -0.000 C 
BRANCH  11  12
ATOM     12  C   UNL     1      11.335  63.115   8.668  1.00  0.00    -0.000 C 
BRANCH  12  13
ATOM     13  C   UNL     1       9.884  63.548   8.396  1.00  0.00    -0.003 C 
ATOM     14  C   UNL     1       9.693  65.062   8.434  1.00  0.00     0.004 C 
ENDBRANCH  12  13
ENDBRANCH  11  12
ENDBRANCH  10  11
ENDBRANCH   9  10
ENDBRANCH   1   9
TORSDOF 10
ENDMDL
MODEL 9
REMARK VINA RESULT:    -3.358      2.561      4.346
REMARK INTER + INTRA:          -6.626
REMARK INTER:                  -5.912
REMARK INTRA:                  -0.714
REMARK UNBOUND:                -1.305
REMARK SMILES CCCCCCCCCCCC(=O)[O-]
REMARK SMILES IDX 7 1 8 2 9 3 10 4 11 5 12 6 13 7 14 8 6 9 5 10 4 11 3 12 2 13
REMARK SMILES IDX 1 14
REMARK H PARENT
REMARK Flexibility Score: inf
ROOT
ATOM      1  C   UNL     1       9.696  63.601   8.393  1.00  0.00     0.000 C 
ENDROOT
BRANCH   1   2
ATOM      2  C   UNL     1      11.094  63.092   8.776  1.00  0.00     0.000 C 
BRANCH   2   3
ATOM      3  C   UNL     1      11.643  62.066   7.768  1.00  0.00     0.000 C 
BRANCH   3   4
ATOM      4  C   UNL     1      12.745  62.652   6.871  1.00  0.00     0.006 C 
BRANCH   4   5
ATOM      5  C   UNL     1      13.366  63.927   7.456  1.00  0.00     0.053 C 
BRANCH   5   6
ATOM      6  C   UNL     1      13.310  65.040   6.458  1.00  0.00     0.041 C 
ATOM      7  O   UNL     1      12.495  64.991   5.499  1.00  0.00    -0.550 OA
ATOM      8  O   UNL     1      14.125  66.154   6.613  1.00  0.00    -0.550 OA
ENDBRANCH   5   6
ENDBRANCH   4   5
ENDBRANCH   3   4
ENDBRANCH   2   3
ENDBRANCH   1   2
BRANCH   1   9
ATOM      9  C   UNL     1       9.674  65.116   8.123  1.00  0.00     0.000 C 
BRANCH   9  10
ATOM     10  C   UNL     1       8.821  65.884   9.144  1.00  0.00    -0.000 C 
BRANCH  10  11
ATOM     11  C   UNL     1       7.362  65.393   9.184  1.00  0.00    -0.000 C 
BRANCH  11  12
ATOM     12  C   UNL     1       6.470  66.135   8.167  1.00  0.00    -0.000 C 
BRANCH  12  13
ATOM     13  C   UNL     1       5.164  65.392   7.836  1.00  0.00    -0.003 C 
ATOM     14  C   UNL     1       4.793  64.339   8.879  1.00  0.00     0.004 C 
ENDBRANCH  12  13
ENDBRANCH  11  12
ENDBRANCH  10  11
ENDBRANCH   9  10
ENDBRANCH   1   9
TORSDOF 10
ENDMDL
