MODEL 1
REMARK VINA RESULT:    -5.103      0.000      0.000
REMARK INTER + INTRA:          -5.827
REMARK INTER:                  -5.699
REMARK INTRA:                  -0.128
REMARK UNBOUND:                -0.128
REMARK SMILES O=C([O-])C=Cc1ccccc1
REMARK SMILES IDX 4 1 5 2 2 3 1 4 3 5 6 6 7 7 11 8 8 9 10 10 9 11
REMARK H PARENT
REMARK Flexibility Score: inf
ROOT
ATOM      1  C   UNL     1      16.453  43.044   7.030  1.00  0.00     0.025 C 
ATOM      2  C   UNL     1      15.325  43.691   6.696  1.00  0.00     0.010 C 
ENDROOT
BRANCH   1   3
ATOM      3  C   UNL     1      17.310  43.488   8.144  1.00  0.00     0.064 C 
ATOM      4  O   UNL     1      17.956  42.660   8.841  1.00  0.00    -0.545 OA
ATOM      5  O   UNL     1      17.407  44.842   8.432  1.00  0.00    -0.545 OA
ENDBRANCH   1   3
BRANCH   2   6
ATOM      6  C   UNL     1      14.417  43.296   5.584  1.00  0.00    -0.026 A 
ATOM      7  C   UNL     1      14.642  43.650   4.235  1.00  0.00     0.008 A 
ATOM      8  C   UNL     1      13.279  42.532   5.898  1.00  0.00     0.008 A 
ATOM      9  C   UNL     1      13.747  43.246   3.239  1.00  0.00     0.001 A 
ATOM     10  C   UNL     1      12.389  42.130   4.897  1.00  0.00     0.001 A 
ATOM     11  C   UNL     1      12.624  42.487   3.569  1.00  0.00     0.000 A 
ENDBRANCH   2   6
TORSDOF 2
ENDMDL
MODEL 2
REMARK VINA RESULT:    -5.007      4.116      5.504
REMARK INTER + INTRA:          -5.720
REMARK INTER:                  -5.587
REMARK INTRA:                  -0.133
REMARK UNBOUND:                -0.128
REMARK SMILES O=C([O-])C=Cc1ccccc1
REMARK SMILES IDX 4 1 5 2 2 3 1 4 3 5 6 6 7 7 11 8 8 9 10 10 9 11
REMARK H PARENT
REMARK Flexibility Score: inf
ROOT
ATOM      1  C   UNL     1      13.155  45.816   3.970  1.00  0.00     0.025 C 
ATOM      2  C   UNL     1      13.940  45.820   5.059  1.00  0.00     0.010 C 
ENDROOT
BRANCH   1   3
ATOM      3  C   UNL     1      11.955  46.664   3.866  1.00  0.00     0.064 C 
ATOM      4  O   UNL     1      11.531  47.062   2.748  1.00  0.00    -0.545 OA
ATOM      5  O   UNL     1      11.277  47.031   5.021  1.00  0.00    -0.545 OA
ENDBRANCH   1   3
BRANCH   2   6
ATOM      6  C   UNL     1      15.164  44.990   5.228  1.00  0.00    -0.026 A 
ATOM      7  C   UNL     1      15.670  44.140   4.219  1.00  0.00     0.008 A 
ATOM      8  C   UNL     1      15.848  45.059   6.455  1.00  0.00     0.008 A 
ATOM      9  C   UNL     1      16.827  43.386   4.444  1.00  0.00     0.001 A 
ATOM     10  C   UNL     1      17.003  44.302   6.673  1.00  0.00     0.001 A 
ATOM     11  C   UNL     1      17.492  43.467   5.667  1.00  0.00     0.000 A 
ENDBRANCH   2   6
TORSDOF 2
ENDMDL
MODEL 3
REMARK VINA RESULT:    -4.913      4.239      5.537
REMARK INTER + INTRA:          -5.616
REMARK INTER:                  -5.482
REMARK INTRA:                  -0.134
REMARK UNBOUND:                -0.128
REMARK SMILES O=C([O-])C=Cc1ccccc1
REMARK SMILES IDX 4 1 5 2 2 3 1 4 3 5 6 6 7 7 11 8 8 9 10 10 9 11
REMARK H PARENT
REMARK Flexibility Score: inf
ROOT
ATOM      1  C   UNL     1      13.152  46.213   5.157  1.00  0.00     0.025 C 
ATOM      2  C   UNL     1      14.053  45.455   4.513  1.00  0.00     0.010 C 
ENDROOT
BRANCH   1   3
ATOM      3  C   UNL     1      11.958  46.753   4.484  1.00  0.00     0.064 C 
ATOM      4  O   UNL     1      11.893  46.826   3.228  1.00  0.00    -0.545 OA
ATOM      5  O   UNL     1      10.883  47.190   5.247  1.00  0.00    -0.545 OA
ENDBRANCH   1   3
BRANCH   2   6
ATOM      6  C   UNL     1      15.278  44.880   5.134  1.00  0.00    -0.026 A 
ATOM      7  C   UNL     1      15.743  45.244   6.416  1.00  0.00     0.008 A 
ATOM      8  C   UNL     1      16.005  43.924   4.402  1.00  0.00     0.008 A 
ATOM      9  C   UNL     1      16.903  44.664   6.941  1.00  0.00     0.001 A 
ATOM     10  C   UNL     1      17.164  43.347   4.932  1.00  0.00     0.001 A 
ATOM     11  C   UNL     1      17.611  43.718   6.200  1.00  0.00     0.000 A 
ENDBRANCH   2   6
TORSDOF 2
ENDMDL
MODEL 4
REMARK VINA RESULT:    -4.779      4.503      5.563
REMARK INTER + INTRA:          -5.466
REMARK INTER:                  -5.337
REMARK INTRA:                  -0.129
REMARK UNBOUND:                -0.128
REMARK SMILES O=C([O-])C=Cc1ccccc1
REMARK SMILES IDX 4 1 5 2 2 3 1 4 3 5 6 6 7 7 11 8 8 9 10 10 9 11
REMARK H PARENT
REMARK Flexibility Score: inf
ROOT
ATOM      1  C   UNL     1      11.284  46.166   6.194  1.00  0.00     0.025 C 
ATOM      2  C   UNL     1      11.909  46.317   5.015  1.00  0.00     0.010 C 
ENDROOT
BRANCH   1   3
ATOM      3  C   UNL     1      10.288  47.135   6.682  1.00  0.00     0.064 C 
ATOM      4  O   UNL     1      10.088  48.225   6.083  1.00  0.00    -0.545 OA
ATOM      5  O   UNL     1       9.555  46.842   7.825  1.00  0.00    -0.545 OA
ENDBRANCH   1   3
BRANCH   2   6
ATOM      6  C   UNL     1      12.923  45.377   4.465  1.00  0.00    -0.026 A 
ATOM      7  C   UNL     1      12.617  44.064   4.043  1.00  0.00     0.008 A 
ATOM      8  C   UNL     1      14.253  45.823   4.360  1.00  0.00     0.008 A 
ATOM      9  C   UNL     1      13.620  43.232   3.535  1.00  0.00     0.001 A 
ATOM     10  C   UNL     1      15.250  44.986   3.850  1.00  0.00     0.001 A 
ATOM     11  C   UNL     1      14.933  43.692   3.438  1.00  0.00     0.000 A 
ENDBRANCH   2   6
TORSDOF 2
ENDMDL
MODEL 5
REMARK VINA RESULT:    -4.778      1.864      2.619
REMARK INTER + INTRA:          -5.465
REMARK INTER:                  -5.329
REMARK INTRA:                  -0.136
REMARK UNBOUND:                -0.128
REMARK SMILES O=C([O-])C=Cc1ccccc1
REMARK SMILES IDX 4 1 5 2 2 3 1 4 3 5 6 6 7 7 11 8 8 9 10 10 9 11
REMARK H PARENT
REMARK Flexibility Score: inf
ROOT
ATOM      1  C   UNL     1      15.817  42.497   7.466  1.00  0.00     0.025 C 
ATOM      2  C   UNL     1      16.082  43.720   6.982  1.00  0.00     0.010 C 
ENDROOT
BRANCH   1   3
ATOM      3  C   UNL     1      16.656  41.863   8.498  1.00  0.00     0.064 C 
ATOM      4  O   UNL     1      17.685  42.436   8.946  1.00  0.00    -0.545 OA
ATOM      5  O   UNL     1      16.308  40.610   8.985  1.00  0.00    -0.545 OA
ENDBRANCH   1   3
BRANCH   2   6
ATOM      6  C   UNL     1      15.276  44.416   5.942  1.00  0.00    -0.026 A 
ATOM      7  C   UNL     1      14.642  45.660   6.154  1.00  0.00     0.008 A 
ATOM      8  C   UNL     1      15.143  43.799   4.685  1.00  0.00     0.008 A 
ATOM      9  C   UNL     1      13.898  46.259   5.132  1.00  0.00     0.001 A 
ATOM     10  C   UNL     1      14.398  44.404   3.667  1.00  0.00     0.001 A 
ATOM     11  C   UNL     1      13.777  45.633   3.892  1.00  0.00     0.000 A 
ENDBRANCH   2   6
TORSDOF 2
ENDMDL
MODEL 6
REMARK VINA RESULT:    -4.764      2.674      3.107
REMARK INTER + INTRA:          -5.448
REMARK INTER:                  -5.314
REMARK INTRA:                  -0.134
REMARK UNBOUND:                -0.128
REMARK SMILES O=C([O-])C=Cc1ccccc1
REMARK SMILES IDX 4 1 5 2 2 3 1 4 3 5 6 6 7 7 11 8 8 9 10 10 9 11
REMARK H PARENT
REMARK Flexibility Score: inf
ROOT
ATOM      1  C   UNL     1      15.969  45.011   7.150  1.00  0.00     0.025 C 
ATOM      2  C   UNL     1      15.414  44.931   5.930  1.00  0.00     0.010 C 
ENDROOT
BRANCH   1   3
ATOM      3  C   UNL     1      17.225  44.318   7.486  1.00  0.00     0.064 C 
ATOM      4  O   UNL     1      18.003  43.901   6.586  1.00  0.00    -0.545 OA
ATOM      5  O   UNL     1      17.559  44.119   8.819  1.00  0.00    -0.545 OA
ENDBRANCH   1   3
BRANCH   2   6
ATOM      6  C   UNL     1      14.150  45.604   5.527  1.00  0.00    -0.026 A 
ATOM      7  C   UNL     1      13.407  46.442   6.388  1.00  0.00     0.008 A 
ATOM      8  C   UNL     1      13.674  45.394   4.220  1.00  0.00     0.008 A 
ATOM      9  C   UNL     1      12.225  47.045   5.944  1.00  0.00     0.001 A 
ATOM     10  C   UNL     1      12.493  46.000   3.782  1.00  0.00     0.001 A 
ATOM     11  C   UNL     1      11.770  46.825   4.644  1.00  0.00     0.000 A 
ENDBRANCH   2   6
TORSDOF 2
ENDMDL
MODEL 7
REMARK VINA RESULT:    -4.746      5.775      6.345
REMARK INTER + INTRA:          -5.429
REMARK INTER:                  -5.300
REMARK INTRA:                  -0.129
REMARK UNBOUND:                -0.128
REMARK SMILES O=C([O-])C=Cc1ccccc1
REMARK SMILES IDX 4 1 5 2 2 3 1 4 3 5 6 6 7 7 11 8 8 9 10 10 9 11
REMARK H PARENT
REMARK Flexibility Score: inf
ROOT
ATOM      1  C   UNL     1      12.639  46.737   6.743  1.00  0.00     0.025 C 
ATOM      2  C   UNL     1      11.414  46.520   6.239  1.00  0.00     0.010 C 
ENDROOT
BRANCH   1   3
ATOM      3  C   UNL     1      13.853  46.178   6.123  1.00  0.00     0.064 C 
ATOM      4  O   UNL     1      14.026  46.218   4.876  1.00  0.00    -0.545 OA
ATOM      5  O   UNL     1      14.823  45.595   6.927  1.00  0.00    -0.545 OA
ENDBRANCH   1   3
BRANCH   2   6
ATOM      6  C   UNL     1      10.151  47.055   6.817  1.00  0.00    -0.026 A 
ATOM      7  C   UNL     1       9.510  48.220   6.338  1.00  0.00     0.008 A 
ATOM      8  C   UNL     1       9.569  46.363   7.894  1.00  0.00     0.008 A 
ATOM      9  C   UNL     1       8.324  48.668   6.927  1.00  0.00     0.001 A 
ATOM     10  C   UNL     1       8.382  46.816   8.478  1.00  0.00     0.001 A 
ATOM     11  C   UNL     1       7.761  47.968   7.994  1.00  0.00     0.000 A 
ENDBRANCH   2   6
TORSDOF 2
ENDMDL
MODEL 8
REMARK VINA RESULT:    -4.721      7.155      8.194
REMARK INTER + INTRA:          -5.401
REMARK INTER:                  -5.272
REMARK INTRA:                  -0.129
REMARK UNBOUND:                -0.128
REMARK SMILES O=C([O-])C=Cc1ccccc1
REMARK SMILES IDX 4 1 5 2 2 3 1 4 3 5 6 6 7 7 11 8 8 9 10 10 9 11
REMARK H PARENT
REMARK Flexibility Score: inf
ROOT
ATOM      1  C   UNL     1      14.179  39.319   9.846  1.00  0.00     0.025 C 
ATOM      2  C   UNL     1      14.433  38.751  11.035  1.00  0.00     0.010 C 
ENDROOT
BRANCH   1   3
ATOM      3  C   UNL     1      15.035  40.379   9.284  1.00  0.00     0.064 C 
ATOM      4  O   UNL     1      14.551  41.482   8.915  1.00  0.00    -0.545 OA
ATOM      5  O   UNL     1      16.400  40.158   9.159  1.00  0.00    -0.545 OA
ENDBRANCH   1   3
BRANCH   2   6
ATOM      6  C   UNL     1      13.610  37.678  11.657  1.00  0.00    -0.026 A 
ATOM      7  C   UNL     1      12.198  37.667  11.627  1.00  0.00     0.008 A 
ATOM      8  C   UNL     1      14.277  36.624  12.308  1.00  0.00     0.008 A 
ATOM      9  C   UNL     1      11.485  36.628  12.233  1.00  0.00     0.001 A 
ATOM     10  C   UNL     1      13.558  35.588  12.911  1.00  0.00     0.001 A 
ATOM     11  C   UNL     1      12.163  35.590  12.873  1.00  0.00     0.000 A 
ENDBRANCH   2   6
TORSDOF 2
ENDMDL
MODEL 9
REMARK VINA RESULT:    -4.684      3.286      5.351
REMARK INTER + INTRA:          -5.359
REMARK INTER:                  -5.213
REMARK INTRA:                  -0.146
REMARK UNBOUND:                -0.128
REMARK SMILES O=C([O-])C=Cc1ccccc1
REMARK SMILES IDX 4 1 5 2 2 3 1 4 3 5 6 6 7 7 11 8 8 9 10 10 9 11
REMARK H PARENT
REMARK Flexibility Score: inf
ROOT
ATOM      1  C   UNL     1      13.938  43.322   4.932  1.00  0.00     0.025 C 
ATOM      2  C   UNL     1      14.761  44.257   5.434  1.00  0.00     0.010 C 
ENDROOT
BRANCH   1   3
ATOM      3  C   UNL     1      13.046  43.593   3.792  1.00  0.00     0.064 C 
ATOM      4  O   UNL     1      12.532  44.731   3.621  1.00  0.00    -0.545 OA
ATOM      5  O   UNL     1      12.766  42.577   2.888  1.00  0.00    -0.545 OA
ENDBRANCH   1   3
BRANCH   2   6
ATOM      6  C   UNL     1      15.685  44.049   6.582  1.00  0.00    -0.026 A 
ATOM      7  C   UNL     1      16.313  45.107   7.275  1.00  0.00     0.008 A 
ATOM      8  C   UNL     1      15.942  42.729   6.994  1.00  0.00     0.008 A 
ATOM      9  C   UNL     1      17.171  44.840   8.347  1.00  0.00     0.001 A 
ATOM     10  C   UNL     1      16.801  42.469   8.067  1.00  0.00     0.001 A 
ATOM     11  C   UNL     1      17.414  43.525   8.742  1.00  0.00     0.000 A 
ENDBRANCH   2   6
TORSDOF 2
ENDMDL
