MODEL 1
REMARK VINA RESULT:    -4.216      0.000      0.000
REMARK INTER + INTRA:          -4.602
REMARK INTER:                  -4.585
REMARK INTRA:                  -0.016
REMARK UNBOUND:                -0.016
REMARK SMILES OCc1ccco1
REMARK SMILES IDX 2 1 3 2 5 3 6 4 4 5 7 6 1 7
REMARK H PARENT 1 8
REMARK Flexibility Score: inf
ROOT
ATOM      1  C   UNL     1      -4.302  -4.429  -2.768  1.00  0.00     0.231 C 
ENDROOT
BRANCH   1   2
ATOM      2  C   UNL     1      -4.316  -4.983  -1.378  1.00  0.00     0.129 A 
ATOM      3  C   UNL     1      -4.651  -6.281   0.361  1.00  0.00     0.042 A 
ATOM      4  C   UNL     1      -4.056  -5.092   0.735  1.00  0.00     0.195 A 
ATOM      5  C   UNL     1      -4.823  -6.211  -1.005  1.00  0.00     0.048 A 
ATOM      6  O   UNL     1      -3.871  -4.337  -0.325  1.00  0.00    -0.467 OA
ENDBRANCH   1   2
BRANCH   1   7
ATOM      7  O   UNL     1      -5.122  -3.296  -2.842  1.00  0.00    -0.388 OA
ATOM      8  H   UNL     1      -4.711  -2.692  -3.514  1.00  0.00     0.211 HD
ENDBRANCH   1   7
TORSDOF 2
ENDMDL
MODEL 2
REMARK VINA RESULT:    -3.874     15.489     16.637
REMARK INTER + INTRA:          -4.230
REMARK INTER:                  -4.212
REMARK INTRA:                  -0.019
REMARK UNBOUND:                -0.016
REMARK SMILES OCc1ccco1
REMARK SMILES IDX 2 1 3 2 5 3 6 4 4 5 7 6 1 7
REMARK H PARENT 1 8
REMARK Flexibility Score: inf
ROOT
ATOM      1  C   UNL     1       7.500  -3.988 -10.275  1.00  0.00     0.231 C 
ENDROOT
BRANCH   1   2
ATOM      2  C   UNL     1       7.921  -2.727 -10.959  1.00  0.00     0.129 A 
ATOM      3  C   UNL     1       7.964  -0.957 -12.259  1.00  0.00     0.042 A 
ATOM      4  C   UNL     1       9.145  -1.086 -11.555  1.00  0.00     0.195 A 
ATOM      5  C   UNL     1       7.173  -2.019 -11.878  1.00  0.00     0.048 A 
ATOM      6  O   UNL     1       9.090  -2.154 -10.790  1.00  0.00    -0.467 OA
ENDBRANCH   1   2
BRANCH   1   7
ATOM      7  O   UNL     1       8.540  -4.924 -10.311  1.00  0.00    -0.388 OA
ATOM      8  H   UNL     1       8.874  -5.013  -9.379  1.00  0.00     0.211 HD
ENDBRANCH   1   7
TORSDOF 2
ENDMDL
MODEL 3
REMARK VINA RESULT:    -3.843     15.419     16.421
REMARK INTER + INTRA:          -4.197
REMARK INTER:                  -4.181
REMARK INTRA:                  -0.015
REMARK UNBOUND:                -0.016
REMARK SMILES OCc1ccco1
REMARK SMILES IDX 2 1 3 2 5 3 6 4 4 5 7 6 1 7
REMARK H PARENT 1 8
REMARK Flexibility Score: inf
ROOT
ATOM      1  C   UNL     1       9.554  -1.149 -11.381  1.00  0.00     0.231 C 
ENDROOT
BRANCH   1   2
ATOM      2  C   UNL     1       8.439  -2.119 -11.150  1.00  0.00     0.129 A 
ATOM      3  C   UNL     1       6.488  -3.126 -11.204  1.00  0.00     0.042 A 
ATOM      4  C   UNL     1       7.356  -3.768 -10.344  1.00  0.00     0.195 A 
ATOM      5  C   UNL     1       7.185  -2.057 -11.724  1.00  0.00     0.048 A 
ATOM      6  O   UNL     1       8.511  -3.142 -10.331  1.00  0.00    -0.467 OA
ENDBRANCH   1   2
BRANCH   1   7
ATOM      7  O   UNL     1       9.035   0.112 -11.700  1.00  0.00    -0.388 OA
ATOM      8  H   UNL     1       9.648   0.509 -12.373  1.00  0.00     0.211 HD
ENDBRANCH   1   7
TORSDOF 2
ENDMDL
MODEL 4
REMARK VINA RESULT:    -3.838     14.381     15.713
REMARK INTER + INTRA:          -4.191
REMARK INTER:                  -4.170
REMARK INTRA:                  -0.021
REMARK UNBOUND:                -0.016
REMARK SMILES OCc1ccco1
REMARK SMILES IDX 2 1 3 2 5 3 6 4 4 5 7 6 1 7
REMARK H PARENT 1 8
REMARK Flexibility Score: inf
ROOT
ATOM      1  C   UNL     1       7.087  -4.062  -9.967  1.00  0.00     0.231 C 
ENDROOT
BRANCH   1   2
ATOM      2  C   UNL     1       7.102  -2.958 -10.975  1.00  0.00     0.129 A 
ATOM      3  C   UNL     1       7.728  -1.262 -12.222  1.00  0.00     0.042 A 
ATOM      4  C   UNL     1       6.407  -1.588 -12.454  1.00  0.00     0.195 A 
ATOM      5  C   UNL     1       8.179  -2.144 -11.263  1.00  0.00     0.048 A 
ATOM      6  O   UNL     1       6.062  -2.603 -11.693  1.00  0.00    -0.467 OA
ENDBRANCH   1   2
BRANCH   1   7
ATOM      7  O   UNL     1       5.766  -4.395  -9.639  1.00  0.00    -0.388 OA
ATOM      8  H   UNL     1       5.203  -4.108 -10.405  1.00  0.00     0.211 HD
ENDBRANCH   1   7
TORSDOF 2
ENDMDL
MODEL 5
REMARK VINA RESULT:    -3.720     10.625     11.935
REMARK INTER + INTRA:          -4.063
REMARK INTER:                  -4.042
REMARK INTRA:                  -0.021
REMARK UNBOUND:                -0.016
REMARK SMILES OCc1ccco1
REMARK SMILES IDX 2 1 3 2 5 3 6 4 4 5 7 6 1 7
REMARK H PARENT 1 8
REMARK Flexibility Score: inf
ROOT
ATOM      1  C   UNL     1      -2.436   6.939  -6.492  1.00  0.00     0.231 C 
ENDROOT
BRANCH   1   2
ATOM      2  C   UNL     1      -3.464   6.155  -5.739  1.00  0.00     0.129 A 
ATOM      3  C   UNL     1      -5.007   5.559  -4.295  1.00  0.00     0.042 A 
ATOM      4  C   UNL     1      -4.662   4.505  -5.117  1.00  0.00     0.195 A 
ATOM      5  C   UNL     1      -4.230   6.626  -4.693  1.00  0.00     0.048 A 
ATOM      6  O   UNL     1      -3.737   4.891  -5.967  1.00  0.00    -0.467 OA
ENDBRANCH   1   2
BRANCH   1   7
ATOM      7  O   UNL     1      -1.952   6.187  -7.569  1.00  0.00    -0.388 OA
ATOM      8  H   UNL     1      -2.537   5.388  -7.642  1.00  0.00     0.211 HD
ENDBRANCH   1   7
TORSDOF 2
ENDMDL
MODEL 6
REMARK VINA RESULT:    -3.682     15.616     16.625
REMARK INTER + INTRA:          -4.021
REMARK INTER:                  -4.006
REMARK INTRA:                  -0.015
REMARK UNBOUND:                -0.016
REMARK SMILES OCc1ccco1
REMARK SMILES IDX 2 1 3 2 5 3 6 4 4 5 7 6 1 7
REMARK H PARENT 1 8
REMARK Flexibility Score: inf
ROOT
ATOM      1  C   UNL     1       9.043  -4.979 -11.723  1.00  0.00     0.231 C 
ENDROOT
BRANCH   1   2
ATOM      2  C   UNL     1       8.170  -3.765 -11.765  1.00  0.00     0.129 A 
ATOM      3  C   UNL     1       7.468  -1.684 -11.795  1.00  0.00     0.042 A 
ATOM      4  C   UNL     1       6.407  -2.567 -11.766  1.00  0.00     0.195 A 
ATOM      5  C   UNL     1       8.610  -2.457 -11.790  1.00  0.00     0.048 A 
ATOM      6  O   UNL     1       6.858  -3.801 -11.745  1.00  0.00    -0.467 OA
ENDBRANCH   1   2
BRANCH   1   7
ATOM      7  O   UNL     1       9.184  -5.423 -10.402  1.00  0.00    -0.388 OA
ATOM      8  H   UNL     1       8.600  -4.844  -9.844  1.00  0.00     0.211 HD
ENDBRANCH   1   7
TORSDOF 2
ENDMDL
MODEL 7
REMARK VINA RESULT:    -3.604     11.648     12.522
REMARK INTER + INTRA:          -3.936
REMARK INTER:                  -3.916
REMARK INTRA:                  -0.021
REMARK UNBOUND:                -0.016
REMARK SMILES OCc1ccco1
REMARK SMILES IDX 2 1 3 2 5 3 6 4 4 5 7 6 1 7
REMARK H PARENT 1 8
REMARK Flexibility Score: inf
ROOT
ATOM      1  C   UNL     1       6.056  -6.301   2.333  1.00  0.00     0.231 C 
ENDROOT
BRANCH   1   2
ATOM      2  C   UNL     1       7.107  -5.296   2.687  1.00  0.00     0.129 A 
ATOM      3  C   UNL     1       8.652  -4.165   3.762  1.00  0.00     0.042 A 
ATOM      4  C   UNL     1       8.369  -3.585   2.541  1.00  0.00     0.195 A 
ATOM      5  C   UNL     1       7.834  -5.270   3.860  1.00  0.00     0.048 A 
ATOM      6  O   UNL     1       7.441  -4.281   1.925  1.00  0.00    -0.467 OA
ENDBRANCH   1   2
BRANCH   1   7
ATOM      7  O   UNL     1       5.819  -6.280   0.953  1.00  0.00    -0.388 OA
ATOM      8  H   UNL     1       4.838  -6.180   0.836  1.00  0.00     0.211 HD
ENDBRANCH   1   7
TORSDOF 2
ENDMDL
MODEL 8
REMARK VINA RESULT:    -3.537     14.963     15.594
REMARK INTER + INTRA:          -3.864
REMARK INTER:                  -3.850
REMARK INTRA:                  -0.014
REMARK UNBOUND:                -0.016
REMARK SMILES OCc1ccco1
REMARK SMILES IDX 2 1 3 2 5 3 6 4 4 5 7 6 1 7
REMARK H PARENT 1 8
REMARK Flexibility Score: inf
ROOT
ATOM      1  C   UNL     1       5.992  -1.798 -12.837  1.00  0.00     0.231 C 
ENDROOT
BRANCH   1   2
ATOM      2  C   UNL     1       6.767  -2.496 -11.765  1.00  0.00     0.129 A 
ATOM      3  C   UNL     1       8.363  -3.097 -10.382  1.00  0.00     0.042 A 
ATOM      4  C   UNL     1       7.258  -3.913 -10.251  1.00  0.00     0.195 A 
ATOM      5  C   UNL     1       8.049  -2.181 -11.364  1.00  0.00     0.048 A 
ATOM      6  O   UNL     1       6.323  -3.531 -11.091  1.00  0.00    -0.467 OA
ENDBRANCH   1   2
BRANCH   1   7
ATOM      7  O   UNL     1       4.989  -1.005 -12.266  1.00  0.00    -0.388 OA
ATOM      8  H   UNL     1       4.209  -1.600 -12.114  1.00  0.00     0.211 HD
ENDBRANCH   1   7
TORSDOF 2
ENDMDL
MODEL 9
REMARK VINA RESULT:    -3.506     15.951     17.093
REMARK INTER + INTRA:          -3.829
REMARK INTER:                  -3.813
REMARK INTRA:                  -0.016
REMARK UNBOUND:                -0.016
REMARK SMILES OCc1ccco1
REMARK SMILES IDX 2 1 3 2 5 3 6 4 4 5 7 6 1 7
REMARK H PARENT 1 8
REMARK Flexibility Score: inf
ROOT
ATOM      1  C   UNL     1       7.821  -3.348 -10.691  1.00  0.00     0.231 C 
ENDROOT
BRANCH   1   2
ATOM      2  C   UNL     1       8.253  -4.325 -11.737  1.00  0.00     0.129 A 
ATOM      3  C   UNL     1       9.375  -5.850 -12.850  1.00  0.00     0.042 A 
ATOM      4  C   UNL     1       8.294  -5.397 -13.579  1.00  0.00     0.195 A 
ATOM      5  C   UNL     1       9.352  -5.156 -11.660  1.00  0.00     0.048 A 
ATOM      6  O   UNL     1       7.645  -4.486 -12.890  1.00  0.00    -0.467 OA
ENDBRANCH   1   2
BRANCH   1   7
ATOM      7  O   UNL     1       8.611  -3.493  -9.544  1.00  0.00    -0.388 OA
ATOM      8  H   UNL     1       9.203  -2.696  -9.505  1.00  0.00     0.211 HD
ENDBRANCH   1   7
TORSDOF 2
ENDMDL
