MODEL 1
REMARK VINA RESULT:    -3.709      0.000      0.000
REMARK INTER + INTRA:          -5.215
REMARK INTER:                  -5.010
REMARK INTRA:                  -0.205
REMARK UNBOUND:                -0.205
REMARK SMILES CCCCCCCC(=O)[O-]
REMARK SMILES IDX 5 1 6 2 7 3 8 4 9 5 10 6 4 7 3 8 2 9 1 10
REMARK H PARENT
REMARK Flexibility Score: inf
ROOT
ATOM      1  C   UNL     1     -17.574  -0.299 -21.760  1.00  0.00     0.000 C 
ENDROOT
BRANCH   1   2
ATOM      2  C   UNL     1     -17.548  -0.795 -23.214  1.00  0.00     0.006 C 
BRANCH   2   3
ATOM      3  C   UNL     1     -18.801  -1.603 -23.574  1.00  0.00     0.053 C 
BRANCH   3   4
ATOM      4  C   UNL     1     -19.660  -0.882 -24.568  1.00  0.00     0.041 C 
ATOM      5  O   UNL     1     -20.063   0.286 -24.328  1.00  0.00    -0.550 OA
ATOM      6  O   UNL     1     -20.042  -1.514 -25.743  1.00  0.00    -0.550 OA
ENDBRANCH   3   4
ENDBRANCH   2   3
ENDBRANCH   1   2
BRANCH   1   7
ATOM      7  C   UNL     1     -17.627  -1.475 -20.779  1.00  0.00     0.000 C 
BRANCH   7   8
ATOM      8  C   UNL     1     -16.213  -1.891 -20.343  1.00  0.00    -0.000 C 
BRANCH   8   9
ATOM      9  C   UNL     1     -16.164  -2.384 -18.889  1.00  0.00    -0.003 C 
ATOM     10  C   UNL     1     -15.208  -1.568 -18.020  1.00  0.00     0.004 C 
ENDBRANCH   8   9
ENDBRANCH   7   8
ENDBRANCH   1   7
TORSDOF 6
ENDMDL
MODEL 2
REMARK VINA RESULT:    -3.690     15.369     16.464
REMARK INTER + INTRA:          -5.189
REMARK INTER:                  -4.705
REMARK INTRA:                  -0.484
REMARK UNBOUND:                -0.205
REMARK SMILES CCCCCCCC(=O)[O-]
REMARK SMILES IDX 5 1 6 2 7 3 8 4 9 5 10 6 4 7 3 8 2 9 1 10
REMARK H PARENT
REMARK Flexibility Score: inf
ROOT
ATOM      1  C   UNL     1      -5.861  -8.797 -14.576  1.00  0.00     0.000 C 
ENDROOT
BRANCH   1   2
ATOM      2  C   UNL     1      -4.706  -8.077 -15.290  1.00  0.00     0.006 C 
BRANCH   2   3
ATOM      3  C   UNL     1      -5.195  -7.213 -16.459  1.00  0.00     0.053 C 
BRANCH   3   4
ATOM      4  C   UNL     1      -4.124  -7.012 -17.488  1.00  0.00     0.041 C 
ATOM      5  O   UNL     1      -4.401  -7.085 -18.713  1.00  0.00    -0.550 OA
ATOM      6  O   UNL     1      -2.815  -6.777 -17.090  1.00  0.00    -0.550 OA
ENDBRANCH   3   4
ENDBRANCH   2   3
ENDBRANCH   1   2
BRANCH   1   7
ATOM      7  C   UNL     1      -5.649 -10.316 -14.583  1.00  0.00     0.000 C 
BRANCH   7   8
ATOM      8  C   UNL     1      -6.322 -10.958 -15.806  1.00  0.00    -0.000 C 
BRANCH   8   9
ATOM      9  C   UNL     1      -5.308 -11.410 -16.868  1.00  0.00    -0.003 C 
ATOM     10  C   UNL     1      -5.288 -10.496 -18.093  1.00  0.00     0.004 C 
ENDBRANCH   8   9
ENDBRANCH   7   8
ENDBRANCH   1   7
TORSDOF 6
ENDMDL
MODEL 3
REMARK VINA RESULT:    -3.685     16.490     17.629
REMARK INTER + INTRA:          -5.183
REMARK INTER:                  -4.573
REMARK INTRA:                  -0.610
REMARK UNBOUND:                -0.205
REMARK SMILES CCCCCCCC(=O)[O-]
REMARK SMILES IDX 5 1 6 2 7 3 8 4 9 5 10 6 4 7 3 8 2 9 1 10
REMARK H PARENT
REMARK Flexibility Score: inf
ROOT
ATOM      1  C   UNL     1      -4.335  -7.503 -18.202  1.00  0.00     0.000 C 
ENDROOT
BRANCH   1   2
ATOM      2  C   UNL     1      -2.810  -7.368 -18.338  1.00  0.00     0.006 C 
BRANCH   2   3
ATOM      3  C   UNL     1      -2.196  -6.550 -17.195  1.00  0.00     0.053 C 
BRANCH   3   4
ATOM      4  C   UNL     1      -1.226  -7.361 -16.391  1.00  0.00     0.041 C 
ATOM      5  O   UNL     1      -0.925  -8.529 -16.751  1.00  0.00    -0.550 OA
ATOM      6  O   UNL     1      -0.681  -6.837 -15.226  1.00  0.00    -0.550 OA
ENDBRANCH   3   4
ENDBRANCH   2   3
ENDBRANCH   1   2
BRANCH   1   7
ATOM      7  C   UNL     1      -4.822  -6.925 -16.869  1.00  0.00     0.000 C 
BRANCH   7   8
ATOM      8  C   UNL     1      -5.420  -8.025 -15.979  1.00  0.00    -0.000 C 
BRANCH   8   9
ATOM      9  C   UNL     1      -4.450  -8.490 -14.882  1.00  0.00    -0.003 C 
ATOM     10  C   UNL     1      -3.816  -9.846 -15.191  1.00  0.00     0.004 C 
ENDBRANCH   8   9
ENDBRANCH   7   8
ENDBRANCH   1   7
TORSDOF 6
ENDMDL
MODEL 4
REMARK VINA RESULT:    -3.682     15.602     16.542
REMARK INTER + INTRA:          -5.179
REMARK INTER:                  -4.582
REMARK INTRA:                  -0.597
REMARK UNBOUND:                -0.205
REMARK SMILES CCCCCCCC(=O)[O-]
REMARK SMILES IDX 5 1 6 2 7 3 8 4 9 5 10 6 4 7 3 8 2 9 1 10
REMARK H PARENT
REMARK Flexibility Score: inf
ROOT
ATOM      1  C   UNL     1      -5.391  -7.638 -16.354  1.00  0.00     0.000 C 
ENDROOT
BRANCH   1   2
ATOM      2  C   UNL     1      -4.915  -8.140 -14.982  1.00  0.00     0.006 C 
BRANCH   2   3
ATOM      3  C   UNL     1      -4.860  -9.672 -14.912  1.00  0.00     0.053 C 
BRANCH   3   4
ATOM      4  C   UNL     1      -6.172 -10.292 -15.284  1.00  0.00     0.041 C 
ATOM      5  O   UNL     1      -6.233 -11.131 -16.221  1.00  0.00    -0.550 OA
ATOM      6  O   UNL     1      -7.331  -9.919 -14.618  1.00  0.00    -0.550 OA
ENDBRANCH   3   4
ENDBRANCH   2   3
ENDBRANCH   1   2
BRANCH   1   7
ATOM      7  C   UNL     1      -4.281  -6.862 -17.071  1.00  0.00     0.000 C 
BRANCH   7   8
ATOM      8  C   UNL     1      -3.814  -7.609 -18.330  1.00  0.00    -0.000 C 
BRANCH   8   9
ATOM      9  C   UNL     1      -4.661  -8.857 -18.625  1.00  0.00    -0.003 C 
ATOM     10  C   UNL     1      -3.832 -10.140 -18.656  1.00  0.00     0.004 C 
ENDBRANCH   8   9
ENDBRANCH   7   8
ENDBRANCH   1   7
TORSDOF 6
ENDMDL
MODEL 5
REMARK VINA RESULT:    -3.681     15.761     16.711
REMARK INTER + INTRA:          -5.178
REMARK INTER:                  -4.882
REMARK INTRA:                  -0.295
REMARK UNBOUND:                -0.205
REMARK SMILES CCCCCCCC(=O)[O-]
REMARK SMILES IDX 5 1 6 2 7 3 8 4 9 5 10 6 4 7 3 8 2 9 1 10
REMARK H PARENT
REMARK Flexibility Score: inf
ROOT
ATOM      1  C   UNL     1      -4.156  -8.208 -15.330  1.00  0.00     0.000 C 
ENDROOT
BRANCH   1   2
ATOM      2  C   UNL     1      -4.751  -9.481 -14.708  1.00  0.00     0.006 C 
BRANCH   2   3
ATOM      3  C   UNL     1      -6.158  -9.249 -14.144  1.00  0.00     0.053 C 
BRANCH   3   4
ATOM      4  C   UNL     1      -7.092 -10.363 -14.506  1.00  0.00     0.041 C 
ATOM      5  O   UNL     1      -8.217 -10.453 -13.948  1.00  0.00    -0.550 OA
ATOM      6  O   UNL     1      -6.706 -11.319 -15.435  1.00  0.00    -0.550 OA
ENDBRANCH   3   4
ENDBRANCH   2   3
ENDBRANCH   1   2
BRANCH   1   7
ATOM      7  C   UNL     1      -5.100  -7.618 -16.383  1.00  0.00     0.000 C 
BRANCH   7   8
ATOM      8  C   UNL     1      -4.316  -6.828 -17.442  1.00  0.00    -0.000 C 
BRANCH   8   9
ATOM      9  C   UNL     1      -2.798  -6.873 -17.210  1.00  0.00    -0.003 C 
ATOM     10  C   UNL     1      -2.024  -7.329 -18.446  1.00  0.00     0.004 C 
ENDBRANCH   8   9
ENDBRANCH   7   8
ENDBRANCH   1   7
TORSDOF 6
ENDMDL
MODEL 6
REMARK VINA RESULT:    -3.616     15.436     16.311
REMARK INTER + INTRA:          -5.089
REMARK INTER:                  -4.564
REMARK INTRA:                  -0.525
REMARK UNBOUND:                -0.205
REMARK SMILES CCCCCCCC(=O)[O-]
REMARK SMILES IDX 5 1 6 2 7 3 8 4 9 5 10 6 4 7 3 8 2 9 1 10
REMARK H PARENT
REMARK Flexibility Score: inf
ROOT
ATOM      1  C   UNL     1      -5.459  -7.480 -16.292  1.00  0.00     0.000 C 
ENDROOT
BRANCH   1   2
ATOM      2  C   UNL     1      -4.303  -6.902 -17.123  1.00  0.00     0.006 C 
BRANCH   2   3
ATOM      3  C   UNL     1      -4.278  -7.461 -18.551  1.00  0.00     0.053 C 
BRANCH   3   4
ATOM      4  C   UNL     1      -4.138  -8.953 -18.560  1.00  0.00     0.041 C 
ATOM      5  O   UNL     1      -5.082  -9.675 -18.976  1.00  0.00    -0.550 OA
ATOM      6  O   UNL     1      -2.978  -9.545 -18.080  1.00  0.00    -0.550 OA
ENDBRANCH   3   4
ENDBRANCH   2   3
ENDBRANCH   1   2
BRANCH   1   7
ATOM      7  C   UNL     1      -4.936  -8.159 -15.021  1.00  0.00     0.000 C 
BRANCH   7   8
ATOM      8  C   UNL     1      -5.977  -9.135 -14.452  1.00  0.00    -0.000 C 
BRANCH   8   9
ATOM      9  C   UNL     1      -6.297 -10.287 -15.417  1.00  0.00    -0.003 C 
ATOM     10  C   UNL     1      -5.093 -11.193 -15.674  1.00  0.00     0.004 C 
ENDBRANCH   8   9
ENDBRANCH   7   8
ENDBRANCH   1   7
TORSDOF 6
ENDMDL
MODEL 7
REMARK VINA RESULT:    -3.612     16.286     17.436
REMARK INTER + INTRA:          -5.084
REMARK INTER:                  -4.439
REMARK INTRA:                  -0.645
REMARK UNBOUND:                -0.205
REMARK SMILES CCCCCCCC(=O)[O-]
REMARK SMILES IDX 5 1 6 2 7 3 8 4 9 5 10 6 4 7 3 8 2 9 1 10
REMARK H PARENT
REMARK Flexibility Score: inf
ROOT
ATOM      1  C   UNL     1      -4.706  -6.891 -16.947  1.00  0.00     0.000 C 
ENDROOT
BRANCH   1   2
ATOM      2  C   UNL     1      -5.396  -7.935 -16.055  1.00  0.00     0.006 C 
BRANCH   2   3
ATOM      3  C   UNL     1      -4.507  -8.379 -14.887  1.00  0.00     0.053 C 
BRANCH   3   4
ATOM      4  C   UNL     1      -4.068  -9.804 -15.033  1.00  0.00     0.041 C 
ATOM      5  O   UNL     1      -3.227 -10.122 -15.914  1.00  0.00    -0.550 OA
ATOM      6  O   UNL     1      -4.615 -10.786 -14.217  1.00  0.00    -0.550 OA
ENDBRANCH   3   4
ENDBRANCH   2   3
ENDBRANCH   1   2
BRANCH   1   7
ATOM      7  C   UNL     1      -4.123  -7.543 -18.206  1.00  0.00     0.000 C 
BRANCH   7   8
ATOM      8  C   UNL     1      -2.601  -7.349 -18.270  1.00  0.00    -0.000 C 
BRANCH   8   9
ATOM      9  C   UNL     1      -2.061  -6.518 -17.096  1.00  0.00    -0.003 C 
ATOM     10  C   UNL     1      -1.120  -7.314 -16.192  1.00  0.00     0.004 C 
ENDBRANCH   8   9
ENDBRANCH   7   8
ENDBRANCH   1   7
TORSDOF 6
ENDMDL
MODEL 8
REMARK VINA RESULT:    -3.584     15.748     17.346
REMARK INTER + INTRA:          -5.047
REMARK INTER:                  -4.460
REMARK INTRA:                  -0.587
REMARK UNBOUND:                -0.205
REMARK SMILES CCCCCCCC(=O)[O-]
REMARK SMILES IDX 5 1 6 2 7 3 8 4 9 5 10 6 4 7 3 8 2 9 1 10
REMARK H PARENT
REMARK Flexibility Score: inf
ROOT
ATOM      1  C   UNL     1      -2.733  -6.852 -17.435  1.00  0.00     0.000 C 
ENDROOT
BRANCH   1   2
ATOM      2  C   UNL     1      -4.089  -7.551 -17.621  1.00  0.00     0.006 C 
BRANCH   2   3
ATOM      3  C   UNL     1      -5.062  -7.245 -16.475  1.00  0.00     0.053 C 
BRANCH   3   4
ATOM      4  C   UNL     1      -5.399  -8.475 -15.690  1.00  0.00     0.041 C 
ATOM      5  O   UNL     1      -5.869  -8.375 -14.526  1.00  0.00    -0.550 OA
ATOM      6  O   UNL     1      -5.163  -9.731 -16.232  1.00  0.00    -0.550 OA
ENDBRANCH   3   4
ENDBRANCH   2   3
ENDBRANCH   1   2
BRANCH   1   7
ATOM      7  C   UNL     1      -1.649  -7.855 -17.027  1.00  0.00     0.000 C 
BRANCH   7   8
ATOM      8  C   UNL     1      -0.997  -7.449 -15.696  1.00  0.00    -0.000 C 
BRANCH   8   9
ATOM      9  C   UNL     1      -1.716  -8.049 -14.478  1.00  0.00    -0.003 C 
ATOM     10  C   UNL     1      -1.938  -9.555 -14.607  1.00  0.00     0.004 C 
ENDBRANCH   8   9
ENDBRANCH   7   8
ENDBRANCH   1   7
TORSDOF 6
ENDMDL
MODEL 9
REMARK VINA RESULT:    -3.561     16.502     18.135
REMARK INTER + INTRA:          -5.015
REMARK INTER:                  -4.419
REMARK INTRA:                  -0.596
REMARK UNBOUND:                -0.205
REMARK SMILES CCCCCCCC(=O)[O-]
REMARK SMILES IDX 5 1 6 2 7 3 8 4 9 5 10 6 4 7 3 8 2 9 1 10
REMARK H PARENT
REMARK Flexibility Score: inf
ROOT
ATOM      1  C   UNL     1      -4.161  -9.452 -14.806  1.00  0.00     0.000 C 
ENDROOT
BRANCH   1   2
ATOM      2  C   UNL     1      -2.638  -9.578 -14.964  1.00  0.00     0.006 C 
BRANCH   2   3
ATOM      3  C   UNL     1      -1.897  -8.328 -14.473  1.00  0.00     0.053 C 
BRANCH   3   4
ATOM      4  C   UNL     1      -1.220  -7.606 -15.598  1.00  0.00     0.041 C 
ATOM      5  O   UNL     1      -1.176  -8.120 -16.746  1.00  0.00    -0.550 OA
ATOM      6  O   UNL     1      -0.609  -6.380 -15.369  1.00  0.00    -0.550 OA
ENDBRANCH   3   4
ENDBRANCH   2   3
ENDBRANCH   1   2
BRANCH   1   7
ATOM      7  C   UNL     1      -4.822  -9.065 -16.135  1.00  0.00     0.000 C 
BRANCH   7   8
ATOM      8  C   UNL     1      -5.146  -7.564 -16.171  1.00  0.00    -0.000 C 
BRANCH   8   9
ATOM      9  C   UNL     1      -4.403  -6.826 -17.295  1.00  0.00    -0.003 C 
ATOM     10  C   UNL     1      -4.156  -7.709 -18.518  1.00  0.00     0.004 C 
ENDBRANCH   8   9
ENDBRANCH   7   8
ENDBRANCH   1   7
TORSDOF 6
ENDMDL
