MODEL 1
REMARK VINA RESULT:    -6.387      0.000      0.000
REMARK INTER + INTRA:          -8.112
REMARK INTER:                  -7.881
REMARK INTRA:                  -0.231
REMARK UNBOUND:                -0.231
REMARK SMILES O=C1c2c(O)cc(O)cc2O[C@@H](c2cc(O)c(O)c(O)c2)[C@@H]1O
REMARK SMILES IDX 12 1 22 2 2 3 1 4 3 5 4 6 6 7 7 8 9 9 10 10 11 11 13 12
REMARK SMILES IDX 14 13 15 14 21 15 17 16 19 17 16 18 18 20 20 22 23 24 5 26
REMARK SMILES IDX 8 28
REMARK H PARENT 16 19 18 21 20 23 23 25 5 27 8 29
REMARK Flexibility Score: inf
ROOT
ATOM      1  C   UNL     1      -2.747   0.424  11.043  1.00  0.00     0.240 C 
ATOM      2  C   UNL     1      -3.931   0.837  10.141  1.00  0.00     0.231 C 
ATOM      3  C   UNL     1      -5.184   0.101  10.551  1.00  0.00     0.202 C 
ATOM      4  O   UNL     1      -6.308   0.646  10.384  1.00  0.00    -0.291 OA
ATOM      5  C   UNL     1      -5.077  -1.287  11.066  1.00  0.00     0.105 A 
ATOM      6  C   UNL     1      -6.206  -2.110  11.280  1.00  0.00     0.133 A 
ATOM      7  C   UNL     1      -6.029  -3.432  11.716  1.00  0.00     0.093 A 
ATOM      8  C   UNL     1      -4.747  -3.943  11.934  1.00  0.00     0.123 A 
ATOM      9  C   UNL     1      -3.629  -3.129  11.725  1.00  0.00     0.093 A 
ATOM     10  C   UNL     1      -3.790  -1.805  11.310  1.00  0.00     0.138 A 
ATOM     11  O   UNL     1      -2.659  -1.000  11.132  1.00  0.00    -0.481 OA
ENDROOT
BRANCH   1  12
ATOM     12  C   UNL     1      -1.446   0.986  10.521  1.00  0.00     0.003 A 
ATOM     13  C   UNL     1      -1.015   2.260  10.922  1.00  0.00     0.058 A 
ATOM     14  C   UNL     1       0.176   2.801  10.417  1.00  0.00     0.161 A 
ATOM     15  C   UNL     1      -0.680   0.265   9.589  1.00  0.00     0.058 A 
ATOM     16  C   UNL     1       0.943   2.066   9.496  1.00  0.00     0.200 A 
ATOM     17  C   UNL     1       0.511   0.801   9.082  1.00  0.00     0.161 A 
BRANCH  14  18
ATOM     18  O   UNL     1       0.600   4.064  10.827  1.00  0.00    -0.504 OA
ATOM     19  H   UNL     1       1.175   4.189  11.652  1.00  0.00     0.293 HD
ENDBRANCH  14  18
BRANCH  16  20
ATOM     20  O   UNL     1       2.134   2.582   8.982  1.00  0.00    -0.502 OA
ATOM     21  H   UNL     1       2.372   3.564   9.056  1.00  0.00     0.293 HD
ENDBRANCH  16  20
BRANCH  17  22
ATOM     22  O   UNL     1       1.272   0.078   8.163  1.00  0.00    -0.504 OA
ATOM     23  H   UNL     1       0.838  -0.475   7.434  1.00  0.00     0.293 HD
ENDBRANCH  17  22
ENDBRANCH   1  12
BRANCH   2  24
ATOM     24  O   UNL     1      -4.127   2.230  10.176  1.00  0.00    -0.381 OA
ATOM     25  H   UNL     1      -4.364   2.477  11.109  1.00  0.00     0.211 HD
ENDBRANCH   2  24
BRANCH   6  26
ATOM     26  O   UNL     1      -7.493  -1.626  11.053  1.00  0.00    -0.507 OA
ATOM     27  H   UNL     1      -8.271  -1.883  11.649  1.00  0.00     0.293 HD
ENDBRANCH   6  26
BRANCH   8  28
ATOM     28  O   UNL     1      -4.596  -5.262  12.358  1.00  0.00    -0.508 OA
ATOM     29  H   UNL     1      -3.697  -5.727  12.330  1.00  0.00     0.293 HD
ENDBRANCH   8  28
TORSDOF 7
ENDMDL
MODEL 2
REMARK VINA RESULT:    -6.258      0.154      1.754
REMARK INTER + INTRA:          -7.953
REMARK INTER:                  -7.723
REMARK INTRA:                  -0.230
REMARK UNBOUND:                -0.231
REMARK SMILES O=C1c2c(O)cc(O)cc2O[C@@H](c2cc(O)c(O)c(O)c2)[C@@H]1O
REMARK SMILES IDX 12 1 22 2 2 3 1 4 3 5 4 6 6 7 7 8 9 9 10 10 11 11 13 12
REMARK SMILES IDX 14 13 15 14 21 15 17 16 19 17 16 18 18 20 20 22 23 24 5 26
REMARK SMILES IDX 8 28
REMARK H PARENT 16 19 18 21 20 23 23 25 5 27 8 29
REMARK Flexibility Score: inf
ROOT
ATOM      1  C   UNL     1      -2.857   0.455  11.035  1.00  0.00     0.240 C 
ATOM      2  C   UNL     1      -4.038   0.837  10.114  1.00  0.00     0.231 C 
ATOM      3  C   UNL     1      -5.275   0.062  10.499  1.00  0.00     0.202 C 
ATOM      4  O   UNL     1      -6.412   0.575  10.315  1.00  0.00    -0.291 OA
ATOM      5  C   UNL     1      -5.136  -1.324  11.010  1.00  0.00     0.105 A 
ATOM      6  C   UNL     1      -6.243  -2.181  11.201  1.00  0.00     0.133 A 
ATOM      7  C   UNL     1      -6.035  -3.499  11.635  1.00  0.00     0.093 A 
ATOM      8  C   UNL     1      -4.743  -3.973  11.873  1.00  0.00     0.123 A 
ATOM      9  C   UNL     1      -3.645  -3.125  11.687  1.00  0.00     0.093 A 
ATOM     10  C   UNL     1      -3.838  -1.804  11.274  1.00  0.00     0.138 A 
ATOM     11  O   UNL     1      -2.729  -0.966  11.118  1.00  0.00    -0.481 OA
ENDROOT
BRANCH   1  12
ATOM     12  C   UNL     1      -1.565   1.058  10.536  1.00  0.00     0.003 A 
ATOM     13  C   UNL     1      -0.713   0.313   9.705  1.00  0.00     0.058 A 
ATOM     14  C   UNL     1       0.503   0.855   9.263  1.00  0.00     0.161 A 
ATOM     15  C   UNL     1      -1.175   2.345  10.940  1.00  0.00     0.058 A 
ATOM     16  C   UNL     1       0.877   2.150   9.661  1.00  0.00     0.200 A 
ATOM     17  C   UNL     1       0.038   2.891  10.501  1.00  0.00     0.161 A 
BRANCH  14  18
ATOM     18  O   UNL     1       1.338   0.111   8.432  1.00  0.00    -0.504 OA
ATOM     19  H   UNL     1       1.010  -0.269   7.552  1.00  0.00     0.293 HD
ENDBRANCH  14  18
BRANCH  16  20
ATOM     20  O   UNL     1       2.081   2.711   9.232  1.00  0.00    -0.502 OA
ATOM     21  H   UNL     1       2.844   2.903   9.870  1.00  0.00     0.293 HD
ENDBRANCH  16  20
BRANCH  17  22
ATOM     22  O   UNL     1       0.417   4.173  10.899  1.00  0.00    -0.504 OA
ATOM     23  H   UNL     1       0.942   4.786  10.286  1.00  0.00     0.293 HD
ENDBRANCH  17  22
ENDBRANCH   1  12
BRANCH   2  24
ATOM     24  O   UNL     1      -4.276   2.224  10.150  1.00  0.00    -0.381 OA
ATOM     25  H   UNL     1      -3.510   2.647  10.623  1.00  0.00     0.211 HD
ENDBRANCH   2  24
BRANCH   6  26
ATOM     26  O   UNL     1      -7.540  -1.734  10.955  1.00  0.00    -0.507 OA
ATOM     27  H   UNL     1      -7.726  -0.789  10.638  1.00  0.00     0.293 HD
ENDBRANCH   6  26
BRANCH   8  28
ATOM     28  O   UNL     1      -4.560  -5.288  12.294  1.00  0.00    -0.508 OA
ATOM     29  H   UNL     1      -5.163  -6.036  11.974  1.00  0.00     0.293 HD
ENDBRANCH   8  28
TORSDOF 7
ENDMDL
MODEL 3
REMARK VINA RESULT:    -6.216      1.525      6.757
REMARK INTER + INTRA:          -7.900
REMARK INTER:                  -7.563
REMARK INTRA:                  -0.338
REMARK UNBOUND:                -0.231
REMARK SMILES O=C1c2c(O)cc(O)cc2O[C@@H](c2cc(O)c(O)c(O)c2)[C@@H]1O
REMARK SMILES IDX 12 1 22 2 2 3 1 4 3 5 4 6 6 7 7 8 9 9 10 10 11 11 13 12
REMARK SMILES IDX 14 13 15 14 21 15 17 16 19 17 16 18 18 20 20 22 23 24 5 26
REMARK SMILES IDX 8 28
REMARK H PARENT 16 19 18 21 20 23 23 25 5 27 8 29
REMARK Flexibility Score: inf
ROOT
ATOM      1  C   UNL     1      -3.650  -0.127  10.895  1.00  0.00     0.240 C 
ATOM      2  C   UNL     1      -4.116   0.796  12.042  1.00  0.00     0.231 C 
ATOM      3  C   UNL     1      -3.590   2.196  11.835  1.00  0.00     0.202 C 
ATOM      4  O   UNL     1      -4.254   3.180  12.262  1.00  0.00    -0.291 OA
ATOM      5  C   UNL     1      -2.259   2.388  11.207  1.00  0.00     0.105 A 
ATOM      6  C   UNL     1      -1.612   3.643  11.160  1.00  0.00     0.133 A 
ATOM      7  C   UNL     1      -0.329   3.743  10.600  1.00  0.00     0.093 A 
ATOM      8  C   UNL     1       0.316   2.611  10.094  1.00  0.00     0.123 A 
ATOM      9  C   UNL     1      -0.325   1.368  10.138  1.00  0.00     0.093 A 
ATOM     10  C   UNL     1      -1.610   1.256  10.675  1.00  0.00     0.138 A 
ATOM     11  O   UNL     1      -2.243   0.009  10.685  1.00  0.00    -0.481 OA
ENDROOT
BRANCH   1  12
ATOM     12  C   UNL     1      -3.987  -1.570  11.190  1.00  0.00     0.003 A 
ATOM     13  C   UNL     1      -3.158  -2.331  12.029  1.00  0.00     0.058 A 
ATOM     14  C   UNL     1      -3.447  -3.679  12.283  1.00  0.00     0.161 A 
ATOM     15  C   UNL     1      -5.100  -2.180  10.589  1.00  0.00     0.058 A 
ATOM     16  C   UNL     1      -4.572  -4.278  11.689  1.00  0.00     0.200 A 
ATOM     17  C   UNL     1      -5.394  -3.527  10.840  1.00  0.00     0.161 A 
BRANCH  14  18
ATOM     18  O   UNL     1      -2.622  -4.425  13.124  1.00  0.00    -0.504 OA
ATOM     19  H   UNL     1      -2.271  -5.335  12.852  1.00  0.00     0.293 HD
ENDBRANCH  14  18
BRANCH  16  20
ATOM     20  O   UNL     1      -4.882  -5.617  11.930  1.00  0.00    -0.502 OA
ATOM     21  H   UNL     1      -5.457  -5.905  12.712  1.00  0.00     0.293 HD
ENDBRANCH  16  20
BRANCH  17  22
ATOM     22  O   UNL     1      -6.505  -4.127  10.247  1.00  0.00    -0.504 OA
ATOM     23  H   UNL     1      -7.044  -3.654   9.532  1.00  0.00     0.293 HD
ENDBRANCH  17  22
ENDBRANCH   1  12
BRANCH   2  24
ATOM     24  O   UNL     1      -5.519   0.793  12.152  1.00  0.00    -0.381 OA
ATOM     25  H   UNL     1      -5.745   0.815  13.119  1.00  0.00     0.211 HD
ENDBRANCH   2  24
BRANCH   6  26
ATOM     26  O   UNL     1      -2.230   4.782  11.672  1.00  0.00    -0.507 OA
ATOM     27  H   UNL     1      -2.733   5.429  11.076  1.00  0.00     0.293 HD
ENDBRANCH   6  26
BRANCH   8  28
ATOM     28  O   UNL     1       1.593   2.733   9.552  1.00  0.00    -0.508 OA
ATOM     29  H   UNL     1       1.900   3.589   9.107  1.00  0.00     0.293 HD
ENDBRANCH   8  28
TORSDOF 7
ENDMDL
MODEL 4
REMARK VINA RESULT:    -5.949      1.878      7.759
REMARK INTER + INTRA:          -7.571
REMARK INTER:                  -7.214
REMARK INTRA:                  -0.357
REMARK UNBOUND:                -0.231
REMARK SMILES O=C1c2c(O)cc(O)cc2O[C@@H](c2cc(O)c(O)c(O)c2)[C@@H]1O
REMARK SMILES IDX 12 1 22 2 2 3 1 4 3 5 4 6 6 7 7 8 9 9 10 10 11 11 13 12
REMARK SMILES IDX 14 13 15 14 21 15 17 16 19 17 16 18 18 20 20 22 23 24 5 26
REMARK SMILES IDX 8 28
REMARK H PARENT 16 19 18 21 20 23 23 25 5 27 8 29
REMARK Flexibility Score: inf
ROOT
ATOM      1  C   UNL     1      -1.167   1.311  10.779  1.00  0.00     0.240 C 
ATOM      2  C   UNL     1      -0.347   0.595   9.683  1.00  0.00     0.231 C 
ATOM      3  C   UNL     1       0.962   1.313   9.455  1.00  0.00     0.202 C 
ATOM      4  O   UNL     1       1.973   0.659   9.081  1.00  0.00    -0.291 OA
ATOM      5  C   UNL     1       1.016   2.789   9.593  1.00  0.00     0.105 A 
ATOM      6  C   UNL     1       2.141   3.551   9.204  1.00  0.00     0.133 A 
ATOM      7  C   UNL     1       2.104   4.949   9.311  1.00  0.00     0.093 A 
ATOM      8  C   UNL     1       0.962   5.596   9.791  1.00  0.00     0.123 A 
ATOM      9  C   UNL     1      -0.152   4.843  10.178  1.00  0.00     0.093 A 
ATOM     10  C   UNL     1      -0.123   3.448  10.096  1.00  0.00     0.138 A 
ATOM     11  O   UNL     1      -1.238   2.713  10.513  1.00  0.00    -0.481 OA
ENDROOT
BRANCH   1  12
ATOM     12  C   UNL     1      -2.561   0.737  10.874  1.00  0.00     0.003 A 
ATOM     13  C   UNL     1      -3.538   1.094   9.932  1.00  0.00     0.058 A 
ATOM     14  C   UNL     1      -4.842   0.589  10.031  1.00  0.00     0.161 A 
ATOM     15  C   UNL     1      -2.910  -0.117  11.933  1.00  0.00     0.058 A 
ATOM     16  C   UNL     1      -5.178  -0.277  11.087  1.00  0.00     0.200 A 
ATOM     17  C   UNL     1      -4.212  -0.625  12.037  1.00  0.00     0.161 A 
BRANCH  14  18
ATOM     18  O   UNL     1      -5.803   0.943   9.086  1.00  0.00    -0.504 OA
ATOM     19  H   UNL     1      -5.667   0.766   8.098  1.00  0.00     0.293 HD
ENDBRANCH  14  18
BRANCH  16  20
ATOM     20  O   UNL     1      -6.469  -0.795  11.205  1.00  0.00    -0.502 OA
ATOM     21  H   UNL     1      -7.075  -0.921  10.403  1.00  0.00     0.293 HD
ENDBRANCH  16  20
BRANCH  17  22
ATOM     22  O   UNL     1      -4.552  -1.479  13.087  1.00  0.00    -0.504 OA
ATOM     23  H   UNL     1      -4.251  -1.298  14.037  1.00  0.00     0.293 HD
ENDBRANCH  17  22
ENDBRANCH   1  12
BRANCH   2  24
ATOM     24  O   UNL     1      -0.133  -0.755  10.017  1.00  0.00    -0.381 OA
ATOM     25  H   UNL     1       0.818  -0.851  10.287  1.00  0.00     0.211 HD
ENDBRANCH   2  24
BRANCH   6  26
ATOM     26  O   UNL     1       3.285   2.928   8.708  1.00  0.00    -0.507 OA
ATOM     27  H   UNL     1       3.624   3.109   7.770  1.00  0.00     0.293 HD
ENDBRANCH   6  26
BRANCH   8  28
ATOM     28  O   UNL     1       0.944   6.986   9.878  1.00  0.00    -0.508 OA
ATOM     29  H   UNL     1       1.573   7.486  10.495  1.00  0.00     0.293 HD
ENDBRANCH   8  28
TORSDOF 7
ENDMDL
MODEL 5
REMARK VINA RESULT:    -5.932      1.920      7.743
REMARK INTER + INTRA:          -7.551
REMARK INTER:                  -7.184
REMARK INTRA:                  -0.366
REMARK UNBOUND:                -0.231
REMARK SMILES O=C1c2c(O)cc(O)cc2O[C@@H](c2cc(O)c(O)c(O)c2)[C@@H]1O
REMARK SMILES IDX 12 1 22 2 2 3 1 4 3 5 4 6 6 7 7 8 9 9 10 10 11 11 13 12
REMARK SMILES IDX 14 13 15 14 21 15 17 16 19 17 16 18 18 20 20 22 23 24 5 26
REMARK SMILES IDX 8 28
REMARK H PARENT 16 19 18 21 20 23 23 25 5 27 8 29
REMARK Flexibility Score: inf
ROOT
ATOM      1  C   UNL     1      -1.267   1.377  10.791  1.00  0.00     0.240 C 
ATOM      2  C   UNL     1      -0.441   0.645   9.711  1.00  0.00     0.231 C 
ATOM      3  C   UNL     1       0.878   1.347   9.494  1.00  0.00     0.202 C 
ATOM      4  O   UNL     1       1.887   0.679   9.138  1.00  0.00    -0.291 OA
ATOM      5  C   UNL     1       0.947   2.823   9.623  1.00  0.00     0.105 A 
ATOM      6  C   UNL     1       2.086   3.569   9.244  1.00  0.00     0.133 A 
ATOM      7  C   UNL     1       2.063   4.969   9.341  1.00  0.00     0.093 A 
ATOM      8  C   UNL     1       0.922   5.631   9.802  1.00  0.00     0.123 A 
ATOM      9  C   UNL     1      -0.205   4.893  10.180  1.00  0.00     0.093 A 
ATOM     10  C   UNL     1      -0.190   3.498  10.108  1.00  0.00     0.138 A 
ATOM     11  O   UNL     1      -1.319   2.779  10.515  1.00  0.00    -0.481 OA
ENDROOT
BRANCH   1  12
ATOM     12  C   UNL     1      -2.668   0.819  10.872  1.00  0.00     0.003 A 
ATOM     13  C   UNL     1      -3.050   0.023  11.964  1.00  0.00     0.058 A 
ATOM     14  C   UNL     1      -4.339  -0.523  12.031  1.00  0.00     0.161 A 
ATOM     15  C   UNL     1      -3.587   1.044   9.835  1.00  0.00     0.058 A 
ATOM     16  C   UNL     1      -5.257  -0.280  10.995  1.00  0.00     0.200 A 
ATOM     17  C   UNL     1      -4.878   0.501   9.897  1.00  0.00     0.161 A 
BRANCH  14  18
ATOM     18  O   UNL     1      -4.710  -1.306  13.124  1.00  0.00    -0.504 OA
ATOM     19  H   UNL     1      -5.298  -0.940  13.863  1.00  0.00     0.293 HD
ENDBRANCH  14  18
BRANCH  16  20
ATOM     20  O   UNL     1      -6.547  -0.811  11.041  1.00  0.00    -0.502 OA
ATOM     21  H   UNL     1      -7.132  -0.735  11.865  1.00  0.00     0.293 HD
ENDBRANCH  16  20
BRANCH  17  22
ATOM     22  O   UNL     1      -5.789   0.734   8.867  1.00  0.00    -0.504 OA
ATOM     23  H   UNL     1      -5.927   1.659   8.480  1.00  0.00     0.293 HD
ENDBRANCH  17  22
ENDBRANCH   1  12
BRANCH   2  24
ATOM     24  O   UNL     1      -0.247  -0.706  10.056  1.00  0.00    -0.381 OA
ATOM     25  H   UNL     1       0.608  -0.767  10.558  1.00  0.00     0.211 HD
ENDBRANCH   2  24
BRANCH   6  26
ATOM     26  O   UNL     1       3.229   2.931   8.766  1.00  0.00    -0.507 OA
ATOM     27  H   UNL     1       3.804   2.350   9.365  1.00  0.00     0.293 HD
ENDBRANCH   6  26
BRANCH   8  28
ATOM     28  O   UNL     1       0.919   7.022   9.880  1.00  0.00    -0.508 OA
ATOM     29  H   UNL     1       1.778   7.549   9.974  1.00  0.00     0.293 HD
ENDBRANCH   8  28
TORSDOF 7
ENDMDL
MODEL 6
REMARK VINA RESULT:    -5.789      1.300      6.917
REMARK INTER + INTRA:          -7.374
REMARK INTER:                  -7.016
REMARK INTRA:                  -0.358
REMARK UNBOUND:                -0.231
REMARK SMILES O=C1c2c(O)cc(O)cc2O[C@@H](c2cc(O)c(O)c(O)c2)[C@@H]1O
REMARK SMILES IDX 12 1 22 2 2 3 1 4 3 5 4 6 6 7 7 8 9 9 10 10 11 11 13 12
REMARK SMILES IDX 14 13 15 14 21 15 17 16 19 17 16 18 18 20 20 22 23 24 5 26
REMARK SMILES IDX 8 28
REMARK H PARENT 16 19 18 21 20 23 23 25 5 27 8 29
REMARK Flexibility Score: inf
ROOT
ATOM      1  C   UNL     1      -2.999  -0.192  10.690  1.00  0.00     0.240 C 
ATOM      2  C   UNL     1      -3.024   0.785  11.887  1.00  0.00     0.231 C 
ATOM      3  C   UNL     1      -2.231   2.029  11.566  1.00  0.00     0.202 C 
ATOM      4  O   UNL     1      -2.560   3.128  12.089  1.00  0.00    -0.291 OA
ATOM      5  C   UNL     1      -1.026   1.922  10.707  1.00  0.00     0.105 A 
ATOM      6  C   UNL     1      -0.122   2.992  10.524  1.00  0.00     0.133 A 
ATOM      7  C   UNL     1       1.027   2.806   9.741  1.00  0.00     0.093 A 
ATOM      8  C   UNL     1       1.290   1.568   9.147  1.00  0.00     0.123 A 
ATOM      9  C   UNL     1       0.394   0.508   9.325  1.00  0.00     0.093 A 
ATOM     10  C   UNL     1      -0.764   0.684  10.086  1.00  0.00     0.138 A 
ATOM     11  O   UNL     1      -1.659  -0.381  10.230  1.00  0.00    -0.481 OA
ENDROOT
BRANCH   1  12
ATOM     12  C   UNL     1      -3.605  -1.523  11.065  1.00  0.00     0.003 A 
ATOM     13  C   UNL     1      -4.887  -1.869  10.608  1.00  0.00     0.058 A 
ATOM     14  C   UNL     1      -5.468  -3.091  10.977  1.00  0.00     0.161 A 
ATOM     15  C   UNL     1      -2.919  -2.406  11.915  1.00  0.00     0.058 A 
ATOM     16  C   UNL     1      -4.768  -3.974  11.816  1.00  0.00     0.200 A 
ATOM     17  C   UNL     1      -3.495  -3.629  12.286  1.00  0.00     0.161 A 
BRANCH  14  18
ATOM     18  O   UNL     1      -6.738  -3.429  10.512  1.00  0.00    -0.504 OA
ATOM     19  H   UNL     1      -6.922  -3.570   9.525  1.00  0.00     0.293 HD
ENDBRANCH  14  18
BRANCH  16  20
ATOM     20  O   UNL     1      -5.325  -5.197  12.194  1.00  0.00    -0.502 OA
ATOM     21  H   UNL     1      -6.323  -5.319  12.317  1.00  0.00     0.293 HD
ENDBRANCH  16  20
BRANCH  17  22
ATOM     22  O   UNL     1      -2.807  -4.505  13.124  1.00  0.00    -0.504 OA
ATOM     23  H   UNL     1      -1.822  -4.701  12.993  1.00  0.00     0.293 HD
ENDBRANCH  17  22
ENDBRANCH   1  12
BRANCH   2  24
ATOM     24  O   UNL     1      -4.347   1.105  12.246  1.00  0.00    -0.381 OA
ATOM     25  H   UNL     1      -4.859   1.247  11.407  1.00  0.00     0.211 HD
ENDBRANCH   2  24
BRANCH   6  26
ATOM     26  O   UNL     1      -0.355   4.230  11.120  1.00  0.00    -0.507 OA
ATOM     27  H   UNL     1      -0.489   4.323  12.121  1.00  0.00     0.293 HD
ENDBRANCH   6  26
BRANCH   8  28
ATOM     28  O   UNL     1       2.442   1.403   8.383  1.00  0.00    -0.508 OA
ATOM     29  H   UNL     1       2.777   2.132   7.765  1.00  0.00     0.293 HD
ENDBRANCH   8  28
TORSDOF 7
ENDMDL
MODEL 7
REMARK VINA RESULT:    -5.681      1.414      1.799
REMARK INTER + INTRA:          -7.240
REMARK INTER:                  -6.873
REMARK INTRA:                  -0.368
REMARK UNBOUND:                -0.231
REMARK SMILES O=C1c2c(O)cc(O)cc2O[C@@H](c2cc(O)c(O)c(O)c2)[C@@H]1O
REMARK SMILES IDX 12 1 22 2 2 3 1 4 3 5 4 6 6 7 7 8 9 9 10 10 11 11 13 12
REMARK SMILES IDX 14 13 15 14 21 15 17 16 19 17 16 18 18 20 20 22 23 24 5 26
REMARK SMILES IDX 8 28
REMARK H PARENT 16 19 18 21 20 23 23 25 5 27 8 29
REMARK Flexibility Score: inf
ROOT
ATOM      1  C   UNL     1      -4.479   0.330  11.071  1.00  0.00     0.240 C 
ATOM      2  C   UNL     1      -5.433   0.216   9.861  1.00  0.00     0.231 C 
ATOM      3  C   UNL     1      -6.498  -0.820  10.129  1.00  0.00     0.202 C 
ATOM      4  O   UNL     1      -7.637  -0.691   9.603  1.00  0.00    -0.291 OA
ATOM      5  C   UNL     1      -6.163  -2.017  10.939  1.00  0.00     0.105 A 
ATOM      6  C   UNL     1      -7.035  -3.120  11.067  1.00  0.00     0.133 A 
ATOM      7  C   UNL     1      -6.631  -4.244  11.804  1.00  0.00     0.093 A 
ATOM      8  C   UNL     1      -5.371  -4.284  12.407  1.00  0.00     0.123 A 
ATOM      9  C   UNL     1      -4.507  -3.191  12.283  1.00  0.00     0.093 A 
ATOM     10  C   UNL     1      -4.902  -2.057  11.569  1.00  0.00     0.138 A 
ATOM     11  O   UNL     1      -4.033  -0.965  11.479  1.00  0.00    -0.481 OA
ENDROOT
BRANCH   1  12
ATOM     12  C   UNL     1      -3.291   1.202  10.744  1.00  0.00     0.003 A 
ATOM     13  C   UNL     1      -3.183   2.488  11.297  1.00  0.00     0.058 A 
ATOM     14  C   UNL     1      -2.098   3.315  10.974  1.00  0.00     0.161 A 
ATOM     15  C   UNL     1      -2.308   0.760   9.843  1.00  0.00     0.058 A 
ATOM     16  C   UNL     1      -1.112   2.858  10.082  1.00  0.00     0.200 A 
ATOM     17  C   UNL     1      -1.221   1.582   9.516  1.00  0.00     0.161 A 
BRANCH  14  18
ATOM     18  O   UNL     1      -1.997   4.587  11.535  1.00  0.00    -0.504 OA
ATOM     19  H   UNL     1      -2.706   5.294  11.378  1.00  0.00     0.293 HD
ENDBRANCH  14  18
BRANCH  16  20
ATOM     20  O   UNL     1      -0.021   3.662   9.747  1.00  0.00    -0.502 OA
ATOM     21  H   UNL     1       0.596   3.439   8.976  1.00  0.00     0.293 HD
ENDBRANCH  16  20
BRANCH  17  22
ATOM     22  O   UNL     1      -0.244   1.136   8.626  1.00  0.00    -0.504 OA
ATOM     23  H   UNL     1      -0.191   1.486   7.678  1.00  0.00     0.293 HD
ENDBRANCH  17  22
ENDBRANCH   1  12
BRANCH   2  24
ATOM     24  O   UNL     1      -6.005   1.464   9.552  1.00  0.00    -0.381 OA
ATOM     25  H   UNL     1      -5.401   1.919   8.908  1.00  0.00     0.211 HD
ENDBRANCH   2  24
BRANCH   6  26
ATOM     26  O   UNL     1      -8.291  -3.109  10.462  1.00  0.00    -0.507 OA
ATOM     27  H   UNL     1      -8.716  -3.956  10.102  1.00  0.00     0.293 HD
ENDBRANCH   6  26
BRANCH   8  28
ATOM     28  O   UNL     1      -4.988  -5.414  13.125  1.00  0.00    -0.508 OA
ATOM     29  H   UNL     1      -4.019  -5.588  13.361  1.00  0.00     0.293 HD
ENDBRANCH   8  28
TORSDOF 7
ENDMDL
MODEL 8
REMARK VINA RESULT:    -5.347      2.033      2.993
REMARK INTER + INTRA:          -6.828
REMARK INTER:                  -6.450
REMARK INTRA:                  -0.379
REMARK UNBOUND:                -0.231
REMARK SMILES O=C1c2c(O)cc(O)cc2O[C@@H](c2cc(O)c(O)c(O)c2)[C@@H]1O
REMARK SMILES IDX 12 1 22 2 2 3 1 4 3 5 4 6 6 7 7 8 9 9 10 10 11 11 13 12
REMARK SMILES IDX 14 13 15 14 21 15 17 16 19 17 16 18 18 20 20 22 23 24 5 26
REMARK SMILES IDX 8 28
REMARK H PARENT 16 19 18 21 20 23 23 25 5 27 8 29
REMARK Flexibility Score: inf
ROOT
ATOM      1  C   UNL     1      -3.075   0.200  10.476  1.00  0.00     0.240 C 
ATOM      2  C   UNL     1      -3.662   0.479  11.878  1.00  0.00     0.231 C 
ATOM      3  C   UNL     1      -5.040  -0.126  11.999  1.00  0.00     0.202 C 
ATOM      4  O   UNL     1      -5.449  -0.521  13.125  1.00  0.00    -0.291 OA
ATOM      5  C   UNL     1      -5.923  -0.170  10.808  1.00  0.00     0.105 A 
ATOM      6  C   UNL     1      -7.287  -0.532  10.883  1.00  0.00     0.133 A 
ATOM      7  C   UNL     1      -8.079  -0.499   9.725  1.00  0.00     0.093 A 
ATOM      8  C   UNL     1      -7.533  -0.104   8.501  1.00  0.00     0.123 A 
ATOM      9  C   UNL     1      -6.182   0.253   8.425  1.00  0.00     0.093 A 
ATOM     10  C   UNL     1      -5.376   0.206   9.565  1.00  0.00     0.138 A 
ATOM     11  O   UNL     1      -4.022   0.542   9.462  1.00  0.00    -0.481 OA
ENDROOT
BRANCH   1  12
ATOM     12  C   UNL     1      -1.794   0.972  10.262  1.00  0.00     0.003 A 
ATOM     13  C   UNL     1      -1.775   2.366  10.420  1.00  0.00     0.058 A 
ATOM     14  C   UNL     1      -0.597   3.092  10.193  1.00  0.00     0.161 A 
ATOM     15  C   UNL     1      -0.624   0.312   9.852  1.00  0.00     0.058 A 
ATOM     16  C   UNL     1       0.573   2.421   9.797  1.00  0.00     0.200 A 
ATOM     17  C   UNL     1       0.556   1.033   9.624  1.00  0.00     0.161 A 
BRANCH  14  18
ATOM     18  O   UNL     1      -0.585   4.476  10.361  1.00  0.00    -0.504 OA
ATOM     19  H   UNL     1      -1.064   5.093   9.714  1.00  0.00     0.293 HD
ENDBRANCH  14  18
BRANCH  16  20
ATOM     20  O   UNL     1       1.758   3.122   9.569  1.00  0.00    -0.502 OA
ATOM     21  H   UNL     1       1.827   3.851   8.868  1.00  0.00     0.293 HD
ENDBRANCH  16  20
BRANCH  17  22
ATOM     22  O   UNL     1       1.717   0.372   9.224  1.00  0.00    -0.504 OA
ATOM     23  H   UNL     1       2.332   0.760   8.519  1.00  0.00     0.293 HD
ENDBRANCH  17  22
ENDBRANCH   1  12
BRANCH   2  24
ATOM     24  O   UNL     1      -2.806  -0.002  12.886  1.00  0.00    -0.381 OA
ATOM     25  H   UNL     1      -3.337  -0.070  13.723  1.00  0.00     0.211 HD
ENDBRANCH   2  24
BRANCH   6  26
ATOM     26  O   UNL     1      -7.856  -0.914  12.096  1.00  0.00    -0.507 OA
ATOM     27  H   UNL     1      -7.453  -0.638  12.984  1.00  0.00     0.293 HD
ENDBRANCH   6  26
BRANCH   8  28
ATOM     28  O   UNL     1      -8.341  -0.069   7.367  1.00  0.00    -0.508 OA
ATOM     29  H   UNL     1      -7.959   0.123   6.449  1.00  0.00     0.293 HD
ENDBRANCH   8  28
TORSDOF 7
ENDMDL
MODEL 9
REMARK VINA RESULT:    -5.304      1.582      6.972
REMARK INTER + INTRA:          -6.776
REMARK INTER:                  -6.556
REMARK INTRA:                  -0.220
REMARK UNBOUND:                -0.231
REMARK SMILES O=C1c2c(O)cc(O)cc2O[C@@H](c2cc(O)c(O)c(O)c2)[C@@H]1O
REMARK SMILES IDX 12 1 22 2 2 3 1 4 3 5 4 6 6 7 7 8 9 9 10 10 11 11 13 12
REMARK SMILES IDX 14 13 15 14 21 15 17 16 19 17 16 18 18 20 20 22 23 24 5 26
REMARK SMILES IDX 8 28
REMARK H PARENT 16 19 18 21 20 23 23 25 5 27 8 29
REMARK Flexibility Score: inf
ROOT
ATOM      1  C   UNL     1      -2.139   0.967   9.961  1.00  0.00     0.240 C 
ATOM      2  C   UNL     1      -1.615   2.213  10.709  1.00  0.00     0.231 C 
ATOM      3  C   UNL     1      -0.328   2.696  10.085  1.00  0.00     0.202 C 
ATOM      4  O   UNL     1      -0.041   3.924  10.123  1.00  0.00    -0.291 OA
ATOM      5  C   UNL     1       0.619   1.709   9.510  1.00  0.00     0.105 A 
ATOM      6  C   UNL     1       1.923   2.056   9.092  1.00  0.00     0.133 A 
ATOM      7  C   UNL     1       2.786   1.061   8.608  1.00  0.00     0.093 A 
ATOM      8  C   UNL     1       2.370  -0.271   8.544  1.00  0.00     0.123 A 
ATOM      9  C   UNL     1       1.078  -0.617   8.956  1.00  0.00     0.093 A 
ATOM     10  C   UNL     1       0.200   0.366   9.421  1.00  0.00     0.138 A 
ATOM     11  O   UNL     1      -1.095   0.003   9.803  1.00  0.00    -0.481 OA
ENDROOT
BRANCH   1  12
ATOM     12  C   UNL     1      -3.304   0.346  10.694  1.00  0.00     0.003 A 
ATOM     13  C   UNL     1      -3.093  -0.723  11.580  1.00  0.00     0.058 A 
ATOM     14  C   UNL     1      -4.173  -1.325  12.240  1.00  0.00     0.161 A 
ATOM     15  C   UNL     1      -4.615   0.792  10.459  1.00  0.00     0.058 A 
ATOM     16  C   UNL     1      -5.480  -0.861  12.010  1.00  0.00     0.200 A 
ATOM     17  C   UNL     1      -5.698   0.194  11.117  1.00  0.00     0.161 A 
BRANCH  14  18
ATOM     18  O   UNL     1      -3.952  -2.380  13.124  1.00  0.00    -0.504 OA
ATOM     19  H   UNL     1      -4.488  -2.478  13.978  1.00  0.00     0.293 HD
ENDBRANCH  14  18
BRANCH  16  20
ATOM     20  O   UNL     1      -6.571  -1.443  12.659  1.00  0.00    -0.502 OA
ATOM     21  H   UNL     1      -7.519  -1.338  12.318  1.00  0.00     0.293 HD
ENDBRANCH  16  20
BRANCH  17  22
ATOM     22  O   UNL     1      -6.998   0.646  10.886  1.00  0.00    -0.504 OA
ATOM     23  H   UNL     1      -7.695   0.655  11.621  1.00  0.00     0.293 HD
ENDBRANCH  17  22
ENDBRANCH   1  12
BRANCH   2  24
ATOM     24  O   UNL     1      -2.584   3.233  10.728  1.00  0.00    -0.381 OA
ATOM     25  H   UNL     1      -2.434   3.803   9.929  1.00  0.00     0.211 HD
ENDBRANCH   2  24
BRANCH   6  26
ATOM     26  O   UNL     1       2.365   3.376   9.162  1.00  0.00    -0.507 OA
ATOM     27  H   UNL     1       2.168   4.043   8.425  1.00  0.00     0.293 HD
ENDBRANCH   6  26
BRANCH   8  28
ATOM     28  O   UNL     1       3.247  -1.244   8.071  1.00  0.00    -0.508 OA
ATOM     29  H   UNL     1       3.006  -1.839   7.288  1.00  0.00     0.293 HD
ENDBRANCH   8  28
TORSDOF 7
ENDMDL
