MODEL 1
REMARK VINA RESULT:    -7.517      0.000      0.000
REMARK INTER + INTRA:          -9.103
REMARK INTER:                  -8.836
REMARK INTRA:                  -0.267
REMARK UNBOUND:                -0.267
REMARK SMILES O=c1c(O)c(-c2ccc(O)c(O)c2)oc2cc(O)ccc12
REMARK SMILES IDX 5 1 3 2 2 3 1 4 21 5 15 6 14 7 16 8 17 9 19 10 20 11 6 12
REMARK SMILES IDX 7 13 8 14 9 15 13 16 11 17 10 18 12 20 4 22 18 24
REMARK H PARENT 10 19 12 21 4 23 18 25
REMARK Flexibility Score: inf
ROOT
ATOM      1  C   UNL     1      -2.852  68.007 -21.668  1.00  0.00     0.180 A 
ATOM      2  C   UNL     1      -3.382  68.401 -22.913  1.00  0.00     0.208 A 
ATOM      3  C   UNL     1      -4.771  68.559 -23.039  1.00  0.00     0.235 A 
ATOM      4  O   UNL     1      -5.269  68.900 -24.147  1.00  0.00    -0.285 OA
ATOM      5  C   UNL     1      -5.594  68.341 -21.923  1.00  0.00     0.069 A 
ATOM      6  C   UNL     1      -4.985  67.972 -20.705  1.00  0.00     0.142 A 
ATOM      7  O   UNL     1      -3.667  67.824 -20.629  1.00  0.00    -0.452 OA
ATOM      8  C   UNL     1      -5.770  67.755 -19.567  1.00  0.00     0.094 A 
ATOM      9  C   UNL     1      -7.160  67.901 -19.630  1.00  0.00     0.119 A 
ATOM     10  C   UNL     1      -7.768  68.265 -20.839  1.00  0.00     0.047 A 
ATOM     11  C   UNL     1      -6.992  68.485 -21.981  1.00  0.00     0.020 A 
ENDROOT
BRANCH   1  12
ATOM     12  C   UNL     1      -1.401  67.802 -21.460  1.00  0.00     0.025 A 
ATOM     13  C   UNL     1      -0.880  66.498 -21.462  1.00  0.00     0.016 A 
ATOM     14  C   UNL     1       0.489  66.282 -21.288  1.00  0.00     0.051 A 
ATOM     15  C   UNL     1       1.360  67.367 -21.125  1.00  0.00     0.157 A 
ATOM     16  C   UNL     1      -0.520  68.890 -21.316  1.00  0.00     0.062 A 
ATOM     17  C   UNL     1       0.855  68.674 -21.143  1.00  0.00     0.158 A 
BRANCH  15  18
ATOM     18  O   UNL     1       2.726  67.157 -20.949  1.00  0.00    -0.504 OA
ATOM     19  H   UNL     1       3.409  67.565 -21.578  1.00  0.00     0.293 HD
ENDBRANCH  15  18
BRANCH  17  20
ATOM     20  O   UNL     1       1.725  69.752 -20.994  1.00  0.00    -0.504 OA
ATOM     21  H   UNL     1       2.525  69.706 -20.373  1.00  0.00     0.293 HD
ENDBRANCH  17  20
ENDBRANCH   1  12
BRANCH   2  22
ATOM     22  O   UNL     1      -2.534  68.659 -23.993  1.00  0.00    -0.502 OA
ATOM     23  H   UNL     1      -2.858  69.105 -24.843  1.00  0.00     0.293 HD
ENDBRANCH   2  22
BRANCH   9  24
ATOM     24  O   UNL     1      -7.927  67.680 -18.489  1.00  0.00    -0.508 OA
ATOM     25  H   UNL     1      -8.426  66.810 -18.345  1.00  0.00     0.293 HD
ENDBRANCH   9  24
TORSDOF 5
ENDMDL
MODEL 2
REMARK VINA RESULT:    -7.438      4.867      5.905
REMARK INTER + INTRA:          -9.009
REMARK INTER:                  -8.725
REMARK INTRA:                  -0.284
REMARK UNBOUND:                -0.267
REMARK SMILES O=c1c(O)c(-c2ccc(O)c(O)c2)oc2cc(O)ccc12
REMARK SMILES IDX 5 1 3 2 2 3 1 4 21 5 15 6 14 7 16 8 17 9 19 10 20 11 6 12
REMARK SMILES IDX 7 13 8 14 9 15 13 16 11 17 10 18 12 20 4 22 18 24
REMARK H PARENT 10 19 12 21 4 23 18 25
REMARK Flexibility Score: inf
ROOT
ATOM      1  C   UNL     1      -3.146  64.760 -19.425  1.00  0.00     0.180 A 
ATOM      2  C   UNL     1      -4.162  64.027 -20.073  1.00  0.00     0.208 A 
ATOM      3  C   UNL     1      -4.650  62.862 -19.462  1.00  0.00     0.235 A 
ATOM      4  O   UNL     1      -5.551  62.183 -20.028  1.00  0.00    -0.285 OA
ATOM      5  C   UNL     1      -4.133  62.466 -18.219  1.00  0.00     0.069 A 
ATOM      6  C   UNL     1      -3.135  63.267 -17.624  1.00  0.00     0.142 A 
ATOM      7  O   UNL     1      -2.693  64.359 -18.239  1.00  0.00    -0.452 OA
ATOM      8  C   UNL     1      -2.601  62.912 -16.380  1.00  0.00     0.094 A 
ATOM      9  C   UNL     1      -3.051  61.763 -15.721  1.00  0.00     0.119 A 
ATOM     10  C   UNL     1      -4.041  60.964 -16.310  1.00  0.00     0.047 A 
ATOM     11  C   UNL     1      -4.581  61.312 -17.552  1.00  0.00     0.020 A 
ENDROOT
BRANCH   1  12
ATOM     12  C   UNL     1      -2.567  65.990 -20.013  1.00  0.00     0.025 A 
ATOM     13  C   UNL     1      -1.616  65.881 -21.041  1.00  0.00     0.016 A 
ATOM     14  C   UNL     1      -1.071  67.028 -21.624  1.00  0.00     0.051 A 
ATOM     15  C   UNL     1      -1.479  68.299 -21.200  1.00  0.00     0.157 A 
ATOM     16  C   UNL     1      -2.989  67.267 -19.604  1.00  0.00     0.062 A 
ATOM     17  C   UNL     1      -2.444  68.418 -20.191  1.00  0.00     0.158 A 
BRANCH  15  18
ATOM     18  O   UNL     1      -0.938  69.445 -21.778  1.00  0.00    -0.504 OA
ATOM     19  H   UNL     1       0.050  69.511 -21.997  1.00  0.00     0.293 HD
ENDBRANCH  15  18
BRANCH  17  20
ATOM     20  O   UNL     1      -2.859  69.684 -19.781  1.00  0.00    -0.504 OA
ATOM     21  H   UNL     1      -3.100  70.406 -20.450  1.00  0.00     0.293 HD
ENDBRANCH  17  20
ENDBRANCH   1  12
BRANCH   2  22
ATOM     22  O   UNL     1      -4.691  64.473 -21.287  1.00  0.00    -0.502 OA
ATOM     23  H   UNL     1      -5.148  65.371 -21.381  1.00  0.00     0.293 HD
ENDBRANCH   2  22
BRANCH   9  24
ATOM     24  O   UNL     1      -2.509  61.423 -14.484  1.00  0.00    -0.508 OA
ATOM     25  H   UNL     1      -2.926  60.707 -13.901  1.00  0.00     0.293 HD
ENDBRANCH   9  24
TORSDOF 5
ENDMDL
MODEL 3
REMARK VINA RESULT:    -7.429      2.574      6.358
REMARK INTER + INTRA:          -8.999
REMARK INTER:                  -9.086
REMARK INTRA:                   0.088
REMARK UNBOUND:                -0.267
REMARK SMILES O=c1c(O)c(-c2ccc(O)c(O)c2)oc2cc(O)ccc12
REMARK SMILES IDX 5 1 3 2 2 3 1 4 21 5 15 6 14 7 16 8 17 9 19 10 20 11 6 12
REMARK SMILES IDX 7 13 8 14 9 15 13 16 11 17 10 18 12 20 4 22 18 24
REMARK H PARENT 10 19 12 21 4 23 18 25
REMARK Flexibility Score: inf
ROOT
ATOM      1  C   UNL     1      -3.979  68.314 -23.525  1.00  0.00     0.180 A 
ATOM      2  C   UNL     1      -4.938  68.277 -22.492  1.00  0.00     0.208 A 
ATOM      3  C   UNL     1      -4.513  68.457 -21.166  1.00  0.00     0.235 A 
ATOM      4  O   UNL     1      -5.351  68.417 -20.224  1.00  0.00    -0.285 OA
ATOM      5  C   UNL     1      -3.154  68.688 -20.903  1.00  0.00     0.069 A 
ATOM      6  C   UNL     1      -2.260  68.735 -21.994  1.00  0.00     0.142 A 
ATOM      7  O   UNL     1      -2.700  68.551 -23.233  1.00  0.00    -0.452 OA
ATOM      8  C   UNL     1      -0.899  68.973 -21.774  1.00  0.00     0.094 A 
ATOM      9  C   UNL     1      -0.416  69.164 -20.475  1.00  0.00     0.119 A 
ATOM     10  C   UNL     1      -1.301  69.116 -19.389  1.00  0.00     0.047 A 
ATOM     11  C   UNL     1      -2.664  68.880 -19.599  1.00  0.00     0.020 A 
ENDROOT
BRANCH   1  12
ATOM     12  C   UNL     1      -4.345  68.115 -24.946  1.00  0.00     0.025 A 
ATOM     13  C   UNL     1      -3.591  67.232 -25.736  1.00  0.00     0.016 A 
ATOM     14  C   UNL     1      -3.931  67.014 -27.073  1.00  0.00     0.051 A 
ATOM     15  C   UNL     1      -5.038  67.662 -27.636  1.00  0.00     0.157 A 
ATOM     16  C   UNL     1      -5.467  68.749 -25.509  1.00  0.00     0.062 A 
ATOM     17  C   UNL     1      -5.810  68.528 -26.851  1.00  0.00     0.158 A 
BRANCH  15  18
ATOM     18  O   UNL     1      -5.380  67.449 -28.969  1.00  0.00    -0.504 OA
ATOM     19  H   UNL     1      -5.763  68.192 -29.543  1.00  0.00     0.293 HD
ENDBRANCH  15  18
BRANCH  17  20
ATOM     20  O   UNL     1      -6.918  69.161 -27.409  1.00  0.00    -0.504 OA
ATOM     21  H   UNL     1      -6.983  70.172 -27.459  1.00  0.00     0.293 HD
ENDBRANCH  17  20
ENDBRANCH   1  12
BRANCH   2  22
ATOM     22  O   UNL     1      -6.291  68.094 -22.789  1.00  0.00    -0.502 OA
ATOM     23  H   UNL     1      -7.029  68.443 -22.190  1.00  0.00     0.293 HD
ENDBRANCH   2  22
BRANCH   9  24
ATOM     24  O   UNL     1       0.942  69.400 -20.273  1.00  0.00    -0.508 OA
ATOM     25  H   UNL     1       1.642  68.711 -20.523  1.00  0.00     0.293 HD
ENDBRANCH   9  24
TORSDOF 5
ENDMDL
MODEL 4
REMARK VINA RESULT:    -7.412      3.193      6.727
REMARK INTER + INTRA:          -8.979
REMARK INTER:                  -8.822
REMARK INTRA:                  -0.157
REMARK UNBOUND:                -0.267
REMARK SMILES O=c1c(O)c(-c2ccc(O)c(O)c2)oc2cc(O)ccc12
REMARK SMILES IDX 5 1 3 2 2 3 1 4 21 5 15 6 14 7 16 8 17 9 19 10 20 11 6 12
REMARK SMILES IDX 7 13 8 14 9 15 13 16 11 17 10 18 12 20 4 22 18 24
REMARK H PARENT 10 19 12 21 4 23 18 25
REMARK Flexibility Score: inf
ROOT
ATOM      1  C   UNL     1      -5.135  66.733 -20.923  1.00  0.00     0.180 A 
ATOM      2  C   UNL     1      -3.821  67.226 -21.053  1.00  0.00     0.208 A 
ATOM      3  C   UNL     1      -2.752  66.429 -20.615  1.00  0.00     0.235 A 
ATOM      4  O   UNL     1      -1.568  66.854 -20.711  1.00  0.00    -0.285 OA
ATOM      5  C   UNL     1      -3.013  65.157 -20.080  1.00  0.00     0.069 A 
ATOM      6  C   UNL     1      -4.355  64.726 -20.007  1.00  0.00     0.142 A 
ATOM      7  O   UNL     1      -5.339  65.514 -20.424  1.00  0.00    -0.452 OA
ATOM      8  C   UNL     1      -4.656  63.461 -19.489  1.00  0.00     0.094 A 
ATOM      9  C   UNL     1      -3.632  62.620 -19.041  1.00  0.00     0.119 A 
ATOM     10  C   UNL     1      -2.298  63.046 -19.111  1.00  0.00     0.047 A 
ATOM     11  C   UNL     1      -1.988  64.308 -19.628  1.00  0.00     0.020 A 
ENDROOT
BRANCH   1  12
ATOM     12  C   UNL     1      -6.317  67.520 -21.344  1.00  0.00     0.025 A 
ATOM     13  C   UNL     1      -7.178  67.002 -22.324  1.00  0.00     0.016 A 
ATOM     14  C   UNL     1      -8.310  67.718 -22.722  1.00  0.00     0.051 A 
ATOM     15  C   UNL     1      -8.605  68.955 -22.135  1.00  0.00     0.157 A 
ATOM     16  C   UNL     1      -6.627  68.753 -20.743  1.00  0.00     0.062 A 
ATOM     17  C   UNL     1      -7.764  69.472 -21.141  1.00  0.00     0.158 A 
BRANCH  15  18
ATOM     18  O   UNL     1      -9.731  69.674 -22.530  1.00  0.00    -0.504 OA
ATOM     19  H   UNL     1      -9.890  69.918 -23.501  1.00  0.00     0.293 HD
ENDBRANCH  15  18
BRANCH  17  20
ATOM     20  O   UNL     1      -8.068  70.696 -20.549  1.00  0.00    -0.504 OA
ATOM     21  H   UNL     1      -8.141  70.796 -19.543  1.00  0.00     0.293 HD
ENDBRANCH  17  20
ENDBRANCH   1  12
BRANCH   2  22
ATOM     22  O   UNL     1      -3.589  68.475 -21.634  1.00  0.00    -0.502 OA
ATOM     23  H   UNL     1      -3.172  68.576 -22.552  1.00  0.00     0.293 HD
ENDBRANCH   2  22
BRANCH   9  24
ATOM     24  O   UNL     1      -3.949  61.364 -18.528  1.00  0.00    -0.508 OA
ATOM     25  H   UNL     1      -4.790  60.874 -18.808  1.00  0.00     0.293 HD
ENDBRANCH   9  24
TORSDOF 5
ENDMDL
MODEL 5
REMARK VINA RESULT:    -7.407      4.094      7.469
REMARK INTER + INTRA:          -8.973
REMARK INTER:                  -8.708
REMARK INTRA:                  -0.265
REMARK UNBOUND:                -0.267
REMARK SMILES O=c1c(O)c(-c2ccc(O)c(O)c2)oc2cc(O)ccc12
REMARK SMILES IDX 5 1 3 2 2 3 1 4 21 5 15 6 14 7 16 8 17 9 19 10 20 11 6 12
REMARK SMILES IDX 7 13 8 14 9 15 13 16 11 17 10 18 12 20 4 22 18 24
REMARK H PARENT 10 19 12 21 4 23 18 25
REMARK Flexibility Score: inf
ROOT
ATOM      1  C   UNL     1      -4.915  64.565 -20.387  1.00  0.00     0.180 A 
ATOM      2  C   UNL     1      -5.545  63.448 -20.973  1.00  0.00     0.208 A 
ATOM      3  C   UNL     1      -4.835  62.241 -21.066  1.00  0.00     0.235 A 
ATOM      4  O   UNL     1      -5.374  61.231 -21.596  1.00  0.00    -0.285 OA
ATOM      5  C   UNL     1      -3.528  62.168 -20.557  1.00  0.00     0.069 A 
ATOM      6  C   UNL     1      -2.976  63.324 -19.964  1.00  0.00     0.142 A 
ATOM      7  O   UNL     1      -3.678  64.450 -19.904  1.00  0.00    -0.452 OA
ATOM      8  C   UNL     1      -1.681  63.290 -19.437  1.00  0.00     0.094 A 
ATOM      9  C   UNL     1      -0.925  62.113 -19.496  1.00  0.00     0.119 A 
ATOM     10  C   UNL     1      -1.469  60.965 -20.087  1.00  0.00     0.047 A 
ATOM     11  C   UNL     1      -2.765  60.989 -20.615  1.00  0.00     0.020 A 
ENDROOT
BRANCH   1  12
ATOM     12  C   UNL     1      -5.590  65.877 -20.269  1.00  0.00     0.025 A 
ATOM     13  C   UNL     1      -5.279  66.898 -21.182  1.00  0.00     0.016 A 
ATOM     14  C   UNL     1      -5.919  68.137 -21.102  1.00  0.00     0.051 A 
ATOM     15  C   UNL     1      -6.890  68.369 -20.120  1.00  0.00     0.157 A 
ATOM     16  C   UNL     1      -6.580  66.107 -19.297  1.00  0.00     0.062 A 
ATOM     17  C   UNL     1      -7.224  67.350 -19.218  1.00  0.00     0.158 A 
BRANCH  15  18
ATOM     18  O   UNL     1      -7.530  69.604 -20.035  1.00  0.00    -0.504 OA
ATOM     19  H   UNL     1      -8.541  69.675 -20.007  1.00  0.00     0.293 HD
ENDBRANCH  15  18
BRANCH  17  20
ATOM     20  O   UNL     1      -8.200  67.579 -18.250  1.00  0.00    -0.504 OA
ATOM     21  H   UNL     1      -8.969  66.933 -18.109  1.00  0.00     0.293 HD
ENDBRANCH  17  20
ENDBRANCH   1  12
BRANCH   2  22
ATOM     22  O   UNL     1      -6.864  63.537 -21.426  1.00  0.00    -0.502 OA
ATOM     23  H   UNL     1      -7.191  63.036 -22.243  1.00  0.00     0.293 HD
ENDBRANCH   2  22
BRANCH   9  24
ATOM     24  O   UNL     1       0.363  62.096 -18.968  1.00  0.00    -0.508 OA
ATOM     25  H   UNL     1       0.702  61.313 -18.422  1.00  0.00     0.293 HD
ENDBRANCH   9  24
TORSDOF 5
ENDMDL
MODEL 6
REMARK VINA RESULT:    -7.392      3.848      5.915
REMARK INTER + INTRA:          -8.955
REMARK INTER:                  -8.662
REMARK INTRA:                  -0.293
REMARK UNBOUND:                -0.267
REMARK SMILES O=c1c(O)c(-c2ccc(O)c(O)c2)oc2cc(O)ccc12
REMARK SMILES IDX 5 1 3 2 2 3 1 4 21 5 15 6 14 7 16 8 17 9 19 10 20 11 6 12
REMARK SMILES IDX 7 13 8 14 9 15 13 16 11 17 10 18 12 20 4 22 18 24
REMARK H PARENT 10 19 12 21 4 23 18 25
REMARK Flexibility Score: inf
ROOT
ATOM      1  C   UNL     1      -5.571  65.352 -21.544  1.00  0.00     0.180 A 
ATOM      2  C   UNL     1      -6.906  65.808 -21.547  1.00  0.00     0.208 A 
ATOM      3  C   UNL     1      -7.236  66.934 -22.317  1.00  0.00     0.235 A 
ATOM      4  O   UNL     1      -8.421  67.366 -22.327  1.00  0.00    -0.285 OA
ATOM      5  C   UNL     1      -6.239  67.564 -23.079  1.00  0.00     0.069 A 
ATOM      6  C   UNL     1      -4.932  67.033 -23.042  1.00  0.00     0.142 A 
ATOM      7  O   UNL     1      -4.659  65.971 -22.293  1.00  0.00    -0.452 OA
ATOM      8  C   UNL     1      -3.913  67.627 -23.795  1.00  0.00     0.094 A 
ATOM      9  C   UNL     1      -4.183  68.749 -24.586  1.00  0.00     0.119 A 
ATOM     10  C   UNL     1      -5.479  69.281 -24.623  1.00  0.00     0.047 A 
ATOM     11  C   UNL     1      -6.505  68.693 -23.875  1.00  0.00     0.020 A 
ENDROOT
BRANCH   1  12
ATOM     12  C   UNL     1      -5.141  64.184 -20.744  1.00  0.00     0.025 A 
ATOM     13  C   UNL     1      -4.906  62.957 -21.385  1.00  0.00     0.016 A 
ATOM     14  C   UNL     1      -4.479  61.846 -20.652  1.00  0.00     0.051 A 
ATOM     15  C   UNL     1      -4.266  61.950 -19.272  1.00  0.00     0.157 A 
ATOM     16  C   UNL     1      -4.906  64.289 -19.361  1.00  0.00     0.062 A 
ATOM     17  C   UNL     1      -4.476  63.175 -18.625  1.00  0.00     0.158 A 
BRANCH  15  18
ATOM     18  O   UNL     1      -3.842  60.845 -18.536  1.00  0.00    -0.504 OA
ATOM     19  H   UNL     1      -2.902  60.477 -18.629  1.00  0.00     0.293 HD
ENDBRANCH  15  18
BRANCH  17  20
ATOM     20  O   UNL     1      -4.250  63.279 -17.254  1.00  0.00    -0.504 OA
ATOM     21  H   UNL     1      -3.617  63.973 -16.872  1.00  0.00     0.293 HD
ENDBRANCH  17  20
ENDBRANCH   1  12
BRANCH   2  22
ATOM     22  O   UNL     1      -7.886  65.130 -20.817  1.00  0.00    -0.502 OA
ATOM     23  H   UNL     1      -8.588  65.616 -20.273  1.00  0.00     0.293 HD
ENDBRANCH   2  22
BRANCH   9  24
ATOM     24  O   UNL     1      -3.157  69.329 -25.328  1.00  0.00    -0.508 OA
ATOM     25  H   UNL     1      -3.119  70.329 -25.489  1.00  0.00     0.293 HD
ENDBRANCH   9  24
TORSDOF 5
ENDMDL
MODEL 7
REMARK VINA RESULT:    -7.341      1.147      2.878
REMARK INTER + INTRA:          -8.896
REMARK INTER:                  -8.576
REMARK INTRA:                  -0.320
REMARK UNBOUND:                -0.267
REMARK SMILES O=c1c(O)c(-c2ccc(O)c(O)c2)oc2cc(O)ccc12
REMARK SMILES IDX 5 1 3 2 2 3 1 4 21 5 15 6 14 7 16 8 17 9 19 10 20 11 6 12
REMARK SMILES IDX 7 13 8 14 9 15 13 16 11 17 10 18 12 20 4 22 18 24
REMARK H PARENT 10 19 12 21 4 23 18 25
REMARK Flexibility Score: inf
ROOT
ATOM      1  C   UNL     1      -2.940  67.940 -21.312  1.00  0.00     0.180 A 
ATOM      2  C   UNL     1      -3.756  67.925 -20.163  1.00  0.00     0.208 A 
ATOM      3  C   UNL     1      -5.141  68.096 -20.312  1.00  0.00     0.235 A 
ATOM      4  O   UNL     1      -5.890  68.096 -19.297  1.00  0.00    -0.285 OA
ATOM      5  C   UNL     1      -5.681  68.258 -21.598  1.00  0.00     0.069 A 
ATOM      6  C   UNL     1      -4.800  68.238 -22.701  1.00  0.00     0.142 A 
ATOM      7  O   UNL     1      -3.494  68.082 -22.516  1.00  0.00    -0.452 OA
ATOM      8  C   UNL     1      -5.300  68.386 -23.999  1.00  0.00     0.094 A 
ATOM      9  C   UNL     1      -6.673  68.556 -24.212  1.00  0.00     0.119 A 
ATOM     10  C   UNL     1      -7.550  68.578 -23.119  1.00  0.00     0.047 A 
ATOM     11  C   UNL     1      -7.059  68.429 -21.817  1.00  0.00     0.020 A 
ENDROOT
BRANCH   1  12
ATOM     12  C   UNL     1      -1.470  67.785 -21.235  1.00  0.00     0.025 A 
ATOM     13  C   UNL     1      -0.907  66.500 -21.296  1.00  0.00     0.016 A 
ATOM     14  C   UNL     1       0.478  66.331 -21.246  1.00  0.00     0.051 A 
ATOM     15  C   UNL     1       1.323  67.444 -21.150  1.00  0.00     0.157 A 
ATOM     16  C   UNL     1      -0.618  68.902 -21.160  1.00  0.00     0.062 A 
ATOM     17  C   UNL     1       0.774  68.732 -21.112  1.00  0.00     0.158 A 
BRANCH  15  18
ATOM     18  O   UNL     1       2.706  67.281 -21.099  1.00  0.00    -0.504 OA
ATOM     19  H   UNL     1       3.336  68.070 -21.191  1.00  0.00     0.293 HD
ENDBRANCH  15  18
BRANCH  17  20
ATOM     20  O   UNL     1       1.616  69.839 -21.031  1.00  0.00    -0.504 OA
ATOM     21  H   UNL     1       1.277  70.743 -20.721  1.00  0.00     0.293 HD
ENDBRANCH  17  20
ENDBRANCH   1  12
BRANCH   2  22
ATOM     22  O   UNL     1      -3.196  67.712 -18.900  1.00  0.00    -0.502 OA
ATOM     23  H   UNL     1      -2.204  67.812 -18.725  1.00  0.00     0.293 HD
ENDBRANCH   2  22
BRANCH   9  24
ATOM     24  O   UNL     1      -7.154  68.702 -25.510  1.00  0.00    -0.508 OA
ATOM     25  H   UNL     1      -8.138  68.591 -25.727  1.00  0.00     0.293 HD
ENDBRANCH   9  24
TORSDOF 5
ENDMDL
MODEL 8
REMARK VINA RESULT:    -7.319      1.893      3.022
REMARK INTER + INTRA:          -8.869
REMARK INTER:                  -8.975
REMARK INTRA:                   0.106
REMARK UNBOUND:                -0.267
REMARK SMILES O=c1c(O)c(-c2ccc(O)c(O)c2)oc2cc(O)ccc12
REMARK SMILES IDX 5 1 3 2 2 3 1 4 21 5 15 6 14 7 16 8 17 9 19 10 20 11 6 12
REMARK SMILES IDX 7 13 8 14 9 15 13 16 11 17 10 18 12 20 4 22 18 24
REMARK H PARENT 10 19 12 21 4 23 18 25
REMARK Flexibility Score: inf
ROOT
ATOM      1  C   UNL     1      -2.656  67.123 -21.321  1.00  0.00     0.180 A 
ATOM      2  C   UNL     1      -2.987  65.813 -20.920  1.00  0.00     0.208 A 
ATOM      3  C   UNL     1      -4.311  65.373 -21.069  1.00  0.00     0.235 A 
ATOM      4  O   UNL     1      -4.634  64.208 -20.707  1.00  0.00    -0.285 OA
ATOM      5  C   UNL     1      -5.267  66.236 -21.628  1.00  0.00     0.069 A 
ATOM      6  C   UNL     1      -4.851  67.525 -22.027  1.00  0.00     0.142 A 
ATOM      7  O   UNL     1      -3.589  67.906 -21.861  1.00  0.00    -0.452 OA
ATOM      8  C   UNL     1      -5.770  68.412 -22.597  1.00  0.00     0.094 A 
ATOM      9  C   UNL     1      -7.104  68.028 -22.775  1.00  0.00     0.119 A 
ATOM     10  C   UNL     1      -7.521  66.750 -22.378  1.00  0.00     0.047 A 
ATOM     11  C   UNL     1      -6.608  65.856 -21.808  1.00  0.00     0.020 A 
ENDROOT
BRANCH   1  12
ATOM     12  C   UNL     1      -1.286  67.667 -21.180  1.00  0.00     0.025 A 
ATOM     13  C   UNL     1      -1.105  68.951 -20.641  1.00  0.00     0.016 A 
ATOM     14  C   UNL     1       0.180  69.475 -20.480  1.00  0.00     0.051 A 
ATOM     15  C   UNL     1       1.302  68.719 -20.841  1.00  0.00     0.157 A 
ATOM     16  C   UNL     1      -0.156  66.902 -21.523  1.00  0.00     0.062 A 
ATOM     17  C   UNL     1       1.134  67.428 -21.359  1.00  0.00     0.158 A 
BRANCH  15  18
ATOM     18  O   UNL     1       2.586  69.238 -20.683  1.00  0.00    -0.504 OA
ATOM     19  H   UNL     1       2.934  69.979 -21.283  1.00  0.00     0.293 HD
ENDBRANCH  15  18
BRANCH  17  20
ATOM     20  O   UNL     1       2.253  66.673 -21.704  1.00  0.00    -0.504 OA
ATOM     21  H   UNL     1       2.164  65.765 -22.148  1.00  0.00     0.293 HD
ENDBRANCH  17  20
ENDBRANCH   1  12
BRANCH   2  22
ATOM     22  O   UNL     1      -2.004  64.959 -20.412  1.00  0.00    -0.502 OA
ATOM     23  H   UNL     1      -1.976  64.684 -19.438  1.00  0.00     0.293 HD
ENDBRANCH   2  22
BRANCH   9  24
ATOM     24  O   UNL     1      -8.007  68.923 -23.344  1.00  0.00    -0.508 OA
ATOM     25  H   UNL     1      -8.399  68.767 -24.265  1.00  0.00     0.293 HD
ENDBRANCH   9  24
TORSDOF 5
ENDMDL
MODEL 9
REMARK VINA RESULT:    -7.236      3.708      5.490
REMARK INTER + INTRA:          -8.772
REMARK INTER:                  -8.967
REMARK INTRA:                   0.195
REMARK UNBOUND:                -0.267
REMARK SMILES O=c1c(O)c(-c2ccc(O)c(O)c2)oc2cc(O)ccc12
REMARK SMILES IDX 5 1 3 2 2 3 1 4 21 5 15 6 14 7 16 8 17 9 19 10 20 11 6 12
REMARK SMILES IDX 7 13 8 14 9 15 13 16 11 17 10 18 12 20 4 22 18 24
REMARK H PARENT 10 19 12 21 4 23 18 25
REMARK Flexibility Score: inf
ROOT
ATOM      1  C   UNL     1      -3.843  65.466 -21.052  1.00  0.00     0.180 A 
ATOM      2  C   UNL     1      -2.651  65.974 -21.608  1.00  0.00     0.208 A 
ATOM      3  C   UNL     1      -2.732  66.986 -22.576  1.00  0.00     0.235 A 
ATOM      4  O   UNL     1      -1.680  67.449 -23.096  1.00  0.00    -0.285 OA
ATOM      5  C   UNL     1      -3.991  67.481 -22.953  1.00  0.00     0.069 A 
ATOM      6  C   UNL     1      -5.136  66.937 -22.332  1.00  0.00     0.142 A 
ATOM      7  O   UNL     1      -5.017  65.973 -21.426  1.00  0.00    -0.452 OA
ATOM      8  C   UNL     1      -6.408  67.409 -22.673  1.00  0.00     0.094 A 
ATOM      9  C   UNL     1      -6.553  68.420 -23.629  1.00  0.00     0.119 A 
ATOM     10  C   UNL     1      -5.418  68.961 -24.249  1.00  0.00     0.047 A 
ATOM     11  C   UNL     1      -4.142  68.496 -23.914  1.00  0.00     0.020 A 
ENDROOT
BRANCH   1  12
ATOM     12  C   UNL     1      -3.841  64.386 -20.038  1.00  0.00     0.025 A 
ATOM     13  C   UNL     1      -2.870  64.394 -19.024  1.00  0.00     0.016 A 
ATOM     14  C   UNL     1      -2.861  63.396 -18.046  1.00  0.00     0.051 A 
ATOM     15  C   UNL     1      -3.832  62.386 -18.058  1.00  0.00     0.157 A 
ATOM     16  C   UNL     1      -4.825  63.382 -20.036  1.00  0.00     0.062 A 
ATOM     17  C   UNL     1      -4.819  62.382 -19.053  1.00  0.00     0.158 A 
BRANCH  15  18
ATOM     18  O   UNL     1      -3.827  61.389 -17.086  1.00  0.00    -0.504 OA
ATOM     19  H   UNL     1      -3.975  61.604 -16.106  1.00  0.00     0.293 HD
ENDBRANCH  15  18
BRANCH  17  20
ATOM     20  O   UNL     1      -5.791  61.384 -19.055  1.00  0.00    -0.504 OA
ATOM     21  H   UNL     1      -5.721  60.576 -19.664  1.00  0.00     0.293 HD
ENDBRANCH  17  20
ENDBRANCH   1  12
BRANCH   2  22
ATOM     22  O   UNL     1      -1.410  65.497 -21.177  1.00  0.00    -0.502 OA
ATOM     23  H   UNL     1      -0.878  64.817 -21.707  1.00  0.00     0.293 HD
ENDBRANCH   2  22
BRANCH   9  24
ATOM     24  O   UNL     1      -7.826  68.879 -23.957  1.00  0.00    -0.508 OA
ATOM     25  H   UNL     1      -8.661  68.405 -23.632  1.00  0.00     0.293 HD
ENDBRANCH   9  24
TORSDOF 5
ENDMDL
