MODEL 1
REMARK VINA RESULT:    -4.294      0.000      0.000
REMARK INTER + INTRA:         -10.669
REMARK INTER:                  -8.060
REMARK INTRA:                  -2.609
REMARK UNBOUND:                -2.609
REMARK SMILES CCCCCCCCCCCCCC=CC=CC(=O)OC
REMARK SMILES IDX 9 1 8 2 7 3 6 4 5 5 4 6 3 7 2 8 1 9 10 10 11 11 12 12 13 13
REMARK SMILES IDX 14 14 15 15 16 16 17 17 18 18 19 19 20 20 21 21
REMARK H PARENT
REMARK Flexibility Score: inf
ROOT
ATOM      1  C   UNL     1     -15.902 -20.854  11.141  1.00  0.00     0.000 C 
ENDROOT
BRANCH   1   2
ATOM      2  C   UNL     1     -14.638 -21.727  11.235  1.00  0.00     0.000 C 
BRANCH   2   3
ATOM      3  C   UNL     1     -14.515 -22.442  12.590  1.00  0.00     0.000 C 
BRANCH   3   4
ATOM      4  C   UNL     1     -13.158 -22.190  13.271  1.00  0.00    -0.000 C 
BRANCH   4   5
ATOM      5  C   UNL     1     -12.463 -20.921  12.735  1.00  0.00    -0.000 C 
BRANCH   5   6
ATOM      6  C   UNL     1     -11.629 -20.181  13.797  1.00  0.00    -0.000 C 
BRANCH   6   7
ATOM      7  C   UNL     1     -11.804 -20.767  15.208  1.00  0.00    -0.000 C 
BRANCH   7   8
ATOM      8  C   UNL     1     -12.297 -19.723  16.221  1.00  0.00    -0.003 C 
ATOM      9  C   UNL     1     -11.201 -18.741  16.634  1.00  0.00     0.004 C 
ENDBRANCH   7   8
ENDBRANCH   6   7
ENDBRANCH   5   6
ENDBRANCH   4   5
ENDBRANCH   3   4
ENDBRANCH   2   3
ENDBRANCH   1   2
BRANCH   1  10
ATOM     10  C   UNL     1     -16.902 -21.137  12.274  1.00  0.00     0.000 C 
BRANCH  10  11
ATOM     11  C   UNL     1     -17.275 -19.867  13.061  1.00  0.00     0.000 C 
BRANCH  11  12
ATOM     12  C   UNL     1     -16.866 -19.939  14.544  1.00  0.00     0.004 C 
BRANCH  12  13
ATOM     13  C   UNL     1     -15.866 -18.848  14.972  1.00  0.00     0.027 C 
BRANCH  13  14
ATOM     14  C   UNL     1     -14.852 -18.519  13.909  1.00  0.00    -0.027 C 
ATOM     15  C   UNL     1     -14.803 -17.363  13.232  1.00  0.00    -0.004 C 
BRANCH  15  16
ATOM     16  C   UNL     1     -15.695 -16.214  13.503  1.00  0.00     0.007 C 
ATOM     17  C   UNL     1     -16.622 -15.761  12.647  1.00  0.00     0.093 C 
BRANCH  17  18
ATOM     18  C   UNL     1     -17.031 -16.431  11.397  1.00  0.00     0.330 C 
ATOM     19  O   UNL     1     -18.101 -17.100  11.388  1.00  0.00    -0.247 OA
BRANCH  18  20
ATOM     20  O   UNL     1     -16.219 -16.387  10.258  1.00  0.00    -0.466 OA
ATOM     21  C   UNL     1     -15.370 -15.286   9.962  1.00  0.00     0.282 C 
ENDBRANCH  18  20
ENDBRANCH  17  18
ENDBRANCH  15  16
ENDBRANCH  13  14
ENDBRANCH  12  13
ENDBRANCH  11  12
ENDBRANCH  10  11
ENDBRANCH   1  10
TORSDOF 15
ENDMDL
MODEL 2
REMARK VINA RESULT:    -4.211      2.653      6.122
REMARK INTER + INTRA:         -10.512
REMARK INTER:                  -8.385
REMARK INTRA:                  -2.127
REMARK UNBOUND:                -2.609
REMARK SMILES CCCCCCCCCCCCCC=CC=CC(=O)OC
REMARK SMILES IDX 9 1 8 2 7 3 6 4 5 5 4 6 3 7 2 8 1 9 10 10 11 11 12 12 13 13
REMARK SMILES IDX 14 14 15 15 16 16 17 17 18 18 19 19 20 20 21 21
REMARK H PARENT
REMARK Flexibility Score: inf
ROOT
ATOM      1  C   UNL     1     -16.861 -20.269  12.764  1.00  0.00     0.000 C 
ENDROOT
BRANCH   1   2
ATOM      2  C   UNL     1     -16.996 -19.826  14.231  1.00  0.00     0.000 C 
BRANCH   2   3
ATOM      3  C   UNL     1     -15.797 -18.990  14.708  1.00  0.00     0.000 C 
BRANCH   3   4
ATOM      4  C   UNL     1     -15.262 -18.046  13.616  1.00  0.00    -0.000 C 
BRANCH   4   5
ATOM      5  C   UNL     1     -15.487 -16.560  13.968  1.00  0.00    -0.000 C 
BRANCH   5   6
ATOM      6  C   UNL     1     -16.238 -15.776  12.878  1.00  0.00    -0.000 C 
BRANCH   6   7
ATOM      7  C   UNL     1     -17.041 -16.687  11.934  1.00  0.00    -0.000 C 
BRANCH   7   8
ATOM      8  C   UNL     1     -17.036 -16.182  10.483  1.00  0.00    -0.003 C 
ATOM      9  C   UNL     1     -15.748 -16.536   9.742  1.00  0.00     0.004 C 
ENDBRANCH   7   8
ENDBRANCH   6   7
ENDBRANCH   5   6
ENDBRANCH   4   5
ENDBRANCH   3   4
ENDBRANCH   2   3
ENDBRANCH   1   2
BRANCH   1  10
ATOM     10  C   UNL     1     -16.478 -21.751  12.626  1.00  0.00     0.000 C 
BRANCH  10  11
ATOM     11  C   UNL     1     -15.130 -21.947  11.906  1.00  0.00     0.000 C 
BRANCH  11  12
ATOM     12  C   UNL     1     -13.966 -22.217  12.878  1.00  0.00     0.004 C 
BRANCH  12  13
ATOM     13  C   UNL     1     -13.055 -20.998  13.120  1.00  0.00     0.027 C 
BRANCH  13  14
ATOM     14  C   UNL     1     -11.705 -21.366  13.676  1.00  0.00    -0.027 C 
ATOM     15  C   UNL     1     -11.282 -21.071  14.913  1.00  0.00    -0.004 C 
BRANCH  15  16
ATOM     16  C   UNL     1     -12.127 -20.413  15.934  1.00  0.00     0.007 C 
ATOM     17  C   UNL     1     -11.934 -19.163  16.380  1.00  0.00     0.093 C 
BRANCH  17  18
ATOM     18  C   UNL     1     -10.986 -18.188  15.808  1.00  0.00     0.330 C 
ATOM     19  O   UNL     1     -11.318 -17.558  14.766  1.00  0.00    -0.247 OA
BRANCH  18  20
ATOM     20  O   UNL     1      -9.715 -18.009  16.364  1.00  0.00    -0.466 OA
ATOM     21  C   UNL     1      -8.534 -17.934  15.575  1.00  0.00     0.282 C 
ENDBRANCH  18  20
ENDBRANCH  17  18
ENDBRANCH  15  16
ENDBRANCH  13  14
ENDBRANCH  12  13
ENDBRANCH  11  12
ENDBRANCH  10  11
ENDBRANCH   1  10
TORSDOF 15
ENDMDL
MODEL 3
REMARK VINA RESULT:    -4.147      1.347      2.236
REMARK INTER + INTRA:         -10.393
REMARK INTER:                  -7.475
REMARK INTRA:                  -2.918
REMARK UNBOUND:                -2.609
REMARK SMILES CCCCCCCCCCCCCC=CC=CC(=O)OC
REMARK SMILES IDX 9 1 8 2 7 3 6 4 5 5 4 6 3 7 2 8 1 9 10 10 11 11 12 12 13 13
REMARK SMILES IDX 14 14 15 15 16 16 17 17 18 18 19 19 20 20 21 21
REMARK H PARENT
REMARK Flexibility Score: inf
ROOT
ATOM      1  C   UNL     1     -14.964 -22.170  12.288  1.00  0.00     0.000 C 
ENDROOT
BRANCH   1   2
ATOM      2  C   UNL     1     -13.582 -21.916  12.917  1.00  0.00     0.000 C 
BRANCH   2   3
ATOM      3  C   UNL     1     -13.003 -20.545  12.533  1.00  0.00     0.000 C 
BRANCH   3   4
ATOM      4  C   UNL     1     -12.069 -19.973  13.615  1.00  0.00    -0.000 C 
BRANCH   4   5
ATOM      5  C   UNL     1     -11.629 -21.047  14.633  1.00  0.00    -0.000 C 
BRANCH   5   6
ATOM      6  C   UNL     1     -12.001 -20.704  16.086  1.00  0.00    -0.000 C 
BRANCH   6   7
ATOM      7  C   UNL     1     -12.159 -19.193  16.322  1.00  0.00    -0.000 C 
BRANCH   7   8
ATOM      8  C   UNL     1     -10.839 -18.520  16.726  1.00  0.00    -0.003 C 
ATOM      9  C   UNL     1     -10.565 -17.241  15.935  1.00  0.00     0.004 C 
ENDBRANCH   7   8
ENDBRANCH   6   7
ENDBRANCH   5   6
ENDBRANCH   4   5
ENDBRANCH   3   4
ENDBRANCH   2   3
ENDBRANCH   1   2
BRANCH   1  10
ATOM     10  C   UNL     1     -15.448 -20.992  11.427  1.00  0.00     0.000 C 
BRANCH  10  11
ATOM     11  C   UNL     1     -16.725 -20.338  11.987  1.00  0.00     0.000 C 
BRANCH  11  12
ATOM     12  C   UNL     1     -17.046 -20.787  13.425  1.00  0.00     0.004 C 
BRANCH  12  13
ATOM     13  C   UNL     1     -17.022 -19.645  14.459  1.00  0.00     0.027 C 
BRANCH  13  14
ATOM     14  C   UNL     1     -15.635 -19.138  14.753  1.00  0.00    -0.027 C 
ATOM     15  C   UNL     1     -15.166 -17.938  14.382  1.00  0.00    -0.004 C 
BRANCH  15  16
ATOM     16  C   UNL     1     -15.984 -16.911  13.700  1.00  0.00     0.007 C 
ATOM     17  C   UNL     1     -15.623 -16.288  12.569  1.00  0.00     0.093 C 
BRANCH  17  18
ATOM     18  C   UNL     1     -14.463 -16.644  11.730  1.00  0.00     0.330 C 
ATOM     19  O   UNL     1     -14.565 -17.622  10.937  1.00  0.00    -0.247 OA
BRANCH  18  20
ATOM     20  O   UNL     1     -13.248 -15.961  11.852  1.00  0.00    -0.466 OA
ATOM     21  C   UNL     1     -12.186 -16.424  12.676  1.00  0.00     0.282 C 
ENDBRANCH  18  20
ENDBRANCH  17  18
ENDBRANCH  15  16
ENDBRANCH  13  14
ENDBRANCH  12  13
ENDBRANCH  11  12
ENDBRANCH  10  11
ENDBRANCH   1  10
TORSDOF 15
ENDMDL
MODEL 4
REMARK VINA RESULT:    -4.107      1.586      2.694
REMARK INTER + INTRA:         -10.317
REMARK INTER:                  -7.359
REMARK INTRA:                  -2.958
REMARK UNBOUND:                -2.609
REMARK SMILES CCCCCCCCCCCCCC=CC=CC(=O)OC
REMARK SMILES IDX 9 1 8 2 7 3 6 4 5 5 4 6 3 7 2 8 1 9 10 10 11 11 12 12 13 13
REMARK SMILES IDX 14 14 15 15 16 16 17 17 18 18 19 19 20 20 21 21
REMARK H PARENT
REMARK Flexibility Score: inf
ROOT
ATOM      1  C   UNL     1     -13.798 -21.531  11.503  1.00  0.00     0.000 C 
ENDROOT
BRANCH   1   2
ATOM      2  C   UNL     1     -12.596 -22.013  12.334  1.00  0.00     0.000 C 
BRANCH   2   3
ATOM      3  C   UNL     1     -11.730 -20.850  12.847  1.00  0.00     0.000 C 
BRANCH   3   4
ATOM      4  C   UNL     1     -11.070 -21.157  14.203  1.00  0.00    -0.000 C 
BRANCH   4   5
ATOM      5  C   UNL     1     -12.010 -20.861  15.390  1.00  0.00    -0.000 C 
BRANCH   5   6
ATOM      6  C   UNL     1     -11.497 -19.746  16.318  1.00  0.00    -0.000 C 
BRANCH   6   7
ATOM      7  C   UNL     1     -10.467 -18.829  15.636  1.00  0.00    -0.000 C 
BRANCH   7   8
ATOM      8  C   UNL     1     -11.097 -17.536  15.097  1.00  0.00    -0.003 C 
ATOM      9  C   UNL     1     -10.695 -17.245  13.652  1.00  0.00     0.004 C 
ENDBRANCH   7   8
ENDBRANCH   6   7
ENDBRANCH   5   6
ENDBRANCH   4   5
ENDBRANCH   3   4
ENDBRANCH   2   3
ENDBRANCH   1   2
BRANCH   1  10
ATOM     10  C   UNL     1     -15.117 -22.197  11.929  1.00  0.00     0.000 C 
BRANCH  10  11
ATOM     11  C   UNL     1     -16.303 -21.214  11.923  1.00  0.00     0.000 C 
BRANCH  11  12
ATOM     12  C   UNL     1     -16.917 -21.008  13.320  1.00  0.00     0.004 C 
BRANCH  12  13
ATOM     13  C   UNL     1     -17.048 -19.530  13.737  1.00  0.00     0.027 C 
BRANCH  13  14
ATOM     14  C   UNL     1     -16.117 -19.142  14.855  1.00  0.00    -0.027 C 
ATOM     15  C   UNL     1     -14.863 -18.701  14.687  1.00  0.00    -0.004 C 
BRANCH  15  16
ATOM     16  C   UNL     1     -14.249 -18.456  13.363  1.00  0.00     0.007 C 
ATOM     17  C   UNL     1     -14.334 -17.296  12.695  1.00  0.00     0.093 C 
BRANCH  17  18
ATOM     18  C   UNL     1     -14.883 -16.037  13.236  1.00  0.00     0.330 C 
ATOM     19  O   UNL     1     -14.096 -15.221  13.791  1.00  0.00    -0.247 OA
BRANCH  18  20
ATOM     20  O   UNL     1     -16.257 -15.776  13.199  1.00  0.00    -0.466 OA
ATOM     21  C   UNL     1     -17.082 -16.155  12.104  1.00  0.00     0.282 C 
ENDBRANCH  18  20
ENDBRANCH  17  18
ENDBRANCH  15  16
ENDBRANCH  13  14
ENDBRANCH  12  13
ENDBRANCH  11  12
ENDBRANCH  10  11
ENDBRANCH   1  10
TORSDOF 15
ENDMDL
MODEL 5
REMARK VINA RESULT:    -4.059      1.862      3.665
REMARK INTER + INTRA:         -10.226
REMARK INTER:                  -8.298
REMARK INTRA:                  -1.928
REMARK UNBOUND:                -2.609
REMARK SMILES CCCCCCCCCCCCCC=CC=CC(=O)OC
REMARK SMILES IDX 9 1 8 2 7 3 6 4 5 5 4 6 3 7 2 8 1 9 10 10 11 11 12 12 13 13
REMARK SMILES IDX 14 14 15 15 16 16 17 17 18 18 19 19 20 20 21 21
REMARK H PARENT
REMARK Flexibility Score: inf
ROOT
ATOM      1  C   UNL     1     -12.622 -21.320  13.094  1.00  0.00     0.000 C 
ENDROOT
BRANCH   1   2
ATOM      2  C   UNL     1     -12.202 -21.451  14.569  1.00  0.00     0.000 C 
BRANCH   2   3
ATOM      3  C   UNL     1     -11.299 -20.295  15.030  1.00  0.00     0.000 C 
BRANCH   3   4
ATOM      4  C   UNL     1     -11.735 -19.708  16.384  1.00  0.00    -0.000 C 
BRANCH   4   5
ATOM      5  C   UNL     1     -11.028 -18.372  16.696  1.00  0.00    -0.000 C 
BRANCH   5   6
ATOM      6  C   UNL     1     -10.319 -17.752  15.478  1.00  0.00    -0.000 C 
BRANCH   6   7
ATOM      7  C   UNL     1     -10.412 -16.218  15.451  1.00  0.00    -0.000 C 
BRANCH   7   8
ATOM      8  C   UNL     1     -10.172 -15.590  16.832  1.00  0.00    -0.003 C 
ATOM      9  C   UNL     1     -10.250 -14.064  16.806  1.00  0.00     0.004 C 
ENDBRANCH   7   8
ENDBRANCH   6   7
ENDBRANCH   5   6
ENDBRANCH   4   5
ENDBRANCH   3   4
ENDBRANCH   2   3
ENDBRANCH   1   2
BRANCH   1  10
ATOM     10  C   UNL     1     -13.466 -22.511  12.611  1.00  0.00     0.000 C 
BRANCH  10  11
ATOM     11  C   UNL     1     -14.764 -22.067  11.910  1.00  0.00     0.000 C 
BRANCH  11  12
ATOM     12  C   UNL     1     -15.938 -21.877  12.889  1.00  0.00     0.004 C 
BRANCH  12  13
ATOM     13  C   UNL     1     -16.675 -20.533  12.731  1.00  0.00     0.027 C 
BRANCH  13  14
ATOM     14  C   UNL     1     -17.012 -19.882  14.046  1.00  0.00    -0.027 C 
ATOM     15  C   UNL     1     -16.166 -19.132  14.766  1.00  0.00    -0.004 C 
BRANCH  15  16
ATOM     16  C   UNL     1     -14.801 -18.774  14.320  1.00  0.00     0.007 C 
ATOM     17  C   UNL     1     -14.524 -17.777  13.467  1.00  0.00     0.093 C 
BRANCH  17  18
ATOM     18  C   UNL     1     -15.491 -16.772  12.985  1.00  0.00     0.330 C 
ATOM     19  O   UNL     1     -16.272 -17.083  12.043  1.00  0.00    -0.247 OA
BRANCH  18  20
ATOM     20  O   UNL     1     -15.502 -15.475  13.509  1.00  0.00    -0.466 OA
ATOM     21  C   UNL     1     -14.319 -14.706  13.685  1.00  0.00     0.282 C 
ENDBRANCH  18  20
ENDBRANCH  17  18
ENDBRANCH  15  16
ENDBRANCH  13  14
ENDBRANCH  12  13
ENDBRANCH  11  12
ENDBRANCH  10  11
ENDBRANCH   1  10
TORSDOF 15
ENDMDL
MODEL 6
REMARK VINA RESULT:    -4.054      2.342      5.211
REMARK INTER + INTRA:         -10.218
REMARK INTER:                  -7.876
REMARK INTRA:                  -2.342
REMARK UNBOUND:                -2.609
REMARK SMILES CCCCCCCCCCCCCC=CC=CC(=O)OC
REMARK SMILES IDX 9 1 8 2 7 3 6 4 5 5 4 6 3 7 2 8 1 9 10 10 11 11 12 12 13 13
REMARK SMILES IDX 14 14 15 15 16 16 17 17 18 18 19 19 20 20 21 21
REMARK H PARENT
REMARK Flexibility Score: inf
ROOT
ATOM      1  C   UNL     1     -15.051 -20.986  11.779  1.00  0.00     0.000 C 
ENDROOT
BRANCH   1   2
ATOM      2  C   UNL     1     -16.392 -21.726  11.934  1.00  0.00     0.000 C 
BRANCH   2   3
ATOM      3  C   UNL     1     -17.198 -21.235  13.148  1.00  0.00     0.000 C 
BRANCH   3   4
ATOM      4  C   UNL     1     -17.000 -19.734  13.422  1.00  0.00    -0.000 C 
BRANCH   4   5
ATOM      5  C   UNL     1     -16.421 -19.469  14.827  1.00  0.00    -0.000 C 
BRANCH   5   6
ATOM      6  C   UNL     1     -15.534 -18.213  14.900  1.00  0.00    -0.000 C 
BRANCH   6   7
ATOM      7  C   UNL     1     -15.183 -17.649  13.513  1.00  0.00    -0.000 C 
BRANCH   7   8
ATOM      8  C   UNL     1     -15.678 -16.208  13.321  1.00  0.00    -0.003 C 
ATOM      9  C   UNL     1     -16.888 -16.121  12.392  1.00  0.00     0.004 C 
ENDBRANCH   7   8
ENDBRANCH   6   7
ENDBRANCH   5   6
ENDBRANCH   4   5
ENDBRANCH   3   4
ENDBRANCH   2   3
ENDBRANCH   1   2
BRANCH   1  10
ATOM     10  C   UNL     1     -13.890 -21.712  12.478  1.00  0.00     0.000 C 
BRANCH  10  11
ATOM     11  C   UNL     1     -13.091 -20.784  13.411  1.00  0.00     0.000 C 
BRANCH  11  12
ATOM     12  C   UNL     1     -11.740 -21.385  13.841  1.00  0.00     0.004 C 
BRANCH  12  13
ATOM     13  C   UNL     1     -11.301 -20.988  15.264  1.00  0.00     0.027 C 
BRANCH  13  14
ATOM     14  C   UNL     1     -12.279 -20.076  15.956  1.00  0.00    -0.027 C 
ATOM     15  C   UNL     1     -11.953 -18.927  16.564  1.00  0.00    -0.004 C 
BRANCH  15  16
ATOM     16  C   UNL     1     -10.588 -18.356  16.563  1.00  0.00     0.007 C 
ATOM     17  C   UNL     1     -10.128 -17.502  15.638  1.00  0.00     0.093 C 
BRANCH  17  18
ATOM     18  C   UNL     1     -10.943 -16.856  14.591  1.00  0.00     0.330 C 
ATOM     19  O   UNL     1     -11.293 -17.537  13.587  1.00  0.00    -0.247 OA
BRANCH  18  20
ATOM     20  O   UNL     1     -11.268 -15.498  14.667  1.00  0.00    -0.466 OA
ATOM     21  C   UNL     1     -12.247 -14.893  13.832  1.00  0.00     0.282 C 
ENDBRANCH  18  20
ENDBRANCH  17  18
ENDBRANCH  15  16
ENDBRANCH  13  14
ENDBRANCH  12  13
ENDBRANCH  11  12
ENDBRANCH  10  11
ENDBRANCH   1  10
TORSDOF 15
ENDMDL
MODEL 7
REMARK VINA RESULT:    -4.049      2.837      5.602
REMARK INTER + INTRA:         -10.208
REMARK INTER:                  -7.876
REMARK INTRA:                  -2.332
REMARK UNBOUND:                -2.609
REMARK SMILES CCCCCCCCCCCCCC=CC=CC(=O)OC
REMARK SMILES IDX 9 1 8 2 7 3 6 4 5 5 4 6 3 7 2 8 1 9 10 10 11 11 12 12 13 13
REMARK SMILES IDX 14 14 15 15 16 16 17 17 18 18 19 19 20 20 21 21
REMARK H PARENT
REMARK Flexibility Score: inf
ROOT
ATOM      1  C   UNL     1     -15.103 -22.126  12.007  1.00  0.00     0.000 C 
ENDROOT
BRANCH   1   2
ATOM      2  C   UNL     1     -16.331 -21.779  12.866  1.00  0.00     0.000 C 
BRANCH   2   3
ATOM      3  C   UNL     1     -17.258 -20.759  12.185  1.00  0.00     0.000 C 
BRANCH   3   4
ATOM      4  C   UNL     1     -17.359 -19.436  12.966  1.00  0.00    -0.000 C 
BRANCH   4   5
ATOM      5  C   UNL     1     -16.577 -19.483  14.296  1.00  0.00    -0.000 C 
BRANCH   5   6
ATOM      6  C   UNL     1     -15.379 -18.518  14.339  1.00  0.00    -0.000 C 
BRANCH   6   7
ATOM      7  C   UNL     1     -15.400 -17.490  13.196  1.00  0.00    -0.000 C 
BRANCH   7   8
ATOM      8  C   UNL     1     -15.679 -16.063  13.693  1.00  0.00    -0.003 C 
ATOM      9  C   UNL     1     -14.474 -15.137  13.530  1.00  0.00     0.004 C 
ENDBRANCH   7   8
ENDBRANCH   6   7
ENDBRANCH   5   6
ENDBRANCH   4   5
ENDBRANCH   3   4
ENDBRANCH   2   3
ENDBRANCH   1   2
BRANCH   1  10
ATOM     10  C   UNL     1     -14.843 -21.091  10.899  1.00  0.00     0.000 C 
BRANCH  10  11
ATOM     11  C   UNL     1     -13.678 -20.143  11.241  1.00  0.00     0.000 C 
BRANCH  11  12
ATOM     12  C   UNL     1     -12.536 -20.846  11.997  1.00  0.00     0.004 C 
BRANCH  12  13
ATOM     13  C   UNL     1     -12.309 -20.315  13.426  1.00  0.00     0.027 C 
BRANCH  13  14
ATOM     14  C   UNL     1     -11.169 -20.993  14.139  1.00  0.00    -0.027 C 
ATOM     15  C   UNL     1     -10.898 -20.862  15.444  1.00  0.00    -0.004 C 
BRANCH  15  16
ATOM     16  C   UNL     1     -11.742 -20.092  16.385  1.00  0.00     0.007 C 
ATOM     17  C   UNL     1     -11.500 -18.824  16.749  1.00  0.00     0.093 C 
BRANCH  17  18
ATOM     18  C   UNL     1     -10.483 -17.940  16.147  1.00  0.00     0.330 C 
ATOM     19  O   UNL     1      -9.405 -17.741  16.772  1.00  0.00    -0.247 OA
BRANCH  18  20
ATOM     20  O   UNL     1     -10.730 -17.279  14.939  1.00  0.00    -0.466 OA
ATOM     21  C   UNL     1      -9.932 -17.475  13.779  1.00  0.00     0.282 C 
ENDBRANCH  18  20
ENDBRANCH  17  18
ENDBRANCH  15  16
ENDBRANCH  13  14
ENDBRANCH  12  13
ENDBRANCH  11  12
ENDBRANCH  10  11
ENDBRANCH   1  10
TORSDOF 15
ENDMDL
MODEL 8
REMARK VINA RESULT:    -4.008      1.550      3.574
REMARK INTER + INTRA:         -10.131
REMARK INTER:                  -7.498
REMARK INTRA:                  -2.633
REMARK UNBOUND:                -2.609
REMARK SMILES CCCCCCCCCCCCCC=CC=CC(=O)OC
REMARK SMILES IDX 9 1 8 2 7 3 6 4 5 5 4 6 3 7 2 8 1 9 10 10 11 11 12 12 13 13
REMARK SMILES IDX 14 14 15 15 16 16 17 17 18 18 19 19 20 20 21 21
REMARK H PARENT
REMARK Flexibility Score: inf
ROOT
ATOM      1  C   UNL     1     -12.214 -19.790  12.609  1.00  0.00     0.000 C 
ENDROOT
BRANCH   1   2
ATOM      2  C   UNL     1     -11.370 -20.688  13.532  1.00  0.00     0.000 C 
BRANCH   2   3
ATOM      3  C   UNL     1     -12.191 -21.278  14.690  1.00  0.00     0.000 C 
BRANCH   3   4
ATOM      4  C   UNL     1     -11.736 -20.755  16.064  1.00  0.00    -0.000 C 
BRANCH   4   5
ATOM      5  C   UNL     1     -12.189 -19.301  16.314  1.00  0.00    -0.000 C 
BRANCH   5   6
ATOM      6  C   UNL     1     -11.052 -18.373  16.777  1.00  0.00    -0.000 C 
BRANCH   6   7
ATOM      7  C   UNL     1     -10.297 -17.725  15.605  1.00  0.00    -0.000 C 
BRANCH   7   8
ATOM      8  C   UNL     1      -8.784 -17.986  15.663  1.00  0.00    -0.003 C 
ATOM      9  C   UNL     1      -8.303 -18.905  14.540  1.00  0.00     0.004 C 
ENDBRANCH   7   8
ENDBRANCH   6   7
ENDBRANCH   5   6
ENDBRANCH   4   5
ENDBRANCH   3   4
ENDBRANCH   2   3
ENDBRANCH   1   2
BRANCH   1  10
ATOM     10  C   UNL     1     -12.713 -20.532  11.358  1.00  0.00     0.000 C 
BRANCH  10  11
ATOM     11  C   UNL     1     -14.244 -20.470  11.208  1.00  0.00     0.000 C 
BRANCH  11  12
ATOM     12  C   UNL     1     -14.931 -21.813  11.519  1.00  0.00     0.004 C 
BRANCH  12  13
ATOM     13  C   UNL     1     -15.857 -21.774  12.750  1.00  0.00     0.027 C 
BRANCH  13  14
ATOM     14  C   UNL     1     -16.947 -20.741  12.643  1.00  0.00    -0.027 C 
ATOM     15  C   UNL     1     -17.039 -19.645  13.409  1.00  0.00    -0.004 C 
BRANCH  15  16
ATOM     16  C   UNL     1     -16.026 -19.259  14.416  1.00  0.00     0.007 C 
ATOM     17  C   UNL     1     -15.199 -18.211  14.291  1.00  0.00     0.093 C 
BRANCH  17  18
ATOM     18  C   UNL     1     -15.282 -17.179  13.240  1.00  0.00     0.330 C 
ATOM     19  O   UNL     1     -14.377 -17.133  12.361  1.00  0.00    -0.247 OA
BRANCH  18  20
ATOM     20  O   UNL     1     -16.302 -16.222  13.249  1.00  0.00    -0.466 OA
ATOM     21  C   UNL     1     -17.172 -16.015  12.143  1.00  0.00     0.282 C 
ENDBRANCH  18  20
ENDBRANCH  17  18
ENDBRANCH  15  16
ENDBRANCH  13  14
ENDBRANCH  12  13
ENDBRANCH  11  12
ENDBRANCH  10  11
ENDBRANCH   1  10
TORSDOF 15
ENDMDL
MODEL 9
REMARK VINA RESULT:    -3.985      1.639      3.872
REMARK INTER + INTRA:         -10.089
REMARK INTER:                  -7.405
REMARK INTRA:                  -2.684
REMARK UNBOUND:                -2.609
REMARK SMILES CCCCCCCCCCCCCC=CC=CC(=O)OC
REMARK SMILES IDX 9 1 8 2 7 3 6 4 5 5 4 6 3 7 2 8 1 9 10 10 11 11 12 12 13 13
REMARK SMILES IDX 14 14 15 15 16 16 17 17 18 18 19 19 20 20 21 21
REMARK H PARENT
REMARK Flexibility Score: inf
ROOT
ATOM      1  C   UNL     1     -11.381 -21.372  13.607  1.00  0.00     0.000 C 
ENDROOT
BRANCH   1   2
ATOM      2  C   UNL     1     -10.761 -21.007  14.967  1.00  0.00     0.000 C 
BRANCH   2   3
ATOM      3  C   UNL     1     -11.821 -20.646  16.021  1.00  0.00     0.000 C 
BRANCH   3   4
ATOM      4  C   UNL     1     -11.804 -19.152  16.390  1.00  0.00    -0.000 C 
BRANCH   4   5
ATOM      5  C   UNL     1     -10.491 -18.461  15.963  1.00  0.00    -0.000 C 
BRANCH   5   6
ATOM      6  C   UNL     1     -10.704 -17.275  15.005  1.00  0.00    -0.000 C 
BRANCH   6   7
ATOM      7  C   UNL     1     -10.471 -17.650  13.532  1.00  0.00    -0.000 C 
BRANCH   7   8
ATOM      8  C   UNL     1     -11.732 -17.471  12.673  1.00  0.00    -0.003 C 
ATOM      9  C   UNL     1     -11.713 -18.335  11.413  1.00  0.00     0.004 C 
ENDBRANCH   7   8
ENDBRANCH   6   7
ENDBRANCH   5   6
ENDBRANCH   4   5
ENDBRANCH   3   4
ENDBRANCH   2   3
ENDBRANCH   1   2
BRANCH   1  10
ATOM     10  C   UNL     1     -12.893 -21.096  13.553  1.00  0.00     0.000 C 
BRANCH  10  11
ATOM     11  C   UNL     1     -13.622 -22.004  12.545  1.00  0.00     0.000 C 
BRANCH  11  12
ATOM     12  C   UNL     1     -15.142 -22.063  12.783  1.00  0.00     0.004 C 
BRANCH  12  13
ATOM     13  C   UNL     1     -15.902 -20.810  12.306  1.00  0.00     0.027 C 
BRANCH  13  14
ATOM     14  C   UNL     1     -16.967 -20.358  13.269  1.00  0.00    -0.027 C 
ATOM     15  C   UNL     1     -16.750 -19.577  14.337  1.00  0.00    -0.004 C 
BRANCH  15  16
ATOM     16  C   UNL     1     -15.436 -18.983  14.667  1.00  0.00     0.007 C 
ATOM     17  C   UNL     1     -14.968 -17.845  14.133  1.00  0.00     0.093 C 
BRANCH  17  18
ATOM     18  C   UNL     1     -15.742 -16.916  13.287  1.00  0.00     0.330 C 
ATOM     19  O   UNL     1     -16.133 -15.825  13.785  1.00  0.00    -0.247 OA
BRANCH  18  20
ATOM     20  O   UNL     1     -16.097 -17.261  11.979  1.00  0.00    -0.466 OA
ATOM     21  C   UNL     1     -17.427 -17.145  11.488  1.00  0.00     0.282 C 
ENDBRANCH  18  20
ENDBRANCH  17  18
ENDBRANCH  15  16
ENDBRANCH  13  14
ENDBRANCH  12  13
ENDBRANCH  11  12
ENDBRANCH  10  11
ENDBRANCH   1  10
TORSDOF 15
ENDMDL
