MODEL 1
REMARK VINA RESULT:    -3.971      0.000      0.000
REMARK INTER + INTRA:          -9.573
REMARK INTER:                  -7.221
REMARK INTRA:                  -2.352
REMARK UNBOUND:                -2.352
REMARK SMILES CCCCCCCCCCCCCCCC(=O)[O-]
REMARK SMILES IDX 9 1 10 2 11 3 12 4 13 5 14 6 15 7 16 8 17 9 18 10 8 11 7 12
REMARK SMILES IDX 6 13 5 14 4 15 3 16 2 17 1 18
REMARK H PARENT
REMARK Flexibility Score: inf
ROOT
ATOM      1  C   UNL     1      36.323  36.384  25.268  1.00  0.00     0.000 C 
ENDROOT
BRANCH   1   2
ATOM      2  C   UNL     1      34.876  35.875  25.323  1.00  0.00     0.000 C 
BRANCH   2   3
ATOM      3  C   UNL     1      34.765  34.471  24.710  1.00  0.00     0.000 C 
BRANCH   3   4
ATOM      4  C   UNL     1      34.010  33.486  25.619  1.00  0.00     0.000 C 
BRANCH   4   5
ATOM      5  C   UNL     1      34.277  32.017  25.246  1.00  0.00     0.000 C 
BRANCH   5   6
ATOM      6  C   UNL     1      34.926  31.870  23.860  1.00  0.00     0.006 C 
BRANCH   6   7
ATOM      7  C   UNL     1      34.288  30.756  23.020  1.00  0.00     0.053 C 
BRANCH   7   8
ATOM      8  C   UNL     1      33.147  31.295  22.218  1.00  0.00     0.041 C 
ATOM      9  O   UNL     1      32.952  32.537  22.148  1.00  0.00    -0.550 OA
ATOM     10  O   UNL     1      32.322  30.428  21.512  1.00  0.00    -0.550 OA
ENDBRANCH   7   8
ENDBRANCH   6   7
ENDBRANCH   5   6
ENDBRANCH   4   5
ENDBRANCH   3   4
ENDBRANCH   2   3
ENDBRANCH   1   2
BRANCH   1  11
ATOM     11  C   UNL     1      37.293  35.247  24.916  1.00  0.00     0.000 C 
BRANCH  11  12
ATOM     12  C   UNL     1      38.198  34.858  26.097  1.00  0.00    -0.000 C 
BRANCH  12  13
ATOM     13  C   UNL     1      37.775  33.535  26.756  1.00  0.00    -0.000 C 
BRANCH  13  14
ATOM     14  C   UNL     1      36.714  33.726  27.852  1.00  0.00    -0.000 C 
BRANCH  14  15
ATOM     15  C   UNL     1      37.010  34.908  28.800  1.00  0.00    -0.000 C 
BRANCH  15  16
ATOM     16  C   UNL     1      35.807  35.852  28.946  1.00  0.00    -0.000 C 
BRANCH  16  17
ATOM     17  C   UNL     1      36.262  37.271  29.307  1.00  0.00    -0.003 C 
ATOM     18  C   UNL     1      37.576  37.620  28.614  1.00  0.00     0.004 C 
ENDBRANCH  16  17
ENDBRANCH  15  16
ENDBRANCH  14  15
ENDBRANCH  13  14
ENDBRANCH  12  13
ENDBRANCH  11  12
ENDBRANCH   1  11
TORSDOF 14
ENDMDL
MODEL 2
REMARK VINA RESULT:    -3.930      3.272      6.879
REMARK INTER + INTRA:          -9.498
REMARK INTER:                  -7.583
REMARK INTRA:                  -1.916
REMARK UNBOUND:                -2.352
REMARK SMILES CCCCCCCCCCCCCCCC(=O)[O-]
REMARK SMILES IDX 9 1 10 2 11 3 12 4 13 5 14 6 15 7 16 8 17 9 18 10 8 11 7 12
REMARK SMILES IDX 6 13 5 14 4 15 3 16 2 17 1 18
REMARK H PARENT
REMARK Flexibility Score: inf
ROOT
ATOM      1  C   UNL     1      34.106  33.903  23.839  1.00  0.00     0.000 C 
ENDROOT
BRANCH   1   2
ATOM      2  C   UNL     1      33.588  32.806  24.779  1.00  0.00     0.000 C 
BRANCH   2   3
ATOM      3  C   UNL     1      34.564  32.573  25.942  1.00  0.00     0.000 C 
BRANCH   3   4
ATOM      4  C   UNL     1      35.460  33.793  26.217  1.00  0.00     0.000 C 
BRANCH   4   5
ATOM      5  C   UNL     1      36.632  33.463  27.158  1.00  0.00     0.000 C 
BRANCH   5   6
ATOM      6  C   UNL     1      37.354  34.723  27.664  1.00  0.00     0.006 C 
BRANCH   6   7
ATOM      7  C   UNL     1      36.897  35.146  29.066  1.00  0.00     0.053 C 
BRANCH   7   8
ATOM      8  C   UNL     1      36.090  36.403  28.995  1.00  0.00     0.041 C 
ATOM      9  O   UNL     1      34.893  36.367  28.603  1.00  0.00    -0.550 OA
ATOM     10  O   UNL     1      36.644  37.611  29.403  1.00  0.00    -0.550 OA
ENDBRANCH   7   8
ENDBRANCH   6   7
ENDBRANCH   5   6
ENDBRANCH   4   5
ENDBRANCH   3   4
ENDBRANCH   2   3
ENDBRANCH   1   2
BRANCH   1  11
ATOM     11  C   UNL     1      33.612  33.674  22.403  1.00  0.00     0.000 C 
BRANCH  11  12
ATOM     12  C   UNL     1      32.869  32.338  22.239  1.00  0.00    -0.000 C 
BRANCH  12  13
ATOM     13  C   UNL     1      33.528  31.418  21.200  1.00  0.00    -0.000 C 
BRANCH  13  14
ATOM     14  C   UNL     1      33.903  30.040  21.772  1.00  0.00    -0.000 C 
BRANCH  14  15
ATOM     15  C   UNL     1      34.816  30.115  23.014  1.00  0.00    -0.000 C 
BRANCH  15  16
ATOM     16  C   UNL     1      36.293  30.314  22.639  1.00  0.00    -0.000 C 
BRANCH  16  17
ATOM     17  C   UNL     1      36.874  31.554  23.328  1.00  0.00    -0.003 C 
ATOM     18  C   UNL     1      37.843  31.162  24.439  1.00  0.00     0.004 C 
ENDBRANCH  16  17
ENDBRANCH  15  16
ENDBRANCH  14  15
ENDBRANCH  13  14
ENDBRANCH  12  13
ENDBRANCH  11  12
ENDBRANCH   1  11
TORSDOF 14
ENDMDL
MODEL 3
REMARK VINA RESULT:    -3.901      3.111      7.718
REMARK INTER + INTRA:          -9.446
REMARK INTER:                  -7.928
REMARK INTRA:                  -1.519
REMARK UNBOUND:                -2.352
REMARK SMILES CCCCCCCCCCCCCCCC(=O)[O-]
REMARK SMILES IDX 9 1 10 2 11 3 12 4 13 5 14 6 15 7 16 8 17 9 18 10 8 11 7 12
REMARK SMILES IDX 6 13 5 14 4 15 3 16 2 17 1 18
REMARK H PARENT
REMARK Flexibility Score: inf
ROOT
ATOM      1  C   UNL     1      34.372  33.583  23.647  1.00  0.00     0.000 C 
ENDROOT
BRANCH   1   2
ATOM      2  C   UNL     1      33.641  33.210  24.944  1.00  0.00     0.000 C 
BRANCH   2   3
ATOM      3  C   UNL     1      34.524  32.324  25.836  1.00  0.00     0.000 C 
BRANCH   3   4
ATOM      4  C   UNL     1      35.985  32.270  25.358  1.00  0.00     0.000 C 
BRANCH   4   5
ATOM      5  C   UNL     1      36.983  32.623  26.475  1.00  0.00     0.000 C 
BRANCH   5   6
ATOM      6  C   UNL     1      37.069  34.136  26.731  1.00  0.00     0.006 C 
BRANCH   6   7
ATOM      7  C   UNL     1      36.590  34.530  28.134  1.00  0.00     0.053 C 
BRANCH   7   8
ATOM      8  C   UNL     1      35.718  35.742  28.068  1.00  0.00     0.041 C 
ATOM      9  O   UNL     1      35.178  36.076  26.980  1.00  0.00    -0.550 OA
ATOM     10  O   UNL     1      35.465  36.482  29.217  1.00  0.00    -0.550 OA
ENDBRANCH   7   8
ENDBRANCH   6   7
ENDBRANCH   5   6
ENDBRANCH   4   5
ENDBRANCH   3   4
ENDBRANCH   2   3
ENDBRANCH   1   2
BRANCH   1  11
ATOM     11  C   UNL     1      33.508  33.264  22.418  1.00  0.00     0.000 C 
BRANCH  11  12
ATOM     12  C   UNL     1      32.914  31.847  22.465  1.00  0.00    -0.000 C 
BRANCH  12  13
ATOM     13  C   UNL     1      33.994  30.753  22.494  1.00  0.00    -0.000 C 
BRANCH  13  14
ATOM     14  C   UNL     1      33.426  29.347  22.240  1.00  0.00    -0.000 C 
BRANCH  14  15
ATOM     15  C   UNL     1      32.373  29.300  21.113  1.00  0.00    -0.000 C 
BRANCH  15  16
ATOM     16  C   UNL     1      32.993  28.950  19.751  1.00  0.00    -0.000 C 
BRANCH  16  17
ATOM     17  C   UNL     1      32.694  30.040  18.715  1.00  0.00    -0.003 C 
ATOM     18  C   UNL     1      33.678  31.200  18.837  1.00  0.00     0.004 C 
ENDBRANCH  16  17
ENDBRANCH  15  16
ENDBRANCH  14  15
ENDBRANCH  13  14
ENDBRANCH  12  13
ENDBRANCH  11  12
ENDBRANCH   1  11
TORSDOF 14
ENDMDL
MODEL 4
REMARK VINA RESULT:    -3.868      1.763      3.484
REMARK INTER + INTRA:          -9.386
REMARK INTER:                  -8.174
REMARK INTRA:                  -1.211
REMARK UNBOUND:                -2.352
REMARK SMILES CCCCCCCCCCCCCCCC(=O)[O-]
REMARK SMILES IDX 9 1 10 2 11 3 12 4 13 5 14 6 15 7 16 8 17 9 18 10 8 11 7 12
REMARK SMILES IDX 6 13 5 14 4 15 3 16 2 17 1 18
REMARK H PARENT
REMARK Flexibility Score: inf
ROOT
ATOM      1  C   UNL     1      34.369  31.941  25.438  1.00  0.00     0.000 C 
ENDROOT
BRANCH   1   2
ATOM      2  C   UNL     1      35.477  31.789  24.388  1.00  0.00     0.000 C 
BRANCH   2   3
ATOM      3  C   UNL     1      35.046  30.827  23.271  1.00  0.00     0.000 C 
BRANCH   3   4
ATOM      4  C   UNL     1      34.200  31.516  22.188  1.00  0.00     0.000 C 
BRANCH   4   5
ATOM      5  C   UNL     1      32.854  30.809  21.953  1.00  0.00     0.000 C 
BRANCH   5   6
ATOM      6  C   UNL     1      32.983  29.277  21.966  1.00  0.00     0.006 C 
BRANCH   6   7
ATOM      7  C   UNL     1      32.555  28.634  20.641  1.00  0.00     0.053 C 
BRANCH   7   8
ATOM      8  C   UNL     1      33.338  29.207  19.504  1.00  0.00     0.041 C 
ATOM      9  O   UNL     1      32.756  29.872  18.605  1.00  0.00    -0.550 OA
ATOM     10  O   UNL     1      34.717  29.044  19.455  1.00  0.00    -0.550 OA
ENDBRANCH   7   8
ENDBRANCH   6   7
ENDBRANCH   5   6
ENDBRANCH   4   5
ENDBRANCH   3   4
ENDBRANCH   2   3
ENDBRANCH   1   2
BRANCH   1  11
ATOM     11  C   UNL     1      34.048  33.422  25.688  1.00  0.00     0.000 C 
BRANCH  11  12
ATOM     12  C   UNL     1      34.613  34.342  24.593  1.00  0.00    -0.000 C 
BRANCH  12  13
ATOM     13  C   UNL     1      35.064  35.706  25.140  1.00  0.00    -0.000 C 
BRANCH  13  14
ATOM     14  C   UNL     1      35.083  35.757  26.677  1.00  0.00    -0.000 C 
BRANCH  14  15
ATOM     15  C   UNL     1      36.496  35.618  27.282  1.00  0.00    -0.000 C 
BRANCH  15  16
ATOM     16  C   UNL     1      36.475  34.944  28.663  1.00  0.00    -0.000 C 
BRANCH  16  17
ATOM     17  C   UNL     1      36.018  35.926  29.748  1.00  0.00    -0.003 C 
ATOM     18  C   UNL     1      36.728  37.269  29.608  1.00  0.00     0.004 C 
ENDBRANCH  16  17
ENDBRANCH  15  16
ENDBRANCH  14  15
ENDBRANCH  13  14
ENDBRANCH  12  13
ENDBRANCH  11  12
ENDBRANCH   1  11
TORSDOF 14
ENDMDL
MODEL 5
REMARK VINA RESULT:    -3.858      2.400      4.266
REMARK INTER + INTRA:          -9.367
REMARK INTER:                  -8.310
REMARK INTRA:                  -1.058
REMARK UNBOUND:                -2.352
REMARK SMILES CCCCCCCCCCCCCCCC(=O)[O-]
REMARK SMILES IDX 9 1 10 2 11 3 12 4 13 5 14 6 15 7 16 8 17 9 18 10 8 11 7 12
REMARK SMILES IDX 6 13 5 14 4 15 3 16 2 17 1 18
REMARK H PARENT
REMARK Flexibility Score: inf
ROOT
ATOM      1  C   UNL     1      33.233  32.753  22.887  1.00  0.00     0.000 C 
ENDROOT
BRANCH   1   2
ATOM      2  C   UNL     1      32.944  31.540  21.994  1.00  0.00     0.000 C 
BRANCH   2   3
ATOM      3  C   UNL     1      33.879  30.370  22.337  1.00  0.00     0.000 C 
BRANCH   3   4
ATOM      4  C   UNL     1      33.208  28.999  22.146  1.00  0.00     0.000 C 
BRANCH   4   5
ATOM      5  C   UNL     1      32.428  28.905  20.823  1.00  0.00     0.000 C 
BRANCH   5   6
ATOM      6  C   UNL     1      33.344  28.649  19.615  1.00  0.00     0.006 C 
BRANCH   6   7
ATOM      7  C   UNL     1      32.923  29.441  18.371  1.00  0.00     0.053 C 
BRANCH   7   8
ATOM      8  C   UNL     1      33.632  30.756  18.323  1.00  0.00     0.041 C 
ATOM      9  O   UNL     1      33.107  31.738  17.734  1.00  0.00    -0.550 OA
ATOM     10  O   UNL     1      34.855  30.912  18.964  1.00  0.00    -0.550 OA
ENDBRANCH   7   8
ENDBRANCH   6   7
ENDBRANCH   5   6
ENDBRANCH   4   5
ENDBRANCH   3   4
ENDBRANCH   2   3
ENDBRANCH   1   2
BRANCH   1  11
ATOM     11  C   UNL     1      34.464  32.504  23.772  1.00  0.00     0.000 C 
BRANCH  11  12
ATOM     12  C   UNL     1      34.110  32.423  25.266  1.00  0.00    -0.000 C 
BRANCH  12  13
ATOM     13  C   UNL     1      35.110  33.181  26.153  1.00  0.00    -0.000 C 
BRANCH  13  14
ATOM     14  C   UNL     1      35.019  34.707  25.988  1.00  0.00    -0.000 C 
BRANCH  14  15
ATOM     15  C   UNL     1      36.071  35.482  26.809  1.00  0.00    -0.000 C 
BRANCH  15  16
ATOM     16  C   UNL     1      36.678  34.626  27.932  1.00  0.00    -0.000 C 
BRANCH  16  17
ATOM     17  C   UNL     1      36.529  35.317  29.292  1.00  0.00    -0.003 C 
ATOM     18  C   UNL     1      35.826  36.664  29.151  1.00  0.00     0.004 C 
ENDBRANCH  16  17
ENDBRANCH  15  16
ENDBRANCH  14  15
ENDBRANCH  13  14
ENDBRANCH  12  13
ENDBRANCH  11  12
ENDBRANCH   1  11
TORSDOF 14
ENDMDL
MODEL 6
REMARK VINA RESULT:    -3.854      4.734      8.754
REMARK INTER + INTRA:          -9.359
REMARK INTER:                  -8.648
REMARK INTRA:                  -0.712
REMARK UNBOUND:                -2.352
REMARK SMILES CCCCCCCCCCCCCCCC(=O)[O-]
REMARK SMILES IDX 9 1 10 2 11 3 12 4 13 5 14 6 15 7 16 8 17 9 18 10 8 11 7 12
REMARK SMILES IDX 6 13 5 14 4 15 3 16 2 17 1 18
REMARK H PARENT
REMARK Flexibility Score: inf
ROOT
ATOM      1  C   UNL     1      36.278  33.195  26.818  1.00  0.00     0.000 C 
ENDROOT
BRANCH   1   2
ATOM      2  C   UNL     1      36.711  34.249  27.846  1.00  0.00     0.000 C 
BRANCH   2   3
ATOM      3  C   UNL     1      36.072  35.611  27.536  1.00  0.00     0.000 C 
BRANCH   3   4
ATOM      4  C   UNL     1      35.422  36.257  28.771  1.00  0.00     0.000 C 
BRANCH   4   5
ATOM      5  C   UNL     1      36.458  36.877  29.725  1.00  0.00     0.000 C 
BRANCH   5   6
ATOM      6  C   UNL     1      37.294  37.978  29.051  1.00  0.00     0.006 C 
BRANCH   6   7
ATOM      7  C   UNL     1      38.728  38.047  29.590  1.00  0.00     0.053 C 
BRANCH   7   8
ATOM      8  C   UNL     1      38.980  39.370  30.241  1.00  0.00     0.041 C 
ATOM      9  O   UNL     1      39.374  40.350  29.554  1.00  0.00    -0.550 OA
ATOM     10  O   UNL     1      38.739  39.534  31.600  1.00  0.00    -0.550 OA
ENDBRANCH   7   8
ENDBRANCH   6   7
ENDBRANCH   5   6
ENDBRANCH   4   5
ENDBRANCH   3   4
ENDBRANCH   2   3
ENDBRANCH   1   2
BRANCH   1  11
ATOM     11  C   UNL     1      35.217  33.760  25.863  1.00  0.00     0.000 C 
BRANCH  11  12
ATOM     12  C   UNL     1      34.093  32.753  25.567  1.00  0.00    -0.000 C 
BRANCH  12  13
ATOM     13  C   UNL     1      33.705  32.719  24.080  1.00  0.00    -0.000 C 
BRANCH  13  14
ATOM     14  C   UNL     1      34.648  31.845  23.236  1.00  0.00    -0.000 C 
BRANCH  14  15
ATOM     15  C   UNL     1      34.043  30.478  22.851  1.00  0.00    -0.000 C 
BRANCH  15  16
ATOM     16  C   UNL     1      32.839  30.620  21.908  1.00  0.00    -0.000 C 
BRANCH  16  17
ATOM     17  C   UNL     1      32.277  29.246  21.523  1.00  0.00    -0.003 C 
ATOM     18  C   UNL     1      33.010  28.671  20.315  1.00  0.00     0.004 C 
ENDBRANCH  16  17
ENDBRANCH  15  16
ENDBRANCH  14  15
ENDBRANCH  13  14
ENDBRANCH  12  13
ENDBRANCH  11  12
ENDBRANCH   1  11
TORSDOF 14
ENDMDL
MODEL 7
REMARK VINA RESULT:    -3.837      2.878      4.600
REMARK INTER + INTRA:          -9.330
REMARK INTER:                  -6.954
REMARK INTRA:                  -2.376
REMARK UNBOUND:                -2.352
REMARK SMILES CCCCCCCCCCCCCCCC(=O)[O-]
REMARK SMILES IDX 9 1 10 2 11 3 12 4 13 5 14 6 15 7 16 8 17 9 18 10 8 11 7 12
REMARK SMILES IDX 6 13 5 14 4 15 3 16 2 17 1 18
REMARK H PARENT
REMARK Flexibility Score: inf
ROOT
ATOM      1  C   UNL     1      37.337  32.078  23.134  1.00  0.00     0.000 C 
ENDROOT
BRANCH   1   2
ATOM      2  C   UNL     1      36.160  31.621  22.262  1.00  0.00     0.000 C 
BRANCH   2   3
ATOM      3  C   UNL     1      35.686  30.218  22.671  1.00  0.00     0.000 C 
BRANCH   3   4
ATOM      4  C   UNL     1      34.175  30.160  22.949  1.00  0.00     0.000 C 
BRANCH   4   5
ATOM      5  C   UNL     1      33.358  30.983  21.938  1.00  0.00     0.000 C 
BRANCH   5   6
ATOM      6  C   UNL     1      32.286  30.142  21.224  1.00  0.00     0.006 C 
BRANCH   6   7
ATOM      7  C   UNL     1      32.795  28.755  20.814  1.00  0.00     0.053 C 
BRANCH   7   8
ATOM      8  C   UNL     1      33.340  28.787  19.421  1.00  0.00     0.041 C 
ATOM      9  O   UNL     1      34.137  27.892  19.032  1.00  0.00    -0.550 OA
ATOM     10  O   UNL     1      32.937  29.782  18.539  1.00  0.00    -0.550 OA
ENDBRANCH   7   8
ENDBRANCH   6   7
ENDBRANCH   5   6
ENDBRANCH   4   5
ENDBRANCH   3   4
ENDBRANCH   2   3
ENDBRANCH   1   2
BRANCH   1  11
ATOM     11  C   UNL     1      37.246  31.472  24.542  1.00  0.00     0.000 C 
BRANCH  11  12
ATOM     12  C   UNL     1      37.498  32.509  25.649  1.00  0.00    -0.000 C 
BRANCH  12  13
ATOM     13  C   UNL     1      36.201  32.977  26.328  1.00  0.00    -0.000 C 
BRANCH  13  14
ATOM     14  C   UNL     1      34.962  32.206  25.845  1.00  0.00    -0.000 C 
BRANCH  14  15
ATOM     15  C   UNL     1      33.871  33.111  25.234  1.00  0.00    -0.000 C 
BRANCH  15  16
ATOM     16  C   UNL     1      34.463  34.341  24.529  1.00  0.00    -0.000 C 
BRANCH  16  17
ATOM     17  C   UNL     1      33.893  34.492  23.114  1.00  0.00    -0.003 C 
ATOM     18  C   UNL     1      34.921  35.109  22.170  1.00  0.00     0.004 C 
ENDBRANCH  16  17
ENDBRANCH  15  16
ENDBRANCH  14  15
ENDBRANCH  13  14
ENDBRANCH  12  13
ENDBRANCH  11  12
ENDBRANCH   1  11
TORSDOF 14
ENDMDL
MODEL 8
REMARK VINA RESULT:    -3.825      2.182      4.020
REMARK INTER + INTRA:          -9.307
REMARK INTER:                  -7.265
REMARK INTRA:                  -2.041
REMARK UNBOUND:                -2.352
REMARK SMILES CCCCCCCCCCCCCCCC(=O)[O-]
REMARK SMILES IDX 9 1 10 2 11 3 12 4 13 5 14 6 15 7 16 8 17 9 18 10 8 11 7 12
REMARK SMILES IDX 6 13 5 14 4 15 3 16 2 17 1 18
REMARK H PARENT
REMARK Flexibility Score: inf
ROOT
ATOM      1  C   UNL     1      36.441  32.191  22.669  1.00  0.00     0.000 C 
ENDROOT
BRANCH   1   2
ATOM      2  C   UNL     1      35.397  31.736  21.641  1.00  0.00     0.000 C 
BRANCH   2   3
ATOM      3  C   UNL     1      34.136  32.611  21.715  1.00  0.00     0.000 C 
BRANCH   3   4
ATOM      4  C   UNL     1      32.900  31.831  22.193  1.00  0.00     0.000 C 
BRANCH   4   5
ATOM      5  C   UNL     1      33.108  30.307  22.137  1.00  0.00     0.000 C 
BRANCH   5   6
ATOM      6  C   UNL     1      32.299  29.643  21.011  1.00  0.00     0.006 C 
BRANCH   6   7
ATOM      7  C   UNL     1      33.135  28.666  20.175  1.00  0.00     0.053 C 
BRANCH   7   8
ATOM      8  C   UNL     1      33.356  29.209  18.799  1.00  0.00     0.041 C 
ATOM      9  O   UNL     1      33.102  28.499  17.790  1.00  0.00    -0.550 OA
ATOM     10  O   UNL     1      33.801  30.514  18.629  1.00  0.00    -0.550 OA
ENDBRANCH   7   8
ENDBRANCH   6   7
ENDBRANCH   5   6
ENDBRANCH   4   5
ENDBRANCH   3   4
ENDBRANCH   2   3
ENDBRANCH   1   2
BRANCH   1  11
ATOM     11  C   UNL     1      36.432  31.277  23.903  1.00  0.00     0.000 C 
BRANCH  11  12
ATOM     12  C   UNL     1      36.216  32.055  25.212  1.00  0.00    -0.000 C 
BRANCH  12  13
ATOM     13  C   UNL     1      34.748  32.053  25.667  1.00  0.00    -0.000 C 
BRANCH  13  14
ATOM     14  C   UNL     1      34.033  33.384  25.385  1.00  0.00    -0.000 C 
BRANCH  14  15
ATOM     15  C   UNL     1      34.981  34.602  25.361  1.00  0.00    -0.000 C 
BRANCH  15  16
ATOM     16  C   UNL     1      34.980  35.365  26.695  1.00  0.00    -0.000 C 
BRANCH  16  17
ATOM     17  C   UNL     1      36.401  35.486  27.260  1.00  0.00    -0.003 C 
ATOM     18  C   UNL     1      36.747  34.289  28.140  1.00  0.00     0.004 C 
ENDBRANCH  16  17
ENDBRANCH  15  16
ENDBRANCH  14  15
ENDBRANCH  13  14
ENDBRANCH  12  13
ENDBRANCH  11  12
ENDBRANCH   1  11
TORSDOF 14
ENDMDL
MODEL 9
REMARK VINA RESULT:    -3.785      3.966      6.757
REMARK INTER + INTRA:          -9.234
REMARK INTER:                  -7.036
REMARK INTRA:                  -2.198
REMARK UNBOUND:                -2.352
REMARK SMILES CCCCCCCCCCCCCCCC(=O)[O-]
REMARK SMILES IDX 9 1 10 2 11 3 12 4 13 5 14 6 15 7 16 8 17 9 18 10 8 11 7 12
REMARK SMILES IDX 6 13 5 14 4 15 3 16 2 17 1 18
REMARK H PARENT
REMARK Flexibility Score: inf
ROOT
ATOM      1  C   UNL     1      37.792  33.869  25.331  1.00  0.00     0.000 C 
ENDROOT
BRANCH   1   2
ATOM      2  C   UNL     1      37.639  33.094  26.647  1.00  0.00     0.000 C 
BRANCH   2   3
ATOM      3  C   UNL     1      36.622  33.778  27.572  1.00  0.00     0.000 C 
BRANCH   3   4
ATOM      4  C   UNL     1      36.447  35.274  27.257  1.00  0.00     0.000 C 
BRANCH   4   5
ATOM      5  C   UNL     1      35.489  35.974  28.237  1.00  0.00     0.000 C 
BRANCH   5   6
ATOM      6  C   UNL     1      36.186  36.397  29.541  1.00  0.00     0.006 C 
BRANCH   6   7
ATOM      7  C   UNL     1      37.702  36.562  29.378  1.00  0.00     0.053 C 
BRANCH   7   8
ATOM      8  C   UNL     1      38.073  38.011  29.372  1.00  0.00     0.041 C 
ATOM      9  O   UNL     1      39.249  38.365  29.653  1.00  0.00    -0.550 OA
ATOM     10  O   UNL     1      37.131  38.970  29.017  1.00  0.00    -0.550 OA
ENDBRANCH   7   8
ENDBRANCH   6   7
ENDBRANCH   5   6
ENDBRANCH   4   5
ENDBRANCH   3   4
ENDBRANCH   2   3
ENDBRANCH   1   2
BRANCH   1  11
ATOM     11  C   UNL     1      37.630  32.936  24.122  1.00  0.00     0.000 C 
BRANCH  11  12
ATOM     12  C   UNL     1      37.214  31.512  24.526  1.00  0.00    -0.000 C 
BRANCH  12  13
ATOM     13  C   UNL     1      36.250  30.868  23.517  1.00  0.00    -0.000 C 
BRANCH  13  14
ATOM     14  C   UNL     1      34.798  31.344  23.690  1.00  0.00    -0.000 C 
BRANCH  14  15
ATOM     15  C   UNL     1      34.456  31.771  25.133  1.00  0.00    -0.000 C 
BRANCH  15  16
ATOM     16  C   UNL     1      33.852  33.182  25.195  1.00  0.00    -0.000 C 
BRANCH  16  17
ATOM     17  C   UNL     1      34.019  33.911  23.857  1.00  0.00    -0.003 C 
ATOM     18  C   UNL     1      34.622  35.298  24.057  1.00  0.00     0.004 C 
ENDBRANCH  16  17
ENDBRANCH  15  16
ENDBRANCH  14  15
ENDBRANCH  13  14
ENDBRANCH  12  13
ENDBRANCH  11  12
ENDBRANCH   1  11
TORSDOF 14
ENDMDL
