MODEL 1
REMARK VINA RESULT:    13.659      0.000      0.000
REMARK INTER + INTRA:          16.902
REMARK INTER:                  16.454
REMARK INTRA:                   0.448
REMARK UNBOUND:                 0.448
REMARK SMILES Oc1cc(O)c2cc(O)c(-c3ccc(O)c(O)c3)[o+]c2c1.[Cl-]
REMARK SMILES IDX 10 1 19 2 20 3 21 4 2 5 3 6 4 7 6 8 7 9 8 10 11 11 12 12
REMARK SMILES IDX 13 13 14 14 18 15 16 16 15 17 17 19 9 21 1 23 5 25
REMARK H PARENT 15 18 17 20 9 22 1 24 5 26
REMARK Flexibility Score: inf
ROOT
ATOM      1  C   UNL     1      -9.766 -15.330  23.085  1.00  0.00     0.402 A 
ATOM      2  O   UNL     1      -8.920 -15.551  24.087  1.00  0.00    -0.202 OA
ATOM      3  C   UNL     1      -7.605 -15.388  23.982  1.00  0.00     0.368 A 
ATOM      4  C   UNL     1      -6.796 -15.649  25.090  1.00  0.00     0.162 A 
ATOM      5  C   UNL     1      -5.413 -15.490  25.007  1.00  0.00     0.128 A 
ATOM      6  C   UNL     1      -4.831 -15.068  23.806  1.00  0.00     0.093 A 
ATOM      7  C   UNL     1      -5.619 -14.800  22.681  1.00  0.00     0.136 A 
ATOM      8  C   UNL     1      -7.028 -14.959  22.763  1.00  0.00     0.125 A 
ATOM      9  C   UNL     1      -7.896 -14.701  21.690  1.00  0.00     0.078 A 
ATOM     10  C   UNL     1      -9.275 -14.875  21.847  1.00  0.00     0.223 A 
ENDROOT
BRANCH   1  11
ATOM     11  C   UNL     1     -11.210 -15.557  23.325  1.00  0.00     0.087 A 
ATOM     12  C   UNL     1     -12.099 -15.552  22.238  1.00  0.00     0.022 A 
ATOM     13  C   UNL     1     -13.467 -15.745  22.442  1.00  0.00     0.051 A 
ATOM     14  C   UNL     1     -13.970 -15.930  23.734  1.00  0.00     0.157 A 
ATOM     15  C   UNL     1     -11.721 -15.724  24.625  1.00  0.00     0.068 A 
ATOM     16  C   UNL     1     -13.094 -15.915  24.832  1.00  0.00     0.158 A 
BRANCH  14  17
ATOM     17  O   UNL     1     -15.341 -16.122  23.906  1.00  0.00    -0.504 OA
ATOM     18  H   UNL     1     -16.027 -15.666  23.316  1.00  0.00     0.293 HD
ENDBRANCH  14  17
BRANCH  16  19
ATOM     19  O   UNL     1     -13.591 -16.085  26.123  1.00  0.00    -0.504 OA
ATOM     20  H   UNL     1     -14.019 -15.321  26.633  1.00  0.00     0.293 HD
ENDBRANCH  16  19
ENDBRANCH   1  11
BRANCH  10  21
ATOM     21  O   UNL     1     -10.144 -14.572  20.798  1.00  0.00    -0.500 OA
ATOM     22  H   UNL     1     -10.232 -15.176  19.989  1.00  0.00     0.294 HD
ENDBRANCH  10  21
BRANCH   5  23
ATOM     23  O   UNL     1      -4.623 -15.754  26.124  1.00  0.00    -0.507 OA
ATOM     24  H   UNL     1      -4.693 -16.631  26.627  1.00  0.00     0.293 HD
ENDBRANCH   5  23
BRANCH   7  25
ATOM     25  O   UNL     1      -4.962 -14.386  21.518  1.00  0.00    -0.507 OA
ATOM     26  H   UNL     1      -5.264 -14.614  20.582  1.00  0.00     0.293 HD
ENDBRANCH   7  25
TORSDOF 6
ENDMDL
MODEL 2
REMARK VINA RESULT:    14.140      1.044      1.720
REMARK INTER + INTRA:          17.481
REMARK INTER:                  17.064
REMARK INTRA:                   0.417
REMARK UNBOUND:                 0.448
REMARK SMILES Oc1cc(O)c2cc(O)c(-c3ccc(O)c(O)c3)[o+]c2c1.[Cl-]
REMARK SMILES IDX 10 1 19 2 20 3 21 4 2 5 3 6 4 7 6 8 7 9 8 10 11 11 12 12
REMARK SMILES IDX 13 13 14 14 18 15 16 16 15 17 17 19 9 21 1 23 5 25
REMARK H PARENT 15 18 17 20 9 22 1 24 5 26
REMARK Flexibility Score: inf
ROOT
ATOM      1  C   UNL     1     -10.223 -15.827  23.595  1.00  0.00     0.402 A 
ATOM      2  O   UNL     1      -9.187 -15.819  24.430  1.00  0.00    -0.202 OA
ATOM      3  C   UNL     1      -7.923 -15.780  24.024  1.00  0.00     0.368 A 
ATOM      4  C   UNL     1      -6.901 -15.778  24.977  1.00  0.00     0.162 A 
ATOM      5  C   UNL     1      -5.565 -15.740  24.580  1.00  0.00     0.128 A 
ATOM      6  C   UNL     1      -5.243 -15.705  23.218  1.00  0.00     0.093 A 
ATOM      7  C   UNL     1      -6.248 -15.706  22.242  1.00  0.00     0.136 A 
ATOM      8  C   UNL     1      -7.609 -15.742  22.644  1.00  0.00     0.125 A 
ATOM      9  C   UNL     1      -8.681 -15.733  21.736  1.00  0.00     0.078 A 
ATOM     10  C   UNL     1      -9.998 -15.765  22.207  1.00  0.00     0.223 A 
ENDROOT
BRANCH   1  11
ATOM     11  C   UNL     1     -11.586 -15.883  24.170  1.00  0.00     0.087 A 
ATOM     12  C   UNL     1     -11.744 -16.019  25.558  1.00  0.00     0.022 A 
ATOM     13  C   UNL     1     -13.020 -16.093  26.122  1.00  0.00     0.051 A 
ATOM     14  C   UNL     1     -14.156 -16.050  25.308  1.00  0.00     0.157 A 
ATOM     15  C   UNL     1     -12.730 -15.860  23.351  1.00  0.00     0.068 A 
ATOM     16  C   UNL     1     -14.011 -15.937  23.915  1.00  0.00     0.158 A 
BRANCH  14  17
ATOM     17  O   UNL     1     -15.417 -16.124  25.899  1.00  0.00    -0.504 OA
ATOM     18  H   UNL     1     -16.266 -15.930  25.381  1.00  0.00     0.293 HD
ENDBRANCH  14  17
BRANCH  16  19
ATOM     19  O   UNL     1     -15.139 -15.908  23.097  1.00  0.00    -0.504 OA
ATOM     20  H   UNL     1     -15.894 -15.250  23.255  1.00  0.00     0.293 HD
ENDBRANCH  16  19
ENDBRANCH   1  11
BRANCH  10  21
ATOM     21  O   UNL     1     -11.064 -15.706  21.309  1.00  0.00    -0.500 OA
ATOM     22  H   UNL     1     -12.004 -15.480  21.614  1.00  0.00     0.294 HD
ENDBRANCH  10  21
BRANCH   5  23
ATOM     23  O   UNL     1      -4.561 -15.738  25.546  1.00  0.00    -0.507 OA
ATOM     24  H   UNL     1      -3.615 -15.448  25.327  1.00  0.00     0.293 HD
ENDBRANCH   5  23
BRANCH   7  25
ATOM     25  O   UNL     1      -5.845 -15.673  20.904  1.00  0.00    -0.507 OA
ATOM     26  H   UNL     1      -4.975 -16.053  20.561  1.00  0.00     0.293 HD
ENDBRANCH   7  25
TORSDOF 6
ENDMDL
