MODEL 1
REMARK VINA RESULT:    -4.722      0.000      0.000
REMARK INTER + INTRA:          -5.784
REMARK INTER:                  -5.688
REMARK INTRA:                  -0.096
REMARK UNBOUND:                -0.096
REMARK SMILES NC(=O)C[C@H]([NH3+])C(=O)[O-]
REMARK SMILES IDX 4 1 5 2 6 3 7 7 8 8 9 9 2 10 3 11 1 12
REMARK H PARENT 6 4 6 5 6 6 1 13 1 14
REMARK Flexibility Score: inf
ROOT
ATOM      1  C   UNL     1      13.522  34.618  13.852  1.00  0.00     0.171 C 
ENDROOT
BRANCH   1   2
ATOM      2  C   UNL     1      13.385  33.362  12.968  1.00  0.00     0.237 C 
BRANCH   2   3
ATOM      3  N   UNL     1      12.487  32.370  13.577  1.00  0.00    -0.350 N 
ATOM      4  H   UNL     1      12.307  31.577  12.918  1.00  0.00     0.345 HD
ATOM      5  H   UNL     1      12.911  31.995  14.457  1.00  0.00     0.345 HD
ATOM      6  H   UNL     1      11.578  32.822  13.827  1.00  0.00     0.345 HD
ENDBRANCH   2   3
BRANCH   2   7
ATOM      7  C   UNL     1      14.742  32.757  12.726  1.00  0.00     0.100 C 
ATOM      8  O   UNL     1      14.856  31.678  12.085  1.00  0.00    -0.544 OA
ATOM      9  O   UNL     1      15.879  33.380  13.226  1.00  0.00    -0.544 OA
ENDBRANCH   2   7
ENDBRANCH   1   2
BRANCH   1  10
ATOM     10  C   UNL     1      13.419  35.879  13.045  1.00  0.00     0.223 C 
ATOM     11  O   UNL     1      14.273  36.122  12.151  1.00  0.00    -0.275 OA
ATOM     12  N   UNL     1      12.341  36.791  13.260  1.00  0.00    -0.369 N 
ATOM     13  H   UNL     1      12.266  37.662  12.689  1.00  0.00     0.159 HD
ATOM     14  H   UNL     1      11.610  36.594  13.980  1.00  0.00     0.159 HD
ENDBRANCH   1  10
TORSDOF 4
ENDMDL
MODEL 2
REMARK VINA RESULT:    -4.522      2.016      2.168
REMARK INTER + INTRA:          -5.543
REMARK INTER:                  -5.410
REMARK INTRA:                  -0.133
REMARK UNBOUND:                -0.096
REMARK SMILES NC(=O)C[C@H]([NH3+])C(=O)[O-]
REMARK SMILES IDX 4 1 5 2 6 3 7 7 8 8 9 9 2 10 3 11 1 12
REMARK H PARENT 6 4 6 5 6 6 1 13 1 14
REMARK Flexibility Score: inf
ROOT
ATOM      1  C   UNL     1      14.405  35.635  12.337  1.00  0.00     0.171 C 
ENDROOT
BRANCH   1   2
ATOM      2  C   UNL     1      14.747  34.557  13.386  1.00  0.00     0.237 C 
BRANCH   2   3
ATOM      3  N   UNL     1      16.187  34.529  13.680  1.00  0.00    -0.350 N 
ATOM      4  H   UNL     1      16.746  34.499  12.796  1.00  0.00     0.345 HD
ATOM      5  H   UNL     1      16.457  35.376  14.229  1.00  0.00     0.345 HD
ATOM      6  H   UNL     1      16.414  33.687  14.258  1.00  0.00     0.345 HD
ENDBRANCH   2   3
BRANCH   2   7
ATOM      7  C   UNL     1      14.289  33.208  12.899  1.00  0.00     0.100 C 
ATOM      8  O   UNL     1      13.063  32.973  12.727  1.00  0.00    -0.544 OA
ATOM      9  O   UNL     1      15.219  32.206  12.654  1.00  0.00    -0.544 OA
ENDBRANCH   2   7
ENDBRANCH   1   2
BRANCH   1  10
ATOM     10  C   UNL     1      13.234  36.472  12.762  1.00  0.00     0.223 C 
ATOM     11  O   UNL     1      12.663  36.236  13.860  1.00  0.00    -0.275 OA
ATOM     12  N   UNL     1      12.785  37.556  11.949  1.00  0.00    -0.369 N 
ATOM     13  H   UNL     1      11.977  38.144  12.254  1.00  0.00     0.159 HD
ATOM     14  H   UNL     1      13.262  37.782  11.048  1.00  0.00     0.159 HD
ENDBRANCH   1  10
TORSDOF 4
ENDMDL
MODEL 3
REMARK VINA RESULT:    -4.397     13.767     14.903
REMARK INTER + INTRA:          -5.392
REMARK INTER:                  -4.905
REMARK INTRA:                  -0.487
REMARK UNBOUND:                -0.096
REMARK SMILES NC(=O)C[C@H]([NH3+])C(=O)[O-]
REMARK SMILES IDX 4 1 5 2 6 3 7 7 8 8 9 9 2 10 3 11 1 12
REMARK H PARENT 6 4 6 5 6 6 1 13 1 14
REMARK Flexibility Score: inf
ROOT
ATOM      1  C   UNL     1       2.669  42.773   9.944  1.00  0.00     0.171 C 
ENDROOT
BRANCH   1   2
ATOM      2  C   UNL     1       4.004  43.540   9.858  1.00  0.00     0.237 C 
BRANCH   2   3
ATOM      3  N   UNL     1       4.849  43.285  11.033  1.00  0.00    -0.350 N 
ATOM      4  H   UNL     1       4.761  44.061  11.730  1.00  0.00     0.345 HD
ATOM      5  H   UNL     1       4.572  42.383  11.485  1.00  0.00     0.345 HD
ATOM      6  H   UNL     1       5.849  43.200  10.738  1.00  0.00     0.345 HD
ENDBRANCH   2   3
BRANCH   2   7
ATOM      7  C   UNL     1       3.737  45.015   9.719  1.00  0.00     0.100 C 
ATOM      8  O   UNL     1       4.576  45.767   9.156  1.00  0.00    -0.544 OA
ATOM      9  O   UNL     1       2.565  45.559  10.230  1.00  0.00    -0.544 OA
ENDBRANCH   2   7
ENDBRANCH   1   2
BRANCH   1  10
ATOM     10  C   UNL     1       2.339  42.390  11.357  1.00  0.00     0.223 C 
ATOM     11  O   UNL     1       2.788  41.314  11.835  1.00  0.00    -0.275 OA
ATOM     12  N   UNL     1       1.548  43.251  12.176  1.00  0.00    -0.369 N 
ATOM     13  H   UNL     1       1.330  42.987  13.162  1.00  0.00     0.159 HD
ATOM     14  H   UNL     1       1.188  44.159  11.805  1.00  0.00     0.159 HD
ENDBRANCH   1  10
TORSDOF 4
ENDMDL
MODEL 4
REMARK VINA RESULT:    -4.380     16.239     17.136
REMARK INTER + INTRA:          -5.373
REMARK INTER:                  -5.114
REMARK INTRA:                  -0.259
REMARK UNBOUND:                -0.096
REMARK SMILES NC(=O)C[C@H]([NH3+])C(=O)[O-]
REMARK SMILES IDX 4 1 5 2 6 3 7 7 8 8 9 9 2 10 3 11 1 12
REMARK H PARENT 6 4 6 5 6 6 1 13 1 14
REMARK Flexibility Score: inf
ROOT
ATOM      1  C   UNL     1       5.330  47.084   9.627  1.00  0.00     0.171 C 
ENDROOT
BRANCH   1   2
ATOM      2  C   UNL     1       4.412  47.339   8.413  1.00  0.00     0.237 C 
BRANCH   2   3
ATOM      3  N   UNL     1       4.642  48.671   7.835  1.00  0.00    -0.350 N 
ATOM      4  H   UNL     1       5.641  48.959   7.952  1.00  0.00     0.345 HD
ATOM      5  H   UNL     1       4.403  48.666   6.817  1.00  0.00     0.345 HD
ATOM      6  H   UNL     1       4.025  49.373   8.304  1.00  0.00     0.345 HD
ENDBRANCH   2   3
BRANCH   2   7
ATOM      7  C   UNL     1       2.971  47.192   8.824  1.00  0.00     0.100 C 
ATOM      8  O   UNL     1       2.672  46.684   9.937  1.00  0.00    -0.544 OA
ATOM      9  O   UNL     1       1.959  47.600   7.963  1.00  0.00    -0.544 OA
ENDBRANCH   2   7
ENDBRANCH   1   2
BRANCH   1  10
ATOM     10  C   UNL     1       6.605  47.871   9.534  1.00  0.00     0.223 C 
ATOM     11  O   UNL     1       6.600  49.103   9.799  1.00  0.00    -0.275 OA
ATOM     12  N   UNL     1       7.830  47.228   9.180  1.00  0.00    -0.369 N 
ATOM     13  H   UNL     1       8.717  47.777   9.127  1.00  0.00     0.159 HD
ATOM     14  H   UNL     1       7.857  46.203   8.981  1.00  0.00     0.159 HD
ENDBRANCH   1  10
TORSDOF 4
ENDMDL
MODEL 5
REMARK VINA RESULT:    -4.294     11.670     13.375
REMARK INTER + INTRA:          -5.269
REMARK INTER:                  -4.986
REMARK INTRA:                  -0.283
REMARK UNBOUND:                -0.096
REMARK SMILES NC(=O)C[C@H]([NH3+])C(=O)[O-]
REMARK SMILES IDX 4 1 5 2 6 3 7 7 8 8 9 9 2 10 3 11 1 12
REMARK H PARENT 6 4 6 5 6 6 1 13 1 14
REMARK Flexibility Score: inf
ROOT
ATOM      1  C   UNL     1       2.766  40.256  12.570  1.00  0.00     0.171 C 
ENDROOT
BRANCH   1   2
ATOM      2  C   UNL     1       3.145  41.405  11.613  1.00  0.00     0.237 C 
BRANCH   2   3
ATOM      3  N   UNL     1       4.524  41.861  11.839  1.00  0.00    -0.350 N 
ATOM      4  H   UNL     1       5.009  41.248  12.534  1.00  0.00     0.345 HD
ATOM      5  H   UNL     1       5.058  41.851  10.940  1.00  0.00     0.345 HD
ATOM      6  H   UNL     1       4.517  42.845  12.196  1.00  0.00     0.345 HD
ENDBRANCH   2   3
BRANCH   2   7
ATOM      7  C   UNL     1       2.183  42.549  11.783  1.00  0.00     0.100 C 
ATOM      8  O   UNL     1       1.166  42.426  12.517  1.00  0.00    -0.544 OA
ATOM      9  O   UNL     1       2.403  43.747  11.114  1.00  0.00    -0.544 OA
ENDBRANCH   2   7
ENDBRANCH   1   2
BRANCH   1  10
ATOM     10  C   UNL     1       3.844  39.212  12.639  1.00  0.00     0.223 C 
ATOM     11  O   UNL     1       4.801  39.355  13.446  1.00  0.00    -0.275 OA
ATOM     12  N   UNL     1       3.775  38.044  11.822  1.00  0.00    -0.369 N 
ATOM     13  H   UNL     1       4.520  37.315  11.882  1.00  0.00     0.159 HD
ATOM     14  H   UNL     1       2.976  37.897  11.166  1.00  0.00     0.159 HD
ENDBRANCH   1  10
TORSDOF 4
ENDMDL
MODEL 6
REMARK VINA RESULT:    -4.282     15.229     16.050
REMARK INTER + INTRA:          -5.254
REMARK INTER:                  -4.998
REMARK INTRA:                  -0.256
REMARK UNBOUND:                -0.096
REMARK SMILES NC(=O)C[C@H]([NH3+])C(=O)[O-]
REMARK SMILES IDX 4 1 5 2 6 3 7 7 8 8 9 9 2 10 3 11 1 12
REMARK H PARENT 6 4 6 5 6 6 1 13 1 14
REMARK Flexibility Score: inf
ROOT
ATOM      1  C   UNL     1       5.295  46.716   9.908  1.00  0.00     0.171 C 
ENDROOT
BRANCH   1   2
ATOM      2  C   UNL     1       3.914  46.282   9.374  1.00  0.00     0.237 C 
BRANCH   2   3
ATOM      3  N   UNL     1       2.868  47.248   9.739  1.00  0.00    -0.350 N 
ATOM      4  H   UNL     1       3.119  48.209   9.412  1.00  0.00     0.345 HD
ATOM      5  H   UNL     1       1.955  46.967   9.313  1.00  0.00     0.345 HD
ATOM      6  H   UNL     1       2.744  47.260  10.778  1.00  0.00     0.345 HD
ENDBRANCH   2   3
BRANCH   2   7
ATOM      7  C   UNL     1       3.569  44.916   9.902  1.00  0.00     0.100 C 
ATOM      8  O   UNL     1       2.865  44.789  10.939  1.00  0.00    -0.544 OA
ATOM      9  O   UNL     1       4.043  43.781   9.254  1.00  0.00    -0.544 OA
ENDBRANCH   2   7
ENDBRANCH   1   2
BRANCH   1  10
ATOM     10  C   UNL     1       5.939  47.738   9.017  1.00  0.00     0.223 C 
ATOM     11  O   UNL     1       5.223  48.580   8.412  1.00  0.00    -0.275 OA
ATOM     12  N   UNL     1       7.359  47.785   8.877  1.00  0.00    -0.369 N 
ATOM     13  H   UNL     1       7.804  48.505   8.265  1.00  0.00     0.159 HD
ATOM     14  H   UNL     1       7.969  47.111   9.390  1.00  0.00     0.159 HD
ENDBRANCH   1  10
TORSDOF 4
ENDMDL
MODEL 7
REMARK VINA RESULT:    -4.208     13.804     14.706
REMARK INTER + INTRA:          -5.165
REMARK INTER:                  -4.822
REMARK INTRA:                  -0.343
REMARK UNBOUND:                -0.096
REMARK SMILES NC(=O)C[C@H]([NH3+])C(=O)[O-]
REMARK SMILES IDX 4 1 5 2 6 3 7 7 8 8 9 9 2 10 3 11 1 12
REMARK H PARENT 6 4 6 5 6 6 1 13 1 14
REMARK Flexibility Score: inf
ROOT
ATOM      1  C   UNL     1       4.442  44.666  11.267  1.00  0.00     0.171 C 
ENDROOT
BRANCH   1   2
ATOM      2  C   UNL     1       4.141  43.344  10.531  1.00  0.00     0.237 C 
BRANCH   2   3
ATOM      3  N   UNL     1       3.850  43.573   9.109  1.00  0.00    -0.350 N 
ATOM      4  H   UNL     1       4.124  42.743   8.535  1.00  0.00     0.345 HD
ATOM      5  H   UNL     1       2.829  43.761   8.977  1.00  0.00     0.345 HD
ATOM      6  H   UNL     1       4.375  44.413   8.771  1.00  0.00     0.345 HD
ENDBRANCH   2   3
BRANCH   2   7
ATOM      7  C   UNL     1       2.984  42.644  11.193  1.00  0.00     0.100 C 
ATOM      8  O   UNL     1       1.969  43.293  11.560  1.00  0.00    -0.544 OA
ATOM      9  O   UNL     1       3.040  41.274  11.420  1.00  0.00    -0.544 OA
ENDBRANCH   2   7
ENDBRANCH   1   2
BRANCH   1  10
ATOM     10  C   UNL     1       4.295  45.853  10.359  1.00  0.00     0.223 C 
ATOM     11  O   UNL     1       3.145  46.284  10.075  1.00  0.00    -0.275 OA
ATOM     12  N   UNL     1       5.448  46.517   9.842  1.00  0.00    -0.369 N 
ATOM     13  H   UNL     1       5.341  47.349   9.220  1.00  0.00     0.159 HD
ATOM     14  H   UNL     1       6.409  46.189  10.086  1.00  0.00     0.159 HD
ENDBRANCH   1  10
TORSDOF 4
ENDMDL
MODEL 8
REMARK VINA RESULT:    -4.208     14.614     16.270
REMARK INTER + INTRA:          -5.165
REMARK INTER:                  -4.826
REMARK INTRA:                  -0.339
REMARK UNBOUND:                -0.096
REMARK SMILES NC(=O)C[C@H]([NH3+])C(=O)[O-]
REMARK SMILES IDX 4 1 5 2 6 3 7 7 8 8 9 9 2 10 3 11 1 12
REMARK H PARENT 6 4 6 5 6 6 1 13 1 14
REMARK Flexibility Score: inf
ROOT
ATOM      1  C   UNL     1       4.043  44.842   9.400  1.00  0.00     0.171 C 
ENDROOT
BRANCH   1   2
ATOM      2  C   UNL     1       4.371  46.346   9.490  1.00  0.00     0.237 C 
BRANCH   2   3
ATOM      3  N   UNL     1       4.462  46.795  10.887  1.00  0.00    -0.350 N 
ATOM      4  H   UNL     1       5.066  46.149  11.447  1.00  0.00     0.345 HD
ATOM      5  H   UNL     1       4.861  47.761  10.929  1.00  0.00     0.345 HD
ATOM      6  H   UNL     1       3.506  46.825  11.312  1.00  0.00     0.345 HD
ENDBRANCH   2   3
BRANCH   2   7
ATOM      7  C   UNL     1       3.326  47.141   8.755  1.00  0.00     0.100 C 
ATOM      8  O   UNL     1       3.629  47.795   7.721  1.00  0.00    -0.544 OA
ATOM      9  O   UNL     1       2.019  47.173   9.225  1.00  0.00    -0.544 OA
ENDBRANCH   2   7
ENDBRANCH   1   2
BRANCH   1  10
ATOM     10  C   UNL     1       3.867  44.229  10.760  1.00  0.00     0.223 C 
ATOM     11  O   UNL     1       2.799  44.425  11.400  1.00  0.00    -0.275 OA
ATOM     12  N   UNL     1       4.885  43.399  11.318  1.00  0.00    -0.369 N 
ATOM     13  H   UNL     1       4.754  42.965  12.259  1.00  0.00     0.159 HD
ATOM     14  H   UNL     1       5.765  43.205  10.791  1.00  0.00     0.159 HD
ENDBRANCH   1  10
TORSDOF 4
ENDMDL
MODEL 9
REMARK VINA RESULT:    -4.133     14.731     15.455
REMARK INTER + INTRA:          -5.074
REMARK INTER:                  -4.577
REMARK INTRA:                  -0.497
REMARK UNBOUND:                -0.096
REMARK SMILES NC(=O)C[C@H]([NH3+])C(=O)[O-]
REMARK SMILES IDX 4 1 5 2 6 3 7 7 8 8 9 9 2 10 3 11 1 12
REMARK H PARENT 6 4 6 5 6 6 1 13 1 14
REMARK Flexibility Score: inf
ROOT
ATOM      1  C   UNL     1       4.114  45.094  11.205  1.00  0.00     0.171 C 
ENDROOT
BRANCH   1   2
ATOM      2  C   UNL     1       3.711  43.789  10.487  1.00  0.00     0.237 C 
BRANCH   2   3
ATOM      3  N   UNL     1       4.120  43.803   9.075  1.00  0.00    -0.350 N 
ATOM      4  H   UNL     1       5.066  43.373   8.958  1.00  0.00     0.345 HD
ATOM      5  H   UNL     1       3.427  43.275   8.496  1.00  0.00     0.345 HD
ATOM      6  H   UNL     1       4.145  44.788   8.724  1.00  0.00     0.345 HD
ENDBRANCH   2   3
BRANCH   2   7
ATOM      7  C   UNL     1       2.224  43.585  10.597  1.00  0.00     0.100 C 
ATOM      8  O   UNL     1       1.743  42.858  11.507  1.00  0.00    -0.544 OA
ATOM      9  O   UNL     1       1.371  44.186   9.679  1.00  0.00    -0.544 OA
ENDBRANCH   2   7
ENDBRANCH   1   2
BRANCH   1  10
ATOM     10  C   UNL     1       4.176  46.255  10.255  1.00  0.00     0.223 C 
ATOM     11  O   UNL     1       5.273  46.565   9.717  1.00  0.00    -0.275 OA
ATOM     12  N   UNL     1       2.995  46.988   9.929  1.00  0.00    -0.369 N 
ATOM     13  H   UNL     1       3.040  47.788   9.259  1.00  0.00     0.159 HD
ATOM     14  H   UNL     1       2.073  46.729  10.346  1.00  0.00     0.159 HD
ENDBRANCH   1  10
TORSDOF 4
ENDMDL
