MODEL 1
REMARK VINA RESULT:    -3.925      0.000      0.000
REMARK INTER + INTRA:          -4.686
REMARK INTER:                  -4.613
REMARK INTRA:                  -0.073
REMARK UNBOUND:                -0.073
REMARK SMILES CCCCC(=O)[O-]
REMARK SMILES IDX 4 1 5 2 6 3 7 4 3 5 2 6 1 7
REMARK H PARENT
REMARK Flexibility Score: inf
ROOT
ATOM      1  C   UNL     1       0.563   0.956   5.464  1.00  0.00     0.053 C 
ENDROOT
BRANCH   1   2
ATOM      2  C   UNL     1       0.850   1.700   6.733  1.00  0.00     0.041 C 
ATOM      3  O   UNL     1       0.909   1.082   7.829  1.00  0.00    -0.550 OA
ATOM      4  O   UNL     1       1.087   3.068   6.701  1.00  0.00    -0.550 OA
ENDBRANCH   1   2
BRANCH   1   5
ATOM      5  C   UNL     1      -0.780   1.371   4.852  1.00  0.00     0.006 C 
BRANCH   5   6
ATOM      6  C   UNL     1      -1.948   1.182   5.830  1.00  0.00    -0.003 C 
ATOM      7  C   UNL     1      -3.114   0.457   5.163  1.00  0.00     0.004 C 
ENDBRANCH   5   6
ENDBRANCH   1   5
TORSDOF 3
ENDMDL
MODEL 2
REMARK VINA RESULT:    -3.851      0.898      1.062
REMARK INTER + INTRA:          -4.600
REMARK INTER:                  -4.506
REMARK INTRA:                  -0.094
REMARK UNBOUND:                -0.073
REMARK SMILES CCCCC(=O)[O-]
REMARK SMILES IDX 4 1 5 2 6 3 7 4 3 5 2 6 1 7
REMARK H PARENT
REMARK Flexibility Score: inf
ROOT
ATOM      1  C   UNL     1       0.293   0.394   5.714  1.00  0.00     0.053 C 
ENDROOT
BRANCH   1   2
ATOM      2  C   UNL     1       0.599   0.507   7.177  1.00  0.00     0.041 C 
ATOM      3  O   UNL     1       0.542  -0.511   7.915  1.00  0.00    -0.550 OA
ATOM      4  O   UNL     1       0.982   1.728   7.716  1.00  0.00    -0.550 OA
ENDBRANCH   1   2
BRANCH   1   5
ATOM      5  C   UNL     1      -0.780   1.400   5.278  1.00  0.00     0.006 C 
BRANCH   5   6
ATOM      6  C   UNL     1      -2.109   1.189   6.015  1.00  0.00    -0.003 C 
ATOM      7  C   UNL     1      -3.104   0.421   5.149  1.00  0.00     0.004 C 
ENDBRANCH   5   6
ENDBRANCH   1   5
TORSDOF 3
ENDMDL
MODEL 3
REMARK VINA RESULT:    -3.817      0.916      1.618
REMARK INTER + INTRA:          -4.560
REMARK INTER:                  -4.474
REMARK INTRA:                  -0.086
REMARK UNBOUND:                -0.073
REMARK SMILES CCCCC(=O)[O-]
REMARK SMILES IDX 4 1 5 2 6 3 7 4 3 5 2 6 1 7
REMARK H PARENT
REMARK Flexibility Score: inf
ROOT
ATOM      1  C   UNL     1       0.248   0.421   5.744  1.00  0.00     0.053 C 
ENDROOT
BRANCH   1   2
ATOM      2  C   UNL     1       0.588   0.519   7.200  1.00  0.00     0.041 C 
ATOM      3  O   UNL     1       0.940   1.622   7.695  1.00  0.00    -0.550 OA
ATOM      4  O   UNL     1       0.484  -0.599   8.017  1.00  0.00    -0.550 OA
ENDBRANCH   1   2
BRANCH   1   5
ATOM      5  C   UNL     1      -0.796   1.467   5.331  1.00  0.00     0.006 C 
BRANCH   5   6
ATOM      6  C   UNL     1      -2.145   1.250   6.031  1.00  0.00    -0.003 C 
ATOM      7  C   UNL     1      -3.095   0.437   5.156  1.00  0.00     0.004 C 
ENDBRANCH   5   6
ENDBRANCH   1   5
TORSDOF 3
ENDMDL
MODEL 4
REMARK VINA RESULT:    -3.684      2.398      2.912
REMARK INTER + INTRA:          -4.403
REMARK INTER:                  -4.327
REMARK INTRA:                  -0.076
REMARK UNBOUND:                -0.073
REMARK SMILES CCCCC(=O)[O-]
REMARK SMILES IDX 4 1 5 2 6 3 7 4 3 5 2 6 1 7
REMARK H PARENT
REMARK Flexibility Score: inf
ROOT
ATOM      1  C   UNL     1       0.676   0.366   5.168  1.00  0.00     0.053 C 
ENDROOT
BRANCH   1   2
ATOM      2  C   UNL     1      -0.080   1.551   4.650  1.00  0.00     0.041 C 
ATOM      3  O   UNL     1      -1.205   1.844   5.134  1.00  0.00    -0.550 OA
ATOM      4  O   UNL     1       0.472   2.352   3.659  1.00  0.00    -0.550 OA
ENDBRANCH   1   2
BRANCH   1   5
ATOM      5  C   UNL     1       0.629   0.284   6.699  1.00  0.00     0.006 C 
BRANCH   5   6
ATOM      6  C   UNL     1       0.325  -1.136   7.196  1.00  0.00    -0.003 C 
ATOM      7  C   UNL     1      -1.167  -1.317   7.464  1.00  0.00     0.004 C 
ENDBRANCH   5   6
ENDBRANCH   1   5
TORSDOF 3
ENDMDL
MODEL 5
REMARK VINA RESULT:    -3.646      1.064      1.989
REMARK INTER + INTRA:          -4.359
REMARK INTER:                  -4.277
REMARK INTRA:                  -0.082
REMARK UNBOUND:                -0.073
REMARK SMILES CCCCC(=O)[O-]
REMARK SMILES IDX 4 1 5 2 6 3 7 4 3 5 2 6 1 7
REMARK H PARENT
REMARK Flexibility Score: inf
ROOT
ATOM      1  C   UNL     1      -0.766   2.203   7.740  1.00  0.00     0.053 C 
ENDROOT
BRANCH   1   2
ATOM      2  C   UNL     1       0.549   1.583   7.380  1.00  0.00     0.041 C 
ATOM      3  O   UNL     1       1.401   2.241   6.728  1.00  0.00    -0.550 OA
ATOM      4  O   UNL     1       0.847   0.291   7.794  1.00  0.00    -0.550 OA
ENDBRANCH   1   2
BRANCH   1   5
ATOM      5  C   UNL     1      -1.948   1.388   7.200  1.00  0.00     0.006 C 
BRANCH   5   6
ATOM      6  C   UNL     1      -1.850   1.156   5.686  1.00  0.00    -0.003 C 
ATOM      7  C   UNL     1      -3.089   0.438   5.158  1.00  0.00     0.004 C 
ENDBRANCH   5   6
ENDBRANCH   1   5
TORSDOF 3
ENDMDL
MODEL 6
REMARK VINA RESULT:    -3.586      2.609      3.173
REMARK INTER + INTRA:          -4.288
REMARK INTER:                  -4.173
REMARK INTRA:                  -0.115
REMARK UNBOUND:                -0.073
REMARK SMILES CCCCC(=O)[O-]
REMARK SMILES IDX 4 1 5 2 6 3 7 4 3 5 2 6 1 7
REMARK H PARENT
REMARK Flexibility Score: inf
ROOT
ATOM      1  C   UNL     1      -0.886   1.356   7.036  1.00  0.00     0.053 C 
ENDROOT
BRANCH   1   2
ATOM      2  C   UNL     1      -1.344   1.415   5.611  1.00  0.00     0.041 C 
ATOM      3  O   UNL     1      -2.429   0.873   5.272  1.00  0.00    -0.550 OA
ATOM      4  O   UNL     1      -0.591   2.097   4.664  1.00  0.00    -0.550 OA
ENDBRANCH   1   2
BRANCH   1   5
ATOM      5  C   UNL     1       0.464   0.640   7.171  1.00  0.00     0.006 C 
BRANCH   5   6
ATOM      6  C   UNL     1       0.364  -0.856   6.840  1.00  0.00    -0.003 C 
ATOM      7  C   UNL     1      -0.722  -1.533   7.672  1.00  0.00     0.004 C 
ENDBRANCH   5   6
ENDBRANCH   1   5
TORSDOF 3
ENDMDL
MODEL 7
REMARK VINA RESULT:    -3.561      1.424      2.284
REMARK INTER + INTRA:          -4.258
REMARK INTER:                  -4.149
REMARK INTRA:                  -0.109
REMARK UNBOUND:                -0.073
REMARK SMILES CCCCC(=O)[O-]
REMARK SMILES IDX 4 1 5 2 6 3 7 4 3 5 2 6 1 7
REMARK H PARENT
REMARK Flexibility Score: inf
ROOT
ATOM      1  C   UNL     1      -0.973   0.533   6.810  1.00  0.00     0.053 C 
ENDROOT
BRANCH   1   2
ATOM      2  C   UNL     1       0.347   0.565   7.518  1.00  0.00     0.041 C 
ATOM      3  O   UNL     1       0.890  -0.508   7.893  1.00  0.00    -0.550 OA
ATOM      4  O   UNL     1       0.993   1.775   7.733  1.00  0.00    -0.550 OA
ENDBRANCH   1   2
BRANCH   1   5
ATOM      5  C   UNL     1      -0.992   1.471   5.597  1.00  0.00     0.006 C 
BRANCH   5   6
ATOM      6  C   UNL     1      -0.079   0.977   4.466  1.00  0.00    -0.003 C 
ATOM      7  C   UNL     1       0.620   2.143   3.773  1.00  0.00     0.004 C 
ENDBRANCH   5   6
ENDBRANCH   1   5
TORSDOF 3
ENDMDL
MODEL 8
REMARK VINA RESULT:    -3.509      1.828      2.469
REMARK INTER + INTRA:          -4.198
REMARK INTER:                  -4.107
REMARK INTRA:                  -0.091
REMARK UNBOUND:                -0.073
REMARK SMILES CCCCC(=O)[O-]
REMARK SMILES IDX 4 1 5 2 6 3 7 4 3 5 2 6 1 7
REMARK H PARENT
REMARK Flexibility Score: inf
ROOT
ATOM      1  C   UNL     1      -1.422   1.885   7.144  1.00  0.00     0.053 C 
ENDROOT
BRANCH   1   2
ATOM      2  C   UNL     1       0.047   2.022   6.884  1.00  0.00     0.041 C 
ATOM      3  O   UNL     1       0.458   2.367   5.745  1.00  0.00    -0.550 OA
ATOM      4  O   UNL     1       0.960   1.802   7.908  1.00  0.00    -0.550 OA
ENDBRANCH   1   2
BRANCH   1   5
ATOM      5  C   UNL     1      -1.990   0.594   6.541  1.00  0.00     0.006 C 
BRANCH   5   6
ATOM      6  C   UNL     1      -2.102  -0.533   7.577  1.00  0.00    -0.003 C 
ATOM      7  C   UNL     1      -0.903  -1.474   7.500  1.00  0.00     0.004 C 
ENDBRANCH   5   6
ENDBRANCH   1   5
TORSDOF 3
ENDMDL
MODEL 9
REMARK VINA RESULT:    -3.475      2.150      2.347
REMARK INTER + INTRA:          -4.157
REMARK INTER:                  -4.030
REMARK INTRA:                  -0.128
REMARK UNBOUND:                -0.073
REMARK SMILES CCCCC(=O)[O-]
REMARK SMILES IDX 4 1 5 2 6 3 7 4 3 5 2 6 1 7
REMARK H PARENT
REMARK Flexibility Score: inf
ROOT
ATOM      1  C   UNL     1       0.275  -0.213   6.363  1.00  0.00     0.053 C 
ENDROOT
BRANCH   1   2
ATOM      2  C   UNL     1       0.366   1.218   6.796  1.00  0.00     0.041 C 
ATOM      3  O   UNL     1       0.933   1.517   7.880  1.00  0.00    -0.550 OA
ATOM      4  O   UNL     1      -0.144   2.225   5.986  1.00  0.00    -0.550 OA
ENDBRANCH   1   2
BRANCH   1   5
ATOM      5  C   UNL     1      -0.578  -1.047   7.327  1.00  0.00     0.006 C 
BRANCH   5   6
ATOM      6  C   UNL     1      -2.006  -0.500   7.460  1.00  0.00    -0.003 C 
ATOM      7  C   UNL     1      -2.437  -0.436   8.923  1.00  0.00     0.004 C 
ENDBRANCH   5   6
ENDBRANCH   1   5
TORSDOF 3
ENDMDL
