MODEL 1
REMARK VINA RESULT:    -3.209      0.000      0.000
REMARK INTER + INTRA:          -7.749
REMARK INTER:                  -5.648
REMARK INTRA:                  -2.101
REMARK UNBOUND:                -2.101
REMARK SMILES CCCCCCCCCCCCCCC(=O)[O-]
REMARK SMILES IDX 9 1 10 2 11 3 12 4 13 5 14 6 15 7 16 8 17 9 8 10 7 11 6 12
REMARK SMILES IDX 5 13 4 14 3 15 2 16 1 17
REMARK H PARENT
REMARK Flexibility Score: inf
ROOT
ATOM      1  C   UNL     1     -11.512   4.350  26.996  1.00  0.00     0.000 C 
ENDROOT
BRANCH   1   2
ATOM      2  C   UNL     1     -12.368   3.096  27.233  1.00  0.00     0.000 C 
BRANCH   2   3
ATOM      3  C   UNL     1     -12.819   2.955  28.695  1.00  0.00     0.000 C 
BRANCH   3   4
ATOM      4  C   UNL     1     -12.124   3.992  29.585  1.00  0.00     0.000 C 
BRANCH   4   5
ATOM      5  C   UNL     1     -13.150   4.834  30.354  1.00  0.00     0.006 C 
BRANCH   5   6
ATOM      6  C   UNL     1     -12.465   5.702  31.413  1.00  0.00     0.053 C 
BRANCH   6   7
ATOM      7  C   UNL     1     -12.481   5.017  32.742  1.00  0.00     0.041 C 
ATOM      8  O   UNL     1     -13.449   4.278  33.063  1.00  0.00    -0.550 OA
ATOM      9  O   UNL     1     -11.403   5.153  33.608  1.00  0.00    -0.550 OA
ENDBRANCH   6   7
ENDBRANCH   5   6
ENDBRANCH   4   5
ENDBRANCH   3   4
ENDBRANCH   2   3
ENDBRANCH   1   2
BRANCH   1  10
ATOM     10  C   UNL     1     -11.703   4.940  25.591  1.00  0.00     0.000 C 
BRANCH  10  11
ATOM     11  C   UNL     1     -12.320   6.346  25.665  1.00  0.00    -0.000 C 
BRANCH  11  12
ATOM     12  C   UNL     1     -12.846   6.684  27.069  1.00  0.00    -0.000 C 
BRANCH  12  13
ATOM     13  C   UNL     1     -12.343   8.046  27.578  1.00  0.00    -0.000 C 
BRANCH  13  14
ATOM     14  C   UNL     1     -11.430   7.902  28.813  1.00  0.00    -0.000 C 
BRANCH  14  15
ATOM     15  C   UNL     1     -10.025   7.368  28.482  1.00  0.00    -0.000 C 
BRANCH  15  16
ATOM     16  C   UNL     1      -9.377   8.088  27.292  1.00  0.00    -0.003 C 
ATOM     17  C   UNL     1      -8.412   7.166  26.551  1.00  0.00     0.004 C 
ENDBRANCH  15  16
ENDBRANCH  14  15
ENDBRANCH  13  14
ENDBRANCH  12  13
ENDBRANCH  11  12
ENDBRANCH  10  11
ENDBRANCH   1  10
TORSDOF 13
ENDMDL
MODEL 2
REMARK VINA RESULT:    -3.170     14.564     16.366
REMARK INTER + INTRA:          -7.679
REMARK INTER:                  -6.090
REMARK INTRA:                  -1.589
REMARK UNBOUND:                -2.101
REMARK SMILES CCCCCCCCCCCCCCC(=O)[O-]
REMARK SMILES IDX 9 1 10 2 11 3 12 4 13 5 14 6 15 7 16 8 17 9 8 10 7 11 6 12
REMARK SMILES IDX 5 13 4 14 3 15 2 16 1 17
REMARK H PARENT
REMARK Flexibility Score: inf
ROOT
ATOM      1  C   UNL     1      -4.071  -9.293  29.131  1.00  0.00     0.000 C 
ENDROOT
BRANCH   1   2
ATOM      2  C   UNL     1      -3.939  -9.169  30.657  1.00  0.00     0.000 C 
BRANCH   2   3
ATOM      3  C   UNL     1      -2.852  -8.168  31.078  1.00  0.00     0.000 C 
BRANCH   3   4
ATOM      4  C   UNL     1      -3.008  -6.840  30.326  1.00  0.00     0.000 C 
BRANCH   4   5
ATOM      5  C   UNL     1      -1.759  -5.966  30.486  1.00  0.00     0.006 C 
BRANCH   5   6
ATOM      6  C   UNL     1      -2.113  -4.607  31.096  1.00  0.00     0.053 C 
BRANCH   6   7
ATOM      7  C   UNL     1      -2.360  -4.739  32.564  1.00  0.00     0.041 C 
ATOM      8  O   UNL     1      -3.435  -4.316  33.067  1.00  0.00    -0.550 OA
ATOM      9  O   UNL     1      -1.426  -5.375  33.372  1.00  0.00    -0.550 OA
ENDBRANCH   6   7
ENDBRANCH   5   6
ENDBRANCH   4   5
ENDBRANCH   3   4
ENDBRANCH   2   3
ENDBRANCH   1   2
BRANCH   1  10
ATOM     10  C   UNL     1      -5.518  -9.122  28.646  1.00  0.00     0.000 C 
BRANCH  10  11
ATOM     11  C   UNL     1      -5.561  -8.412  27.283  1.00  0.00    -0.000 C 
BRANCH  11  12
ATOM     12  C   UNL     1      -4.298  -7.579  27.015  1.00  0.00    -0.000 C 
BRANCH  12  13
ATOM     13  C   UNL     1      -3.847  -7.644  25.545  1.00  0.00    -0.000 C 
BRANCH  13  14
ATOM     14  C   UNL     1      -4.254  -8.972  24.873  1.00  0.00    -0.000 C 
BRANCH  14  15
ATOM     15  C   UNL     1      -3.065  -9.905  24.583  1.00  0.00    -0.000 C 
BRANCH  15  16
ATOM     16  C   UNL     1      -2.869 -10.978  25.663  1.00  0.00    -0.003 C 
ATOM     17  C   UNL     1      -4.205 -11.585  26.083  1.00  0.00     0.004 C 
ENDBRANCH  15  16
ENDBRANCH  14  15
ENDBRANCH  13  14
ENDBRANCH  12  13
ENDBRANCH  11  12
ENDBRANCH  10  11
ENDBRANCH   1  10
TORSDOF 13
ENDMDL
MODEL 3
REMARK VINA RESULT:    -3.065     12.177     13.890
REMARK INTER + INTRA:          -7.496
REMARK INTER:                  -6.339
REMARK INTRA:                  -1.157
REMARK UNBOUND:                -2.101
REMARK SMILES CCCCCCCCCCCCCCC(=O)[O-]
REMARK SMILES IDX 9 1 10 2 11 3 12 4 13 5 14 6 15 7 16 8 17 9 8 10 7 11 6 12
REMARK SMILES IDX 5 13 4 14 3 15 2 16 1 17
REMARK H PARENT
REMARK Flexibility Score: inf
ROOT
ATOM      1  C   UNL     1      -4.380  -3.008  33.227  1.00  0.00     0.000 C 
ENDROOT
BRANCH   1   2
ATOM      2  C   UNL     1      -3.293  -1.929  33.362  1.00  0.00     0.000 C 
BRANCH   2   3
ATOM      3  C   UNL     1      -3.860  -0.568  33.795  1.00  0.00     0.000 C 
BRANCH   3   4
ATOM      4  C   UNL     1      -2.747   0.351  34.312  1.00  0.00     0.000 C 
BRANCH   4   5
ATOM      5  C   UNL     1      -2.749   0.411  35.844  1.00  0.00     0.006 C 
BRANCH   5   6
ATOM      6  C   UNL     1      -4.175   0.316  36.395  1.00  0.00     0.053 C 
BRANCH   6   7
ATOM      7  C   UNL     1      -4.153   0.157  37.882  1.00  0.00     0.041 C 
ATOM      8  O   UNL     1      -4.816  -0.763  38.430  1.00  0.00    -0.550 OA
ATOM      9  O   UNL     1      -3.362   0.993  38.659  1.00  0.00    -0.550 OA
ENDBRANCH   6   7
ENDBRANCH   5   6
ENDBRANCH   4   5
ENDBRANCH   3   4
ENDBRANCH   2   3
ENDBRANCH   1   2
BRANCH   1  10
ATOM     10  C   UNL     1      -3.816  -4.362  32.770  1.00  0.00     0.000 C 
BRANCH  10  11
ATOM     11  C   UNL     1      -2.315  -4.253  32.455  1.00  0.00    -0.000 C 
BRANCH  11  12
ATOM     12  C   UNL     1      -1.573  -5.582  32.664  1.00  0.00    -0.000 C 
BRANCH  12  13
ATOM     13  C   UNL     1      -1.339  -6.342  31.347  1.00  0.00    -0.000 C 
BRANCH  13  14
ATOM     14  C   UNL     1      -2.318  -7.523  31.178  1.00  0.00    -0.000 C 
BRANCH  14  15
ATOM     15  C   UNL     1      -3.506  -7.210  30.252  1.00  0.00    -0.000 C 
BRANCH  15  16
ATOM     16  C   UNL     1      -3.183  -6.132  29.208  1.00  0.00    -0.003 C 
ATOM     17  C   UNL     1      -4.276  -5.068  29.161  1.00  0.00     0.004 C 
ENDBRANCH  15  16
ENDBRANCH  14  15
ENDBRANCH  13  14
ENDBRANCH  12  13
ENDBRANCH  11  12
ENDBRANCH  10  11
ENDBRANCH   1  10
TORSDOF 13
ENDMDL
MODEL 4
REMARK VINA RESULT:    -3.020     15.069     16.818
REMARK INTER + INTRA:          -7.416
REMARK INTER:                  -6.195
REMARK INTRA:                  -1.221
REMARK UNBOUND:                -2.101
REMARK SMILES CCCCCCCCCCCCCCC(=O)[O-]
REMARK SMILES IDX 9 1 10 2 11 3 12 4 13 5 14 6 15 7 16 8 17 9 8 10 7 11 6 12
REMARK SMILES IDX 5 13 4 14 3 15 2 16 1 17
REMARK H PARENT
REMARK Flexibility Score: inf
ROOT
ATOM      1  C   UNL     1      -4.241  -7.927  29.171  1.00  0.00     0.000 C 
ENDROOT
BRANCH   1   2
ATOM      2  C   UNL     1      -5.519  -8.705  28.817  1.00  0.00     0.000 C 
BRANCH   2   3
ATOM      3  C   UNL     1      -5.237  -9.945  27.955  1.00  0.00     0.000 C 
BRANCH   3   4
ATOM      4  C   UNL     1      -3.827  -9.885  27.354  1.00  0.00     0.000 C 
BRANCH   4   5
ATOM      5  C   UNL     1      -3.675 -10.891  26.206  1.00  0.00     0.006 C 
BRANCH   5   6
ATOM      6  C   UNL     1      -4.131 -10.282  24.877  1.00  0.00     0.053 C 
BRANCH   6   7
ATOM      7  C   UNL     1      -3.049  -9.432  24.292  1.00  0.00     0.041 C 
ATOM      8  O   UNL     1      -3.156  -8.177  24.297  1.00  0.00    -0.550 OA
ATOM      9  O   UNL     1      -1.898 -10.023  23.786  1.00  0.00    -0.550 OA
ENDBRANCH   6   7
ENDBRANCH   5   6
ENDBRANCH   4   5
ENDBRANCH   3   4
ENDBRANCH   2   3
ENDBRANCH   1   2
BRANCH   1  10
ATOM     10  C   UNL     1      -4.104  -7.668  30.678  1.00  0.00     0.000 C 
BRANCH  10  11
ATOM     11  C   UNL     1      -2.631  -7.736  31.114  1.00  0.00    -0.000 C 
BRANCH  11  12
ATOM     12  C   UNL     1      -1.836  -6.489  30.696  1.00  0.00    -0.000 C 
BRANCH  12  13
ATOM     13  C   UNL     1      -1.011  -5.898  31.853  1.00  0.00    -0.000 C 
BRANCH  13  14
ATOM     14  C   UNL     1      -1.904  -5.439  33.025  1.00  0.00    -0.000 C 
BRANCH  14  15
ATOM     15  C   UNL     1      -2.653  -4.124  32.750  1.00  0.00    -0.000 C 
BRANCH  15  16
ATOM     16  C   UNL     1      -4.172  -4.314  32.637  1.00  0.00    -0.003 C 
ATOM     17  C   UNL     1      -4.662  -3.993  31.227  1.00  0.00     0.004 C 
ENDBRANCH  15  16
ENDBRANCH  14  15
ENDBRANCH  13  14
ENDBRANCH  12  13
ENDBRANCH  11  12
ENDBRANCH  10  11
ENDBRANCH   1  10
TORSDOF 13
ENDMDL
MODEL 5
REMARK VINA RESULT:    -3.008      1.622      3.304
REMARK INTER + INTRA:          -7.395
REMARK INTER:                  -5.479
REMARK INTRA:                  -1.916
REMARK UNBOUND:                -2.101
REMARK SMILES CCCCCCCCCCCCCCC(=O)[O-]
REMARK SMILES IDX 9 1 10 2 11 3 12 4 13 5 14 6 15 7 16 8 17 9 8 10 7 11 6 12
REMARK SMILES IDX 5 13 4 14 3 15 2 16 1 17
REMARK H PARENT
REMARK Flexibility Score: inf
ROOT
ATOM      1  C   UNL     1     -11.041   4.482  29.055  1.00  0.00     0.000 C 
ENDROOT
BRANCH   1   2
ATOM      2  C   UNL     1     -12.277   4.474  29.968  1.00  0.00     0.000 C 
BRANCH   2   3
ATOM      3  C   UNL     1     -12.401   5.754  30.808  1.00  0.00     0.000 C 
BRANCH   3   4
ATOM      4  C   UNL     1     -12.394   5.429  32.307  1.00  0.00     0.000 C 
BRANCH   4   5
ATOM      5  C   UNL     1     -11.428   4.279  32.617  1.00  0.00     0.006 C 
BRANCH   5   6
ATOM      6  C   UNL     1     -10.220   4.777  33.415  1.00  0.00     0.053 C 
BRANCH   6   7
ATOM      7  C   UNL     1     -10.557   4.879  34.868  1.00  0.00     0.041 C 
ATOM      8  O   UNL     1     -10.205   5.891  35.531  1.00  0.00    -0.550 OA
ATOM      9  O   UNL     1     -11.303   3.880  35.480  1.00  0.00    -0.550 OA
ENDBRANCH   6   7
ENDBRANCH   5   6
ENDBRANCH   4   5
ENDBRANCH   3   4
ENDBRANCH   2   3
ENDBRANCH   1   2
BRANCH   1  10
ATOM     10  C   UNL     1     -10.068   5.624  29.386  1.00  0.00     0.000 C 
BRANCH  10  11
ATOM     11  C   UNL     1      -9.913   6.577  28.190  1.00  0.00    -0.000 C 
BRANCH  11  12
ATOM     12  C   UNL     1     -10.539   7.956  28.451  1.00  0.00    -0.000 C 
BRANCH  12  13
ATOM     13  C   UNL     1     -12.003   8.039  27.986  1.00  0.00    -0.000 C 
BRANCH  13  14
ATOM     14  C   UNL     1     -12.218   7.349  26.623  1.00  0.00    -0.000 C 
BRANCH  14  15
ATOM     15  C   UNL     1     -13.197   6.163  26.680  1.00  0.00    -0.000 C 
BRANCH  15  16
ATOM     16  C   UNL     1     -12.908   5.097  25.616  1.00  0.00    -0.003 C 
ATOM     17  C   UNL     1     -11.416   5.023  25.304  1.00  0.00     0.004 C 
ENDBRANCH  15  16
ENDBRANCH  14  15
ENDBRANCH  13  14
ENDBRANCH  12  13
ENDBRANCH  11  12
ENDBRANCH  10  11
ENDBRANCH   1  10
TORSDOF 13
ENDMDL
MODEL 6
REMARK VINA RESULT:    -3.005     13.432     15.248
REMARK INTER + INTRA:          -7.389
REMARK INTER:                  -5.344
REMARK INTRA:                  -2.045
REMARK UNBOUND:                -2.101
REMARK SMILES CCCCCCCCCCCCCCC(=O)[O-]
REMARK SMILES IDX 9 1 10 2 11 3 12 4 13 5 14 6 15 7 16 8 17 9 8 10 7 11 6 12
REMARK SMILES IDX 5 13 4 14 3 15 2 16 1 17
REMARK H PARENT
REMARK Flexibility Score: inf
ROOT
ATOM      1  C   UNL     1      -4.577  -3.447  31.142  1.00  0.00     0.000 C 
ENDROOT
BRANCH   1   2
ATOM      2  C   UNL     1      -3.511  -2.432  30.697  1.00  0.00     0.000 C 
BRANCH   2   3
ATOM      3  C   UNL     1      -3.137  -2.578  29.214  1.00  0.00     0.000 C 
BRANCH   3   4
ATOM      4  C   UNL     1      -1.915  -3.489  29.045  1.00  0.00     0.000 C 
BRANCH   4   5
ATOM      5  C   UNL     1      -1.220  -3.234  27.702  1.00  0.00     0.006 C 
BRANCH   5   6
ATOM      6  C   UNL     1      -0.875  -4.552  27.003  1.00  0.00     0.053 C 
BRANCH   6   7
ATOM      7  C   UNL     1      -1.805  -4.797  25.858  1.00  0.00     0.041 C 
ATOM      8  O   UNL     1      -1.626  -4.208  24.759  1.00  0.00    -0.550 OA
ATOM      9  O   UNL     1      -2.840  -5.714  25.987  1.00  0.00    -0.550 OA
ENDBRANCH   6   7
ENDBRANCH   5   6
ENDBRANCH   4   5
ENDBRANCH   3   4
ENDBRANCH   2   3
ENDBRANCH   1   2
BRANCH   1  10
ATOM     10  C   UNL     1      -4.251  -4.093  32.496  1.00  0.00     0.000 C 
BRANCH  10  11
ATOM     11  C   UNL     1      -2.743  -4.022  32.789  1.00  0.00    -0.000 C 
BRANCH  11  12
ATOM     12  C   UNL     1      -2.112  -5.412  32.962  1.00  0.00    -0.000 C 
BRANCH  12  13
ATOM     13  C   UNL     1      -1.062  -5.723  31.881  1.00  0.00    -0.000 C 
BRANCH  13  14
ATOM     14  C   UNL     1      -1.656  -6.537  30.712  1.00  0.00    -0.000 C 
BRANCH  14  15
ATOM     15  C   UNL     1      -2.645  -7.626  31.162  1.00  0.00    -0.000 C 
BRANCH  15  16
ATOM     16  C   UNL     1      -3.992  -7.550  30.430  1.00  0.00    -0.003 C 
ATOM     17  C   UNL     1      -3.942  -6.533  29.294  1.00  0.00     0.004 C 
ENDBRANCH  15  16
ENDBRANCH  14  15
ENDBRANCH  13  14
ENDBRANCH  12  13
ENDBRANCH  11  12
ENDBRANCH  10  11
ENDBRANCH   1  10
TORSDOF 13
ENDMDL
MODEL 7
REMARK VINA RESULT:    -2.984      5.212      8.166
REMARK INTER + INTRA:          -7.353
REMARK INTER:                  -5.325
REMARK INTRA:                  -2.029
REMARK UNBOUND:                -2.101
REMARK SMILES CCCCCCCCCCCCCCC(=O)[O-]
REMARK SMILES IDX 9 1 10 2 11 3 12 4 13 5 14 6 15 7 16 8 17 9 8 10 7 11 6 12
REMARK SMILES IDX 5 13 4 14 3 15 2 16 1 17
REMARK H PARENT
REMARK Flexibility Score: inf
ROOT
ATOM      1  C   UNL     1      -9.759   4.433  33.949  1.00  0.00     0.000 C 
ENDROOT
BRANCH   1   2
ATOM      2  C   UNL     1     -10.770   4.027  32.864  1.00  0.00     0.000 C 
BRANCH   2   3
ATOM      3  C   UNL     1     -11.977   4.974  32.795  1.00  0.00     0.000 C 
BRANCH   3   4
ATOM      4  C   UNL     1     -13.294   4.190  32.849  1.00  0.00     0.000 C 
BRANCH   4   5
ATOM      5  C   UNL     1     -13.230   2.945  31.956  1.00  0.00     0.006 C 
BRANCH   5   6
ATOM      6  C   UNL     1     -14.047   1.796  32.556  1.00  0.00     0.053 C 
BRANCH   6   7
ATOM      7  C   UNL     1     -15.192   1.444  31.661  1.00  0.00     0.041 C 
ATOM      8  O   UNL     1     -15.053   1.481  30.410  1.00  0.00    -0.550 OA
ATOM      9  O   UNL     1     -16.399   1.027  32.208  1.00  0.00    -0.550 OA
ENDBRANCH   6   7
ENDBRANCH   5   6
ENDBRANCH   4   5
ENDBRANCH   3   4
ENDBRANCH   2   3
ENDBRANCH   1   2
BRANCH   1  10
ATOM     10  C   UNL     1     -10.287   5.551  34.860  1.00  0.00     0.000 C 
BRANCH  10  11
ATOM     11  C   UNL     1      -9.971   5.252  36.335  1.00  0.00    -0.000 C 
BRANCH  11  12
ATOM     12  C   UNL     1     -10.369   3.825  36.744  1.00  0.00    -0.000 C 
BRANCH  12  13
ATOM     13  C   UNL     1     -11.845   3.720  37.164  1.00  0.00    -0.000 C 
BRANCH  13  14
ATOM     14  C   UNL     1     -12.691   2.956  36.123  1.00  0.00    -0.000 C 
BRANCH  14  15
ATOM     15  C   UNL     1     -11.994   1.704  35.563  1.00  0.00    -0.000 C 
BRANCH  15  16
ATOM     16  C   UNL     1     -12.768   0.410  35.849  1.00  0.00    -0.003 C 
ATOM     17  C   UNL     1     -14.222   0.708  36.207  1.00  0.00     0.004 C 
ENDBRANCH  15  16
ENDBRANCH  14  15
ENDBRANCH  13  14
ENDBRANCH  12  13
ENDBRANCH  11  12
ENDBRANCH  10  11
ENDBRANCH   1  10
TORSDOF 13
ENDMDL
MODEL 8
REMARK VINA RESULT:    -2.967      8.046     11.084
REMARK INTER + INTRA:          -7.323
REMARK INTER:                  -5.415
REMARK INTRA:                  -1.908
REMARK UNBOUND:                -2.101
REMARK SMILES CCCCCCCCCCCCCCC(=O)[O-]
REMARK SMILES IDX 9 1 10 2 11 3 12 4 13 5 14 6 15 7 16 8 17 9 8 10 7 11 6 12
REMARK SMILES IDX 5 13 4 14 3 15 2 16 1 17
REMARK H PARENT
REMARK Flexibility Score: inf
ROOT
ATOM      1  C   UNL     1      -6.204   1.663  38.579  1.00  0.00     0.000 C 
ENDROOT
BRANCH   1   2
ATOM      2  C   UNL     1      -7.412   2.487  38.106  1.00  0.00     0.000 C 
BRANCH   2   3
ATOM      3  C   UNL     1      -7.642   3.744  38.959  1.00  0.00     0.000 C 
BRANCH   3   4
ATOM      4  C   UNL     1      -7.997   4.948  38.078  1.00  0.00     0.000 C 
BRANCH   4   5
ATOM      5  C   UNL     1      -8.641   4.496  36.761  1.00  0.00     0.006 C 
BRANCH   5   6
ATOM      6  C   UNL     1      -9.832   5.386  36.398  1.00  0.00     0.053 C 
BRANCH   6   7
ATOM      7  C   UNL     1     -10.440   4.947  35.104  1.00  0.00     0.041 C 
ATOM      8  O   UNL     1      -9.983   5.376  34.011  1.00  0.00    -0.550 OA
ATOM      9  O   UNL     1     -11.478   4.024  35.102  1.00  0.00    -0.550 OA
ENDBRANCH   6   7
ENDBRANCH   5   6
ENDBRANCH   4   5
ENDBRANCH   3   4
ENDBRANCH   2   3
ENDBRANCH   1   2
BRANCH   1  10
ATOM     10  C   UNL     1      -5.021   2.542  39.014  1.00  0.00     0.000 C 
BRANCH  10  11
ATOM     11  C   UNL     1      -3.688   1.801  38.821  1.00  0.00    -0.000 C 
BRANCH  11  12
ATOM     12  C   UNL     1      -3.859   0.464  38.084  1.00  0.00    -0.000 C 
BRANCH  12  13
ATOM     13  C   UNL     1      -3.347   0.518  36.634  1.00  0.00    -0.000 C 
BRANCH  13  14
ATOM     14  C   UNL     1      -4.468   0.230  35.613  1.00  0.00    -0.000 C 
BRANCH  14  15
ATOM     15  C   UNL     1      -5.182   1.497  35.110  1.00  0.00    -0.000 C 
BRANCH  15  16
ATOM     16  C   UNL     1      -4.302   2.751  35.189  1.00  0.00    -0.003 C 
ATOM     17  C   UNL     1      -5.136   3.989  35.510  1.00  0.00     0.004 C 
ENDBRANCH  15  16
ENDBRANCH  14  15
ENDBRANCH  13  14
ENDBRANCH  12  13
ENDBRANCH  11  12
ENDBRANCH  10  11
ENDBRANCH   1  10
TORSDOF 13
ENDMDL
MODEL 9
REMARK VINA RESULT:    -2.965      6.200      9.262
REMARK INTER + INTRA:          -7.319
REMARK INTER:                  -5.498
REMARK INTRA:                  -1.821
REMARK UNBOUND:                -2.101
REMARK SMILES CCCCCCCCCCCCCCC(=O)[O-]
REMARK SMILES IDX 9 1 10 2 11 3 12 4 13 5 14 6 15 7 16 8 17 9 8 10 7 11 6 12
REMARK SMILES IDX 5 13 4 14 3 15 2 16 1 17
REMARK H PARENT
REMARK Flexibility Score: inf
ROOT
ATOM      1  C   UNL     1     -10.301   5.588  34.939  1.00  0.00     0.000 C 
ENDROOT
BRANCH   1   2
ATOM      2  C   UNL     1      -9.919   5.326  36.405  1.00  0.00     0.000 C 
BRANCH   2   3
ATOM      3  C   UNL     1      -8.925   4.165  36.559  1.00  0.00     0.000 C 
BRANCH   3   4
ATOM      4  C   UNL     1      -9.104   3.467  37.913  1.00  0.00     0.000 C 
BRANCH   4   5
ATOM      5  C   UNL     1      -7.992   3.867  38.890  1.00  0.00     0.006 C 
BRANCH   5   6
ATOM      6  C   UNL     1      -7.537   2.668  39.727  1.00  0.00     0.053 C 
BRANCH   6   7
ATOM      7  C   UNL     1      -6.379   1.983  39.076  1.00  0.00     0.041 C 
ATOM      8  O   UNL     1      -5.230   2.497  39.124  1.00  0.00    -0.550 OA
ATOM      9  O   UNL     1      -6.557   0.751  38.458  1.00  0.00    -0.550 OA
ENDBRANCH   6   7
ENDBRANCH   5   6
ENDBRANCH   4   5
ENDBRANCH   3   4
ENDBRANCH   2   3
ENDBRANCH   1   2
BRANCH   1  10
ATOM     10  C   UNL     1      -9.644   4.595  33.969  1.00  0.00     0.000 C 
BRANCH  10  11
ATOM     11  C   UNL     1     -10.680   4.014  32.993  1.00  0.00    -0.000 C 
BRANCH  11  12
ATOM     12  C   UNL     1     -12.083   4.604  33.205  1.00  0.00    -0.000 C 
BRANCH  12  13
ATOM     13  C   UNL     1     -13.061   3.593  33.829  1.00  0.00    -0.000 C 
BRANCH  13  14
ATOM     14  C   UNL     1     -12.348   2.304  34.288  1.00  0.00    -0.000 C 
BRANCH  14  15
ATOM     15  C   UNL     1     -12.186   2.202  35.815  1.00  0.00    -0.000 C 
BRANCH  15  16
ATOM     16  C   UNL     1     -13.076   3.191  36.579  1.00  0.00    -0.003 C 
ATOM     17  C   UNL     1     -12.739   3.198  38.067  1.00  0.00     0.004 C 
ENDBRANCH  15  16
ENDBRANCH  14  15
ENDBRANCH  13  14
ENDBRANCH  12  13
ENDBRANCH  11  12
ENDBRANCH  10  11
ENDBRANCH   1  10
TORSDOF 13
ENDMDL
