MODEL 1
REMARK VINA RESULT:    -3.674      0.000      0.000
REMARK INTER + INTRA:          -6.117
REMARK INTER:                  -5.607
REMARK INTRA:                  -0.510
REMARK UNBOUND:                -0.510
REMARK SMILES CCCCCCCCCCC(=O)[O-]
REMARK SMILES IDX 7 1 8 2 9 3 10 4 11 5 12 6 13 7 6 8 5 9 4 10 3 11 2 12 1 13
REMARK H PARENT
REMARK Flexibility Score: inf
ROOT
ATOM      1  C   UNL     1      58.451  35.620  52.066  1.00  0.00     0.000 C 
ENDROOT
BRANCH   1   2
ATOM      2  C   UNL     1      57.484  36.777  52.377  1.00  0.00     0.000 C 
BRANCH   2   3
ATOM      3  C   UNL     1      57.543  37.218  53.848  1.00  0.00     0.006 C 
BRANCH   3   4
ATOM      4  C   UNL     1      58.728  36.599  54.601  1.00  0.00     0.053 C 
BRANCH   4   5
ATOM      5  C   UNL     1      59.348  37.606  55.516  1.00  0.00     0.041 C 
ATOM      6  O   UNL     1      58.620  38.363  56.210  1.00  0.00    -0.550 OA
ATOM      7  O   UNL     1      60.729  37.744  55.565  1.00  0.00    -0.550 OA
ENDBRANCH   4   5
ENDBRANCH   3   4
ENDBRANCH   2   3
ENDBRANCH   1   2
BRANCH   1   8
ATOM      8  C   UNL     1      58.715  35.462  50.561  1.00  0.00     0.000 C 
BRANCH   8   9
ATOM      9  C   UNL     1      60.133  34.942  50.263  1.00  0.00    -0.000 C 
BRANCH   9  10
ATOM     10  C   UNL     1      60.713  35.524  48.964  1.00  0.00    -0.000 C 
BRANCH  10  11
ATOM     11  C   UNL     1      59.684  36.360  48.183  1.00  0.00    -0.000 C 
BRANCH  11  12
ATOM     12  C   UNL     1      60.269  37.686  47.672  1.00  0.00    -0.003 C 
ATOM     13  C   UNL     1      61.701  37.922  48.152  1.00  0.00     0.004 C 
ENDBRANCH  11  12
ENDBRANCH  10  11
ENDBRANCH   9  10
ENDBRANCH   8   9
ENDBRANCH   1   8
TORSDOF 9
ENDMDL
MODEL 2
REMARK VINA RESULT:    -3.594      3.295      6.421
REMARK INTER + INTRA:          -5.994
REMARK INTER:                  -5.546
REMARK INTRA:                  -0.449
REMARK UNBOUND:                -0.510
REMARK SMILES CCCCCCCCCCC(=O)[O-]
REMARK SMILES IDX 7 1 8 2 9 3 10 4 11 5 12 6 13 7 6 8 5 9 4 10 3 11 2 12 1 13
REMARK H PARENT
REMARK Flexibility Score: inf
ROOT
ATOM      1  C   UNL     1      58.418  35.772  51.114  1.00  0.00     0.000 C 
ENDROOT
BRANCH   1   2
ATOM      2  C   UNL     1      59.643  34.901  50.785  1.00  0.00     0.000 C 
BRANCH   2   3
ATOM      3  C   UNL     1      60.028  34.960  49.298  1.00  0.00     0.006 C 
BRANCH   3   4
ATOM      4  C   UNL     1      59.987  36.387  48.735  1.00  0.00     0.053 C 
BRANCH   4   5
ATOM      5  C   UNL     1      61.355  36.821  48.314  1.00  0.00     0.041 C 
ATOM      6  O   UNL     1      62.294  35.984  48.253  1.00  0.00    -0.550 OA
ATOM      7  O   UNL     1      61.606  38.158  48.037  1.00  0.00    -0.550 OA
ENDBRANCH   4   5
ENDBRANCH   3   4
ENDBRANCH   2   3
ENDBRANCH   1   2
BRANCH   1   8
ATOM      8  C   UNL     1      57.939  35.591  52.563  1.00  0.00     0.000 C 
BRANCH   8   9
ATOM      9  C   UNL     1      57.067  36.764  53.047  1.00  0.00    -0.000 C 
BRANCH   9  10
ATOM     10  C   UNL     1      57.728  37.558  54.185  1.00  0.00    -0.000 C 
BRANCH  10  11
ATOM     11  C   UNL     1      58.930  36.819  54.798  1.00  0.00    -0.000 C 
BRANCH  11  12
ATOM     12  C   UNL     1      59.718  37.693  55.786  1.00  0.00    -0.003 C 
ATOM     13  C   UNL     1      58.818  38.375  56.816  1.00  0.00     0.004 C 
ENDBRANCH  11  12
ENDBRANCH  10  11
ENDBRANCH   9  10
ENDBRANCH   8   9
ENDBRANCH   1   8
TORSDOF 9
ENDMDL
MODEL 3
REMARK VINA RESULT:    -3.391     17.314     18.625
REMARK INTER + INTRA:          -5.684
REMARK INTER:                  -4.738
REMARK INTRA:                  -0.946
REMARK UNBOUND:                -0.510
REMARK SMILES CCCCCCCCCCC(=O)[O-]
REMARK SMILES IDX 7 1 8 2 9 3 10 4 11 5 12 6 13 7 6 8 5 9 4 10 3 11 2 12 1 13
REMARK H PARENT
REMARK Flexibility Score: inf
ROOT
ATOM      1  C   UNL     1      70.661  51.485  51.434  1.00  0.00     0.000 C 
ENDROOT
BRANCH   1   2
ATOM      2  C   UNL     1      71.168  51.598  52.883  1.00  0.00     0.000 C 
BRANCH   2   3
ATOM      3  C   UNL     1      70.392  52.643  53.701  1.00  0.00     0.006 C 
BRANCH   3   4
ATOM      4  C   UNL     1      70.345  52.304  55.196  1.00  0.00     0.053 C 
BRANCH   4   5
ATOM      5  C   UNL     1      69.716  50.963  55.407  1.00  0.00     0.041 C 
ATOM      6  O   UNL     1      68.522  50.763  55.061  1.00  0.00    -0.550 OA
ATOM      7  O   UNL     1      70.431  49.950  56.033  1.00  0.00    -0.550 OA
ENDBRANCH   4   5
ENDBRANCH   3   4
ENDBRANCH   2   3
ENDBRANCH   1   2
BRANCH   1   8
ATOM      8  C   UNL     1      69.195  51.029  51.357  1.00  0.00     0.000 C 
BRANCH   8   9
ATOM      9  C   UNL     1      68.595  51.209  49.951  1.00  0.00    -0.000 C 
BRANCH   9  10
ATOM     10  C   UNL     1      68.930  52.578  49.338  1.00  0.00    -0.000 C 
BRANCH  10  11
ATOM     11  C   UNL     1      67.772  53.581  49.470  1.00  0.00    -0.000 C 
BRANCH  11  12
ATOM     12  C   UNL     1      68.181  54.857  50.224  1.00  0.00    -0.003 C 
ATOM     13  C   UNL     1      69.685  54.927  50.490  1.00  0.00     0.004 C 
ENDBRANCH  11  12
ENDBRANCH  10  11
ENDBRANCH   9  10
ENDBRANCH   8   9
ENDBRANCH   1   8
TORSDOF 9
ENDMDL
MODEL 4
REMARK VINA RESULT:    -3.383      9.713     12.339
REMARK INTER + INTRA:          -5.672
REMARK INTER:                  -5.098
REMARK INTRA:                  -0.574
REMARK UNBOUND:                -0.510
REMARK SMILES CCCCCCCCCCC(=O)[O-]
REMARK SMILES IDX 7 1 8 2 9 3 10 4 11 5 12 6 13 7 6 8 5 9 4 10 3 11 2 12 1 13
REMARK H PARENT
REMARK Flexibility Score: inf
ROOT
ATOM      1  C   UNL     1      65.661  43.143  56.848  1.00  0.00     0.000 C 
ENDROOT
BRANCH   1   2
ATOM      2  C   UNL     1      66.803  42.520  57.671  1.00  0.00     0.000 C 
BRANCH   2   3
ATOM      3  C   UNL     1      66.294  41.750  58.899  1.00  0.00     0.006 C 
BRANCH   3   4
ATOM      4  C   UNL     1      64.769  41.579  58.897  1.00  0.00     0.053 C 
BRANCH   4   5
ATOM      5  C   UNL     1      64.403  40.165  58.575  1.00  0.00     0.041 C 
ATOM      6  O   UNL     1      65.267  39.379  58.104  1.00  0.00    -0.550 OA
ATOM      7  O   UNL     1      63.095  39.728  58.748  1.00  0.00    -0.550 OA
ENDBRANCH   4   5
ENDBRANCH   3   4
ENDBRANCH   2   3
ENDBRANCH   1   2
BRANCH   1   8
ATOM      8  C   UNL     1      65.666  44.679  56.903  1.00  0.00     0.000 C 
BRANCH   8   9
ATOM      9  C   UNL     1      64.802  45.231  58.051  1.00  0.00    -0.000 C 
BRANCH   9  10
ATOM     10  C   UNL     1      65.521  46.325  58.856  1.00  0.00    -0.000 C 
BRANCH  10  11
ATOM     11  C   UNL     1      65.451  47.701  58.172  1.00  0.00    -0.000 C 
BRANCH  11  12
ATOM     12  C   UNL     1      66.843  48.269  57.848  1.00  0.00    -0.003 C 
ATOM     13  C   UNL     1      66.954  49.762  58.155  1.00  0.00     0.004 C 
ENDBRANCH  11  12
ENDBRANCH  10  11
ENDBRANCH   9  10
ENDBRANCH   8   9
ENDBRANCH   1   8
TORSDOF 9
ENDMDL
MODEL 5
REMARK VINA RESULT:    -3.358     12.564     14.785
REMARK INTER + INTRA:          -5.634
REMARK INTER:                  -5.161
REMARK INTRA:                  -0.473
REMARK UNBOUND:                -0.510
REMARK SMILES CCCCCCCCCCC(=O)[O-]
REMARK SMILES IDX 7 1 8 2 9 3 10 4 11 5 12 6 13 7 6 8 5 9 4 10 3 11 2 12 1 13
REMARK H PARENT
REMARK Flexibility Score: inf
ROOT
ATOM      1  C   UNL     1      66.387  47.469  57.732  1.00  0.00     0.000 C 
ENDROOT
BRANCH   1   2
ATOM      2  C   UNL     1      66.349  48.939  58.187  1.00  0.00     0.000 C 
BRANCH   2   3
ATOM      3  C   UNL     1      67.579  49.734  57.723  1.00  0.00     0.006 C 
BRANCH   3   4
ATOM      4  C   UNL     1      68.336  49.036  56.586  1.00  0.00     0.053 C 
BRANCH   4   5
ATOM      5  C   UNL     1      69.796  49.357  56.656  1.00  0.00     0.041 C 
ATOM      6  O   UNL     1      70.287  50.238  55.902  1.00  0.00    -0.550 OA
ATOM      7  O   UNL     1      70.623  48.650  57.519  1.00  0.00    -0.550 OA
ENDBRANCH   4   5
ENDBRANCH   3   4
ENDBRANCH   2   3
ENDBRANCH   1   2
BRANCH   1   8
ATOM      8  C   UNL     1      65.633  46.535  58.692  1.00  0.00     0.000 C 
BRANCH   8   9
ATOM      9  C   UNL     1      64.861  45.428  57.952  1.00  0.00    -0.000 C 
BRANCH   9  10
ATOM     10  C   UNL     1      65.739  44.670  56.943  1.00  0.00    -0.000 C 
BRANCH  10  11
ATOM     11  C   UNL     1      65.434  43.163  56.913  1.00  0.00    -0.000 C 
BRANCH  11  12
ATOM     12  C   UNL     1      66.641  42.309  57.334  1.00  0.00    -0.003 C 
ATOM     13  C   UNL     1      67.247  42.762  58.662  1.00  0.00     0.004 C 
ENDBRANCH  11  12
ENDBRANCH  10  11
ENDBRANCH   9  10
ENDBRANCH   8   9
ENDBRANCH   1   8
TORSDOF 9
ENDMDL
MODEL 6
REMARK VINA RESULT:    -3.334      4.372      6.599
REMARK INTER + INTRA:          -5.598
REMARK INTER:                  -5.034
REMARK INTRA:                  -0.564
REMARK UNBOUND:                -0.510
REMARK SMILES CCCCCCCCCCC(=O)[O-]
REMARK SMILES IDX 7 1 8 2 9 3 10 4 11 5 12 6 13 7 6 8 5 9 4 10 3 11 2 12 1 13
REMARK H PARENT
REMARK Flexibility Score: inf
ROOT
ATOM      1  C   UNL     1      62.237  37.637  56.535  1.00  0.00     0.000 C 
ENDROOT
BRANCH   1   2
ATOM      2  C   UNL     1      61.782  37.535  58.002  1.00  0.00     0.000 C 
BRANCH   2   3
ATOM      3  C   UNL     1      62.776  38.187  58.976  1.00  0.00     0.006 C 
BRANCH   3   4
ATOM      4  C   UNL     1      62.827  39.714  58.832  1.00  0.00     0.053 C 
BRANCH   4   5
ATOM      5  C   UNL     1      64.205  40.157  58.454  1.00  0.00     0.041 C 
ATOM      6  O   UNL     1      65.032  39.327  57.993  1.00  0.00    -0.550 OA
ATOM      7  O   UNL     1      64.592  41.475  58.657  1.00  0.00    -0.550 OA
ENDBRANCH   4   5
ENDBRANCH   3   4
ENDBRANCH   2   3
ENDBRANCH   1   2
BRANCH   1   8
ATOM      8  C   UNL     1      61.064  37.545  55.547  1.00  0.00     0.000 C 
BRANCH   8   9
ATOM      9  C   UNL     1      59.732  38.002  56.169  1.00  0.00    -0.000 C 
BRANCH   9  10
ATOM     10  C   UNL     1      58.521  37.659  55.286  1.00  0.00    -0.000 C 
BRANCH  10  11
ATOM     11  C   UNL     1      58.782  36.448  54.374  1.00  0.00    -0.000 C 
BRANCH  11  12
ATOM     12  C   UNL     1      57.567  36.096  53.501  1.00  0.00    -0.003 C 
ATOM     13  C   UNL     1      56.979  37.315  52.791  1.00  0.00     0.004 C 
ENDBRANCH  11  12
ENDBRANCH  10  11
ENDBRANCH   9  10
ENDBRANCH   8   9
ENDBRANCH   1   8
TORSDOF 9
ENDMDL
MODEL 7
REMARK VINA RESULT:    -3.319      3.747      7.022
REMARK INTER + INTRA:          -5.575
REMARK INTER:                  -4.891
REMARK INTRA:                  -0.684
REMARK UNBOUND:                -0.510
REMARK SMILES CCCCCCCCCCC(=O)[O-]
REMARK SMILES IDX 7 1 8 2 9 3 10 4 11 5 12 6 13 7 6 8 5 9 4 10 3 11 2 12 1 13
REMARK H PARENT
REMARK Flexibility Score: inf
ROOT
ATOM      1  C   UNL     1      60.199  36.804  55.343  1.00  0.00     0.000 C 
ENDROOT
BRANCH   1   2
ATOM      2  C   UNL     1      60.442  35.416  54.724  1.00  0.00     0.000 C 
BRANCH   2   3
ATOM      3  C   UNL     1      59.442  35.085  53.605  1.00  0.00     0.006 C 
BRANCH   3   4
ATOM      4  C   UNL     1      58.077  35.750  53.819  1.00  0.00     0.053 C 
BRANCH   4   5
ATOM      5  C   UNL     1      57.654  36.483  52.585  1.00  0.00     0.041 C 
ATOM      6  O   UNL     1      58.102  36.138  51.460  1.00  0.00    -0.550 OA
ATOM      7  O   UNL     1      56.804  37.578  52.683  1.00  0.00    -0.550 OA
ENDBRANCH   4   5
ENDBRANCH   3   4
ENDBRANCH   2   3
ENDBRANCH   1   2
BRANCH   1   8
ATOM      8  C   UNL     1      61.505  37.505  55.748  1.00  0.00     0.000 C 
BRANCH   8   9
ATOM      9  C   UNL     1      61.747  37.469  57.268  1.00  0.00    -0.000 C 
BRANCH   9  10
ATOM     10  C   UNL     1      60.476  37.118  58.058  1.00  0.00    -0.000 C 
BRANCH  10  11
ATOM     11  C   UNL     1      60.045  38.246  59.011  1.00  0.00    -0.000 C 
BRANCH  11  12
ATOM     12  C   UNL     1      58.559  38.609  58.860  1.00  0.00    -0.003 C 
ATOM     13  C   UNL     1      58.280  39.434  57.604  1.00  0.00     0.004 C 
ENDBRANCH  11  12
ENDBRANCH  10  11
ENDBRANCH   9  10
ENDBRANCH   8   9
ENDBRANCH   1   8
TORSDOF 9
ENDMDL
MODEL 8
REMARK VINA RESULT:    -3.259     17.422     18.933
REMARK INTER + INTRA:          -5.484
REMARK INTER:                  -4.692
REMARK INTRA:                  -0.792
REMARK UNBOUND:                -0.510
REMARK SMILES CCCCCCCCCCC(=O)[O-]
REMARK SMILES IDX 7 1 8 2 9 3 10 4 11 5 12 6 13 7 6 8 5 9 4 10 3 11 2 12 1 13
REMARK H PARENT
REMARK Flexibility Score: inf
ROOT
ATOM      1  C   UNL     1      70.096  52.444  54.190  1.00  0.00     0.000 C 
ENDROOT
BRANCH   1   2
ATOM      2  C   UNL     1      70.581  52.866  52.791  1.00  0.00     0.000 C 
BRANCH   2   3
ATOM      3  C   UNL     1      71.046  51.672  51.943  1.00  0.00     0.006 C 
BRANCH   3   4
ATOM      4  C   UNL     1      70.570  51.763  50.487  1.00  0.00     0.053 C 
BRANCH   4   5
ATOM      5  C   UNL     1      69.106  51.471  50.398  1.00  0.00     0.041 C 
ATOM      6  O   UNL     1      68.643  50.405  50.881  1.00  0.00    -0.550 OA
ATOM      7  O   UNL     1      68.259  52.353  49.738  1.00  0.00    -0.550 OA
ENDBRANCH   4   5
ENDBRANCH   3   4
ENDBRANCH   2   3
ENDBRANCH   1   2
BRANCH   1   8
ATOM      8  C   UNL     1      69.592  50.992  54.226  1.00  0.00     0.000 C 
BRANCH   8   9
ATOM      9  C   UNL     1      68.925  50.633  55.565  1.00  0.00    -0.000 C 
BRANCH   9  10
ATOM     10  C   UNL     1      69.934  50.545  56.721  1.00  0.00    -0.000 C 
BRANCH  10  11
ATOM     11  C   UNL     1      70.416  49.106  56.975  1.00  0.00    -0.000 C 
BRANCH  11  12
ATOM     12  C   UNL     1      71.940  48.964  56.843  1.00  0.00    -0.003 C 
ATOM     13  C   UNL     1      72.598  50.204  56.238  1.00  0.00     0.004 C 
ENDBRANCH  11  12
ENDBRANCH  10  11
ENDBRANCH   9  10
ENDBRANCH   8   9
ENDBRANCH   1   8
TORSDOF 9
ENDMDL
MODEL 9
REMARK VINA RESULT:    -3.246     17.175     19.070
REMARK INTER + INTRA:          -5.464
REMARK INTER:                  -4.359
REMARK INTRA:                  -1.105
REMARK UNBOUND:                -0.510
REMARK SMILES CCCCCCCCCCC(=O)[O-]
REMARK SMILES IDX 7 1 8 2 9 3 10 4 11 5 12 6 13 7 6 8 5 9 4 10 3 11 2 12 1 13
REMARK H PARENT
REMARK Flexibility Score: inf
ROOT
ATOM      1  C   UNL     1      70.258  53.756  52.952  1.00  0.00     0.000 C 
ENDROOT
BRANCH   1   2
ATOM      2  C   UNL     1      71.104  52.599  52.391  1.00  0.00     0.000 C 
BRANCH   2   3
ATOM      3  C   UNL     1      70.970  51.313  53.222  1.00  0.00     0.006 C 
BRANCH   3   4
ATOM      4  C   UNL     1      69.522  51.036  53.648  1.00  0.00     0.053 C 
BRANCH   4   5
ATOM      5  C   UNL     1      69.465  50.686  55.102  1.00  0.00     0.041 C 
ATOM      6  O   UNL     1      68.353  50.502  55.664  1.00  0.00    -0.550 OA
ATOM      7  O   UNL     1      70.635  50.612  55.847  1.00  0.00    -0.550 OA
ENDBRANCH   4   5
ENDBRANCH   3   4
ENDBRANCH   2   3
ENDBRANCH   1   2
BRANCH   1   8
ATOM      8  C   UNL     1      70.241  54.979  52.020  1.00  0.00     0.000 C 
BRANCH   8   9
ATOM      9  C   UNL     1      69.164  54.871  50.926  1.00  0.00    -0.000 C 
BRANCH   9  10
ATOM     10  C   UNL     1      69.763  54.633  49.531  1.00  0.00    -0.000 C 
BRANCH  10  11
ATOM     11  C   UNL     1      69.523  53.201  49.024  1.00  0.00    -0.000 C 
BRANCH  11  12
ATOM     12  C   UNL     1      68.354  52.509  49.743  1.00  0.00    -0.003 C 
ATOM     13  C   UNL     1      68.663  51.057  50.106  1.00  0.00     0.004 C 
ENDBRANCH  11  12
ENDBRANCH  10  11
ENDBRANCH   9  10
ENDBRANCH   8   9
ENDBRANCH   1   8
TORSDOF 9
ENDMDL
