MODEL 1
REMARK VINA RESULT:    -4.127      0.000      0.000
REMARK INTER + INTRA:          -4.619
REMARK INTER:                  -4.489
REMARK INTRA:                  -0.130
REMARK UNBOUND:                -0.130
REMARK SMILES CC1=CC[C@@](O)(C(C)C)CC1
REMARK SMILES IDX 1 1 2 2 3 3 4 4 5 5 10 6 11 7 7 8 8 9 9 10 6 11
REMARK H PARENT 6 12
REMARK Flexibility Score: inf
ROOT
ATOM      1  C   UNL     1     -38.125  24.997   4.028  1.00  0.00     0.039 C 
ATOM      2  C   UNL     1     -37.524  23.942   4.916  1.00  0.00    -0.077 C 
ATOM      3  C   UNL     1     -36.884  22.896   4.350  1.00  0.00    -0.025 C 
ATOM      4  C   UNL     1     -36.205  21.815   5.157  1.00  0.00     0.062 C 
ATOM      5  C   UNL     1     -36.808  21.667   6.576  1.00  0.00     0.071 C 
ATOM      6  C   UNL     1     -36.856  23.079   7.212  1.00  0.00     0.040 C 
ATOM      7  C   UNL     1     -37.765  24.019   6.409  1.00  0.00     0.033 C 
ENDROOT
BRANCH   5   8
ATOM      8  C   UNL     1     -35.994  20.661   7.473  1.00  0.00     0.015 C 
ATOM      9  C   UNL     1     -36.828  19.919   8.535  1.00  0.00     0.010 C 
ATOM     10  C   UNL     1     -34.784  21.330   8.149  1.00  0.00     0.010 C 
ENDBRANCH   5   8
BRANCH   5  11
ATOM     11  O   UNL     1     -38.125  21.181   6.430  1.00  0.00    -0.389 OA
ATOM     12  H   UNL     1     -38.715  21.705   7.034  1.00  0.00     0.211 HD
ENDBRANCH   5  11
TORSDOF 2
ENDMDL
MODEL 2
REMARK VINA RESULT:    -2.780      1.463      4.260
REMARK INTER + INTRA:          -3.154
REMARK INTER:                  -3.004
REMARK INTRA:                  -0.150
REMARK UNBOUND:                -0.130
REMARK SMILES CC1=CC[C@@](O)(C(C)C)CC1
REMARK SMILES IDX 1 1 2 2 3 3 4 4 5 5 10 6 11 7 7 8 8 9 9 10 6 11
REMARK H PARENT 6 12
REMARK Flexibility Score: inf
ROOT
ATOM      1  C   UNL     1     -37.555  18.789   8.405  1.00  0.00     0.039 C 
ATOM      2  C   UNL     1     -37.570  20.106   7.679  1.00  0.00    -0.077 C 
ATOM      3  C   UNL     1     -38.023  20.149   6.408  1.00  0.00    -0.025 C 
ATOM      4  C   UNL     1     -38.125  21.430   5.616  1.00  0.00     0.062 C 
ATOM      5  C   UNL     1     -37.138  22.515   6.112  1.00  0.00     0.071 C 
ATOM      6  C   UNL     1     -37.311  22.635   7.648  1.00  0.00     0.040 C 
ATOM      7  C   UNL     1     -36.957  21.318   8.352  1.00  0.00     0.033 C 
ENDROOT
BRANCH   5   8
ATOM      8  C   UNL     1     -37.359  23.901   5.400  1.00  0.00     0.015 C 
ATOM      9  C   UNL     1     -38.117  24.947   6.239  1.00  0.00     0.010 C 
ATOM     10  C   UNL     1     -38.045  23.750   4.030  1.00  0.00     0.010 C 
ENDBRANCH   5   8
BRANCH   5  11
ATOM     11  O   UNL     1     -35.831  22.063   5.829  1.00  0.00    -0.389 OA
ATOM     12  H   UNL     1     -35.722  22.036   4.842  1.00  0.00     0.211 HD
ENDBRANCH   5  11
TORSDOF 2
ENDMDL
MODEL 3
REMARK VINA RESULT:    -2.376      1.339      4.377
REMARK INTER + INTRA:          -2.715
REMARK INTER:                  -2.591
REMARK INTRA:                  -0.124
REMARK UNBOUND:                -0.130
REMARK SMILES CC1=CC[C@@](O)(C(C)C)CC1
REMARK SMILES IDX 1 1 2 2 3 3 4 4 5 5 10 6 11 7 7 8 8 9 9 10 6 11
REMARK H PARENT 6 12
REMARK Flexibility Score: inf
ROOT
ATOM      1  C   UNL     1     -36.782  19.214   8.781  1.00  0.00     0.039 C 
ATOM      2  C   UNL     1     -36.874  20.383   7.839  1.00  0.00    -0.077 C 
ATOM      3  C   UNL     1     -35.906  21.323   7.865  1.00  0.00    -0.025 C 
ATOM      4  C   UNL     1     -35.884  22.505   6.925  1.00  0.00     0.062 C 
ATOM      5  C   UNL     1     -37.293  22.873   6.401  1.00  0.00     0.071 C 
ATOM      6  C   UNL     1     -37.945  21.572   5.864  1.00  0.00     0.040 C 
ATOM      7  C   UNL     1     -38.114  20.534   6.981  1.00  0.00     0.033 C 
ENDROOT
BRANCH   5   8
ATOM      8  C   UNL     1     -37.251  23.992   5.295  1.00  0.00     0.015 C 
ATOM      9  C   UNL     1     -38.125  25.226   5.587  1.00  0.00     0.010 C 
ATOM     10  C   UNL     1     -37.591  23.444   3.897  1.00  0.00     0.010 C 
ENDBRANCH   5   8
BRANCH   5  11
ATOM     11  O   UNL     1     -38.045  23.347   7.497  1.00  0.00    -0.389 OA
ATOM     12  H   UNL     1     -37.547  23.128   8.329  1.00  0.00     0.211 HD
ENDBRANCH   5  11
TORSDOF 2
ENDMDL
