MODEL 1
REMARK VINA RESULT:    10.721      0.000      0.000
REMARK INTER + INTRA:          16.530
REMARK INTER:                  15.734
REMARK INTRA:                   0.796
REMARK UNBOUND:                 0.796
REMARK SMILES C=C1C=C[C@H](C(C)C)CCC(C)=CCC1
REMARK SMILES IDX 3 1 4 2 5 3 9 4 10 5 11 6 12 7 13 8 6 10 7 11 8 12 2 13 1 14
REMARK SMILES IDX 15 15 14 16
REMARK H PARENT
REMARK Flexibility Score: 70.00
ROOT
ATOM      1  C   UNL     1      -1.802   5.956  -8.759  1.00  0.00    -0.001 C 
ATOM      2  C   UNL     1      -1.525   5.522 -10.026  1.00  0.00    -0.023 C 
ENDROOT
BRANCH   2   3
ATOM      3  C   UNL     1      -0.963   6.326 -11.213  1.00  0.00     0.014 C 
BRANCH   3   4
ATOM      4  C   UNL     1       0.532   6.095 -11.279  1.00  0.00     0.012 C 
BRANCH   4   5
ATOM      5  C   UNL     1       1.513   6.300 -10.156  1.00  0.00     0.031 C 
BRANCH   5   6
ATOM      6  C   UNL     1       1.366   5.149  -9.141  1.00  0.00    -0.077 C 
ATOM      7  C   UNL     1       1.553   3.753  -9.680  1.00  0.00     0.039 C 
ATOM      8  C   UNL     1       1.129   5.268  -7.787  1.00  0.00    -0.028 CG0
ATOM      9  G   UNL     1       0.739   6.504  -6.956  1.00  0.00     0.000 G0
ENDBRANCH   5   6
ENDBRANCH   4   5
ENDBRANCH   3   4
BRANCH   3  10
ATOM     10  C   UNL     1      -1.697   6.031 -12.554  1.00  0.00    -0.010 C 
ATOM     11  C   UNL     1      -0.844   5.248 -13.571  1.00  0.00     0.008 C 
ATOM     12  C   UNL     1      -3.015   5.284 -12.300  1.00  0.00     0.008 C 
ENDBRANCH   3  10
ENDBRANCH   2   3
BRANCH   1  13
ATOM     13  C   UNL     1      -1.456   7.279  -8.135  1.00  0.00    -0.055 C 
ATOM     14  C   UNL     1      -2.409   8.214  -8.099  1.00  0.00     0.012 C 
BRANCH  13  15
ATOM     15  C   UNL     1      -0.029   7.648  -7.695  1.00  0.00     0.039 C 
BRANCH  15  16
ATOM     16  C   UNL     1       0.748   6.496  -6.956  1.00  0.00     0.032 CG0
ATOM     17  G   UNL     1       1.140   5.269  -7.800  1.00  0.00     0.000 G0
ENDBRANCH  15  16
ENDBRANCH  13  15
ENDBRANCH   1  13
TORSDOF 1
ENDMDL
MODEL 2
REMARK VINA RESULT:    12.706      1.363      4.166
REMARK INTER + INTRA:          19.445
REMARK INTER:                  19.278
REMARK INTRA:                   0.167
REMARK UNBOUND:                 0.796
REMARK SMILES C=C1C=C[C@H](C(C)C)CCC(C)=CCC1
REMARK SMILES IDX 3 1 4 2 5 3 9 4 10 5 11 6 12 7 13 8 6 10 7 11 8 12 2 13 1 14
REMARK SMILES IDX 15 15 14 16
REMARK H PARENT
REMARK Flexibility Score: 70.00
ROOT
ATOM      1  C   UNL     1       0.495   6.548 -11.221  1.00  0.00    -0.001 C 
ATOM      2  C   UNL     1       1.546   6.276 -10.391  1.00  0.00    -0.023 C 
ENDROOT
BRANCH   2   3
ATOM      3  C   UNL     1       1.655   5.185  -9.309  1.00  0.00     0.014 C 
BRANCH   3   4
ATOM      4  C   UNL     1       0.730   5.554  -8.167  1.00  0.00     0.012 C 
BRANCH   4   5
ATOM      5  C   UNL     1       0.759   6.835  -7.378  1.00  0.00     0.031 C 
BRANCH   5   6
ATOM      6  C   UNL     1      -0.622   7.515  -7.470  1.00  0.00    -0.077 C 
ATOM      7  C   UNL     1      -0.806   8.769  -6.652  1.00  0.00     0.039 C 
ATOM      8  C   UNL     1      -1.684   7.122  -8.258  1.00  0.00    -0.028 CG0
ATOM      9  G   UNL     1      -1.888   5.831  -9.072  1.00  0.00     0.000 G0
ENDBRANCH   5   6
ENDBRANCH   4   5
ENDBRANCH   3   4
BRANCH   3  10
ATOM     10  C   UNL     1       1.418   3.750  -9.862  1.00  0.00    -0.010 C 
ATOM     11  C   UNL     1       2.699   3.059 -10.369  1.00  0.00     0.008 C 
ATOM     12  C   UNL     1       0.737   2.866  -8.807  1.00  0.00     0.008 C 
ENDBRANCH   3  10
ENDBRANCH   2   3
BRANCH   1  13
ATOM     13  C   UNL     1      -0.756   5.741 -11.431  1.00  0.00    -0.055 C 
ATOM     14  C   UNL     1      -0.777   4.887 -12.457  1.00  0.00     0.012 C 
BRANCH  13  15
ATOM     15  C   UNL     1      -2.046   5.975 -10.627  1.00  0.00     0.039 C 
BRANCH  15  16
ATOM     16  C   UNL     1      -1.882   5.837  -9.068  1.00  0.00     0.032 CG0
ATOM     17  G   UNL     1      -1.680   7.139  -8.272  1.00  0.00     0.000 G0
ENDBRANCH  15  16
ENDBRANCH  13  15
ENDBRANCH   1  13
TORSDOF 1
ENDMDL
MODEL 3
REMARK VINA RESULT:    12.879      1.723      4.736
REMARK INTER + INTRA:          19.697
REMARK INTER:                  19.355
REMARK INTRA:                   0.343
REMARK UNBOUND:                 0.796
REMARK SMILES C=C1C=C[C@H](C(C)C)CCC(C)=CCC1
REMARK SMILES IDX 3 1 4 2 5 3 9 4 10 5 11 6 12 7 13 8 6 10 7 11 8 12 2 13 1 14
REMARK SMILES IDX 15 15 14 16
REMARK H PARENT
REMARK Flexibility Score: 70.00
ROOT
ATOM      1  C   UNL     1       1.389   5.212  -8.188  1.00  0.00    -0.001 C 
ATOM      2  C   UNL     1       0.488   6.139  -7.744  1.00  0.00    -0.023 C 
ENDROOT
BRANCH   2   3
ATOM      3  C   UNL     1      -0.536   6.948  -8.563  1.00  0.00     0.014 C 
BRANCH   3   4
ATOM      4  C   UNL     1      -1.420   5.974  -9.314  1.00  0.00     0.012 C 
BRANCH   4   5
ATOM      5  C   UNL     1      -2.245   6.283 -10.535  1.00  0.00     0.031 C 
BRANCH   5   6
ATOM      6  C   UNL     1      -1.575   5.647 -11.770  1.00  0.00    -0.077 C 
ATOM      7  C   UNL     1      -2.474   4.850 -12.682  1.00  0.00     0.039 C 
ATOM      8  C   UNL     1      -0.255   5.773 -12.149  1.00  0.00    -0.028 CG0
ATOM      9  G   UNL     1       0.941   6.367 -11.384  1.00  0.00     0.000 G0
ENDBRANCH   5   6
ENDBRANCH   4   5
ENDBRANCH   3   4
BRANCH   3  10
ATOM     10  C   UNL     1      -1.332   7.974  -7.704  1.00  0.00    -0.010 C 
ATOM     11  C   UNL     1      -2.255   7.324  -6.655  1.00  0.00     0.008 C 
ATOM     12  C   UNL     1      -0.380   8.961  -7.014  1.00  0.00     0.008 C 
ENDBRANCH   3  10
ENDBRANCH   2   3
BRANCH   1  13
ATOM     13  C   UNL     1       1.494   4.599  -9.557  1.00  0.00    -0.055 C 
ATOM     14  C   UNL     1       1.283   3.285  -9.664  1.00  0.00     0.012 C 
BRANCH  13  15
ATOM     15  C   UNL     1       1.985   5.380 -10.787  1.00  0.00     0.039 C 
BRANCH  15  16
ATOM     16  C   UNL     1       0.929   6.377 -11.396  1.00  0.00     0.032 CG0
ATOM     17  G   UNL     1      -0.254   5.756 -12.160  1.00  0.00     0.000 G0
ENDBRANCH  15  16
ENDBRANCH  13  15
ENDBRANCH   1  13
TORSDOF 1
ENDMDL
MODEL 4
REMARK VINA RESULT:    13.101      1.524      3.717
REMARK INTER + INTRA:          20.024
REMARK INTER:                  16.600
REMARK INTRA:                   3.424
REMARK UNBOUND:                 0.796
REMARK SMILES C=C1C=C[C@H](C(C)C)CCC(C)=CCC1
REMARK SMILES IDX 3 1 4 2 5 3 9 4 10 5 11 6 12 7 13 8 6 10 7 11 8 12 2 13 1 14
REMARK SMILES IDX 15 15 14 16
REMARK H PARENT
REMARK Flexibility Score: 70.00
ROOT
ATOM      1  C   UNL     1       0.707   6.683  -7.414  1.00  0.00    -0.001 C 
ATOM      2  C   UNL     1       1.322   5.797  -8.253  1.00  0.00    -0.023 C 
ENDROOT
BRANCH   2   3
ATOM      3  C   UNL     1       0.753   5.115  -9.511  1.00  0.00     0.014 C 
BRANCH   3   4
ATOM      4  C   UNL     1       0.755   6.124 -10.641  1.00  0.00     0.012 C 
BRANCH   4   5
ATOM      5  C   UNL     1       0.085   5.962 -11.979  1.00  0.00     0.031 C 
BRANCH   5   6
ATOM      6  C   UNL     1      -1.438   5.847 -11.769  1.00  0.00    -0.077 C 
ATOM      7  C   UNL     1      -2.298   6.020 -12.996  1.00  0.00     0.039 C 
ATOM      8  C   UNL     1      -2.089   5.555 -10.588  1.00  0.00    -0.028 CG0
ATOM      9  G   UNL     1      -1.542   5.478  -9.151  1.00  0.00     0.000 G0
ENDBRANCH   5   6
ENDBRANCH   4   5
ENDBRANCH   3   4
BRANCH   3  10
ATOM     10  C   UNL     1       1.476   3.784  -9.866  1.00  0.00    -0.010 C 
ATOM     11  C   UNL     1       2.994   3.809  -9.599  1.00  0.00     0.008 C 
ATOM     12  C   UNL     1       0.839   2.603  -9.119  1.00  0.00     0.008 C 
ENDBRANCH   3  10
ENDBRANCH   2   3
BRANCH   1  13
ATOM     13  C   UNL     1      -0.617   7.372  -7.599  1.00  0.00    -0.055 C 
ATOM     14  C   UNL     1      -0.750   8.602  -7.096  1.00  0.00     0.012 C 
BRANCH  13  15
ATOM     15  C   UNL     1      -1.851   6.667  -8.186  1.00  0.00     0.039 C 
BRANCH  15  16
ATOM     16  C   UNL     1      -1.523   5.484  -9.172  1.00  0.00     0.032 CG0
ATOM     17  G   UNL     1      -2.133   5.565 -10.583  1.00  0.00     0.000 G0
ENDBRANCH  15  16
ENDBRANCH  13  15
ENDBRANCH   1  13
TORSDOF 1
ENDMDL
