MODEL 1
REMARK VINA RESULT:    -6.663      0.000      0.000
REMARK INTER + INTRA:         -13.800
REMARK INTER:                 -10.948
REMARK INTRA:                  -2.851
REMARK UNBOUND:                -2.851
REMARK SMILES CC[C@H](CC[C@H](C)[C@H]1CC[C@@H]2[C@@H]3CC=C4C[C@@H](O[C@H]5O[C@@H](CO)[C@@H](O)[C@H](O)[C@H]5O)CC[C@@]4(C)[C@H]3CC[C@@]21C)C(C)C
REMARK SMILES IDX 8 1 9 2 10 3 11 4 37 5 36 6 35 7 34 8 12 9 13 10 14 11 15 12
REMARK SMILES IDX 32 13 31 14 30 15 17 16 16 17 33 18 38 19 6 20 7 21 5 22
REMARK SMILES IDX 4 23 3 24 2 25 1 26 39 27 40 28 41 29 18 30 19 31 28 32
REMARK SMILES IDX 20 33 26 34 21 35 24 36 29 37 27 39 22 41 23 42 25 44
REMARK H PARENT 29 38 27 40 23 43 25 45
REMARK Flexibility Score: inf
ROOT
ATOM      1  C   UNL     1      97.851   0.688 -25.203  1.00  0.00    -0.002 C 
ATOM      2  C   UNL     1      97.424  -0.309 -24.132  1.00  0.00     0.005 C 
ATOM      3  C   UNL     1      95.956  -0.006 -23.922  1.00  0.00     0.005 C 
ATOM      4  C   UNL     1      95.879   1.520 -23.948  1.00  0.00    -0.001 C 
ATOM      5  C   UNL     1      96.965   1.984 -24.987  1.00  0.00    -0.026 C 
ATOM      6  C   UNL     1      96.357   2.407 -26.366  1.00  0.00     0.007 C 
ATOM      7  C   UNL     1      95.053   3.184 -26.259  1.00  0.00     0.005 C 
ATOM      8  C   UNL     1      93.985   2.339 -25.536  1.00  0.00     0.003 C 
ATOM      9  C   UNL     1      94.443   2.133 -24.078  1.00  0.00     0.000 C 
ATOM     10  C   UNL     1      93.406   1.289 -23.314  1.00  0.00     0.031 C 
ATOM     11  C   UNL     1      92.021   1.826 -23.448  1.00  0.00    -0.027 C 
ATOM     12  C   UNL     1      91.577   2.425 -24.569  1.00  0.00    -0.065 C 
ATOM     13  C   UNL     1      92.520   2.942 -25.663  1.00  0.00    -0.008 C 
ATOM     14  C   UNL     1      92.497   4.498 -25.534  1.00  0.00     0.014 C 
ATOM     15  C   UNL     1      91.073   5.113 -25.501  1.00  0.00     0.033 C 
ATOM     16  C   UNL     1      90.131   4.454 -24.464  1.00  0.00     0.125 C 
ATOM     17  C   UNL     1      90.152   2.924 -24.595  1.00  0.00     0.063 C 
ATOM     18  C   UNL     1      91.963   2.510 -27.054  1.00  0.00     0.016 C 
ATOM     19  C   UNL     1      97.722   3.197 -24.383  1.00  0.00     0.012 C 
ENDROOT
BRANCH   1  20
ATOM     20  C   UNL     1      99.397   0.742 -25.421  1.00  0.00    -0.011 C 
ATOM     21  C   UNL     1     100.124  -0.381 -24.655  1.00  0.00     0.008 C 
BRANCH  20  22
ATOM     22  C   UNL     1      99.881   0.843 -26.897  1.00  0.00     0.004 C 
BRANCH  22  23
ATOM     23  C   UNL     1      99.897   2.288 -27.451  1.00  0.00     0.004 C 
BRANCH  23  24
ATOM     24  C   UNL     1      99.440   2.463 -28.931  1.00  0.00    -0.009 C 
BRANCH  24  25
ATOM     25  C   UNL     1      98.570   1.252 -29.381  1.00  0.00     0.000 C 
ATOM     26  C   UNL     1      98.980   0.655 -30.727  1.00  0.00     0.004 C 
ENDBRANCH  24  25
BRANCH  24  27
ATOM     27  C   UNL     1      98.754   3.869 -29.107  1.00  0.00    -0.014 C 
ATOM     28  C   UNL     1      97.338   3.777 -29.698  1.00  0.00     0.007 C 
ATOM     29  C   UNL     1      98.762   4.742 -27.842  1.00  0.00     0.007 C 
ENDBRANCH  24  27
ENDBRANCH  23  24
ENDBRANCH  22  23
ENDBRANCH  20  22
ENDBRANCH   1  20
BRANCH  16  30
ATOM     30  O   UNL     1      90.537   4.815 -23.148  1.00  0.00    -0.346 OA
BRANCH  30  31
ATOM     31  C   UNL     1      89.474   5.251 -22.308  1.00  0.00     0.282 C 
ATOM     32  C   UNL     1      89.435   4.449 -20.974  1.00  0.00     0.202 C 
ATOM     33  O   UNL     1      88.227   5.236 -22.992  1.00  0.00    -0.341 OA
ATOM     34  C   UNL     1      88.227   4.862 -20.102  1.00  0.00     0.179 C 
ATOM     35  C   UNL     1      87.217   5.841 -22.202  1.00  0.00     0.178 C 
ATOM     36  C   UNL     1      86.941   4.990 -20.941  1.00  0.00     0.177 C 
BRANCH  32  37
ATOM     37  O   UNL     1      89.352   3.070 -21.230  1.00  0.00    -0.385 OA
ATOM     38  H   UNL     1      88.455   2.768 -20.927  1.00  0.00     0.211 HD
ENDBRANCH  32  37
BRANCH  34  39
ATOM     39  O   UNL     1      88.481   6.046 -19.376  1.00  0.00    -0.387 OA
ATOM     40  H   UNL     1      88.929   6.698 -19.979  1.00  0.00     0.211 HD
ENDBRANCH  34  39
BRANCH  35  41
ATOM     41  C   UNL     1      85.955   5.996 -23.070  1.00  0.00     0.191 C 
BRANCH  41  42
ATOM     42  O   UNL     1      84.805   6.126 -22.274  1.00  0.00    -0.394 OA
ATOM     43  H   UNL     1      84.833   7.040 -21.884  1.00  0.00     0.210 HD
ENDBRANCH  41  42
ENDBRANCH  35  41
BRANCH  36  44
ATOM     44  O   UNL     1      86.499   3.713 -21.327  1.00  0.00    -0.387 OA
ATOM     45  H   UNL     1      86.851   3.549 -22.246  1.00  0.00     0.211 HD
ENDBRANCH  36  44
ENDBRANCH  30  31
ENDBRANCH  16  30
TORSDOF 13
ENDMDL
MODEL 2
REMARK VINA RESULT:    -6.640      5.226      9.546
REMARK INTER + INTRA:         -13.761
REMARK INTER:                 -11.115
REMARK INTRA:                  -2.647
REMARK UNBOUND:                -2.851
REMARK SMILES CC[C@H](CC[C@H](C)[C@H]1CC[C@@H]2[C@@H]3CC=C4C[C@@H](O[C@H]5O[C@@H](CO)[C@@H](O)[C@H](O)[C@H]5O)CC[C@@]4(C)[C@H]3CC[C@@]21C)C(C)C
REMARK SMILES IDX 8 1 9 2 10 3 11 4 37 5 36 6 35 7 34 8 12 9 13 10 14 11 15 12
REMARK SMILES IDX 32 13 31 14 30 15 17 16 16 17 33 18 38 19 6 20 7 21 5 22
REMARK SMILES IDX 4 23 3 24 2 25 1 26 39 27 40 28 41 29 18 30 19 31 28 32
REMARK SMILES IDX 20 33 26 34 21 35 24 36 29 37 27 39 22 41 23 42 25 44
REMARK H PARENT 29 38 27 40 23 43 25 45
REMARK Flexibility Score: inf
ROOT
ATOM      1  C   UNL     1      94.060   3.145 -26.047  1.00  0.00    -0.002 C 
ATOM      2  C   UNL     1      95.422   3.722 -26.417  1.00  0.00     0.005 C 
ATOM      3  C   UNL     1      96.404   2.772 -25.766  1.00  0.00     0.005 C 
ATOM      4  C   UNL     1      95.789   2.472 -24.400  1.00  0.00    -0.001 C 
ATOM      5  C   UNL     1      94.233   2.466 -24.625  1.00  0.00    -0.026 C 
ATOM      6  C   UNL     1      93.623   1.026 -24.684  1.00  0.00     0.007 C 
ATOM      7  C   UNL     1      94.232   0.052 -23.685  1.00  0.00     0.005 C 
ATOM      8  C   UNL     1      95.748  -0.089 -23.931  1.00  0.00     0.003 C 
ATOM      9  C   UNL     1      96.412   1.266 -23.617  1.00  0.00     0.000 C 
ATOM     10  C   UNL     1      97.931   1.176 -23.852  1.00  0.00     0.031 C 
ATOM     11  C   UNL     1      98.550   0.014 -23.148  1.00  0.00    -0.027 C 
ATOM     12  C   UNL     1      97.912  -1.159 -22.978  1.00  0.00    -0.065 C 
ATOM     13  C   UNL     1      96.396  -1.311 -23.150  1.00  0.00    -0.008 C 
ATOM     14  C   UNL     1      95.826  -1.472 -21.705  1.00  0.00     0.014 C 
ATOM     15  C   UNL     1      96.539  -2.557 -20.856  1.00  0.00     0.033 C 
ATOM     16  C   UNL     1      98.082  -2.422 -20.835  1.00  0.00     0.125 C 
ATOM     17  C   UNL     1      98.640  -2.268 -22.257  1.00  0.00     0.063 C 
ATOM     18  C   UNL     1      96.110  -2.597 -23.986  1.00  0.00     0.016 C 
ATOM     19  C   UNL     1      93.574   3.239 -23.451  1.00  0.00     0.012 C 
ENDROOT
BRANCH   1  20
ATOM     20  C   UNL     1      92.867   4.091 -26.398  1.00  0.00    -0.011 C 
ATOM     21  C   UNL     1      93.311   5.565 -26.483  1.00  0.00     0.008 C 
BRANCH  20  22
ATOM     22  C   UNL     1      91.997   3.677 -27.621  1.00  0.00     0.004 C 
BRANCH  22  23
ATOM     23  C   UNL     1      90.613   3.104 -27.236  1.00  0.00     0.004 C 
BRANCH  23  24
ATOM     24  C   UNL     1      89.647   4.077 -26.492  1.00  0.00    -0.009 C 
BRANCH  24  25
ATOM     25  C   UNL     1      88.295   4.194 -27.256  1.00  0.00     0.000 C 
ATOM     26  C   UNL     1      87.061   3.969 -26.382  1.00  0.00     0.004 C 
ENDBRANCH  24  25
BRANCH  24  27
ATOM     27  C   UNL     1      89.517   3.640 -24.985  1.00  0.00    -0.014 C 
ATOM     28  C   UNL     1      90.072   2.231 -24.719  1.00  0.00     0.007 C 
ATOM     29  C   UNL     1      90.090   4.651 -23.979  1.00  0.00     0.007 C 
ENDBRANCH  24  27
ENDBRANCH  23  24
ENDBRANCH  22  23
ENDBRANCH  20  22
ENDBRANCH   1  20
BRANCH  16  30
ATOM     30  O   UNL     1      98.453  -1.285 -20.062  1.00  0.00    -0.346 OA
BRANCH  30  31
ATOM     31  C   UNL     1      97.900  -1.266 -18.750  1.00  0.00     0.282 C 
ATOM     32  C   UNL     1      97.323   0.136 -18.396  1.00  0.00     0.202 C 
ATOM     33  O   UNL     1      98.830  -1.734 -17.783  1.00  0.00    -0.341 OA
ATOM     34  C   UNL     1      96.803   0.181 -16.941  1.00  0.00     0.179 C 
ATOM     35  C   UNL     1      98.207  -1.879 -16.517  1.00  0.00     0.178 C 
ATOM     36  C   UNL     1      97.788  -0.496 -15.967  1.00  0.00     0.177 C 
BRANCH  32  37
ATOM     37  O   UNL     1      98.306   1.128 -18.551  1.00  0.00    -0.385 OA
ATOM     38  H   UNL     1      98.164   1.798 -17.830  1.00  0.00     0.211 HD
ENDBRANCH  32  37
BRANCH  34  39
ATOM     39  O   UNL     1      95.510  -0.373 -16.825  1.00  0.00    -0.387 OA
ATOM     40  H   UNL     1      95.372  -0.663 -15.884  1.00  0.00     0.211 HD
ENDBRANCH  34  39
BRANCH  35  41
ATOM     41  C   UNL     1      99.190  -2.592 -15.573  1.00  0.00     0.191 C 
BRANCH  41  42
ATOM     42  O   UNL     1      98.849  -2.375 -14.227  1.00  0.00    -0.394 OA
ATOM     43  H   UNL     1      99.518  -1.735 -13.865  1.00  0.00     0.210 HD
ENDBRANCH  41  42
ENDBRANCH  35  41
BRANCH  36  44
ATOM     44  O   UNL     1      98.929   0.311 -15.812  1.00  0.00    -0.387 OA
ATOM     45  H   UNL     1      98.677   1.053 -15.195  1.00  0.00     0.211 HD
ENDBRANCH  36  44
ENDBRANCH  30  31
ENDBRANCH  16  30
TORSDOF 13
ENDMDL
MODEL 3
REMARK VINA RESULT:    -6.634      3.271      5.709
REMARK INTER + INTRA:         -13.752
REMARK INTER:                 -12.342
REMARK INTRA:                  -1.410
REMARK UNBOUND:                -2.851
REMARK SMILES CC[C@H](CC[C@H](C)[C@H]1CC[C@@H]2[C@@H]3CC=C4C[C@@H](O[C@H]5O[C@@H](CO)[C@@H](O)[C@H](O)[C@H]5O)CC[C@@]4(C)[C@H]3CC[C@@]21C)C(C)C
REMARK SMILES IDX 8 1 9 2 10 3 11 4 37 5 36 6 35 7 34 8 12 9 13 10 14 11 15 12
REMARK SMILES IDX 32 13 31 14 30 15 17 16 16 17 33 18 38 19 6 20 7 21 5 22
REMARK SMILES IDX 4 23 3 24 2 25 1 26 39 27 40 28 41 29 18 30 19 31 28 32
REMARK SMILES IDX 20 33 26 34 21 35 24 36 29 37 27 39 22 41 23 42 25 44
REMARK H PARENT 29 38 27 40 23 43 25 45
REMARK Flexibility Score: inf
ROOT
ATOM      1  C   UNL     1      93.640   4.300 -25.364  1.00  0.00    -0.002 C 
ATOM      2  C   UNL     1      93.038   4.979 -26.589  1.00  0.00     0.005 C 
ATOM      3  C   UNL     1      91.596   5.219 -26.194  1.00  0.00     0.005 C 
ATOM      4  C   UNL     1      91.188   3.940 -25.465  1.00  0.00    -0.001 C 
ATOM      5  C   UNL     1      92.475   3.455 -24.701  1.00  0.00    -0.026 C 
ATOM      6  C   UNL     1      92.439   3.773 -23.169  1.00  0.00     0.007 C 
ATOM      7  C   UNL     1      91.075   3.573 -22.525  1.00  0.00     0.005 C 
ATOM      8  C   UNL     1      90.027   4.482 -23.198  1.00  0.00     0.003 C 
ATOM      9  C   UNL     1      89.849   4.010 -24.655  1.00  0.00     0.000 C 
ATOM     10  C   UNL     1      88.810   4.892 -25.371  1.00  0.00     0.031 C 
ATOM     11  C   UNL     1      87.534   5.009 -24.606  1.00  0.00    -0.027 C 
ATOM     12  C   UNL     1      87.490   5.027 -23.261  1.00  0.00    -0.065 C 
ATOM     13  C   UNL     1      88.664   4.570 -22.387  1.00  0.00    -0.008 C 
ATOM     14  C   UNL     1      88.229   3.195 -21.789  1.00  0.00     0.014 C 
ATOM     15  C   UNL     1      86.829   3.205 -21.119  1.00  0.00     0.033 C 
ATOM     16  C   UNL     1      85.713   3.803 -22.011  1.00  0.00     0.125 C 
ATOM     17  C   UNL     1      86.142   5.157 -22.594  1.00  0.00     0.063 C 
ATOM     18  C   UNL     1      88.874   5.609 -21.243  1.00  0.00     0.016 C 
ATOM     19  C   UNL     1      92.596   1.919 -24.890  1.00  0.00     0.012 C 
ENDROOT
BRANCH   1  20
ATOM     20  C   UNL     1      95.071   3.725 -25.613  1.00  0.00    -0.011 C 
ATOM     21  C   UNL     1      95.540   2.831 -24.448  1.00  0.00     0.008 C 
BRANCH  20  22
ATOM     22  C   UNL     1      95.311   3.047 -26.994  1.00  0.00     0.004 C 
BRANCH  22  23
ATOM     23  C   UNL     1      96.792   3.043 -27.438  1.00  0.00     0.004 C 
BRANCH  23  24
ATOM     24  C   UNL     1      97.663   4.239 -26.943  1.00  0.00    -0.009 C 
BRANCH  24  25
ATOM     25  C   UNL     1      98.661   3.768 -25.844  1.00  0.00     0.000 C 
ATOM     26  C   UNL     1      98.934   2.264 -25.850  1.00  0.00     0.004 C 
ENDBRANCH  24  25
BRANCH  24  27
ATOM     27  C   UNL     1      98.330   4.952 -28.178  1.00  0.00    -0.014 C 
ATOM     28  C   UNL     1      99.828   5.229 -27.974  1.00  0.00     0.007 C 
ATOM     29  C   UNL     1      98.083   4.253 -29.525  1.00  0.00     0.007 C 
ENDBRANCH  24  27
ENDBRANCH  23  24
ENDBRANCH  22  23
ENDBRANCH  20  22
ENDBRANCH   1  20
BRANCH  16  30
ATOM     30  O   UNL     1      85.420   2.907 -23.078  1.00  0.00    -0.346 OA
BRANCH  30  31
ATOM     31  C   UNL     1      84.217   2.165 -22.903  1.00  0.00     0.282 C 
ATOM     32  C   UNL     1      84.498   0.637 -22.814  1.00  0.00     0.202 C 
ATOM     33  O   UNL     1      83.254   2.487 -23.898  1.00  0.00    -0.341 OA
ATOM     34  C   UNL     1      83.186  -0.173 -22.713  1.00  0.00     0.179 C 
ATOM     35  C   UNL     1      82.008   1.879 -23.603  1.00  0.00     0.178 C 
ATOM     36  C   UNL     1      82.126   0.340 -23.707  1.00  0.00     0.177 C 
BRANCH  32  37
ATOM     37  O   UNL     1      85.209   0.199 -23.944  1.00  0.00    -0.385 OA
ATOM     38  H   UNL     1      84.592  -0.368 -24.479  1.00  0.00     0.211 HD
ENDBRANCH  32  37
BRANCH  34  39
ATOM     39  O   UNL     1      82.680  -0.196 -21.395  1.00  0.00    -0.387 OA
ATOM     40  H   UNL     1      82.998   0.617 -20.919  1.00  0.00     0.211 HD
ENDBRANCH  34  39
BRANCH  35  41
ATOM     41  C   UNL     1      80.956   2.434 -24.580  1.00  0.00     0.191 C 
BRANCH  41  42
ATOM     42  O   UNL     1      80.084   1.423 -25.016  1.00  0.00    -0.394 OA
ATOM     43  H   UNL     1      80.408   1.137 -25.911  1.00  0.00     0.210 HD
ENDBRANCH  41  42
ENDBRANCH  35  41
BRANCH  36  44
ATOM     44  O   UNL     1      82.495  -0.013 -25.016  1.00  0.00    -0.387 OA
ATOM     45  H   UNL     1      83.173   0.653 -25.316  1.00  0.00     0.211 HD
ENDBRANCH  36  44
ENDBRANCH  30  31
ENDBRANCH  16  30
TORSDOF 13
ENDMDL
MODEL 4
REMARK VINA RESULT:    -6.632      2.902      5.794
REMARK INTER + INTRA:         -13.747
REMARK INTER:                 -11.800
REMARK INTRA:                  -1.947
REMARK UNBOUND:                -2.851
REMARK SMILES CC[C@H](CC[C@H](C)[C@H]1CC[C@@H]2[C@@H]3CC=C4C[C@@H](O[C@H]5O[C@@H](CO)[C@@H](O)[C@H](O)[C@H]5O)CC[C@@]4(C)[C@H]3CC[C@@]21C)C(C)C
REMARK SMILES IDX 8 1 9 2 10 3 11 4 37 5 36 6 35 7 34 8 12 9 13 10 14 11 15 12
REMARK SMILES IDX 32 13 31 14 30 15 17 16 16 17 33 18 38 19 6 20 7 21 5 22
REMARK SMILES IDX 4 23 3 24 2 25 1 26 39 27 40 28 41 29 18 30 19 31 28 32
REMARK SMILES IDX 20 33 26 34 21 35 24 36 29 37 27 39 22 41 23 42 25 44
REMARK H PARENT 29 38 27 40 23 43 25 45
REMARK Flexibility Score: inf
ROOT
ATOM      1  C   UNL     1      93.397   3.921 -25.829  1.00  0.00    -0.002 C 
ATOM      2  C   UNL     1      92.148   4.433 -26.536  1.00  0.00     0.005 C 
ATOM      3  C   UNL     1      91.242   4.860 -25.401  1.00  0.00     0.005 C 
ATOM      4  C   UNL     1      91.412   3.765 -24.350  1.00  0.00    -0.001 C 
ATOM      5  C   UNL     1      92.913   3.305 -24.451  1.00  0.00    -0.026 C 
ATOM      6  C   UNL     1      93.812   3.880 -23.306  1.00  0.00     0.007 C 
ATOM      7  C   UNL     1      93.137   3.912 -21.942  1.00  0.00     0.005 C 
ATOM      8  C   UNL     1      91.864   4.781 -21.996  1.00  0.00     0.003 C 
ATOM      9  C   UNL     1      90.848   4.087 -22.924  1.00  0.00     0.000 C 
ATOM     10  C   UNL     1      89.558   4.922 -23.012  1.00  0.00     0.031 C 
ATOM     11  C   UNL     1      89.014   5.278 -21.668  1.00  0.00    -0.027 C 
ATOM     12  C   UNL     1      89.803   5.527 -20.606  1.00  0.00    -0.065 C 
ATOM     13  C   UNL     1      91.282   5.124 -20.558  1.00  0.00    -0.008 C 
ATOM     14  C   UNL     1      91.353   3.913 -19.575  1.00  0.00     0.014 C 
ATOM     15  C   UNL     1      90.658   4.159 -18.210  1.00  0.00     0.033 C 
ATOM     16  C   UNL     1      89.209   4.692 -18.333  1.00  0.00     0.125 C 
ATOM     17  C   UNL     1      89.142   5.885 -19.296  1.00  0.00     0.063 C 
ATOM     18  C   UNL     1      92.112   6.320 -19.997  1.00  0.00     0.016 C 
ATOM     19  C   UNL     1      92.948   1.755 -24.383  1.00  0.00     0.012 C 
ENDROOT
BRANCH   1  20
ATOM     20  C   UNL     1      94.396   3.189 -26.782  1.00  0.00    -0.011 C 
ATOM     21  C   UNL     1      93.833   3.061 -28.212  1.00  0.00     0.008 C 
BRANCH  20  22
ATOM     22  C   UNL     1      95.861   3.716 -26.783  1.00  0.00     0.004 C 
BRANCH  22  23
ATOM     23  C   UNL     1      96.642   3.386 -25.489  1.00  0.00     0.004 C 
BRANCH  23  24
ATOM     24  C   UNL     1      98.197   3.449 -25.588  1.00  0.00    -0.009 C 
BRANCH  24  25
ATOM     25  C   UNL     1      98.840   2.241 -24.845  1.00  0.00     0.000 C 
ATOM     26  C   UNL     1      97.832   1.207 -24.344  1.00  0.00     0.004 C 
ENDBRANCH  24  25
BRANCH  24  27
ATOM     27  C   UNL     1      98.623   3.599 -27.096  1.00  0.00    -0.014 C 
ATOM     28  C   UNL     1      99.359   4.919 -27.383  1.00  0.00     0.007 C 
ATOM     29  C   UNL     1      99.409   2.403 -27.656  1.00  0.00     0.007 C 
ENDBRANCH  24  27
ENDBRANCH  23  24
ENDBRANCH  22  23
ENDBRANCH  20  22
ENDBRANCH   1  20
BRANCH  16  30
ATOM     30  O   UNL     1      88.355   3.658 -18.811  1.00  0.00    -0.346 OA
BRANCH  30  31
ATOM     31  C   UNL     1      87.612   2.997 -17.792  1.00  0.00     0.282 C 
ATOM     32  C   UNL     1      86.084   3.036 -18.085  1.00  0.00     0.202 C 
ATOM     33  O   UNL     1      87.934   3.498 -16.501  1.00  0.00    -0.341 OA
ATOM     34  C   UNL     1      85.273   2.397 -16.935  1.00  0.00     0.179 C 
ATOM     35  C   UNL     1      87.325   2.710 -15.492  1.00  0.00     0.178 C 
ATOM     36  C   UNL     1      85.787   2.856 -15.557  1.00  0.00     0.177 C 
BRANCH  32  37
ATOM     37  O   UNL     1      85.648   4.360 -18.259  1.00  0.00    -0.385 OA
ATOM     38  H   UNL     1      84.696   4.397 -17.975  1.00  0.00     0.211 HD
ENDBRANCH  32  37
BRANCH  34  39
ATOM     39  O   UNL     1      85.248   0.989 -17.026  1.00  0.00    -0.387 OA
ATOM     40  H   UNL     1      84.334   0.672 -16.794  1.00  0.00     0.211 HD
ENDBRANCH  34  39
BRANCH  35  41
ATOM     41  C   UNL     1      87.881   3.157 -14.129  1.00  0.00     0.191 C 
BRANCH  41  42
ATOM     42  O   UNL     1      88.278   4.504 -14.160  1.00  0.00    -0.394 OA
ATOM     43  H   UNL     1      88.085   4.877 -13.258  1.00  0.00     0.210 HD
ENDBRANCH  41  42
ENDBRANCH  35  41
BRANCH  36  44
ATOM     44  O   UNL     1      85.435   4.201 -15.345  1.00  0.00    -0.387 OA
ATOM     45  H   UNL     1      85.495   4.365 -14.363  1.00  0.00     0.211 HD
ENDBRANCH  36  44
ENDBRANCH  30  31
ENDBRANCH  16  30
TORSDOF 13
ENDMDL
MODEL 5
REMARK VINA RESULT:    -6.571      5.499      8.953
REMARK INTER + INTRA:         -13.648
REMARK INTER:                 -11.194
REMARK INTRA:                  -2.453
REMARK UNBOUND:                -2.851
REMARK SMILES CC[C@H](CC[C@H](C)[C@H]1CC[C@@H]2[C@@H]3CC=C4C[C@@H](O[C@H]5O[C@@H](CO)[C@@H](O)[C@H](O)[C@H]5O)CC[C@@]4(C)[C@H]3CC[C@@]21C)C(C)C
REMARK SMILES IDX 8 1 9 2 10 3 11 4 37 5 36 6 35 7 34 8 12 9 13 10 14 11 15 12
REMARK SMILES IDX 32 13 31 14 30 15 17 16 16 17 33 18 38 19 6 20 7 21 5 22
REMARK SMILES IDX 4 23 3 24 2 25 1 26 39 27 40 28 41 29 18 30 19 31 28 32
REMARK SMILES IDX 20 33 26 34 21 35 24 36 29 37 27 39 22 41 23 42 25 44
REMARK H PARENT 29 38 27 40 23 43 25 45
REMARK Flexibility Score: inf
ROOT
ATOM      1  C   UNL     1      92.786   4.135 -25.377  1.00  0.00    -0.002 C 
ATOM      2  C   UNL     1      94.144   4.047 -26.064  1.00  0.00     0.005 C 
ATOM      3  C   UNL     1      94.845   2.922 -25.333  1.00  0.00     0.005 C 
ATOM      4  C   UNL     1      94.486   3.146 -23.865  1.00  0.00    -0.001 C 
ATOM      5  C   UNL     1      93.020   3.716 -23.866  1.00  0.00    -0.026 C 
ATOM      6  C   UNL     1      91.943   2.651 -23.473  1.00  0.00     0.007 C 
ATOM      7  C   UNL     1      92.374   1.716 -22.351  1.00  0.00     0.005 C 
ATOM      8  C   UNL     1      93.645   0.944 -22.757  1.00  0.00     0.003 C 
ATOM      9  C   UNL     1      94.799   1.957 -22.893  1.00  0.00     0.000 C 
ATOM     10  C   UNL     1      96.094   1.231 -23.301  1.00  0.00     0.031 C 
ATOM     11  C   UNL     1      96.401   0.070 -22.416  1.00  0.00    -0.027 C 
ATOM     12  C   UNL     1      95.444  -0.702 -21.867  1.00  0.00    -0.065 C 
ATOM     13  C   UNL     1      93.976  -0.270 -21.787  1.00  0.00    -0.008 C 
ATOM     14  C   UNL     1      93.723   0.075 -20.285  1.00  0.00     0.014 C 
ATOM     15  C   UNL     1      94.176  -1.028 -19.293  1.00  0.00     0.033 C 
ATOM     16  C   UNL     1      95.629  -1.513 -19.517  1.00  0.00     0.125 C 
ATOM     17  C   UNL     1      95.873  -1.856 -20.993  1.00  0.00     0.063 C 
ATOM     18  C   UNL     1      93.074  -1.466 -22.220  1.00  0.00     0.016 C 
ATOM     19  C   UNL     1      92.958   4.887 -22.849  1.00  0.00     0.012 C 
ENDROOT
BRANCH   1  20
ATOM     20  C   UNL     1      91.960   5.394 -25.791  1.00  0.00    -0.011 C 
ATOM     21  C   UNL     1      92.871   6.567 -26.205  1.00  0.00     0.008 C 
BRANCH  20  22
ATOM     22  C   UNL     1      90.816   5.160 -26.821  1.00  0.00     0.004 C 
BRANCH  22  23
ATOM     23  C   UNL     1      90.639   3.678 -27.229  1.00  0.00     0.004 C 
BRANCH  23  24
ATOM     24  C   UNL     1      90.965   3.328 -28.714  1.00  0.00    -0.009 C 
BRANCH  24  25
ATOM     25  C   UNL     1      89.698   3.490 -29.604  1.00  0.00     0.000 C 
ATOM     26  C   UNL     1      89.631   2.515 -30.780  1.00  0.00     0.004 C 
ENDBRANCH  24  25
BRANCH  24  27
ATOM     27  C   UNL     1      92.216   4.158 -29.188  1.00  0.00    -0.014 C 
ATOM     28  C   UNL     1      93.384   3.272 -29.651  1.00  0.00     0.007 C 
ATOM     29  C   UNL     1      91.901   5.238 -30.235  1.00  0.00     0.007 C 
ENDBRANCH  24  27
ENDBRANCH  23  24
ENDBRANCH  22  23
ENDBRANCH  20  22
ENDBRANCH   1  20
BRANCH  16  30
ATOM     30  O   UNL     1      96.542  -0.496 -19.117  1.00  0.00    -0.346 OA
BRANCH  30  31
ATOM     31  C   UNL     1      96.635  -0.317 -17.708  1.00  0.00     0.282 C 
ATOM     32  C   UNL     1      97.124   1.116 -17.346  1.00  0.00     0.202 C 
ATOM     33  O   UNL     1      97.425  -1.333 -17.102  1.00  0.00    -0.341 OA
ATOM     34  C   UNL     1      97.309   1.280 -15.820  1.00  0.00     0.179 C 
ATOM     35  C   UNL     1      97.356  -1.243 -15.688  1.00  0.00     0.178 C 
ATOM     36  C   UNL     1      98.025   0.063 -15.203  1.00  0.00     0.177 C 
BRANCH  32  37
ATOM     37  O   UNL     1      98.347   1.395 -17.979  1.00  0.00    -0.385 OA
ATOM     38  H   UNL     1      98.175   2.107 -18.652  1.00  0.00     0.211 HD
ENDBRANCH  32  37
BRANCH  34  39
ATOM     39  O   UNL     1      96.086   1.539 -15.165  1.00  0.00    -0.387 OA
ATOM     40  H   UNL     1      96.067   1.024 -14.315  1.00  0.00     0.211 HD
ENDBRANCH  34  39
BRANCH  35  41
ATOM     41  C   UNL     1      98.040  -2.487 -15.093  1.00  0.00     0.191 C 
BRANCH  41  42
ATOM     42  O   UNL     1      98.731  -2.168 -13.911  1.00  0.00    -0.394 OA
ATOM     43  H   UNL     1      98.873  -1.184 -13.924  1.00  0.00     0.210 HD
ENDBRANCH  41  42
ENDBRANCH  35  41
BRANCH  36  44
ATOM     44  O   UNL     1      99.378   0.066 -15.584  1.00  0.00    -0.387 OA
ATOM     45  H   UNL     1      99.798  -0.735 -15.166  1.00  0.00     0.211 HD
ENDBRANCH  36  44
ENDBRANCH  30  31
ENDBRANCH  16  30
TORSDOF 13
ENDMDL
MODEL 6
REMARK VINA RESULT:    -6.570      2.011      4.691
REMARK INTER + INTRA:         -13.647
REMARK INTER:                 -10.913
REMARK INTRA:                  -2.734
REMARK UNBOUND:                -2.851
REMARK SMILES CC[C@H](CC[C@H](C)[C@H]1CC[C@@H]2[C@@H]3CC=C4C[C@@H](O[C@H]5O[C@@H](CO)[C@@H](O)[C@H](O)[C@H]5O)CC[C@@]4(C)[C@H]3CC[C@@]21C)C(C)C
REMARK SMILES IDX 8 1 9 2 10 3 11 4 37 5 36 6 35 7 34 8 12 9 13 10 14 11 15 12
REMARK SMILES IDX 32 13 31 14 30 15 17 16 16 17 33 18 38 19 6 20 7 21 5 22
REMARK SMILES IDX 4 23 3 24 2 25 1 26 39 27 40 28 41 29 18 30 19 31 28 32
REMARK SMILES IDX 20 33 26 34 21 35 24 36 29 37 27 39 22 41 23 42 25 44
REMARK H PARENT 29 38 27 40 23 43 25 45
REMARK Flexibility Score: inf
ROOT
ATOM      1  C   UNL     1      95.210   3.681 -25.423  1.00  0.00    -0.002 C 
ATOM      2  C   UNL     1      94.408   4.379 -26.515  1.00  0.00     0.005 C 
ATOM      3  C   UNL     1      93.106   4.736 -25.831  1.00  0.00     0.005 C 
ATOM      4  C   UNL     1      92.775   3.508 -24.985  1.00  0.00    -0.001 C 
ATOM      5  C   UNL     1      94.159   2.941 -24.497  1.00  0.00    -0.026 C 
ATOM      6  C   UNL     1      94.477   3.292 -23.005  1.00  0.00     0.007 C 
ATOM      7  C   UNL     1      93.272   3.211 -22.077  1.00  0.00     0.005 C 
ATOM      8  C   UNL     1      92.171   4.183 -22.544  1.00  0.00     0.003 C 
ATOM      9  C   UNL     1      91.650   3.697 -23.911  1.00  0.00     0.000 C 
ATOM     10  C   UNL     1      90.546   4.641 -24.421  1.00  0.00     0.031 C 
ATOM     11  C   UNL     1      89.476   4.872 -23.407  1.00  0.00    -0.027 C 
ATOM     12  C   UNL     1      89.725   4.920 -22.085  1.00  0.00    -0.065 C 
ATOM     13  C   UNL     1      91.024   4.393 -21.465  1.00  0.00    -0.008 C 
ATOM     14  C   UNL     1      90.632   3.067 -20.738  1.00  0.00     0.014 C 
ATOM     15  C   UNL     1      89.414   3.198 -19.787  1.00  0.00     0.033 C 
ATOM     16  C   UNL     1      88.177   3.862 -20.441  1.00  0.00     0.125 C 
ATOM     17  C   UNL     1      88.564   5.167 -21.151  1.00  0.00     0.063 C 
ATOM     18  C   UNL     1      91.548   5.436 -20.430  1.00  0.00     0.016 C 
ATOM     19  C   UNL     1      94.128   1.397 -24.650  1.00  0.00     0.012 C 
ENDROOT
BRANCH   1  20
ATOM     20  C   UNL     1      96.510   2.992 -25.950  1.00  0.00    -0.011 C 
ATOM     21  C   UNL     1      96.776   3.328 -27.431  1.00  0.00     0.008 C 
BRANCH  20  22
ATOM     22  C   UNL     1      97.788   3.173 -25.078  1.00  0.00     0.004 C 
BRANCH  22  23
ATOM     23  C   UNL     1      98.375   1.843 -24.550  1.00  0.00     0.004 C 
BRANCH  23  24
ATOM     24  C   UNL     1      97.917   0.546 -25.286  1.00  0.00    -0.009 C 
BRANCH  24  25
ATOM     25  C   UNL     1      99.086  -0.042 -26.132  1.00  0.00     0.000 C 
ATOM     26  C   UNL     1      99.069   0.380 -27.601  1.00  0.00     0.004 C 
ENDBRANCH  24  25
BRANCH  24  27
ATOM     27  C   UNL     1      97.284  -0.454 -24.248  1.00  0.00    -0.014 C 
ATOM     28  C   UNL     1      97.957  -1.836 -24.260  1.00  0.00     0.007 C 
ATOM     29  C   UNL     1      97.189   0.095 -22.816  1.00  0.00     0.007 C 
ENDBRANCH  24  27
ENDBRANCH  23  24
ENDBRANCH  22  23
ENDBRANCH  20  22
ENDBRANCH   1  20
BRANCH  16  30
ATOM     30  O   UNL     1      87.598   2.970 -21.388  1.00  0.00    -0.346 OA
BRANCH  30  31
ATOM     31  C   UNL     1      86.316   3.371 -21.860  1.00  0.00     0.282 C 
ATOM     32  C   UNL     1      85.184   2.497 -21.247  1.00  0.00     0.202 C 
ATOM     33  O   UNL     1      86.270   3.409 -23.280  1.00  0.00    -0.341 OA
ATOM     34  C   UNL     1      83.802   2.876 -21.828  1.00  0.00     0.179 C 
ATOM     35  C   UNL     1      85.052   3.982 -23.726  1.00  0.00     0.178 C 
ATOM     36  C   UNL     1      83.863   3.065 -23.356  1.00  0.00     0.177 C 
BRANCH  32  37
ATOM     37  O   UNL     1      85.419   1.135 -21.502  1.00  0.00    -0.385 OA
ATOM     38  H   UNL     1      86.219   0.871 -20.974  1.00  0.00     0.211 HD
ENDBRANCH  32  37
BRANCH  34  39
ATOM     39  O   UNL     1      83.257   4.013 -21.195  1.00  0.00    -0.387 OA
ATOM     40  H   UNL     1      83.876   4.300 -20.470  1.00  0.00     0.211 HD
ENDBRANCH  34  39
BRANCH  35  41
ATOM     41  C   UNL     1      85.149   4.200 -25.246  1.00  0.00     0.191 C 
BRANCH  41  42
ATOM     42  O   UNL     1      83.907   3.994 -25.869  1.00  0.00    -0.394 OA
ATOM     43  H   UNL     1      83.833   4.680 -26.585  1.00  0.00     0.210 HD
ENDBRANCH  41  42
ENDBRANCH  35  41
BRANCH  36  44
ATOM     44  O   UNL     1      84.023   1.817 -23.982  1.00  0.00    -0.387 OA
ATOM     45  H   UNL     1      84.044   1.131 -23.259  1.00  0.00     0.211 HD
ENDBRANCH  36  44
ENDBRANCH  30  31
ENDBRANCH  16  30
TORSDOF 13
ENDMDL
MODEL 7
REMARK VINA RESULT:    -6.507      5.292      9.185
REMARK INTER + INTRA:         -13.542
REMARK INTER:                 -10.948
REMARK INTRA:                  -2.595
REMARK UNBOUND:                -2.851
REMARK SMILES CC[C@H](CC[C@H](C)[C@H]1CC[C@@H]2[C@@H]3CC=C4C[C@@H](O[C@H]5O[C@@H](CO)[C@@H](O)[C@H](O)[C@H]5O)CC[C@@]4(C)[C@H]3CC[C@@]21C)C(C)C
REMARK SMILES IDX 8 1 9 2 10 3 11 4 37 5 36 6 35 7 34 8 12 9 13 10 14 11 15 12
REMARK SMILES IDX 32 13 31 14 30 15 17 16 16 17 33 18 38 19 6 20 7 21 5 22
REMARK SMILES IDX 4 23 3 24 2 25 1 26 39 27 40 28 41 29 18 30 19 31 28 32
REMARK SMILES IDX 20 33 26 34 21 35 24 36 29 37 27 39 22 41 23 42 25 44
REMARK H PARENT 29 38 27 40 23 43 25 45
REMARK Flexibility Score: inf
ROOT
ATOM      1  C   UNL     1      93.506   3.224 -25.802  1.00  0.00    -0.002 C 
ATOM      2  C   UNL     1      94.819   3.879 -26.215  1.00  0.00     0.005 C 
ATOM      3  C   UNL     1      95.875   2.961 -25.637  1.00  0.00     0.005 C 
ATOM      4  C   UNL     1      95.339   2.593 -24.255  1.00  0.00    -0.001 C 
ATOM      5  C   UNL     1      93.775   2.516 -24.410  1.00  0.00    -0.026 C 
ATOM      6  C   UNL     1      93.235   1.049 -24.485  1.00  0.00     0.007 C 
ATOM      7  C   UNL     1      93.935   0.080 -23.543  1.00  0.00     0.005 C 
ATOM      8  C   UNL     1      95.443   0.022 -23.860  1.00  0.00     0.003 C 
ATOM      9  C   UNL     1      96.054   1.399 -23.536  1.00  0.00     0.000 C 
ATOM     10  C   UNL     1      97.564   1.391 -23.840  1.00  0.00     0.031 C 
ATOM     11  C   UNL     1      98.270   0.243 -23.200  1.00  0.00    -0.027 C 
ATOM     12  C   UNL     1      97.698  -0.965 -23.036  1.00  0.00    -0.065 C 
ATOM     13  C   UNL     1      96.185  -1.188 -23.145  1.00  0.00    -0.008 C 
ATOM     14  C   UNL     1      95.690  -1.417 -21.682  1.00  0.00     0.014 C 
ATOM     15  C   UNL     1      96.493  -2.488 -20.898  1.00  0.00     0.033 C 
ATOM     16  C   UNL     1      98.026  -2.276 -20.941  1.00  0.00     0.125 C 
ATOM     17  C   UNL     1      98.511  -2.056 -22.381  1.00  0.00     0.063 C 
ATOM     18  C   UNL     1      95.924  -2.462 -24.005  1.00  0.00     0.016 C 
ATOM     19  C   UNL     1      93.134   3.223 -23.186  1.00  0.00     0.012 C 
ENDROOT
BRANCH   1  20
ATOM     20  C   UNL     1      92.253   4.119 -26.072  1.00  0.00    -0.011 C 
ATOM     21  C   UNL     1      92.618   5.391 -26.863  1.00  0.00     0.008 C 
BRANCH  20  22
ATOM     22  C   UNL     1      91.010   3.400 -26.673  1.00  0.00     0.004 C 
BRANCH  22  23
ATOM     23  C   UNL     1      91.317   2.588 -27.953  1.00  0.00     0.004 C 
BRANCH  23  24
ATOM     24  C   UNL     1      90.767   3.172 -29.289  1.00  0.00    -0.009 C 
BRANCH  24  25
ATOM     25  C   UNL     1      89.733   4.302 -29.006  1.00  0.00     0.000 C 
ATOM     26  C   UNL     1      88.347   4.045 -29.599  1.00  0.00     0.004 C 
ENDBRANCH  24  25
BRANCH  24  27
ATOM     27  C   UNL     1      91.969   3.595 -30.214  1.00  0.00    -0.014 C 
ATOM     28  C   UNL     1      91.954   5.090 -30.572  1.00  0.00     0.007 C 
ATOM     29  C   UNL     1      93.351   3.172 -29.691  1.00  0.00     0.007 C 
ENDBRANCH  24  27
ENDBRANCH  23  24
ENDBRANCH  22  23
ENDBRANCH  20  22
ENDBRANCH   1  20
BRANCH  16  30
ATOM     30  O   UNL     1      98.377  -1.144 -20.152  1.00  0.00    -0.346 OA
BRANCH  30  31
ATOM     31  C   UNL     1      97.845  -1.166 -18.831  1.00  0.00     0.282 C 
ATOM     32  C   UNL     1      97.285   0.227 -18.420  1.00  0.00     0.202 C 
ATOM     33  O   UNL     1      98.787  -1.675 -17.896  1.00  0.00    -0.341 OA
ATOM     34  C   UNL     1      96.789   0.225 -16.955  1.00  0.00     0.179 C 
ATOM     35  C   UNL     1      98.182  -1.858 -16.627  1.00  0.00     0.178 C 
ATOM     36  C   UNL     1      97.783  -0.492 -16.022  1.00  0.00     0.177 C 
BRANCH  32  37
ATOM     37  O   UNL     1      98.274   1.216 -18.557  1.00  0.00    -0.385 OA
ATOM     38  H   UNL     1      97.920   2.046 -18.138  1.00  0.00     0.211 HD
ENDBRANCH  32  37
BRANCH  34  39
ATOM     39  O   UNL     1      95.494  -0.323 -16.838  1.00  0.00    -0.387 OA
ATOM     40  H   UNL     1      94.885   0.376 -16.476  1.00  0.00     0.211 HD
ENDBRANCH  34  39
BRANCH  35  41
ATOM     41  C   UNL     1      99.175  -2.611 -15.723  1.00  0.00     0.191 C 
BRANCH  41  42
ATOM     42  O   UNL     1      98.820  -2.491 -14.369  1.00  0.00    -0.394 OA
ATOM     43  H   UNL     1      99.569  -2.013 -13.923  1.00  0.00     0.210 HD
ENDBRANCH  41  42
ENDBRANCH  35  41
BRANCH  36  44
ATOM     44  O   UNL     1      98.933   0.299 -15.857  1.00  0.00    -0.387 OA
ATOM     45  H   UNL     1      99.716  -0.318 -15.878  1.00  0.00     0.211 HD
ENDBRANCH  36  44
ENDBRANCH  30  31
ENDBRANCH  16  30
TORSDOF 13
ENDMDL
MODEL 8
REMARK VINA RESULT:    -6.494      2.204      4.726
REMARK INTER + INTRA:         -13.521
REMARK INTER:                 -11.205
REMARK INTRA:                  -2.316
REMARK UNBOUND:                -2.851
REMARK SMILES CC[C@H](CC[C@H](C)[C@H]1CC[C@@H]2[C@@H]3CC=C4C[C@@H](O[C@H]5O[C@@H](CO)[C@@H](O)[C@H](O)[C@H]5O)CC[C@@]4(C)[C@H]3CC[C@@]21C)C(C)C
REMARK SMILES IDX 8 1 9 2 10 3 11 4 37 5 36 6 35 7 34 8 12 9 13 10 14 11 15 12
REMARK SMILES IDX 32 13 31 14 30 15 17 16 16 17 33 18 38 19 6 20 7 21 5 22
REMARK SMILES IDX 4 23 3 24 2 25 1 26 39 27 40 28 41 29 18 30 19 31 28 32
REMARK SMILES IDX 20 33 26 34 21 35 24 36 29 37 27 39 22 41 23 42 25 44
REMARK H PARENT 29 38 27 40 23 43 25 45
REMARK Flexibility Score: inf
ROOT
ATOM      1  C   UNL     1      95.364   3.707 -25.507  1.00  0.00    -0.002 C 
ATOM      2  C   UNL     1      94.654   4.460 -26.625  1.00  0.00     0.005 C 
ATOM      3  C   UNL     1      93.299   4.786 -26.034  1.00  0.00     0.005 C 
ATOM      4  C   UNL     1      92.901   3.518 -25.281  1.00  0.00    -0.001 C 
ATOM      5  C   UNL     1      94.241   2.924 -24.709  1.00  0.00    -0.026 C 
ATOM      6  C   UNL     1      94.434   3.199 -23.180  1.00  0.00     0.007 C 
ATOM      7  C   UNL     1      93.157   3.074 -22.360  1.00  0.00     0.005 C 
ATOM      8  C   UNL     1      92.096   4.071 -22.867  1.00  0.00     0.003 C 
ATOM      9  C   UNL     1      91.691   3.655 -24.295  1.00  0.00     0.000 C 
ATOM     10  C   UNL     1      90.632   4.627 -24.847  1.00  0.00     0.031 C 
ATOM     11  C   UNL     1      89.481   4.809 -23.914  1.00  0.00    -0.027 C 
ATOM     12  C   UNL     1      89.619   4.790 -22.575  1.00  0.00    -0.065 C 
ATOM     13  C   UNL     1      90.864   4.229 -21.877  1.00  0.00    -0.008 C 
ATOM     14  C   UNL     1      90.416   2.870 -21.253  1.00  0.00     0.014 C 
ATOM     15  C   UNL     1      89.123   2.956 -20.400  1.00  0.00     0.033 C 
ATOM     16  C   UNL     1      87.943   3.655 -21.120  1.00  0.00     0.125 C 
ATOM     17  C   UNL     1      88.385   4.993 -21.729  1.00  0.00     0.063 C 
ATOM     18  C   UNL     1      91.300   5.218 -20.752  1.00  0.00     0.016 C 
ATOM     19  C   UNL     1      94.225   1.390 -24.942  1.00  0.00     0.012 C 
ENDROOT
BRANCH   1  20
ATOM     20  C   UNL     1      96.704   3.042 -25.959  1.00  0.00    -0.011 C 
ATOM     21  C   UNL     1      97.061   3.405 -27.414  1.00  0.00     0.008 C 
BRANCH  20  22
ATOM     22  C   UNL     1      97.920   3.223 -25.003  1.00  0.00     0.004 C 
BRANCH  22  23
ATOM     23  C   UNL     1      98.620   1.896 -24.627  1.00  0.00     0.004 C 
BRANCH  23  24
ATOM     24  C   UNL     1      98.071   0.608 -25.314  1.00  0.00    -0.009 C 
BRANCH  24  25
ATOM     25  C   UNL     1      99.196  -0.099 -26.127  1.00  0.00     0.000 C 
ATOM     26  C   UNL     1      99.768   0.745 -27.265  1.00  0.00     0.004 C 
ENDBRANCH  24  25
BRANCH  24  27
ATOM     27  C   UNL     1      97.362  -0.300 -24.240  1.00  0.00    -0.014 C 
ATOM     28  C   UNL     1      97.803  -1.771 -24.313  1.00  0.00     0.007 C 
ATOM     29  C   UNL     1      97.458   0.228 -22.800  1.00  0.00     0.007 C 
ENDBRANCH  24  27
ENDBRANCH  23  24
ENDBRANCH  22  23
ENDBRANCH  20  22
ENDBRANCH   1  20
BRANCH  16  30
ATOM     30  O   UNL     1      87.446   2.812 -22.155  1.00  0.00    -0.346 OA
BRANCH  30  31
ATOM     31  C   UNL     1      86.043   2.576 -22.091  1.00  0.00     0.282 C 
ATOM     32  C   UNL     1      85.635   1.339 -22.942  1.00  0.00     0.202 C 
ATOM     33  O   UNL     1      85.301   3.741 -22.427  1.00  0.00    -0.341 OA
ATOM     34  C   UNL     1      84.102   1.137 -22.944  1.00  0.00     0.179 C 
ATOM     35  C   UNL     1      83.918   3.541 -22.184  1.00  0.00     0.178 C 
ATOM     36  C   UNL     1      83.355   2.470 -23.147  1.00  0.00     0.177 C 
BRANCH  32  37
ATOM     37  O   UNL     1      86.068   1.489 -24.270  1.00  0.00    -0.385 OA
ATOM     38  H   UNL     1      86.092   0.581 -24.677  1.00  0.00     0.211 HD
ENDBRANCH  32  37
BRANCH  34  39
ATOM     39  O   UNL     1      83.656   0.475 -21.780  1.00  0.00    -0.387 OA
ATOM     40  H   UNL     1      84.221   0.764 -21.014  1.00  0.00     0.211 HD
ENDBRANCH  34  39
BRANCH  35  41
ATOM     41  C   UNL     1      83.198   4.890 -22.352  1.00  0.00     0.191 C 
BRANCH  41  42
ATOM     42  O   UNL     1      84.076   5.965 -22.135  1.00  0.00    -0.394 OA
ATOM     43  H   UNL     1      83.859   6.650 -22.822  1.00  0.00     0.210 HD
ENDBRANCH  41  42
ENDBRANCH  35  41
BRANCH  36  44
ATOM     44  O   UNL     1      83.515   2.904 -24.474  1.00  0.00    -0.387 OA
ATOM     45  H   UNL     1      82.605   3.111 -24.823  1.00  0.00     0.211 HD
ENDBRANCH  36  44
ENDBRANCH  30  31
ENDBRANCH  16  30
TORSDOF 13
ENDMDL
MODEL 9
REMARK VINA RESULT:    -6.477      4.192      8.137
REMARK INTER + INTRA:         -13.493
REMARK INTER:                 -10.840
REMARK INTRA:                  -2.653
REMARK UNBOUND:                -2.851
REMARK SMILES CC[C@H](CC[C@H](C)[C@H]1CC[C@@H]2[C@@H]3CC=C4C[C@@H](O[C@H]5O[C@@H](CO)[C@@H](O)[C@H](O)[C@H]5O)CC[C@@]4(C)[C@H]3CC[C@@]21C)C(C)C
REMARK SMILES IDX 8 1 9 2 10 3 11 4 37 5 36 6 35 7 34 8 12 9 13 10 14 11 15 12
REMARK SMILES IDX 32 13 31 14 30 15 17 16 16 17 33 18 38 19 6 20 7 21 5 22
REMARK SMILES IDX 4 23 3 24 2 25 1 26 39 27 40 28 41 29 18 30 19 31 28 32
REMARK SMILES IDX 20 33 26 34 21 35 24 36 29 37 27 39 22 41 23 42 25 44
REMARK H PARENT 29 38 27 40 23 43 25 45
REMARK Flexibility Score: inf
ROOT
ATOM      1  C   UNL     1      90.085   5.149 -26.779  1.00  0.00    -0.002 C 
ATOM      2  C   UNL     1      89.087   5.238 -27.928  1.00  0.00     0.005 C 
ATOM      3  C   UNL     1      87.742   5.102 -27.246  1.00  0.00     0.005 C 
ATOM      4  C   UNL     1      87.959   4.011 -26.199  1.00  0.00    -0.001 C 
ATOM      5  C   UNL     1      89.438   4.191 -25.696  1.00  0.00    -0.026 C 
ATOM      6  C   UNL     1      89.533   4.886 -24.297  1.00  0.00     0.007 C 
ATOM      7  C   UNL     1      88.461   4.444 -23.309  1.00  0.00     0.005 C 
ATOM      8  C   UNL     1      87.058   4.750 -23.871  1.00  0.00     0.003 C 
ATOM      9  C   UNL     1      86.837   3.867 -25.115  1.00  0.00     0.000 C 
ATOM     10  C   UNL     1      85.445   4.140 -25.714  1.00  0.00     0.031 C 
ATOM     11  C   UNL     1      84.357   4.047 -24.698  1.00  0.00    -0.027 C 
ATOM     12  C   UNL     1      84.525   4.417 -23.414  1.00  0.00    -0.065 C 
ATOM     13  C   UNL     1      85.908   4.616 -22.783  1.00  0.00    -0.008 C 
ATOM     14  C   UNL     1      86.115   3.393 -21.835  1.00  0.00     0.014 C 
ATOM     15  C   UNL     1      84.938   3.137 -20.858  1.00  0.00     0.033 C 
ATOM     16  C   UNL     1      83.553   3.080 -21.548  1.00  0.00     0.125 C 
ATOM     17  C   UNL     1      83.350   4.286 -22.475  1.00  0.00     0.063 C 
ATOM     18  C   UNL     1      85.898   5.939 -21.956  1.00  0.00     0.016 C 
ATOM     19  C   UNL     1      90.088   2.784 -25.599  1.00  0.00     0.012 C 
ENDROOT
BRANCH   1  20
ATOM     20  C   UNL     1      91.568   5.016 -27.253  1.00  0.00    -0.011 C 
ATOM     21  C   UNL     1      91.670   4.888 -28.786  1.00  0.00     0.008 C 
BRANCH  20  22
ATOM     22  C   UNL     1      92.568   6.070 -26.693  1.00  0.00     0.004 C 
BRANCH  22  23
ATOM     23  C   UNL     1      93.077   5.750 -25.268  1.00  0.00     0.004 C 
BRANCH  23  24
ATOM     24  C   UNL     1      93.321   4.244 -24.945  1.00  0.00    -0.009 C 
BRANCH  24  25
ATOM     25  C   UNL     1      94.710   3.789 -25.483  1.00  0.00     0.000 C 
ATOM     26  C   UNL     1      94.650   3.049 -26.819  1.00  0.00     0.004 C 
ENDBRANCH  24  25
BRANCH  24  27
ATOM     27  C   UNL     1      93.093   3.992 -23.408  1.00  0.00    -0.014 C 
ATOM     28  C   UNL     1      94.262   3.247 -22.743  1.00  0.00     0.007 C 
ATOM     29  C   UNL     1      92.721   5.249 -22.606  1.00  0.00     0.007 C 
ENDBRANCH  24  27
ENDBRANCH  23  24
ENDBRANCH  22  23
ENDBRANCH  20  22
ENDBRANCH   1  20
BRANCH  16  30
ATOM     30  O   UNL     1      83.445   1.881 -22.310  1.00  0.00    -0.346 OA
BRANCH  30  31
ATOM     31  C   UNL     1      83.041   0.744 -21.555  1.00  0.00     0.282 C 
ATOM     32  C   UNL     1      84.268  -0.027 -20.986  1.00  0.00     0.202 C 
ATOM     33  O   UNL     1      82.166  -0.093 -22.298  1.00  0.00    -0.341 OA
ATOM     34  C   UNL     1      83.832  -1.310 -20.242  1.00  0.00     0.179 C 
ATOM     35  C   UNL     1      81.634  -1.118 -21.474  1.00  0.00     0.178 C 
ATOM     36  C   UNL     1      82.756  -2.083 -21.029  1.00  0.00     0.177 C 
BRANCH  32  37
ATOM     37  O   UNL     1      85.148  -0.386 -22.020  1.00  0.00    -0.385 OA
ATOM     38  H   UNL     1      85.986  -0.713 -21.594  1.00  0.00     0.211 HD
ENDBRANCH  32  37
BRANCH  34  39
ATOM     39  O   UNL     1      83.402  -1.036 -18.926  1.00  0.00    -0.387 OA
ATOM     40  H   UNL     1      83.835  -1.685 -18.309  1.00  0.00     0.211 HD
ENDBRANCH  34  39
BRANCH  35  41
ATOM     41  C   UNL     1      80.535  -1.850 -22.264  1.00  0.00     0.191 C 
BRANCH  41  42
ATOM     42  O   UNL     1      80.906  -2.025 -23.607  1.00  0.00    -0.394 OA
ATOM     43  H   UNL     1      81.329  -1.172 -23.896  1.00  0.00     0.210 HD
ENDBRANCH  41  42
ENDBRANCH  35  41
BRANCH  36  44
ATOM     44  O   UNL     1      83.336  -2.679 -22.162  1.00  0.00    -0.387 OA
ATOM     45  H   UNL     1      82.731  -3.420 -22.442  1.00  0.00     0.211 HD
ENDBRANCH  36  44
ENDBRANCH  30  31
ENDBRANCH  16  30
TORSDOF 13
ENDMDL
