MODEL 1
REMARK VINA RESULT:    -5.098      0.000      0.000
REMARK INTER + INTRA:          -5.271
REMARK INTER:                  -5.545
REMARK INTRA:                   0.274
REMARK UNBOUND:                 0.274
REMARK SMILES C[C@@H]1[C@H](C)CC[C@]2(C(=O)[O-])CC[C@]3(C)C(=CC[C@H]4[C@]5(C)CC[C@H](O)C(C)(C)[C@@H]5CC[C@@]43C)[C@@H]12
REMARK SMILES IDX 7 1 6 2 11 3 33 4 5 5 12 6 15 7 2 8 3 9 13 10 16 11 1 12
REMARK SMILES IDX 4 13 14 14 31 15 17 16 18 17 30 18 32 19 19 20 29 21 28 22
REMARK SMILES IDX 21 23 20 24 25 25 22 26 23 27 26 28 27 29 8 30 9 31 10 32
REMARK SMILES IDX 24 33
REMARK H PARENT 24 34
REMARK Flexibility Score: inf
ROOT
ATOM      1  C   UNL     1      -4.573  33.640  12.414  1.00  0.00     0.017 C 
ATOM      2  C   UNL     1      -4.841  33.063  10.998  1.00  0.00     0.014 C 
ATOM      3  C   UNL     1      -3.476  34.734  12.297  1.00  0.00     0.014 C 
ATOM      4  C   UNL     1      -4.038  32.483  13.328  1.00  0.00     0.030 C 
ATOM      5  C   UNL     1      -5.834  31.891  11.035  1.00  0.00     0.004 C 
ATOM      6  C   UNL     1      -2.918  35.217  13.661  1.00  0.00     0.013 C 
ATOM      7  C   UNL     1      -3.577  33.062  14.680  1.00  0.00    -0.063 C 
ATOM      8  C   UNL     1      -4.987  31.237  13.357  1.00  0.00    -0.003 C 
ATOM      9  C   UNL     1      -5.334  30.735  11.920  1.00  0.00    -0.011 C 
ATOM     10  C   UNL     1      -2.418  34.080  14.629  1.00  0.00    -0.006 C 
ATOM     11  C   UNL     1      -4.385  32.977  15.760  1.00  0.00    -0.027 C 
ATOM     12  C   UNL     1      -4.404  30.087  14.207  1.00  0.00     0.008 C 
ATOM     13  C   UNL     1      -4.196  29.958  11.223  1.00  0.00     0.008 C 
ATOM     14  C   UNL     1      -1.167  33.406  13.973  1.00  0.00     0.017 C 
ATOM     15  C   UNL     1      -2.008  34.642  16.100  1.00  0.00    -0.020 C 
ATOM     16  C   UNL     1      -4.120  33.631  17.073  1.00  0.00     0.032 C 
ATOM     17  C   UNL     1      -3.273  34.919  16.961  1.00  0.00     0.006 C 
ATOM     18  C   UNL     1      -1.291  36.003  15.961  1.00  0.00     0.008 C 
ATOM     19  C   UNL     1      -1.074  33.625  16.830  1.00  0.00     0.012 C 
ATOM     20  C   UNL     1      -3.062  35.689  18.369  1.00  0.00    -0.025 C 
ATOM     21  C   UNL     1      -0.794  36.623  17.258  1.00  0.00     0.005 C 
ATOM     22  C   UNL     1      -1.635  36.407  18.561  1.00  0.00     0.003 C 
ATOM     23  C   UNL     1      -4.211  36.748  18.500  1.00  0.00     0.010 C 
ATOM     24  C   UNL     1      -3.240  34.676  19.552  1.00  0.00     0.012 C 
ATOM     25  C   UNL     1      -1.670  37.747  19.434  1.00  0.00    -0.006 C 
ATOM     26  C   UNL     1      -3.798  38.124  17.970  1.00  0.00     0.033 C 
ATOM     27  C   UNL     1      -2.692  38.782  18.823  1.00  0.00     0.120 C 
ATOM     28  C   UNL     1      -2.068  37.460  20.913  1.00  0.00     0.014 C 
ATOM     29  C   UNL     1      -0.238  38.363  19.565  1.00  0.00     0.014 C 
ENDROOT
BRANCH   1  30
ATOM     30  C   UNL     1      -5.858  34.308  12.910  1.00  0.00     0.048 C 
ATOM     31  O   UNL     1      -6.700  33.689  13.615  1.00  0.00    -0.550 OA
ATOM     32  O   UNL     1      -6.084  35.655  12.635  1.00  0.00    -0.550 OA
ENDBRANCH   1  30
BRANCH  27  33
ATOM     33  O   UNL     1      -2.047  39.739  18.016  1.00  0.00    -0.393 OA
ATOM     34  H   UNL     1      -1.204  39.327  17.688  1.00  0.00     0.210 HD
ENDBRANCH  27  33
TORSDOF 2
ENDMDL
MODEL 2
REMARK VINA RESULT:    -5.012      3.134      6.062
REMARK INTER + INTRA:          -5.178
REMARK INTER:                  -5.470
REMARK INTRA:                   0.292
REMARK UNBOUND:                 0.274
REMARK SMILES C[C@@H]1[C@H](C)CC[C@]2(C(=O)[O-])CC[C@]3(C)C(=CC[C@H]4[C@]5(C)CC[C@H](O)C(C)(C)[C@@H]5CC[C@@]43C)[C@@H]12
REMARK SMILES IDX 7 1 6 2 11 3 33 4 5 5 12 6 15 7 2 8 3 9 13 10 16 11 1 12
REMARK SMILES IDX 4 13 14 14 31 15 17 16 18 17 30 18 32 19 19 20 29 21 28 22
REMARK SMILES IDX 21 23 20 24 25 25 22 26 23 27 26 28 27 29 8 30 9 31 10 32
REMARK SMILES IDX 24 33
REMARK H PARENT 24 34
REMARK Flexibility Score: inf
ROOT
ATOM      1  C   UNL     1      -2.257  35.451  17.160  1.00  0.00     0.017 C 
ATOM      2  C   UNL     1      -1.574  34.088  16.861  1.00  0.00     0.014 C 
ATOM      3  C   UNL     1      -2.508  35.546  18.691  1.00  0.00     0.014 C 
ATOM      4  C   UNL     1      -3.638  35.487  16.418  1.00  0.00     0.030 C 
ATOM      5  C   UNL     1      -1.391  33.858  15.353  1.00  0.00     0.004 C 
ATOM      6  C   UNL     1      -3.416  36.731  19.109  1.00  0.00     0.013 C 
ATOM      7  C   UNL     1      -4.426  36.738  16.852  1.00  0.00    -0.063 C 
ATOM      8  C   UNL     1      -3.515  35.202  14.883  1.00  0.00    -0.003 C 
ATOM      9  C   UNL     1      -2.731  33.882  14.596  1.00  0.00    -0.011 C 
ATOM     10  C   UNL     1      -4.791  36.832  18.349  1.00  0.00    -0.006 C 
ATOM     11  C   UNL     1      -4.444  37.832  16.058  1.00  0.00    -0.027 C 
ATOM     12  C   UNL     1      -4.895  35.174  14.188  1.00  0.00     0.008 C 
ATOM     13  C   UNL     1      -3.537  32.591  14.857  1.00  0.00     0.008 C 
ATOM     14  C   UNL     1      -5.654  35.590  18.749  1.00  0.00     0.017 C 
ATOM     15  C   UNL     1      -5.612  38.189  18.712  1.00  0.00    -0.020 C 
ATOM     16  C   UNL     1      -5.036  39.146  16.437  1.00  0.00     0.032 C 
ATOM     17  C   UNL     1      -5.022  39.415  17.959  1.00  0.00     0.006 C 
ATOM     18  C   UNL     1      -5.458  38.509  20.215  1.00  0.00     0.008 C 
ATOM     19  C   UNL     1      -7.125  38.020  18.361  1.00  0.00     0.012 C 
ATOM     20  C   UNL     1      -5.574  40.880  18.371  1.00  0.00    -0.025 C 
ATOM     21  C   UNL     1      -6.225  39.725  20.714  1.00  0.00     0.005 C 
ATOM     22  C   UNL     1      -6.394  40.949  19.753  1.00  0.00     0.003 C 
ATOM     23  C   UNL     1      -4.338  41.844  18.437  1.00  0.00     0.010 C 
ATOM     24  C   UNL     1      -6.515  41.423  17.240  1.00  0.00     0.012 C 
ATOM     25  C   UNL     1      -6.233  42.321  20.560  1.00  0.00    -0.006 C 
ATOM     26  C   UNL     1      -3.751  41.941  19.847  1.00  0.00     0.033 C 
ATOM     27  C   UNL     1      -4.711  42.623  20.845  1.00  0.00     0.120 C 
ATOM     28  C   UNL     1      -6.847  43.522  19.781  1.00  0.00     0.014 C 
ATOM     29  C   UNL     1      -7.069  42.290  21.882  1.00  0.00     0.014 C 
ENDROOT
BRANCH   1  30
ATOM     30  C   UNL     1      -1.288  36.568  16.768  1.00  0.00     0.048 C 
ATOM     31  O   UNL     1      -1.403  37.199  15.683  1.00  0.00    -0.550 OA
ATOM     32  O   UNL     1      -0.284  36.953  17.656  1.00  0.00    -0.550 OA
ENDBRANCH   1  30
BRANCH  27  33
ATOM     33  O   UNL     1      -4.332  42.222  22.141  1.00  0.00    -0.393 OA
ATOM     34  H   UNL     1      -3.380  41.941  22.094  1.00  0.00     0.210 HD
ENDBRANCH  27  33
TORSDOF 2
ENDMDL
MODEL 3
REMARK VINA RESULT:    -5.004      2.286      7.992
REMARK INTER + INTRA:          -5.169
REMARK INTER:                  -5.469
REMARK INTRA:                   0.300
REMARK UNBOUND:                 0.274
REMARK SMILES C[C@@H]1[C@H](C)CC[C@]2(C(=O)[O-])CC[C@]3(C)C(=CC[C@H]4[C@]5(C)CC[C@H](O)C(C)(C)[C@@H]5CC[C@@]43C)[C@@H]12
REMARK SMILES IDX 7 1 6 2 11 3 33 4 5 5 12 6 15 7 2 8 3 9 13 10 16 11 1 12
REMARK SMILES IDX 4 13 14 14 31 15 17 16 18 17 30 18 32 19 19 20 29 21 28 22
REMARK SMILES IDX 21 23 20 24 25 25 22 26 23 27 26 28 27 29 8 30 9 31 10 32
REMARK SMILES IDX 24 33
REMARK H PARENT 24 34
REMARK Flexibility Score: inf
ROOT
ATOM      1  C   UNL     1      -1.762  37.328  18.782  1.00  0.00     0.017 C 
ATOM      2  C   UNL     1      -0.908  38.537  19.250  1.00  0.00     0.014 C 
ATOM      3  C   UNL     1      -1.323  36.945  17.341  1.00  0.00     0.014 C 
ATOM      4  C   UNL     1      -3.268  37.766  18.751  1.00  0.00     0.030 C 
ATOM      5  C   UNL     1      -1.354  39.057  20.625  1.00  0.00     0.004 C 
ATOM      6  C   UNL     1      -2.261  35.927  16.644  1.00  0.00     0.013 C 
ATOM      7  C   UNL     1      -4.119  36.656  18.105  1.00  0.00    -0.063 C 
ATOM      8  C   UNL     1      -3.761  38.358  20.115  1.00  0.00    -0.003 C 
ATOM      9  C   UNL     1      -2.827  39.502  20.626  1.00  0.00    -0.011 C 
ATOM     10  C   UNL     1      -3.789  36.308  16.638  1.00  0.00    -0.006 C 
ATOM     11  C   UNL     1      -4.818  35.802  18.886  1.00  0.00    -0.027 C 
ATOM     12  C   UNL     1      -5.224  38.847  20.038  1.00  0.00     0.008 C 
ATOM     13  C   UNL     1      -3.000  40.845  19.884  1.00  0.00     0.008 C 
ATOM     14  C   UNL     1      -3.963  37.586  15.752  1.00  0.00     0.017 C 
ATOM     15  C   UNL     1      -4.731  35.120  16.047  1.00  0.00    -0.020 C 
ATOM     16  C   UNL     1      -5.546  34.600  18.390  1.00  0.00     0.032 C 
ATOM     17  C   UNL     1      -4.940  33.997  17.103  1.00  0.00     0.006 C 
ATOM     18  C   UNL     1      -4.029  34.441  14.850  1.00  0.00     0.008 C 
ATOM     19  C   UNL     1      -6.111  35.694  15.594  1.00  0.00     0.012 C 
ATOM     20  C   UNL     1      -5.665  32.636  16.611  1.00  0.00    -0.025 C 
ATOM     21  C   UNL     1      -4.823  33.344  14.154  1.00  0.00     0.005 C 
ATOM     22  C   UNL     1      -5.762  32.438  15.017  1.00  0.00     0.003 C 
ATOM     23  C   UNL     1      -4.885  31.434  17.249  1.00  0.00     0.010 C 
ATOM     24  C   UNL     1      -7.125  32.586  17.181  1.00  0.00     0.012 C 
ATOM     25  C   UNL     1      -5.684  30.919  14.524  1.00  0.00    -0.006 C 
ATOM     26  C   UNL     1      -3.793  30.892  16.324  1.00  0.00     0.033 C 
ATOM     27  C   UNL     1      -4.365  30.231  15.052  1.00  0.00     0.120 C 
ATOM     28  C   UNL     1      -6.912  30.091  15.011  1.00  0.00     0.014 C 
ATOM     29  C   UNL     1      -5.791  30.833  12.966  1.00  0.00     0.014 C 
ENDROOT
BRANCH   1  30
ATOM     30  C   UNL     1      -1.458  36.142  19.700  1.00  0.00     0.048 C 
ATOM     31  O   UNL     1      -2.251  35.787  20.613  1.00  0.00    -0.550 OA
ATOM     32  O   UNL     1      -0.305  35.387  19.491  1.00  0.00    -0.550 OA
ENDBRANCH   1  30
BRANCH  27  33
ATOM     33  O   UNL     1      -3.348  30.234  14.077  1.00  0.00    -0.393 OA
ATOM     34  H   UNL     1      -3.022  31.170  13.997  1.00  0.00     0.210 HD
ENDBRANCH  27  33
TORSDOF 2
ENDMDL
MODEL 4
REMARK VINA RESULT:    -4.853      3.252      5.362
REMARK INTER + INTRA:          -5.005
REMARK INTER:                  -5.278
REMARK INTRA:                   0.273
REMARK UNBOUND:                 0.274
REMARK SMILES C[C@@H]1[C@H](C)CC[C@]2(C(=O)[O-])CC[C@]3(C)C(=CC[C@H]4[C@]5(C)CC[C@H](O)C(C)(C)[C@@H]5CC[C@@]43C)[C@@H]12
REMARK SMILES IDX 7 1 6 2 11 3 33 4 5 5 12 6 15 7 2 8 3 9 13 10 16 11 1 12
REMARK SMILES IDX 4 13 14 14 31 15 17 16 18 17 30 18 32 19 19 20 29 21 28 22
REMARK SMILES IDX 21 23 20 24 25 25 22 26 23 27 26 28 27 29 8 30 9 31 10 32
REMARK SMILES IDX 24 33
REMARK H PARENT 24 34
REMARK Flexibility Score: inf
ROOT
ATOM      1  C   UNL     1      -2.531  38.284  14.334  1.00  0.00     0.017 C 
ATOM      2  C   UNL     1      -1.666  37.916  13.098  1.00  0.00     0.014 C 
ATOM      3  C   UNL     1      -1.763  39.343  15.172  1.00  0.00     0.014 C 
ATOM      4  C   UNL     1      -2.725  36.993  15.204  1.00  0.00     0.030 C 
ATOM      5  C   UNL     1      -2.298  36.787  12.269  1.00  0.00     0.004 C 
ATOM      6  C   UNL     1      -2.381  39.613  16.568  1.00  0.00     0.013 C 
ATOM      7  C   UNL     1      -3.410  37.364  16.534  1.00  0.00    -0.063 C 
ATOM      8  C   UNL     1      -3.316  35.791  14.393  1.00  0.00    -0.003 C 
ATOM      9  C   UNL     1      -2.496  35.503  13.096  1.00  0.00    -0.011 C 
ATOM     10  C   UNL     1      -2.640  38.336  17.453  1.00  0.00    -0.006 C 
ATOM     11  C   UNL     1      -4.737  37.161  16.688  1.00  0.00    -0.027 C 
ATOM     12  C   UNL     1      -3.432  34.514  15.255  1.00  0.00     0.008 C 
ATOM     13  C   UNL     1      -1.149  34.788  13.337  1.00  0.00     0.008 C 
ATOM     14  C   UNL     1      -1.250  37.713  17.815  1.00  0.00     0.017 C 
ATOM     15  C   UNL     1      -3.444  38.675  18.826  1.00  0.00    -0.020 C 
ATOM     16  C   UNL     1      -5.536  37.619  17.860  1.00  0.00     0.032 C 
ATOM     17  C   UNL     1      -4.961  38.878  18.547  1.00  0.00     0.006 C 
ATOM     18  C   UNL     1      -2.945  40.015  19.410  1.00  0.00     0.008 C 
ATOM     19  C   UNL     1      -3.239  37.534  19.872  1.00  0.00     0.012 C 
ATOM     20  C   UNL     1      -5.874  39.439  19.759  1.00  0.00    -0.025 C 
ATOM     21  C   UNL     1      -3.569  40.433  20.733  1.00  0.00     0.005 C 
ATOM     22  C   UNL     1      -5.068  40.071  21.000  1.00  0.00     0.003 C 
ATOM     23  C   UNL     1      -6.846  40.512  19.155  1.00  0.00     0.010 C 
ATOM     24  C   UNL     1      -6.768  38.280  20.322  1.00  0.00     0.012 C 
ATOM     25  C   UNL     1      -5.813  41.279  21.739  1.00  0.00    -0.006 C 
ATOM     26  C   UNL     1      -6.281  41.931  19.254  1.00  0.00     0.033 C 
ATOM     27  C   UNL     1      -6.166  42.424  20.713  1.00  0.00     0.120 C 
ATOM     28  C   UNL     1      -7.125  40.806  22.435  1.00  0.00     0.014 C 
ATOM     29  C   UNL     1      -4.953  41.819  22.928  1.00  0.00     0.014 C 
ENDROOT
BRANCH   1  30
ATOM     30  C   UNL     1      -3.829  38.923  13.836  1.00  0.00     0.048 C 
ATOM     31  O   UNL     1      -4.883  38.251  13.674  1.00  0.00    -0.550 OA
ATOM     32  O   UNL     1      -3.878  40.299  13.614  1.00  0.00    -0.550 OA
ENDBRANCH   1  30
BRANCH  27  33
ATOM     33  O   UNL     1      -5.211  43.459  20.736  1.00  0.00    -0.393 OA
ATOM     34  H   UNL     1      -4.431  43.152  20.201  1.00  0.00     0.210 HD
ENDBRANCH  27  33
TORSDOF 2
ENDMDL
MODEL 5
REMARK VINA RESULT:    -4.724      4.633      8.377
REMARK INTER + INTRA:          -4.864
REMARK INTER:                  -5.618
REMARK INTRA:                   0.754
REMARK UNBOUND:                 0.274
REMARK SMILES C[C@@H]1[C@H](C)CC[C@]2(C(=O)[O-])CC[C@]3(C)C(=CC[C@H]4[C@]5(C)CC[C@H](O)C(C)(C)[C@@H]5CC[C@@]43C)[C@@H]12
REMARK SMILES IDX 7 1 6 2 11 3 33 4 5 5 12 6 15 7 2 8 3 9 13 10 16 11 1 12
REMARK SMILES IDX 4 13 14 14 31 15 17 16 18 17 30 18 32 19 19 20 29 21 28 22
REMARK SMILES IDX 21 23 20 24 25 25 22 26 23 27 26 28 27 29 8 30 9 31 10 32
REMARK SMILES IDX 24 33
REMARK H PARENT 24 34
REMARK Flexibility Score: inf
ROOT
ATOM      1  C   UNL     1      -2.299  38.183  18.534  1.00  0.00     0.017 C 
ATOM      2  C   UNL     1      -1.555  36.848  18.810  1.00  0.00     0.014 C 
ATOM      3  C   UNL     1      -2.311  39.018  19.845  1.00  0.00     0.014 C 
ATOM      4  C   UNL     1      -3.778  37.852  18.131  1.00  0.00     0.030 C 
ATOM      5  C   UNL     1      -1.594  35.907  17.596  1.00  0.00     0.004 C 
ATOM      6  C   UNL     1      -3.242  40.256  19.796  1.00  0.00     0.013 C 
ATOM      7  C   UNL     1      -4.595  39.155  18.043  1.00  0.00    -0.063 C 
ATOM      8  C   UNL     1      -3.877  36.849  16.932  1.00  0.00    -0.003 C 
ATOM      9  C   UNL     1      -3.035  35.558  17.181  1.00  0.00    -0.011 C 
ATOM     10  C   UNL     1      -4.724  39.972  19.346  1.00  0.00    -0.006 C 
ATOM     11  C   UNL     1      -4.836  39.719  16.838  1.00  0.00    -0.027 C 
ATOM     12  C   UNL     1      -5.341  36.486  16.602  1.00  0.00     0.008 C 
ATOM     13  C   UNL     1      -3.671  34.562  18.175  1.00  0.00     0.008 C 
ATOM     14  C   UNL     1      -5.399  39.088  20.446  1.00  0.00     0.017 C 
ATOM     15  C   UNL     1      -5.594  41.334  19.152  1.00  0.00    -0.020 C 
ATOM     16  C   UNL     1      -5.474  41.050  16.635  1.00  0.00     0.032 C 
ATOM     17  C   UNL     1      -5.242  42.031  17.807  1.00  0.00     0.006 C 
ATOM     18  C   UNL     1      -5.231  42.350  20.256  1.00  0.00     0.008 C 
ATOM     19  C   UNL     1      -7.122  41.016  19.208  1.00  0.00     0.012 C 
ATOM     20  C   UNL     1      -5.849  43.510  17.553  1.00  0.00    -0.025 C 
ATOM     21  C   UNL     1      -6.014  43.655  20.237  1.00  0.00     0.005 C 
ATOM     22  C   UNL     1      -6.441  44.250  18.854  1.00  0.00     0.003 C 
ATOM     23  C   UNL     1      -4.709  44.382  16.920  1.00  0.00     0.010 C 
ATOM     24  C   UNL     1      -7.002  43.429  16.494  1.00  0.00     0.012 C 
ATOM     25  C   UNL     1      -6.276  45.841  18.853  1.00  0.00    -0.006 C 
ATOM     26  C   UNL     1      -3.915  45.158  17.974  1.00  0.00     0.033 C 
ATOM     27  C   UNL     1      -4.761  46.243  18.674  1.00  0.00     0.120 C 
ATOM     28  C   UNL     1      -7.111  46.506  17.717  1.00  0.00     0.014 C 
ATOM     29  C   UNL     1      -6.885  46.464  20.153  1.00  0.00     0.014 C 
ENDROOT
BRANCH   1  30
ATOM     30  C   UNL     1      -1.507  38.963  17.482  1.00  0.00     0.048 C 
ATOM     31  O   UNL     1      -2.069  39.758  16.681  1.00  0.00    -0.550 OA
ATOM     32  O   UNL     1      -0.118  38.850  17.441  1.00  0.00    -0.550 OA
ENDBRANCH   1  30
BRANCH  27  33
ATOM     33  O   UNL     1      -4.147  46.529  19.909  1.00  0.00    -0.393 OA
ATOM     34  H   UNL     1      -4.518  45.892  20.576  1.00  0.00     0.210 HD
ENDBRANCH  27  33
TORSDOF 2
ENDMDL
MODEL 6
REMARK VINA RESULT:    -4.564      2.403      8.050
REMARK INTER + INTRA:          -4.691
REMARK INTER:                  -4.961
REMARK INTRA:                   0.270
REMARK UNBOUND:                 0.274
REMARK SMILES C[C@@H]1[C@H](C)CC[C@]2(C(=O)[O-])CC[C@]3(C)C(=CC[C@H]4[C@]5(C)CC[C@H](O)C(C)(C)[C@@H]5CC[C@@]43C)[C@@H]12
REMARK SMILES IDX 7 1 6 2 11 3 33 4 5 5 12 6 15 7 2 8 3 9 13 10 16 11 1 12
REMARK SMILES IDX 4 13 14 14 31 15 17 16 18 17 30 18 32 19 19 20 29 21 28 22
REMARK SMILES IDX 21 23 20 24 25 25 22 26 23 27 26 28 27 29 8 30 9 31 10 32
REMARK SMILES IDX 24 33
REMARK H PARENT 24 34
REMARK Flexibility Score: inf
ROOT
ATOM      1  C   UNL     1      -3.450  39.711  19.085  1.00  0.00     0.017 C 
ATOM      2  C   UNL     1      -3.469  41.076  19.828  1.00  0.00     0.014 C 
ATOM      3  C   UNL     1      -3.022  39.962  17.612  1.00  0.00     0.014 C 
ATOM      4  C   UNL     1      -4.902  39.120  19.097  1.00  0.00     0.030 C 
ATOM      5  C   UNL     1      -3.992  40.939  21.266  1.00  0.00     0.004 C 
ATOM      6  C   UNL     1      -3.209  38.734  16.684  1.00  0.00     0.013 C 
ATOM      7  C   UNL     1      -4.959  37.867  18.202  1.00  0.00    -0.063 C 
ATOM      8  C   UNL     1      -5.508  39.012  20.537  1.00  0.00    -0.003 C 
ATOM      9  C   UNL     1      -5.421  40.366  21.310  1.00  0.00    -0.011 C 
ATOM     10  C   UNL     1      -4.642  38.080  16.706  1.00  0.00    -0.006 C 
ATOM     11  C   UNL     1      -4.904  36.638  18.759  1.00  0.00    -0.027 C 
ATOM     12  C   UNL     1      -6.963  38.493  20.515  1.00  0.00     0.008 C 
ATOM     13  C   UNL     1      -6.454  41.423  20.864  1.00  0.00     0.008 C 
ATOM     14  C   UNL     1      -5.651  39.114  16.105  1.00  0.00     0.017 C 
ATOM     15  C   UNL     1      -4.717  36.702  15.845  1.00  0.00    -0.020 C 
ATOM     16  C   UNL     1      -4.794  35.363  17.996  1.00  0.00     0.032 C 
ATOM     17  C   UNL     1      -4.084  35.519  16.631  1.00  0.00     0.006 C 
ATOM     18  C   UNL     1      -3.877  36.842  14.556  1.00  0.00     0.008 C 
ATOM     19  C   UNL     1      -6.198  36.371  15.476  1.00  0.00     0.012 C 
ATOM     20  C   UNL     1      -3.874  34.124  15.839  1.00  0.00    -0.025 C 
ATOM     21  C   UNL     1      -3.902  35.645  13.617  1.00  0.00     0.005 C 
ATOM     22  C   UNL     1      -3.996  34.211  14.237  1.00  0.00     0.003 C 
ATOM     23  C   UNL     1      -2.461  33.569  16.234  1.00  0.00     0.010 C 
ATOM     24  C   UNL     1      -4.929  33.075  16.334  1.00  0.00     0.012 C 
ATOM     25  C   UNL     1      -3.058  33.192  13.436  1.00  0.00    -0.006 C 
ATOM     26  C   UNL     1      -1.369  34.005  15.253  1.00  0.00     0.033 C 
ATOM     27  C   UNL     1      -1.548  33.385  13.851  1.00  0.00     0.120 C 
ATOM     28  C   UNL     1      -3.465  31.710  13.694  1.00  0.00     0.014 C 
ATOM     29  C   UNL     1      -3.253  33.352  11.892  1.00  0.00     0.014 C 
ENDROOT
BRANCH   1  30
ATOM     30  C   UNL     1      -2.390  38.824  19.743  1.00  0.00     0.048 C 
ATOM     31  O   UNL     1      -2.670  38.051  20.698  1.00  0.00    -0.550 OA
ATOM     32  O   UNL     1      -1.091  38.812  19.237  1.00  0.00    -0.550 OA
ENDBRANCH   1  30
BRANCH  27  33
ATOM     33  O   UNL     1      -0.854  34.199  12.935  1.00  0.00    -0.393 OA
ATOM     34  H   UNL     1      -1.401  35.016  12.795  1.00  0.00     0.210 HD
ENDBRANCH  27  33
TORSDOF 2
ENDMDL
MODEL 7
REMARK VINA RESULT:    -4.532      2.019      3.376
REMARK INTER + INTRA:          -4.655
REMARK INTER:                  -4.939
REMARK INTRA:                   0.283
REMARK UNBOUND:                 0.274
REMARK SMILES C[C@@H]1[C@H](C)CC[C@]2(C(=O)[O-])CC[C@]3(C)C(=CC[C@H]4[C@]5(C)CC[C@H](O)C(C)(C)[C@@H]5CC[C@@]43C)[C@@H]12
REMARK SMILES IDX 7 1 6 2 11 3 33 4 5 5 12 6 15 7 2 8 3 9 13 10 16 11 1 12
REMARK SMILES IDX 4 13 14 14 31 15 17 16 18 17 30 18 32 19 19 20 29 21 28 22
REMARK SMILES IDX 21 23 20 24 25 25 22 26 23 27 26 28 27 29 8 30 9 31 10 32
REMARK SMILES IDX 24 33
REMARK H PARENT 24 34
REMARK Flexibility Score: inf
ROOT
ATOM      1  C   UNL     1      -4.321  34.094  13.719  1.00  0.00     0.017 C 
ATOM      2  C   UNL     1      -4.675  33.211  12.492  1.00  0.00     0.014 C 
ATOM      3  C   UNL     1      -5.186  35.385  13.660  1.00  0.00     0.014 C 
ATOM      4  C   UNL     1      -2.808  34.495  13.622  1.00  0.00     0.030 C 
ATOM      5  C   UNL     1      -3.784  31.963  12.407  1.00  0.00     0.004 C 
ATOM      6  C   UNL     1      -4.758  36.478  14.673  1.00  0.00     0.013 C 
ATOM      7  C   UNL     1      -2.474  35.529  14.714  1.00  0.00    -0.063 C 
ATOM      8  C   UNL     1      -1.856  33.260  13.476  1.00  0.00    -0.003 C 
ATOM      9  C   UNL     1      -2.291  32.324  12.303  1.00  0.00    -0.011 C 
ATOM     10  C   UNL     1      -3.233  36.871  14.641  1.00  0.00    -0.006 C 
ATOM     11  C   UNL     1      -1.863  35.133  15.853  1.00  0.00    -0.027 C 
ATOM     12  C   UNL     1      -0.380  33.684  13.311  1.00  0.00     0.008 C 
ATOM     13  C   UNL     1      -1.948  32.861  10.897  1.00  0.00     0.008 C 
ATOM     14  C   UNL     1      -2.942  37.555  13.263  1.00  0.00     0.017 C 
ATOM     15  C   UNL     1      -2.822  37.893  15.839  1.00  0.00    -0.020 C 
ATOM     16  C   UNL     1      -1.632  36.005  17.040  1.00  0.00     0.032 C 
ATOM     17  C   UNL     1      -2.674  37.136  17.189  1.00  0.00     0.006 C 
ATOM     18  C   UNL     1      -3.951  38.923  16.060  1.00  0.00     0.008 C 
ATOM     19  C   UNL     1      -1.492  38.634  15.489  1.00  0.00     0.012 C 
ATOM     20  C   UNL     1      -2.487  38.028  18.527  1.00  0.00    -0.025 C 
ATOM     21  C   UNL     1      -3.679  39.985  17.115  1.00  0.00     0.005 C 
ATOM     22  C   UNL     1      -2.839  39.590  18.375  1.00  0.00     0.003 C 
ATOM     23  C   UNL     1      -3.382  37.388  19.645  1.00  0.00     0.010 C 
ATOM     24  C   UNL     1      -1.002  37.927  19.020  1.00  0.00     0.012 C 
ATOM     25  C   UNL     1      -3.443  40.273  19.689  1.00  0.00    -0.006 C 
ATOM     26  C   UNL     1      -4.772  38.025  19.713  1.00  0.00     0.033 C 
ATOM     27  C   UNL     1      -4.729  39.498  20.176  1.00  0.00     0.120 C 
ATOM     28  C   UNL     1      -2.405  40.305  20.851  1.00  0.00     0.014 C 
ATOM     29  C   UNL     1      -3.747  41.787  19.440  1.00  0.00     0.014 C 
ENDROOT
BRANCH   1  30
ATOM     30  C   UNL     1      -4.701  33.326  14.987  1.00  0.00     0.048 C 
ATOM     31  O   UNL     1      -5.867  33.365  15.464  1.00  0.00    -0.550 OA
ATOM     32  O   UNL     1      -3.758  32.506  15.605  1.00  0.00    -0.550 OA
ENDBRANCH   1  30
BRANCH  27  33
ATOM     33  O   UNL     1      -5.912  40.118  19.732  1.00  0.00    -0.393 OA
ATOM     34  H   UNL     1      -6.413  39.446  19.197  1.00  0.00     0.210 HD
ENDBRANCH  27  33
TORSDOF 2
ENDMDL
MODEL 8
REMARK VINA RESULT:    -4.529      1.703      2.440
REMARK INTER + INTRA:          -4.652
REMARK INTER:                  -4.926
REMARK INTRA:                   0.274
REMARK UNBOUND:                 0.274
REMARK SMILES C[C@@H]1[C@H](C)CC[C@]2(C(=O)[O-])CC[C@]3(C)C(=CC[C@H]4[C@]5(C)CC[C@H](O)C(C)(C)[C@@H]5CC[C@@]43C)[C@@H]12
REMARK SMILES IDX 7 1 6 2 11 3 33 4 5 5 12 6 15 7 2 8 3 9 13 10 16 11 1 12
REMARK SMILES IDX 4 13 14 14 31 15 17 16 18 17 30 18 32 19 19 20 29 21 28 22
REMARK SMILES IDX 21 23 20 24 25 25 22 26 23 27 26 28 27 29 8 30 9 31 10 32
REMARK SMILES IDX 24 33
REMARK H PARENT 24 34
REMARK Flexibility Score: inf
ROOT
ATOM      1  C   UNL     1      -2.227  34.067  12.797  1.00  0.00     0.017 C 
ATOM      2  C   UNL     1      -1.537  33.253  11.669  1.00  0.00     0.014 C 
ATOM      3  C   UNL     1      -1.150  34.937  13.502  1.00  0.00     0.014 C 
ATOM      4  C   UNL     1      -2.826  33.059  13.840  1.00  0.00     0.030 C 
ATOM      5  C   UNL     1      -2.509  32.275  10.990  1.00  0.00     0.004 C 
ATOM      6  C   UNL     1      -1.638  35.605  14.814  1.00  0.00     0.013 C 
ATOM      7  C   UNL     1      -3.343  33.832  15.069  1.00  0.00    -0.063 C 
ATOM      8  C   UNL     1      -3.782  32.002  13.191  1.00  0.00    -0.003 C 
ATOM      9  C   UNL     1      -3.108  31.268  11.988  1.00  0.00    -0.011 C 
ATOM     10  C   UNL     1      -2.292  34.633  15.866  1.00  0.00    -0.006 C 
ATOM     11  C   UNL     1      -4.663  34.095  15.192  1.00  0.00    -0.027 C 
ATOM     12  C   UNL     1      -4.301  30.980  14.227  1.00  0.00     0.008 C 
ATOM     13  C   UNL     1      -2.067  30.203  12.392  1.00  0.00     0.008 C 
ATOM     14  C   UNL     1      -1.179  33.660  16.378  1.00  0.00     0.017 C 
ATOM     15  C   UNL     1      -2.933  35.422  17.136  1.00  0.00    -0.020 C 
ATOM     16  C   UNL     1      -5.262  34.962  16.246  1.00  0.00     0.032 C 
ATOM     17  C   UNL     1      -4.303  36.058  16.763  1.00  0.00     0.006 C 
ATOM     18  C   UNL     1      -2.021  36.603  17.536  1.00  0.00     0.008 C 
ATOM     19  C   UNL     1      -3.104  34.453  18.349  1.00  0.00     0.012 C 
ATOM     20  C   UNL     1      -4.975  37.064  17.838  1.00  0.00    -0.025 C 
ATOM     21  C   UNL     1      -2.466  37.399  18.754  1.00  0.00     0.005 C 
ATOM     22  C   UNL     1      -3.999  37.586  19.005  1.00  0.00     0.003 C 
ATOM     23  C   UNL     1      -5.549  38.286  17.039  1.00  0.00     0.010 C 
ATOM     24  C   UNL     1      -6.194  36.358  18.526  1.00  0.00     0.012 C 
ATOM     25  C   UNL     1      -4.305  39.069  19.523  1.00  0.00    -0.006 C 
ATOM     26  C   UNL     1      -4.552  39.444  16.951  1.00  0.00     0.033 C 
ATOM     27  C   UNL     1      -4.272  40.094  18.323  1.00  0.00     0.120 C 
ATOM     28  C   UNL     1      -5.695  39.159  20.223  1.00  0.00     0.014 C 
ATOM     29  C   UNL     1      -3.308  39.480  20.656  1.00  0.00     0.014 C 
ENDROOT
BRANCH   1  30
ATOM     30  C   UNL     1      -3.249  35.006  12.153  1.00  0.00     0.048 C 
ATOM     31  O   UNL     1      -4.467  34.695  12.051  1.00  0.00    -0.550 OA
ATOM     32  O   UNL     1      -2.848  36.269  11.722  1.00  0.00    -0.550 OA
ENDBRANCH   1  30
BRANCH  27  33
ATOM     33  O   UNL     1      -3.032  40.755  18.235  1.00  0.00    -0.393 OA
ATOM     34  H   UNL     1      -3.136  41.486  17.570  1.00  0.00     0.210 HD
ENDBRANCH  27  33
TORSDOF 2
ENDMDL
