MODEL 1
REMARK VINA RESULT:    -3.559      0.000      0.000
REMARK INTER + INTRA:          -5.689
REMARK INTER:                  -5.223
REMARK INTRA:                  -0.466
REMARK UNBOUND:                -0.466
REMARK SMILES O=C([O-])CCCCCCCC(=O)[O-]
REMARK SMILES IDX 7 1 6 2 5 3 4 4 2 5 1 6 3 7 8 8 9 9 10 10 11 11 12 12 13 13
REMARK H PARENT
REMARK Flexibility Score: inf
ROOT
ATOM      1  C   UNL     1       5.918  43.882   9.929  1.00  0.00     0.000 C 
ENDROOT
BRANCH   1   2
ATOM      2  C   UNL     1       4.941  44.884  10.560  1.00  0.00     0.000 C 
BRANCH   2   3
ATOM      3  C   UNL     1       3.567  44.816   9.875  1.00  0.00     0.006 C 
BRANCH   3   4
ATOM      4  C   UNL     1       2.987  43.396   9.877  1.00  0.00     0.053 C 
BRANCH   4   5
ATOM      5  C   UNL     1       1.882  43.248  10.878  1.00  0.00     0.041 C 
ATOM      6  O   UNL     1       2.007  43.729  12.035  1.00  0.00    -0.550 OA
ATOM      7  O   UNL     1       0.727  42.550  10.544  1.00  0.00    -0.550 OA
ENDBRANCH   4   5
ENDBRANCH   3   4
ENDBRANCH   2   3
ENDBRANCH   1   2
BRANCH   1   8
ATOM      8  C   UNL     1       7.394  44.236  10.188  1.00  0.00     0.000 C 
BRANCH   8   9
ATOM      9  C   UNL     1       7.986  43.647  11.481  1.00  0.00     0.006 C 
BRANCH   9  10
ATOM     10  C   UNL     1       7.310  42.336  11.905  1.00  0.00     0.053 C 
BRANCH  10  11
ATOM     11  C   UNL     1       6.755  42.459  13.289  1.00  0.00     0.041 C 
ATOM     12  O   UNL     1       5.850  43.299  13.538  1.00  0.00    -0.550 OA
ATOM     13  O   UNL     1       7.205  41.613  14.295  1.00  0.00    -0.550 OA
ENDBRANCH  10  11
ENDBRANCH   9  10
ENDBRANCH   8   9
ENDBRANCH   1   8
TORSDOF 8
ENDMDL
MODEL 2
REMARK VINA RESULT:    -3.494      1.484      2.025
REMARK INTER + INTRA:          -5.594
REMARK INTER:                  -5.135
REMARK INTRA:                  -0.459
REMARK UNBOUND:                -0.466
REMARK SMILES O=C([O-])CCCCCCCC(=O)[O-]
REMARK SMILES IDX 7 1 6 2 5 3 4 4 2 5 1 6 3 7 8 8 9 9 10 10 11 11 12 12 13 13
REMARK H PARENT
REMARK Flexibility Score: inf
ROOT
ATOM      1  C   UNL     1       4.392  44.284  11.929  1.00  0.00     0.000 C 
ENDROOT
BRANCH   1   2
ATOM      2  C   UNL     1       4.343  44.200  10.397  1.00  0.00     0.000 C 
BRANCH   2   3
ATOM      3  C   UNL     1       2.895  44.280   9.889  1.00  0.00     0.006 C 
BRANCH   3   4
ATOM      4  C   UNL     1       2.208  42.908   9.875  1.00  0.00     0.053 C 
BRANCH   4   5
ATOM      5  C   UNL     1       1.065  42.850  10.843  1.00  0.00     0.041 C 
ATOM      6  O   UNL     1       0.067  42.121  10.601  1.00  0.00    -0.550 OA
ATOM      7  O   UNL     1       1.088  43.625  11.996  1.00  0.00    -0.550 OA
ENDBRANCH   4   5
ENDBRANCH   3   4
ENDBRANCH   2   3
ENDBRANCH   1   2
BRANCH   1   8
ATOM      8  C   UNL     1       5.808  44.549  12.472  1.00  0.00     0.000 C 
BRANCH   8   9
ATOM      9  C   UNL     1       6.870  44.849  11.397  1.00  0.00     0.006 C 
BRANCH   9  10
ATOM     10  C   UNL     1       8.058  43.879  11.445  1.00  0.00     0.053 C 
BRANCH  10  11
ATOM     11  C   UNL     1       7.574  42.469  11.583  1.00  0.00     0.041 C 
ATOM     12  O   UNL     1       6.981  41.906  10.627  1.00  0.00    -0.550 OA
ATOM     13  O   UNL     1       7.823  41.762  12.752  1.00  0.00    -0.550 OA
ENDBRANCH  10  11
ENDBRANCH   9  10
ENDBRANCH   8   9
ENDBRANCH   1   8
TORSDOF 8
ENDMDL
MODEL 3
REMARK VINA RESULT:    -3.448      1.436      5.153
REMARK INTER + INTRA:          -5.526
REMARK INTER:                  -5.417
REMARK INTRA:                  -0.109
REMARK UNBOUND:                -0.466
REMARK SMILES O=C([O-])CCCCCCCC(=O)[O-]
REMARK SMILES IDX 7 1 6 2 5 3 4 4 2 5 1 6 3 7 8 8 9 9 10 10 11 11 12 12 13 13
REMARK H PARENT
REMARK Flexibility Score: inf
ROOT
ATOM      1  C   UNL     1       4.742  44.465  12.135  1.00  0.00     0.000 C 
ENDROOT
BRANCH   1   2
ATOM      2  C   UNL     1       6.149  45.078  12.089  1.00  0.00     0.000 C 
BRANCH   2   3
ATOM      3  C   UNL     1       6.923  44.583  10.857  1.00  0.00     0.006 C 
BRANCH   3   4
ATOM      4  C   UNL     1       8.097  43.671  11.237  1.00  0.00     0.053 C 
BRANCH   4   5
ATOM      5  C   UNL     1       7.634  42.298  11.619  1.00  0.00     0.041 C 
ATOM      6  O   UNL     1       7.618  41.949  12.828  1.00  0.00    -0.550 OA
ATOM      7  O   UNL     1       7.251  41.394  10.636  1.00  0.00    -0.550 OA
ENDBRANCH   4   5
ENDBRANCH   3   4
ENDBRANCH   2   3
ENDBRANCH   1   2
BRANCH   1   8
ATOM      8  C   UNL     1       3.765  45.125  11.145  1.00  0.00     0.000 C 
BRANCH   8   9
ATOM      9  C   UNL     1       3.407  44.269   9.917  1.00  0.00     0.006 C 
BRANCH   9  10
ATOM     10  C   UNL     1       2.868  42.882  10.292  1.00  0.00     0.053 C 
BRANCH  10  11
ATOM     11  C   UNL     1       1.510  43.001  10.910  1.00  0.00     0.041 C 
ATOM     12  O   UNL     1       1.356  43.634  11.987  1.00  0.00    -0.550 OA
ATOM     13  O   UNL     1       0.405  42.452  10.270  1.00  0.00    -0.550 OA
ENDBRANCH  10  11
ENDBRANCH   9  10
ENDBRANCH   8   9
ENDBRANCH   1   8
TORSDOF 8
ENDMDL
MODEL 4
REMARK VINA RESULT:    -2.210      1.334      4.503
REMARK INTER + INTRA:          -3.710
REMARK INTER:                  -3.620
REMARK INTRA:                  -0.090
REMARK UNBOUND:                -0.466
REMARK SMILES O=C([O-])CCCCCCCC(=O)[O-]
REMARK SMILES IDX 7 1 6 2 5 3 4 4 2 5 1 6 3 7 8 8 9 9 10 10 11 11 12 12 13 13
REMARK H PARENT
REMARK Flexibility Score: inf
ROOT
ATOM      1  C   UNL     1       7.915  43.824  10.268  1.00  0.00     0.000 C 
ENDROOT
BRANCH   1   2
ATOM      2  C   UNL     1       8.451  43.166  11.547  1.00  0.00     0.000 C 
BRANCH   2   3
ATOM      3  C   UNL     1       7.493  42.073  12.045  1.00  0.00     0.006 C 
BRANCH   3   4
ATOM      4  C   UNL     1       7.273  42.140  13.562  1.00  0.00     0.053 C 
BRANCH   4   5
ATOM      5  C   UNL     1       5.945  42.744  13.906  1.00  0.00     0.041 C 
ATOM      6  O   UNL     1       5.451  43.644  13.177  1.00  0.00    -0.550 OA
ATOM      7  O   UNL     1       5.269  42.334  15.049  1.00  0.00    -0.550 OA
ENDBRANCH   4   5
ENDBRANCH   3   4
ENDBRANCH   2   3
ENDBRANCH   1   2
BRANCH   1   8
ATOM      8  C   UNL     1       7.127  45.118  10.543  1.00  0.00     0.000 C 
BRANCH   8   9
ATOM      9  C   UNL     1       5.680  45.122  10.016  1.00  0.00     0.006 C 
BRANCH   9  10
ATOM     10  C   UNL     1       5.009  43.745  10.102  1.00  0.00     0.053 C 
BRANCH  10  11
ATOM     11  C   UNL     1       3.580  43.887  10.520  1.00  0.00     0.041 C 
ATOM     12  O   UNL     1       3.131  43.213  11.484  1.00  0.00    -0.550 OA
ATOM     13  O   UNL     1       2.755  44.799   9.875  1.00  0.00    -0.550 OA
ENDBRANCH  10  11
ENDBRANCH   9  10
ENDBRANCH   8   9
ENDBRANCH   1   8
TORSDOF 8
ENDMDL
MODEL 5
REMARK VINA RESULT:    -1.820      1.028      1.778
REMARK INTER + INTRA:          -3.138
REMARK INTER:                  -3.226
REMARK INTRA:                   0.089
REMARK UNBOUND:                -0.466
REMARK SMILES O=C([O-])CCCCCCCC(=O)[O-]
REMARK SMILES IDX 7 1 6 2 5 3 4 4 2 5 1 6 3 7 8 8 9 9 10 10 11 11 12 12 13 13
REMARK H PARENT
REMARK Flexibility Score: inf
ROOT
ATOM      1  C   UNL     1       7.604  44.938  10.146  1.00  0.00     0.000 C 
ENDROOT
BRANCH   1   2
ATOM      2  C   UNL     1       6.081  45.001   9.965  1.00  0.00     0.000 C 
BRANCH   2   3
ATOM      3  C   UNL     1       5.455  43.603  10.093  1.00  0.00     0.006 C 
BRANCH   3   4
ATOM      4  C   UNL     1       3.936  43.625   9.876  1.00  0.00     0.053 C 
BRANCH   4   5
ATOM      5  C   UNL     1       3.190  43.673  11.174  1.00  0.00     0.041 C 
ATOM      6  O   UNL     1       1.982  44.029  11.198  1.00  0.00    -0.550 OA
ATOM      7  O   UNL     1       3.838  43.355  12.362  1.00  0.00    -0.550 OA
ENDBRANCH   4   5
ENDBRANCH   3   4
ENDBRANCH   2   3
ENDBRANCH   1   2
BRANCH   1   8
ATOM      8  C   UNL     1       8.110  43.529  10.504  1.00  0.00     0.000 C 
BRANCH   8   9
ATOM      9  C   UNL     1       8.341  43.284  12.007  1.00  0.00     0.006 C 
BRANCH   9  10
ATOM     10  C   UNL     1       7.659  42.008  12.516  1.00  0.00     0.053 C 
BRANCH  10  11
ATOM     11  C   UNL     1       6.815  42.311  13.714  1.00  0.00     0.041 C 
ATOM     12  O   UNL     1       6.852  41.558  14.723  1.00  0.00    -0.550 OA
ATOM     13  O   UNL     1       6.023  43.451  13.735  1.00  0.00    -0.550 OA
ENDBRANCH  10  11
ENDBRANCH   9  10
ENDBRANCH   8   9
ENDBRANCH   1   8
TORSDOF 8
ENDMDL
MODEL 6
REMARK VINA RESULT:    -1.728      2.243      3.149
REMARK INTER + INTRA:          -3.001
REMARK INTER:                  -3.557
REMARK INTRA:                   0.556
REMARK UNBOUND:                -0.466
REMARK SMILES O=C([O-])CCCCCCCC(=O)[O-]
REMARK SMILES IDX 7 1 6 2 5 3 4 4 2 5 1 6 3 7 8 8 9 9 10 10 11 11 12 12 13 13
REMARK H PARENT
REMARK Flexibility Score: inf
ROOT
ATOM      1  C   UNL     1       6.371  42.657  13.616  1.00  0.00     0.000 C 
ENDROOT
BRANCH   1   2
ATOM      2  C   UNL     1       5.158  43.591  13.500  1.00  0.00     0.000 C 
BRANCH   2   3
ATOM      3  C   UNL     1       5.289  44.512  12.278  1.00  0.00     0.006 C 
BRANCH   3   4
ATOM      4  C   UNL     1       3.935  45.074  11.826  1.00  0.00     0.053 C 
BRANCH   4   5
ATOM      5  C   UNL     1       3.092  44.027  11.162  1.00  0.00     0.041 C 
ATOM      6  O   UNL     1       3.413  43.580  10.030  1.00  0.00    -0.550 OA
ATOM      7  O   UNL     1       1.935  43.570  11.780  1.00  0.00    -0.550 OA
ENDBRANCH   4   5
ENDBRANCH   3   4
ENDBRANCH   2   3
ENDBRANCH   1   2
BRANCH   1   8
ATOM      8  C   UNL     1       7.493  43.003  12.620  1.00  0.00     0.000 C 
BRANCH   8   9
ATOM      9  C   UNL     1       7.561  42.097  11.377  1.00  0.00     0.006 C 
BRANCH   9  10
ATOM     10  C   UNL     1       6.960  42.753  10.126  1.00  0.00     0.053 C 
BRANCH  10  11
ATOM     11  C   UNL     1       7.490  44.143   9.961  1.00  0.00     0.041 C 
ATOM     12  O   UNL     1       6.702  45.124   9.941  1.00  0.00    -0.550 OA
ATOM     13  O   UNL     1       8.860  44.358   9.877  1.00  0.00    -0.550 OA
ENDBRANCH  10  11
ENDBRANCH   9  10
ENDBRANCH   8   9
ENDBRANCH   1   8
TORSDOF 8
ENDMDL
MODEL 7
REMARK VINA RESULT:    -1.113      2.971      4.197
REMARK INTER + INTRA:          -2.100
REMARK INTER:                  -1.844
REMARK INTRA:                  -0.256
REMARK UNBOUND:                -0.466
REMARK SMILES O=C([O-])CCCCCCCC(=O)[O-]
REMARK SMILES IDX 7 1 6 2 5 3 4 4 2 5 1 6 3 7 8 8 9 9 10 10 11 11 12 12 13 13
REMARK H PARENT
REMARK Flexibility Score: inf
ROOT
ATOM      1  C   UNL     1       1.726  43.232  10.765  1.00  0.00     0.000 C 
ENDROOT
BRANCH   1   2
ATOM      2  C   UNL     1       1.523  43.861  12.151  1.00  0.00     0.000 C 
BRANCH   2   3
ATOM      3  C   UNL     1       0.101  43.598  12.670  1.00  0.00     0.006 C 
BRANCH   3   4
ATOM      4  C   UNL     1      -0.227  44.432  13.915  1.00  0.00     0.053 C 
BRANCH   4   5
ATOM      5  C   UNL     1      -1.617  44.169  14.410  1.00  0.00     0.041 C 
ATOM      6  O   UNL     1      -2.348  45.125  14.781  1.00  0.00    -0.550 OA
ATOM      7  O   UNL     1      -2.092  42.866  14.493  1.00  0.00    -0.550 OA
ENDBRANCH   4   5
ENDBRANCH   3   4
ENDBRANCH   2   3
ENDBRANCH   1   2
BRANCH   1   8
ATOM      8  C   UNL     1       2.779  43.971   9.918  1.00  0.00     0.000 C 
BRANCH   8   9
ATOM      9  C   UNL     1       3.937  44.593  10.719  1.00  0.00     0.006 C 
BRANCH   9  10
ATOM     10  C   UNL     1       5.228  43.768  10.642  1.00  0.00     0.053 C 
BRANCH  10  11
ATOM     11  C   UNL     1       6.096  44.046  11.829  1.00  0.00     0.041 C 
ATOM     12  O   UNL     1       7.271  44.470  11.670  1.00  0.00    -0.550 OA
ATOM     13  O   UNL     1       5.591  43.882  13.112  1.00  0.00    -0.550 OA
ENDBRANCH  10  11
ENDBRANCH   9  10
ENDBRANCH   8   9
ENDBRANCH   1   8
TORSDOF 8
ENDMDL
