MODEL 1
REMARK VINA RESULT:    -3.653      0.000      0.000
REMARK INTER + INTRA:          -4.233
REMARK INTER:                  -4.187
REMARK INTRA:                  -0.046
REMARK UNBOUND:                -0.046
REMARK SMILES CC(C)[C@H]([NH3+])C(=O)[O-]
REMARK SMILES IDX 4 1 5 2 6 6 7 7 8 8 2 9 1 10 3 11
REMARK H PARENT 5 3 5 4 5 5
REMARK Flexibility Score: inf
ROOT
ATOM      1  C   UNL     1      49.262  14.357  16.338  1.00  0.00     0.230 C 
ENDROOT
BRANCH   1   2
ATOM      2  N   UNL     1      48.091  13.521  16.027  1.00  0.00    -0.350 N 
ATOM      3  H   UNL     1      47.292  13.765  16.653  1.00  0.00     0.345 HD
ATOM      4  H   UNL     1      47.788  13.702  15.041  1.00  0.00     0.345 HD
ATOM      5  H   UNL     1      48.311  12.504  16.124  1.00  0.00     0.345 HD
ENDBRANCH   1   2
BRANCH   1   6
ATOM      6  C   UNL     1      50.254  14.332  15.201  1.00  0.00     0.099 C 
ATOM      7  O   UNL     1      50.568  13.235  14.667  1.00  0.00    -0.544 OA
ATOM      8  O   UNL     1      50.792  15.512  14.701  1.00  0.00    -0.544 OA
ENDBRANCH   1   6
BRANCH   1   9
ATOM      9  C   UNL     1      49.948  13.968  17.682  1.00  0.00     0.047 C 
ATOM     10  C   UNL     1      49.354  12.709  18.336  1.00  0.00     0.014 C 
ATOM     11  C   UNL     1      49.949  15.133  18.683  1.00  0.00     0.014 C 
ENDBRANCH   1   9
TORSDOF 3
ENDMDL
MODEL 2
REMARK VINA RESULT:    -3.557      1.810      2.104
REMARK INTER + INTRA:          -4.123
REMARK INTER:                  -4.063
REMARK INTRA:                  -0.060
REMARK UNBOUND:                -0.046
REMARK SMILES CC(C)[C@H]([NH3+])C(=O)[O-]
REMARK SMILES IDX 4 1 5 2 6 6 7 7 8 8 2 9 1 10 3 11
REMARK H PARENT 5 3 5 4 5 5
REMARK Flexibility Score: inf
ROOT
ATOM      1  C   UNL     1      49.827  14.883  17.492  1.00  0.00     0.230 C 
ENDROOT
BRANCH   1   2
ATOM      2  N   UNL     1      49.481  16.125  18.203  1.00  0.00    -0.350 N 
ATOM      3  H   UNL     1      50.286  16.449  18.783  1.00  0.00     0.345 HD
ATOM      4  H   UNL     1      49.271  16.876  17.505  1.00  0.00     0.345 HD
ATOM      5  H   UNL     1      48.642  15.996  18.812  1.00  0.00     0.345 HD
ENDBRANCH   1   2
BRANCH   1   6
ATOM      6  C   UNL     1      49.604  15.038  16.007  1.00  0.00     0.099 C 
ATOM      7  O   UNL     1      48.666  14.413  15.445  1.00  0.00    -0.544 OA
ATOM      8  O   UNL     1      50.393  15.901  15.257  1.00  0.00    -0.544 OA
ENDBRANCH   1   6
BRANCH   1   9
ATOM      9  C   UNL     1      49.069  13.636  18.040  1.00  0.00     0.047 C 
ATOM     10  C   UNL     1      48.409  13.869  19.409  1.00  0.00     0.014 C 
ATOM     11  C   UNL     1      49.972  12.395  18.092  1.00  0.00     0.014 C 
ENDBRANCH   1   9
TORSDOF 3
ENDMDL
MODEL 3
REMARK VINA RESULT:    -3.520      2.236      3.012
REMARK INTER + INTRA:          -4.081
REMARK INTER:                  -4.092
REMARK INTRA:                   0.011
REMARK UNBOUND:                -0.046
REMARK SMILES CC(C)[C@H]([NH3+])C(=O)[O-]
REMARK SMILES IDX 4 1 5 2 6 6 7 7 8 8 2 9 1 10 3 11
REMARK H PARENT 5 3 5 4 5 5
REMARK Flexibility Score: inf
ROOT
ATOM      1  C   UNL     1      48.930  13.756  18.288  1.00  0.00     0.230 C 
ENDROOT
BRANCH   1   2
ATOM      2  N   UNL     1      48.026  13.120  19.260  1.00  0.00    -0.350 N 
ATOM      3  H   UNL     1      47.928  13.718  20.111  1.00  0.00     0.345 HD
ATOM      4  H   UNL     1      47.075  13.019  18.834  1.00  0.00     0.345 HD
ATOM      5  H   UNL     1      48.367  12.173  19.538  1.00  0.00     0.345 HD
ENDBRANCH   1   2
BRANCH   1   6
ATOM      6  C   UNL     1      49.879  12.741  17.699  1.00  0.00     0.099 C 
ATOM      7  O   UNL     1      50.412  12.957  16.578  1.00  0.00    -0.544 OA
ATOM      8  O   UNL     1      50.210  11.587  18.400  1.00  0.00    -0.544 OA
ENDBRANCH   1   6
BRANCH   1   9
ATOM      9  C   UNL     1      49.711  14.966  18.883  1.00  0.00     0.047 C 
ATOM     10  C   UNL     1      49.038  15.587  20.119  1.00  0.00     0.014 C 
ATOM     11  C   UNL     1      49.980  16.049  17.827  1.00  0.00     0.014 C 
ENDBRANCH   1   9
TORSDOF 3
ENDMDL
MODEL 4
REMARK VINA RESULT:    -3.514     16.968     17.678
REMARK INTER + INTRA:          -4.074
REMARK INTER:                  -4.023
REMARK INTRA:                  -0.051
REMARK UNBOUND:                -0.046
REMARK SMILES CC(C)[C@H]([NH3+])C(=O)[O-]
REMARK SMILES IDX 4 1 5 2 6 6 7 7 8 8 2 9 1 10 3 11
REMARK H PARENT 5 3 5 4 5 5
REMARK Flexibility Score: inf
ROOT
ATOM      1  C   UNL     1      55.255  -1.769  18.615  1.00  0.00     0.230 C 
ENDROOT
BRANCH   1   2
ATOM      2  N   UNL     1      54.586  -0.462  18.722  1.00  0.00    -0.350 N 
ATOM      3  H   UNL     1      54.856   0.014  19.611  1.00  0.00     0.345 HD
ATOM      4  H   UNL     1      54.892   0.150  17.930  1.00  0.00     0.345 HD
ATOM      5  H   UNL     1      53.546  -0.559  18.682  1.00  0.00     0.345 HD
ENDBRANCH   1   2
BRANCH   1   6
ATOM      6  C   UNL     1      54.371  -2.866  19.156  1.00  0.00     0.099 C 
ATOM      7  O   UNL     1      53.763  -2.702  20.247  1.00  0.00    -0.544 OA
ATOM      8  O   UNL     1      54.181  -4.043  18.441  1.00  0.00    -0.544 OA
ENDBRANCH   1   6
BRANCH   1   9
ATOM      9  C   UNL     1      56.654  -1.794  19.299  1.00  0.00     0.047 C 
ATOM     10  C   UNL     1      57.458  -0.497  19.109  1.00  0.00     0.014 C 
ATOM     11  C   UNL     1      57.489  -3.004  18.852  1.00  0.00     0.014 C 
ENDBRANCH   1   9
TORSDOF 3
ENDMDL
MODEL 5
REMARK VINA RESULT:    -3.506      2.901      3.659
REMARK INTER + INTRA:          -4.065
REMARK INTER:                  -4.025
REMARK INTRA:                  -0.039
REMARK UNBOUND:                -0.046
REMARK SMILES CC(C)[C@H]([NH3+])C(=O)[O-]
REMARK SMILES IDX 4 1 5 2 6 6 7 7 8 8 2 9 1 10 3 11
REMARK H PARENT 5 3 5 4 5 5
REMARK Flexibility Score: inf
ROOT
ATOM      1  C   UNL     1      50.072  13.629  17.736  1.00  0.00     0.230 C 
ENDROOT
BRANCH   1   2
ATOM      2  N   UNL     1      50.415  12.261  18.157  1.00  0.00    -0.350 N 
ATOM      3  H   UNL     1      51.215  12.276  18.827  1.00  0.00     0.345 HD
ATOM      4  H   UNL     1      49.596  11.835  18.652  1.00  0.00     0.345 HD
ATOM      5  H   UNL     1      50.657  11.658  17.339  1.00  0.00     0.345 HD
ENDBRANCH   1   2
BRANCH   1   6
ATOM      6  C   UNL     1      49.340  14.358  18.836  1.00  0.00     0.099 C 
ATOM      7  O   UNL     1      49.685  15.529  19.150  1.00  0.00    -0.544 OA
ATOM      8  O   UNL     1      48.256  13.772  19.479  1.00  0.00    -0.544 OA
ENDBRANCH   1   6
BRANCH   1   9
ATOM      9  C   UNL     1      49.260  13.672  16.407  1.00  0.00     0.047 C 
ATOM     10  C   UNL     1      49.649  12.566  15.411  1.00  0.00     0.014 C 
ATOM     11  C   UNL     1      49.343  15.047  15.728  1.00  0.00     0.014 C 
ENDBRANCH   1   9
TORSDOF 3
ENDMDL
MODEL 6
REMARK VINA RESULT:    -3.484      2.146      3.225
REMARK INTER + INTRA:          -4.039
REMARK INTER:                  -3.990
REMARK INTRA:                  -0.049
REMARK UNBOUND:                -0.046
REMARK SMILES CC(C)[C@H]([NH3+])C(=O)[O-]
REMARK SMILES IDX 4 1 5 2 6 6 7 7 8 8 2 9 1 10 3 11
REMARK H PARENT 5 3 5 4 5 5
REMARK Flexibility Score: inf
ROOT
ATOM      1  C   UNL     1      49.548  13.587  16.312  1.00  0.00     0.230 C 
ENDROOT
BRANCH   1   2
ATOM      2  N   UNL     1      48.097  13.540  16.067  1.00  0.00    -0.350 N 
ATOM      3  H   UNL     1      47.865  14.009  15.164  1.00  0.00     0.345 HD
ATOM      4  H   UNL     1      47.791  12.541  15.993  1.00  0.00     0.345 HD
ATOM      5  H   UNL     1      47.563  13.993  16.843  1.00  0.00     0.345 HD
ENDBRANCH   1   2
BRANCH   1   6
ATOM      6  C   UNL     1      49.842  13.520  17.791  1.00  0.00     0.099 C 
ATOM      7  O   UNL     1      49.921  12.401  18.365  1.00  0.00    -0.544 OA
ATOM      8  O   UNL     1      50.076  14.678  18.522  1.00  0.00    -0.544 OA
ENDBRANCH   1   6
BRANCH   1   9
ATOM      9  C   UNL     1      50.235  14.828  15.665  1.00  0.00     0.047 C 
ATOM     10  C   UNL     1      49.254  15.956  15.304  1.00  0.00     0.014 C 
ATOM     11  C   UNL     1      51.073  14.443  14.437  1.00  0.00     0.014 C 
ENDBRANCH   1   9
TORSDOF 3
ENDMDL
MODEL 7
REMARK VINA RESULT:    -3.370      6.503      7.021
REMARK INTER + INTRA:          -3.909
REMARK INTER:                  -3.860
REMARK INTRA:                  -0.049
REMARK UNBOUND:                -0.046
REMARK SMILES CC(C)[C@H]([NH3+])C(=O)[O-]
REMARK SMILES IDX 4 1 5 2 6 6 7 7 8 8 2 9 1 10 3 11
REMARK H PARENT 5 3 5 4 5 5
REMARK Flexibility Score: inf
ROOT
ATOM      1  C   UNL     1      50.893   8.339  19.510  1.00  0.00     0.230 C 
ENDROOT
BRANCH   1   2
ATOM      2  N   UNL     1      50.892   9.729  19.027  1.00  0.00    -0.350 N 
ATOM      3  H   UNL     1      50.613   9.765  18.021  1.00  0.00     0.345 HD
ATOM      4  H   UNL     1      50.190  10.284  19.570  1.00  0.00     0.345 HD
ATOM      5  H   UNL     1      51.829  10.176  19.144  1.00  0.00     0.345 HD
ENDBRANCH   1   2
BRANCH   1   6
ATOM      6  C   UNL     1      51.259   7.388  18.397  1.00  0.00     0.099 C 
ATOM      7  O   UNL     1      52.067   6.447  18.616  1.00  0.00    -0.544 OA
ATOM      8  O   UNL     1      50.677   7.507  17.140  1.00  0.00    -0.544 OA
ENDBRANCH   1   6
BRANCH   1   9
ATOM      9  C   UNL     1      49.546   7.924  20.175  1.00  0.00     0.047 C 
ATOM     10  C   UNL     1      48.322   8.651  19.594  1.00  0.00     0.014 C 
ATOM     11  C   UNL     1      49.585   8.092  21.701  1.00  0.00     0.014 C 
ENDBRANCH   1   9
TORSDOF 3
ENDMDL
MODEL 8
REMARK VINA RESULT:    -3.247      1.791      2.172
REMARK INTER + INTRA:          -3.767
REMARK INTER:                  -3.702
REMARK INTRA:                  -0.065
REMARK UNBOUND:                -0.046
REMARK SMILES CC(C)[C@H]([NH3+])C(=O)[O-]
REMARK SMILES IDX 4 1 5 2 6 6 7 7 8 8 2 9 1 10 3 11
REMARK H PARENT 5 3 5 4 5 5
REMARK Flexibility Score: inf
ROOT
ATOM      1  C   UNL     1      49.370  13.204  17.584  1.00  0.00     0.230 C 
ENDROOT
BRANCH   1   2
ATOM      2  N   UNL     1      50.515  12.434  18.097  1.00  0.00    -0.350 N 
ATOM      3  H   UNL     1      50.708  12.687  19.091  1.00  0.00     0.345 HD
ATOM      4  H   UNL     1      50.287  11.413  18.069  1.00  0.00     0.345 HD
ATOM      5  H   UNL     1      51.373  12.598  17.524  1.00  0.00     0.345 HD
ENDBRANCH   1   2
BRANCH   1   6
ATOM      6  C   UNL     1      49.651  13.716  16.193  1.00  0.00     0.099 C 
ATOM      7  O   UNL     1      50.665  13.308  15.567  1.00  0.00    -0.544 OA
ATOM      8  O   UNL     1      48.777  14.600  15.571  1.00  0.00    -0.544 OA
ENDBRANCH   1   6
BRANCH   1   9
ATOM      9  C   UNL     1      48.946  14.368  18.530  1.00  0.00     0.047 C 
ATOM     10  C   UNL     1      50.117  15.261  18.972  1.00  0.00     0.014 C 
ATOM     11  C   UNL     1      48.177  13.857  19.758  1.00  0.00     0.014 C 
ENDBRANCH   1   9
TORSDOF 3
ENDMDL
MODEL 9
REMARK VINA RESULT:    -3.201     11.738     12.417
REMARK INTER + INTRA:          -3.715
REMARK INTER:                  -3.652
REMARK INTRA:                  -0.063
REMARK UNBOUND:                -0.046
REMARK SMILES CC(C)[C@H]([NH3+])C(=O)[O-]
REMARK SMILES IDX 4 1 5 2 6 6 7 7 8 8 2 9 1 10 3 11
REMARK H PARENT 5 3 5 4 5 5
REMARK Flexibility Score: inf
ROOT
ATOM      1  C   UNL     1      51.760   2.240  20.828  1.00  0.00     0.230 C 
ENDROOT
BRANCH   1   2
ATOM      2  N   UNL     1      52.328   2.306  22.184  1.00  0.00    -0.350 N 
ATOM      3  H   UNL     1      51.894   3.089  22.723  1.00  0.00     0.345 HD
ATOM      4  H   UNL     1      52.115   1.417  22.693  1.00  0.00     0.345 HD
ATOM      5  H   UNL     1      53.364   2.433  22.159  1.00  0.00     0.345 HD
ENDBRANCH   1   2
BRANCH   1   6
ATOM      6  C   UNL     1      52.699   2.865  19.825  1.00  0.00     0.099 C 
ATOM      7  O   UNL     1      52.238   3.385  18.774  1.00  0.00    -0.544 OA
ATOM      8  O   UNL     1      54.066   2.917  20.068  1.00  0.00    -0.544 OA
ENDBRANCH   1   6
BRANCH   1   9
ATOM      9  C   UNL     1      50.340   2.875  20.730  1.00  0.00     0.047 C 
ATOM     10  C   UNL     1      50.045   3.900  21.838  1.00  0.00     0.014 C 
ATOM     11  C   UNL     1      49.236   1.807  20.690  1.00  0.00     0.014 C 
ENDBRANCH   1   9
TORSDOF 3
ENDMDL
