MODEL 1
REMARK VINA RESULT:     8.767      0.000      0.000
REMARK INTER + INTRA:           9.535
REMARK INTER:                   9.535
REMARK INTRA:                   0.000
REMARK UNBOUND:                 0.000
REMARK SMILES Cc1cc(O)c2c(c1)C(=O)c1cc(O)cc(O)c1C2=O
REMARK SMILES IDX 1 1 2 2 8 3 7 4 6 5 4 6 3 7 19 8 20 9 18 10 11 11 9 12 10 13
REMARK SMILES IDX 12 14 13 15 15 16 16 17 5 18 17 20 14 22
REMARK H PARENT 5 19 17 21 14 23
REMARK Flexibility Score: inf
ROOT
ATOM      1  C   UNL     1    -119.125 -96.008  29.117  1.00  0.00     0.044 C 
ATOM      2  C   UNL     1    -118.627 -96.723  30.338  1.00  0.00    -0.047 A 
ATOM      3  C   UNL     1    -117.663 -96.128  31.158  1.00  0.00     0.016 A 
ATOM      4  C   UNL     1    -117.170 -96.798  32.291  1.00  0.00     0.038 A 
ATOM      5  C   UNL     1    -117.651 -98.089  32.610  1.00  0.00     0.076 A 
ATOM      6  C   UNL     1    -118.556 -98.726  31.717  1.00  0.00     0.127 A 
ATOM      7  C   UNL     1    -119.050 -98.027  30.612  1.00  0.00     0.050 A 
ATOM      8  C   UNL     1    -117.228 -98.704  33.899  1.00  0.00     0.201 C 
ATOM      9  O   UNL     1    -117.918 -99.621  34.420  1.00  0.00    -0.288 OA
ATOM     10  C   UNL     1    -116.057 -98.162  34.637  1.00  0.00     0.076 A 
ATOM     11  C   UNL     1    -115.538 -96.901  34.270  1.00  0.00     0.041 A 
ATOM     12  C   UNL     1    -116.139 -96.156  33.141  1.00  0.00     0.194 C 
ATOM     13  O   UNL     1    -115.760 -94.979  32.892  1.00  0.00    -0.289 OA
ATOM     14  C   UNL     1    -114.453 -96.359  34.982  1.00  0.00     0.059 A 
ATOM     15  C   UNL     1    -113.880 -97.061  36.047  1.00  0.00     0.120 A 
ATOM     16  C   UNL     1    -114.386 -98.310  36.405  1.00  0.00     0.093 A 
ATOM     17  C   UNL     1    -115.467 -98.868  35.710  1.00  0.00     0.131 A 
ENDROOT
BRANCH   6  18
ATOM     18  O   UNL     1    -118.958-100.055  31.863  1.00  0.00    -0.507 OA
ATOM     19  H   UNL     1    -118.612-100.671  32.585  1.00  0.00     0.293 HD
ENDBRANCH   6  18
BRANCH  17  20
ATOM     20  O   UNL     1    -115.943-100.125  36.084  1.00  0.00    -0.507 OA
ATOM     21  H   UNL     1    -116.591-100.244  36.855  1.00  0.00     0.293 HD
ENDBRANCH  17  20
BRANCH  15  22
ATOM     22  O   UNL     1    -112.805 -96.526  36.753  1.00  0.00    -0.508 OA
ATOM     23  H   UNL     1    -112.872 -95.631  37.222  1.00  0.00     0.293 HD
ENDBRANCH  15  22
TORSDOF 3
ENDMDL
MODEL 2
REMARK VINA RESULT:    10.056      1.244      5.496
REMARK INTER + INTRA:          10.938
REMARK INTER:                  10.938
REMARK INTRA:                   0.000
REMARK UNBOUND:                 0.000
REMARK SMILES Cc1cc(O)c2c(c1)C(=O)c1cc(O)cc(O)c1C2=O
REMARK SMILES IDX 1 1 2 2 8 3 7 4 6 5 4 6 3 7 19 8 20 9 18 10 11 11 9 12 10 13
REMARK SMILES IDX 12 14 13 15 15 16 16 17 5 18 17 20 14 22
REMARK H PARENT 5 19 17 21 14 23
REMARK Flexibility Score: inf
ROOT
ATOM      1  C   UNL     1    -112.467 -95.991  36.648  1.00  0.00     0.044 C 
ATOM      2  C   UNL     1    -113.586 -96.746  35.993  1.00  0.00    -0.047 A 
ATOM      3  C   UNL     1    -114.073 -96.342  34.746  1.00  0.00     0.016 A 
ATOM      4  C   UNL     1    -115.137 -97.027  34.134  1.00  0.00     0.038 A 
ATOM      5  C   UNL     1    -115.725 -98.137  34.783  1.00  0.00     0.076 A 
ATOM      6  C   UNL     1    -115.291 -98.478  36.093  1.00  0.00     0.127 A 
ATOM      7  C   UNL     1    -114.213 -97.798  36.667  1.00  0.00     0.050 A 
ATOM      8  C   UNL     1    -116.741 -98.934  34.040  1.00  0.00     0.201 C 
ATOM      9  O   UNL     1    -116.982-100.125  34.377  1.00  0.00    -0.288 OA
ATOM     10  C   UNL     1    -117.391 -98.373  32.826  1.00  0.00     0.076 A 
ATOM     11  C   UNL     1    -116.838 -97.224  32.221  1.00  0.00     0.041 A 
ATOM     12  C   UNL     1    -115.648 -96.576  32.818  1.00  0.00     0.194 C 
ATOM     13  O   UNL     1    -115.079 -95.627  32.211  1.00  0.00    -0.289 OA
ATOM     14  C   UNL     1    -117.420 -96.702  31.052  1.00  0.00     0.059 A 
ATOM     15  C   UNL     1    -118.546 -97.309  30.487  1.00  0.00     0.120 A 
ATOM     16  C   UNL     1    -119.099 -98.439  31.088  1.00  0.00     0.093 A 
ATOM     17  C   UNL     1    -118.534 -98.976  32.253  1.00  0.00     0.131 A 
ENDROOT
BRANCH   6  18
ATOM     18  O   UNL     1    -115.919 -99.451  36.872  1.00  0.00    -0.507 OA
ATOM     19  H   UNL     1    -116.435-100.231  36.490  1.00  0.00     0.293 HD
ENDBRANCH   6  18
BRANCH  17  20
ATOM     20  O   UNL     1    -119.116-100.100  32.839  1.00  0.00    -0.507 OA
ATOM     21  H   UNL     1    -118.911-100.371  33.794  1.00  0.00     0.293 HD
ENDBRANCH  17  20
BRANCH  15  22
ATOM     22  O   UNL     1    -119.125 -96.793  29.330  1.00  0.00    -0.508 OA
ATOM     23  H   UNL     1    -119.167 -97.332  28.473  1.00  0.00     0.293 HD
ENDBRANCH  15  22
TORSDOF 3
ENDMDL
