MODEL 1
REMARK VINA RESULT:    -5.829      0.000      0.000
REMARK INTER + INTRA:          -7.578
REMARK INTER:                  -7.192
REMARK INTRA:                  -0.386
REMARK UNBOUND:                -0.386
REMARK SMILES COc1cc(-c2oc3cc(O)cc(O)c3c(=O)c2O)ccc1O
REMARK SMILES IDX 6 1 18 2 16 3 17 4 15 5 13 6 12 7 10 8 9 9 8 10 7 11 5 12
REMARK SMILES IDX 3 13 22 14 4 15 21 16 20 17 2 18 1 19 23 20 19 22 14 24
REMARK SMILES IDX 11 26
REMARK H PARENT 23 21 19 23 14 25 11 27
REMARK Flexibility Score: inf
ROOT
ATOM      1  C   UNL     1      66.537  51.970  48.073  1.00  0.00     0.180 A 
ATOM      2  C   UNL     1      66.416  52.142  49.462  1.00  0.00     0.208 A 
ATOM      3  C   UNL     1      65.229  52.683  49.981  1.00  0.00     0.238 A 
ATOM      4  O   UNL     1      65.105  52.784  51.229  1.00  0.00    -0.285 OA
ATOM      5  C   UNL     1      64.184  53.059  49.103  1.00  0.00     0.111 A 
ATOM      6  C   UNL     1      62.953  53.653  49.515  1.00  0.00     0.134 A 
ATOM      7  C   UNL     1      61.938  53.863  48.573  1.00  0.00     0.093 A 
ATOM      8  C   UNL     1      62.135  53.563  47.223  1.00  0.00     0.123 A 
ATOM      9  C   UNL     1      63.353  53.038  46.802  1.00  0.00     0.094 A 
ATOM     10  C   UNL     1      64.372  52.782  47.723  1.00  0.00     0.146 A 
ATOM     11  O   UNL     1      65.515  52.272  47.280  1.00  0.00    -0.452 OA
ENDROOT
BRANCH   1  12
ATOM     12  C   UNL     1      67.768  51.430  47.449  1.00  0.00     0.025 A 
ATOM     13  C   UNL     1      70.020  51.808  46.575  1.00  0.00     0.161 A 
ATOM     14  C   UNL     1      70.145  50.436  46.320  1.00  0.00     0.157 A 
ATOM     15  C   UNL     1      68.829  52.299  47.147  1.00  0.00     0.062 A 
ATOM     16  C   UNL     1      69.096  49.564  46.640  1.00  0.00     0.051 A 
ATOM     17  C   UNL     1      67.918  50.055  47.206  1.00  0.00     0.016 A 
BRANCH  13  18
ATOM     18  O   UNL     1      71.095  52.650  46.249  1.00  0.00    -0.493 OA
ATOM     19  C   UNL     1      71.462  53.813  46.984  1.00  0.00     0.278 C 
ENDBRANCH  13  18
BRANCH  14  20
ATOM     20  O   UNL     1      71.319  49.945  45.754  1.00  0.00    -0.504 OA
ATOM     21  H   UNL     1      72.052  50.566  45.430  1.00  0.00     0.293 HD
ENDBRANCH  14  20
ENDBRANCH   1  12
BRANCH   2  22
ATOM     22  O   UNL     1      67.452  51.745  50.313  1.00  0.00    -0.502 OA
ATOM     23  H   UNL     1      67.696  50.772  50.455  1.00  0.00     0.293 HD
ENDBRANCH   2  22
BRANCH   6  24
ATOM     24  O   UNL     1      62.690  54.076  50.821  1.00  0.00    -0.507 OA
ATOM     25  H   UNL     1      61.942  54.700  51.084  1.00  0.00     0.293 HD
ENDBRANCH   6  24
BRANCH   8  26
ATOM     26  O   UNL     1      61.125  53.790  46.290  1.00  0.00    -0.508 OA
ATOM     27  H   UNL     1      60.827  54.728  46.049  1.00  0.00     0.293 HD
ENDBRANCH   8  26
TORSDOF 6
ENDMDL
MODEL 2
REMARK VINA RESULT:    -5.801     12.212     13.820
REMARK INTER + INTRA:          -7.543
REMARK INTER:                  -7.151
REMARK INTRA:                  -0.393
REMARK UNBOUND:                -0.386
REMARK SMILES COc1cc(-c2oc3cc(O)cc(O)c3c(=O)c2O)ccc1O
REMARK SMILES IDX 6 1 18 2 16 3 17 4 15 5 13 6 12 7 10 8 9 9 8 10 7 11 5 12
REMARK SMILES IDX 3 13 22 14 4 15 21 16 20 17 2 18 1 19 23 20 19 22 14 24
REMARK SMILES IDX 11 26
REMARK H PARENT 23 21 19 23 14 25 11 27
REMARK Flexibility Score: inf
ROOT
ATOM      1  C   UNL     1      65.810  39.124  48.825  1.00  0.00     0.180 A 
ATOM      2  C   UNL     1      66.021  40.416  48.316  1.00  0.00     0.208 A 
ATOM      3  C   UNL     1      64.934  41.121  47.776  1.00  0.00     0.238 A 
ATOM      4  O   UNL     1      65.117  42.299  47.373  1.00  0.00    -0.285 OA
ATOM      5  C   UNL     1      63.652  40.520  47.738  1.00  0.00     0.111 A 
ATOM      6  C   UNL     1      62.488  41.126  47.178  1.00  0.00     0.134 A 
ATOM      7  C   UNL     1      61.247  40.492  47.312  1.00  0.00     0.093 A 
ATOM      8  C   UNL     1      61.139  39.243  47.928  1.00  0.00     0.123 A 
ATOM      9  C   UNL     1      62.278  38.616  48.424  1.00  0.00     0.094 A 
ATOM     10  C   UNL     1      63.525  39.240  48.339  1.00  0.00     0.146 A 
ATOM     11  O   UNL     1      64.584  38.611  48.834  1.00  0.00    -0.452 OA
ENDROOT
BRANCH   1  12
ATOM     12  C   UNL     1      66.912  38.308  49.387  1.00  0.00     0.025 A 
ATOM     13  C   UNL     1      68.814  36.815  49.028  1.00  0.00     0.161 A 
ATOM     14  C   UNL     1      69.051  36.795  50.409  1.00  0.00     0.157 A 
ATOM     15  C   UNL     1      67.745  37.581  48.522  1.00  0.00     0.062 A 
ATOM     16  C   UNL     1      68.235  37.536  51.273  1.00  0.00     0.051 A 
ATOM     17  C   UNL     1      67.176  38.292  50.767  1.00  0.00     0.016 A 
BRANCH  13  18
ATOM     18  O   UNL     1      69.659  36.066  48.193  1.00  0.00    -0.493 OA
ATOM     19  C   UNL     1      69.281  34.862  47.535  1.00  0.00     0.278 C 
ENDBRANCH  13  18
BRANCH  14  20
ATOM     20  O   UNL     1      70.106  36.039  50.916  1.00  0.00    -0.504 OA
ATOM     21  H   UNL     1      71.071  36.258  50.693  1.00  0.00     0.293 HD
ENDBRANCH  14  20
ENDBRANCH   1  12
BRANCH   2  22
ATOM     22  O   UNL     1      67.289  41.000  48.384  1.00  0.00    -0.502 OA
ATOM     23  H   UNL     1      67.954  40.774  49.113  1.00  0.00     0.293 HD
ENDBRANCH   2  22
BRANCH   6  24
ATOM     24  O   UNL     1      62.502  42.327  46.462  1.00  0.00    -0.507 OA
ATOM     25  H   UNL     1      62.164  42.438  45.519  1.00  0.00     0.293 HD
ENDBRANCH   6  24
BRANCH   8  26
ATOM     26  O   UNL     1      59.901  38.612  48.043  1.00  0.00    -0.508 OA
ATOM     27  H   UNL     1      59.223  38.635  47.291  1.00  0.00     0.293 HD
ENDBRANCH   8  26
TORSDOF 6
ENDMDL
MODEL 3
REMARK VINA RESULT:    -5.682     13.059     14.480
REMARK INTER + INTRA:          -7.397
REMARK INTER:                  -6.998
REMARK INTRA:                  -0.399
REMARK UNBOUND:                -0.386
REMARK SMILES COc1cc(-c2oc3cc(O)cc(O)c3c(=O)c2O)ccc1O
REMARK SMILES IDX 6 1 18 2 16 3 17 4 15 5 13 6 12 7 10 8 9 9 8 10 7 11 5 12
REMARK SMILES IDX 3 13 22 14 4 15 21 16 20 17 2 18 1 19 23 20 19 22 14 24
REMARK SMILES IDX 11 26
REMARK H PARENT 23 21 19 23 14 25 11 27
REMARK Flexibility Score: inf
ROOT
ATOM      1  C   UNL     1      64.876  38.059  49.340  1.00  0.00     0.180 A 
ATOM      2  C   UNL     1      63.828  37.125  49.383  1.00  0.00     0.208 A 
ATOM      3  C   UNL     1      62.567  37.492  48.887  1.00  0.00     0.238 A 
ATOM      4  O   UNL     1      61.647  36.634  48.879  1.00  0.00    -0.285 OA
ATOM      5  C   UNL     1      62.366  38.794  48.368  1.00  0.00     0.111 A 
ATOM      6  C   UNL     1      61.120  39.288  47.876  1.00  0.00     0.134 A 
ATOM      7  C   UNL     1      61.070  40.547  47.266  1.00  0.00     0.093 A 
ATOM      8  C   UNL     1      62.205  41.357  47.190  1.00  0.00     0.123 A 
ATOM      9  C   UNL     1      63.411  40.909  47.721  1.00  0.00     0.094 A 
ATOM     10  C   UNL     1      63.503  39.642  48.303  1.00  0.00     0.146 A 
ATOM     11  O   UNL     1      64.675  39.250  48.788  1.00  0.00    -0.452 OA
ENDROOT
BRANCH   1  12
ATOM     12  C   UNL     1      66.227  37.753  49.867  1.00  0.00     0.025 A 
ATOM     13  C   UNL     1      68.546  37.099  49.450  1.00  0.00     0.161 A 
ATOM     14  C   UNL     1      68.821  37.223  50.818  1.00  0.00     0.157 A 
ATOM     15  C   UNL     1      67.246  37.373  48.978  1.00  0.00     0.062 A 
ATOM     16  C   UNL     1      67.812  37.623  51.704  1.00  0.00     0.051 A 
ATOM     17  C   UNL     1      66.525  37.893  51.232  1.00  0.00     0.016 A 
BRANCH  13  18
ATOM     18  O   UNL     1      69.584  36.704  48.591  1.00  0.00    -0.493 OA
ATOM     19  C   UNL     1      69.592  35.497  47.837  1.00  0.00     0.278 C 
ENDBRANCH  13  18
BRANCH  14  20
ATOM     20  O   UNL     1      70.103  36.953  51.290  1.00  0.00    -0.504 OA
ATOM     21  H   UNL     1      70.745  37.697  51.538  1.00  0.00     0.293 HD
ENDBRANCH  14  20
ENDBRANCH   1  12
BRANCH   2  22
ATOM     22  O   UNL     1      64.053  35.838  49.880  1.00  0.00    -0.502 OA
ATOM     23  H   UNL     1      63.406  35.074  49.726  1.00  0.00     0.293 HD
ENDBRANCH   2  22
BRANCH   6  24
ATOM     24  O   UNL     1      59.910  38.597  47.985  1.00  0.00    -0.507 OA
ATOM     25  H   UNL     1      59.763  37.782  48.560  1.00  0.00     0.293 HD
ENDBRANCH   6  24
BRANCH   8  26
ATOM     26  O   UNL     1      62.141  42.616  46.595  1.00  0.00    -0.508 OA
ATOM     27  H   UNL     1      62.942  43.236  46.578  1.00  0.00     0.293 HD
ENDBRANCH   8  26
TORSDOF 6
ENDMDL
MODEL 4
REMARK VINA RESULT:    -5.672     11.745     14.030
REMARK INTER + INTRA:          -7.384
REMARK INTER:                  -7.004
REMARK INTRA:                  -0.380
REMARK UNBOUND:                -0.386
REMARK SMILES COc1cc(-c2oc3cc(O)cc(O)c3c(=O)c2O)ccc1O
REMARK SMILES IDX 6 1 18 2 16 3 17 4 15 5 13 6 12 7 10 8 9 9 8 10 7 11 5 12
REMARK SMILES IDX 3 13 22 14 4 15 21 16 20 17 2 18 1 19 23 20 19 22 14 24
REMARK SMILES IDX 11 26
REMARK H PARENT 23 21 19 23 14 25 11 27
REMARK Flexibility Score: inf
ROOT
ATOM      1  C   UNL     1      66.653  39.111  43.271  1.00  0.00     0.180 A 
ATOM      2  C   UNL     1      65.573  38.223  43.403  1.00  0.00     0.208 A 
ATOM      3  C   UNL     1      64.737  38.329  44.527  1.00  0.00     0.238 A 
ATOM      4  O   UNL     1      63.740  37.568  44.613  1.00  0.00    -0.285 OA
ATOM      5  C   UNL     1      65.002  39.312  45.511  1.00  0.00     0.111 A 
ATOM      6  C   UNL     1      64.246  39.484  46.710  1.00  0.00     0.134 A 
ATOM      7  C   UNL     1      64.519  40.572  47.548  1.00  0.00     0.093 A 
ATOM      8  C   UNL     1      65.563  41.456  47.265  1.00  0.00     0.123 A 
ATOM      9  C   UNL     1      66.345  41.262  46.130  1.00  0.00     0.094 A 
ATOM     10  C   UNL     1      66.074  40.207  45.254  1.00  0.00     0.146 A 
ATOM     11  O   UNL     1      66.838  40.064  44.178  1.00  0.00    -0.452 OA
ENDROOT
BRANCH   1  12
ATOM     12  C   UNL     1      67.592  39.045  42.126  1.00  0.00     0.025 A 
ATOM     13  C   UNL     1      68.190  39.733  39.858  1.00  0.00     0.161 A 
ATOM     14  C   UNL     1      69.378  38.995  39.954  1.00  0.00     0.157 A 
ATOM     15  C   UNL     1      67.303  39.759  40.953  1.00  0.00     0.062 A 
ATOM     16  C   UNL     1      69.679  38.299  41.131  1.00  0.00     0.051 A 
ATOM     17  C   UNL     1      68.797  38.327  42.213  1.00  0.00     0.016 A 
BRANCH  13  18
ATOM     18  O   UNL     1      67.926  40.424  38.665  1.00  0.00    -0.493 OA
ATOM     19  C   UNL     1      68.301  41.774  38.414  1.00  0.00     0.278 C 
ENDBRANCH  13  18
BRANCH  14  20
ATOM     20  O   UNL     1      70.258  38.964  38.874  1.00  0.00    -0.504 OA
ATOM     21  H   UNL     1      70.019  38.494  38.009  1.00  0.00     0.293 HD
ENDBRANCH  14  20
ENDBRANCH   1  12
BRANCH   2  22
ATOM     22  O   UNL     1      65.316  37.275  42.409  1.00  0.00    -0.502 OA
ATOM     23  H   UNL     1      65.359  37.495  41.422  1.00  0.00     0.293 HD
ENDBRANCH   2  22
BRANCH   6  24
ATOM     24  O   UNL     1      63.244  38.606  47.132  1.00  0.00    -0.507 OA
ATOM     25  H   UNL     1      62.395  38.885  47.599  1.00  0.00     0.293 HD
ENDBRANCH   6  24
BRANCH   8  26
ATOM     26  O   UNL     1      65.837  42.527  48.114  1.00  0.00    -0.508 OA
ATOM     27  H   UNL     1      66.097  43.437  47.752  1.00  0.00     0.293 HD
ENDBRANCH   8  26
TORSDOF 6
ENDMDL
MODEL 5
REMARK VINA RESULT:    -5.409     11.776     14.105
REMARK INTER + INTRA:          -7.059
REMARK INTER:                  -6.702
REMARK INTRA:                  -0.357
REMARK UNBOUND:                -0.386
REMARK SMILES COc1cc(-c2oc3cc(O)cc(O)c3c(=O)c2O)ccc1O
REMARK SMILES IDX 6 1 18 2 16 3 17 4 15 5 13 6 12 7 10 8 9 9 8 10 7 11 5 12
REMARK SMILES IDX 3 13 22 14 4 15 21 16 20 17 2 18 1 19 23 20 19 22 14 24
REMARK SMILES IDX 11 26
REMARK H PARENT 23 21 19 23 14 25 11 27
REMARK Flexibility Score: inf
ROOT
ATOM      1  C   UNL     1      66.535  39.304  43.116  1.00  0.00     0.180 A 
ATOM      2  C   UNL     1      65.532  38.334  43.276  1.00  0.00     0.208 A 
ATOM      3  C   UNL     1      64.780  38.320  44.462  1.00  0.00     0.238 A 
ATOM      4  O   UNL     1      63.847  37.484  44.577  1.00  0.00    -0.285 OA
ATOM      5  C   UNL     1      65.052  39.267  45.479  1.00  0.00     0.111 A 
ATOM      6  C   UNL     1      64.381  39.321  46.738  1.00  0.00     0.134 A 
ATOM      7  C   UNL     1      64.642  40.381  47.615  1.00  0.00     0.093 A 
ATOM      8  C   UNL     1      65.598  41.351  47.307  1.00  0.00     0.123 A 
ATOM      9  C   UNL     1      66.301  41.275  46.109  1.00  0.00     0.094 A 
ATOM     10  C   UNL     1      66.037  40.250  45.196  1.00  0.00     0.146 A 
ATOM     11  O   UNL     1      66.723  40.219  44.060  1.00  0.00    -0.452 OA
ENDROOT
BRANCH   1  12
ATOM     12  C   UNL     1      67.385  39.366  41.904  1.00  0.00     0.025 A 
ATOM     13  C   UNL     1      69.487  38.817  40.783  1.00  0.00     0.161 A 
ATOM     14  C   UNL     1      69.008  39.410  39.607  1.00  0.00     0.157 A 
ATOM     15  C   UNL     1      68.667  38.792  41.929  1.00  0.00     0.062 A 
ATOM     16  C   UNL     1      67.722  39.964  39.574  1.00  0.00     0.051 A 
ATOM     17  C   UNL     1      66.913  39.938  40.711  1.00  0.00     0.016 A 
BRANCH  13  18
ATOM     18  O   UNL     1      70.778  38.265  40.776  1.00  0.00    -0.493 OA
ATOM     19  C   UNL     1      71.752  38.477  41.793  1.00  0.00     0.278 C 
ENDBRANCH  13  18
BRANCH  14  20
ATOM     20  O   UNL     1      69.816  39.438  38.472  1.00  0.00    -0.504 OA
ATOM     21  H   UNL     1      70.617  38.826  38.376  1.00  0.00     0.293 HD
ENDBRANCH  14  20
ENDBRANCH   1  12
BRANCH   2  22
ATOM     22  O   UNL     1      65.265  37.422  42.251  1.00  0.00    -0.502 OA
ATOM     23  H   UNL     1      64.388  37.414  41.745  1.00  0.00     0.293 HD
ENDBRANCH   2  22
BRANCH   6  24
ATOM     24  O   UNL     1      63.477  38.351  47.181  1.00  0.00    -0.507 OA
ATOM     25  H   UNL     1      63.497  37.920  48.093  1.00  0.00     0.293 HD
ENDBRANCH   6  24
BRANCH   8  26
ATOM     26  O   UNL     1      65.862  42.394  48.194  1.00  0.00    -0.508 OA
ATOM     27  H   UNL     1      66.565  43.095  47.993  1.00  0.00     0.293 HD
ENDBRANCH   8  26
TORSDOF 6
ENDMDL
MODEL 6
REMARK VINA RESULT:    -5.376     12.105     13.722
REMARK INTER + INTRA:          -7.019
REMARK INTER:                  -6.660
REMARK INTRA:                  -0.359
REMARK UNBOUND:                -0.386
REMARK SMILES COc1cc(-c2oc3cc(O)cc(O)c3c(=O)c2O)ccc1O
REMARK SMILES IDX 6 1 18 2 16 3 17 4 15 5 13 6 12 7 10 8 9 9 8 10 7 11 5 12
REMARK SMILES IDX 3 13 22 14 4 15 21 16 20 17 2 18 1 19 23 20 19 22 14 24
REMARK SMILES IDX 11 26
REMARK H PARENT 23 21 19 23 14 25 11 27
REMARK Flexibility Score: inf
ROOT
ATOM      1  C   UNL     1      65.848  39.079  47.816  1.00  0.00     0.180 A 
ATOM      2  C   UNL     1      65.946  40.428  47.437  1.00  0.00     0.208 A 
ATOM      3  C   UNL     1      64.770  41.174  47.261  1.00  0.00     0.238 A 
ATOM      4  O   UNL     1      64.864  42.395  46.976  1.00  0.00    -0.285 OA
ATOM      5  C   UNL     1      63.510  40.556  47.451  1.00  0.00     0.111 A 
ATOM      6  C   UNL     1      62.252  41.205  47.261  1.00  0.00     0.134 A 
ATOM      7  C   UNL     1      61.071  40.535  47.603  1.00  0.00     0.093 A 
ATOM      8  C   UNL     1      61.099  39.217  48.066  1.00  0.00     0.123 A 
ATOM      9  C   UNL     1      62.316  38.555  48.198  1.00  0.00     0.094 A 
ATOM     10  C   UNL     1      63.515  39.209  47.900  1.00  0.00     0.146 A 
ATOM     11  O   UNL     1      64.654  38.545  48.049  1.00  0.00    -0.452 OA
ENDROOT
BRANCH   1  12
ATOM     12  C   UNL     1      67.043  38.222  47.996  1.00  0.00     0.025 A 
ATOM     13  C   UNL     1      68.721  37.244  49.481  1.00  0.00     0.161 A 
ATOM     14  C   UNL     1      69.275  36.556  48.393  1.00  0.00     0.157 A 
ATOM     15  C   UNL     1      67.599  38.072  49.277  1.00  0.00     0.062 A 
ATOM     16  C   UNL     1      68.710  36.688  47.118  1.00  0.00     0.051 A 
ATOM     17  C   UNL     1      67.598  37.509  46.920  1.00  0.00     0.016 A 
BRANCH  13  18
ATOM     18  O   UNL     1      69.310  37.081  50.746  1.00  0.00    -0.493 OA
ATOM     19  C   UNL     1      69.000  36.027  51.651  1.00  0.00     0.278 C 
ENDBRANCH  13  18
BRANCH  14  20
ATOM     20  O   UNL     1      70.386  35.738  48.588  1.00  0.00    -0.504 OA
ATOM     21  H   UNL     1      70.342  34.738  48.428  1.00  0.00     0.293 HD
ENDBRANCH  14  20
ENDBRANCH   1  12
BRANCH   2  22
ATOM     22  O   UNL     1      67.200  41.024  47.276  1.00  0.00    -0.502 OA
ATOM     23  H   UNL     1      67.804  41.241  48.060  1.00  0.00     0.293 HD
ENDBRANCH   2  22
BRANCH   6  24
ATOM     24  O   UNL     1      62.109  42.485  46.718  1.00  0.00    -0.507 OA
ATOM     25  H   UNL     1      61.257  42.847  46.318  1.00  0.00     0.293 HD
ENDBRANCH   6  24
BRANCH   8  26
ATOM     26  O   UNL     1      59.917  38.553  48.390  1.00  0.00    -0.508 OA
ATOM     27  H   UNL     1      59.566  37.788  47.824  1.00  0.00     0.293 HD
ENDBRANCH   8  26
TORSDOF 6
ENDMDL
MODEL 7
REMARK VINA RESULT:    -5.344     13.047     14.974
REMARK INTER + INTRA:          -6.979
REMARK INTER:                  -6.615
REMARK INTRA:                  -0.364
REMARK UNBOUND:                -0.386
REMARK SMILES COc1cc(-c2oc3cc(O)cc(O)c3c(=O)c2O)ccc1O
REMARK SMILES IDX 6 1 18 2 16 3 17 4 15 5 13 6 12 7 10 8 9 9 8 10 7 11 5 12
REMARK SMILES IDX 3 13 22 14 4 15 21 16 20 17 2 18 1 19 23 20 19 22 14 24
REMARK SMILES IDX 11 26
REMARK H PARENT 23 21 19 23 14 25 11 27
REMARK Flexibility Score: inf
ROOT
ATOM      1  C   UNL     1      67.036  38.786  41.997  1.00  0.00     0.180 A 
ATOM      2  C   UNL     1      66.145  37.759  41.645  1.00  0.00     0.208 A 
ATOM      3  C   UNL     1      65.132  37.397  42.548  1.00  0.00     0.238 A 
ATOM      4  O   UNL     1      64.304  36.514  42.205  1.00  0.00    -0.285 OA
ATOM      5  C   UNL     1      65.032  38.057  43.796  1.00  0.00     0.111 A 
ATOM      6  C   UNL     1      64.070  37.745  44.804  1.00  0.00     0.134 A 
ATOM      7  C   UNL     1      63.981  38.550  45.946  1.00  0.00     0.093 A 
ATOM      8  C   UNL     1      64.863  39.615  46.148  1.00  0.00     0.123 A 
ATOM      9  C   UNL     1      65.843  39.890  45.199  1.00  0.00     0.094 A 
ATOM     10  C   UNL     1      65.934  39.128  44.031  1.00  0.00     0.146 A 
ATOM     11  O   UNL     1      66.878  39.431  43.148  1.00  0.00    -0.452 OA
ENDROOT
BRANCH   1  12
ATOM     12  C   UNL     1      68.145  39.207  41.108  1.00  0.00     0.025 A 
ATOM     13  C   UNL     1      68.936  40.561  39.233  1.00  0.00     0.161 A 
ATOM     14  C   UNL     1      70.234  40.077  39.438  1.00  0.00     0.157 A 
ATOM     15  C   UNL     1      67.894  40.127  40.078  1.00  0.00     0.062 A 
ATOM     16  C   UNL     1      70.491  39.175  40.479  1.00  0.00     0.051 A 
ATOM     17  C   UNL     1      69.457  38.747  41.313  1.00  0.00     0.016 A 
BRANCH  13  18
ATOM     18  O   UNL     1      68.718  41.470  38.185  1.00  0.00    -0.493 OA
ATOM     19  C   UNL     1      68.296  41.105  36.875  1.00  0.00     0.278 C 
ENDBRANCH  13  18
BRANCH  14  20
ATOM     20  O   UNL     1      71.268  40.502  38.606  1.00  0.00    -0.504 OA
ATOM     21  H   UNL     1      72.221  40.183  38.739  1.00  0.00     0.293 HD
ENDBRANCH  14  20
ENDBRANCH   1  12
BRANCH   2  22
ATOM     22  O   UNL     1      66.248  37.135  40.399  1.00  0.00    -0.502 OA
ATOM     23  H   UNL     1      65.483  36.615  39.986  1.00  0.00     0.293 HD
ENDBRANCH   2  22
BRANCH   6  24
ATOM     24  O   UNL     1      63.205  36.649  44.744  1.00  0.00    -0.507 OA
ATOM     25  H   UNL     1      62.668  36.297  45.521  1.00  0.00     0.293 HD
ENDBRANCH   6  24
BRANCH   8  26
ATOM     26  O   UNL     1      64.777  40.401  47.295  1.00  0.00    -0.508 OA
ATOM     27  H   UNL     1      64.276  41.282  47.298  1.00  0.00     0.293 HD
ENDBRANCH   8  26
TORSDOF 6
ENDMDL
MODEL 8
REMARK VINA RESULT:    -5.237     12.127     15.319
REMARK INTER + INTRA:          -6.847
REMARK INTER:                  -6.452
REMARK INTRA:                  -0.396
REMARK UNBOUND:                -0.386
REMARK SMILES COc1cc(-c2oc3cc(O)cc(O)c3c(=O)c2O)ccc1O
REMARK SMILES IDX 6 1 18 2 16 3 17 4 15 5 13 6 12 7 10 8 9 9 8 10 7 11 5 12
REMARK SMILES IDX 3 13 22 14 4 15 21 16 20 17 2 18 1 19 23 20 19 22 14 24
REMARK SMILES IDX 11 26
REMARK H PARENT 23 21 19 23 14 25 11 27
REMARK Flexibility Score: inf
ROOT
ATOM      1  C   UNL     1      66.317  38.699  44.079  1.00  0.00     0.180 A 
ATOM      2  C   UNL     1      67.094  37.555  44.323  1.00  0.00     0.208 A 
ATOM      3  C   UNL     1      67.654  36.866  43.236  1.00  0.00     0.238 A 
ATOM      4  O   UNL     1      68.394  35.874  43.464  1.00  0.00    -0.285 OA
ATOM      5  C   UNL     1      67.417  37.322  41.916  1.00  0.00     0.111 A 
ATOM      6  C   UNL     1      67.902  36.679  40.737  1.00  0.00     0.134 A 
ATOM      7  C   UNL     1      67.716  37.291  39.491  1.00  0.00     0.093 A 
ATOM      8  C   UNL     1      67.006  38.489  39.375  1.00  0.00     0.123 A 
ATOM      9  C   UNL     1      66.478  39.092  40.513  1.00  0.00     0.094 A 
ATOM     10  C   UNL     1      66.678  38.526  41.775  1.00  0.00     0.146 A 
ATOM     11  O   UNL     1      66.166  39.139  42.834  1.00  0.00    -0.452 OA
ENDROOT
BRANCH   1  12
ATOM     12  C   UNL     1      65.673  39.464  45.172  1.00  0.00     0.025 A 
ATOM     13  C   UNL     1      65.712  41.360  46.715  1.00  0.00     0.161 A 
ATOM     14  C   UNL     1      64.457  40.978  47.207  1.00  0.00     0.157 A 
ATOM     15  C   UNL     1      66.313  40.601  45.691  1.00  0.00     0.062 A 
ATOM     16  C   UNL     1      63.806  39.856  46.677  1.00  0.00     0.051 A 
ATOM     17  C   UNL     1      64.406  39.107  45.663  1.00  0.00     0.016 A 
BRANCH  13  18
ATOM     18  O   UNL     1      66.330  42.494  47.265  1.00  0.00    -0.493 OA
ATOM     19  C   UNL     1      67.339  43.259  46.615  1.00  0.00     0.278 C 
ENDBRANCH  13  18
BRANCH  14  20
ATOM     20  O   UNL     1      63.858  41.723  48.220  1.00  0.00    -0.504 OA
ATOM     21  H   UNL     1      64.132  41.615  49.190  1.00  0.00     0.293 HD
ENDBRANCH  14  20
ENDBRANCH   1  12
BRANCH   2  22
ATOM     22  O   UNL     1      67.333  37.134  45.635  1.00  0.00    -0.502 OA
ATOM     23  H   UNL     1      66.597  37.063  46.326  1.00  0.00     0.293 HD
ENDBRANCH   2  22
BRANCH   6  24
ATOM     24  O   UNL     1      68.542  35.436  40.733  1.00  0.00    -0.507 OA
ATOM     25  H   UNL     1      69.470  35.269  40.374  1.00  0.00     0.293 HD
ENDBRANCH   6  24
BRANCH   8  26
ATOM     26  O   UNL     1      66.813  39.082  38.130  1.00  0.00    -0.508 OA
ATOM     27  H   UNL     1      66.154  38.705  37.459  1.00  0.00     0.293 HD
ENDBRANCH   8  26
TORSDOF 6
ENDMDL
MODEL 9
REMARK VINA RESULT:    -5.109     12.486     15.751
REMARK INTER + INTRA:          -6.690
REMARK INTER:                  -6.409
REMARK INTRA:                  -0.281
REMARK UNBOUND:                -0.386
REMARK SMILES COc1cc(-c2oc3cc(O)cc(O)c3c(=O)c2O)ccc1O
REMARK SMILES IDX 6 1 18 2 16 3 17 4 15 5 13 6 12 7 10 8 9 9 8 10 7 11 5 12
REMARK SMILES IDX 3 13 22 14 4 15 21 16 20 17 2 18 1 19 23 20 19 22 14 24
REMARK SMILES IDX 11 26
REMARK H PARENT 23 21 19 23 14 25 11 27
REMARK Flexibility Score: inf
ROOT
ATOM      1  C   UNL     1      66.333  38.726  43.914  1.00  0.00     0.180 A 
ATOM      2  C   UNL     1      66.960  37.490  44.137  1.00  0.00     0.208 A 
ATOM      3  C   UNL     1      67.446  36.764  43.038  1.00  0.00     0.238 A 
ATOM      4  O   UNL     1      68.055  35.683  43.249  1.00  0.00    -0.285 OA
ATOM      5  C   UNL     1      67.286  37.277  41.729  1.00  0.00     0.111 A 
ATOM      6  C   UNL     1      67.705  36.609  40.538  1.00  0.00     0.134 A 
ATOM      7  C   UNL     1      67.613  37.269  39.307  1.00  0.00     0.093 A 
ATOM      8  C   UNL     1      67.057  38.547  39.214  1.00  0.00     0.123 A 
ATOM      9  C   UNL     1      66.591  39.184  40.361  1.00  0.00     0.094 A 
ATOM     10  C   UNL     1      66.703  38.566  41.610  1.00  0.00     0.146 A 
ATOM     11  O   UNL     1      66.254  39.212  42.680  1.00  0.00    -0.452 OA
ENDROOT
BRANCH   1  12
ATOM     12  C   UNL     1      65.772  39.538  45.020  1.00  0.00     0.025 A 
ATOM     13  C   UNL     1      63.971  39.944  46.623  1.00  0.00     0.161 A 
ATOM     14  C   UNL     1      64.698  41.015  47.159  1.00  0.00     0.157 A 
ATOM     15  C   UNL     1      64.518  39.203  45.555  1.00  0.00     0.062 A 
ATOM     16  C   UNL     1      65.959  41.337  46.641  1.00  0.00     0.051 A 
ATOM     17  C   UNL     1      66.496  40.601  45.583  1.00  0.00     0.016 A 
BRANCH  13  18
ATOM     18  O   UNL     1      62.714  39.645  47.173  1.00  0.00    -0.493 OA
ATOM     19  C   UNL     1      61.512  40.341  46.865  1.00  0.00     0.278 C 
ENDBRANCH  13  18
BRANCH  14  20
ATOM     20  O   UNL     1      64.162  41.751  48.214  1.00  0.00    -0.504 OA
ATOM     21  H   UNL     1      64.108  42.763  48.180  1.00  0.00     0.293 HD
ENDBRANCH  14  20
ENDBRANCH   1  12
BRANCH   2  22
ATOM     22  O   UNL     1      67.127  37.011  45.440  1.00  0.00    -0.502 OA
ATOM     23  H   UNL     1      67.019  36.033  45.678  1.00  0.00     0.293 HD
ENDBRANCH   2  22
BRANCH   6  24
ATOM     24  O   UNL     1      68.188  35.297  40.510  1.00  0.00    -0.507 OA
ATOM     25  H   UNL     1      68.615  34.860  39.708  1.00  0.00     0.293 HD
ENDBRANCH   6  24
BRANCH   8  26
ATOM     26  O   UNL     1      66.956  39.190  37.982  1.00  0.00    -0.508 OA
ATOM     27  H   UNL     1      67.537  39.987  37.750  1.00  0.00     0.293 HD
ENDBRANCH   8  26
TORSDOF 6
ENDMDL
