MODEL 1
REMARK VINA RESULT:    -6.292      0.000      0.000
REMARK INTER + INTRA:          -7.628
REMARK INTER:                  -7.579
REMARK INTRA:                  -0.049
REMARK UNBOUND:                -0.049
REMARK SMILES O=c1c(O)c(-c2ccc(O)c(O)c2)oc2cc(O)cc(O)c12
REMARK SMILES IDX 5 1 3 2 2 3 1 4 22 5 20 6 19 7 17 8 16 9 15 10 14 11 6 12
REMARK SMILES IDX 7 13 8 14 9 15 13 16 11 17 10 18 12 20 4 22 21 24 18 26
REMARK H PARENT 10 19 12 21 4 23 21 25 18 27
REMARK Flexibility Score: inf
ROOT
ATOM      1  C   UNL     1       6.725  15.010   5.882  1.00  0.00     0.180 A 
ATOM      2  C   UNL     1       5.923  14.014   6.464  1.00  0.00     0.208 A 
ATOM      3  C   UNL     1       5.703  12.819   5.759  1.00  0.00     0.238 A 
ATOM      4  O   UNL     1       4.940  11.952   6.261  1.00  0.00    -0.285 OA
ATOM      5  C   UNL     1       6.302  12.630   4.490  1.00  0.00     0.111 A 
ATOM      6  C   UNL     1       6.180  11.443   3.706  1.00  0.00     0.134 A 
ATOM      7  C   UNL     1       6.707  11.415   2.409  1.00  0.00     0.093 A 
ATOM      8  C   UNL     1       7.407  12.509   1.893  1.00  0.00     0.123 A 
ATOM      9  C   UNL     1       7.582  13.649   2.672  1.00  0.00     0.094 A 
ATOM     10  C   UNL     1       7.037  13.720   3.957  1.00  0.00     0.146 A 
ATOM     11  O   UNL     1       7.218  14.830   4.663  1.00  0.00    -0.452 OA
ENDROOT
BRANCH   1  12
ATOM     12  C   UNL     1       7.023  16.285   6.574  1.00  0.00     0.025 A 
ATOM     13  C   UNL     1       7.579  16.257   7.863  1.00  0.00     0.016 A 
ATOM     14  C   UNL     1       7.848  17.447   8.543  1.00  0.00     0.051 A 
ATOM     15  C   UNL     1       7.552  18.683   7.952  1.00  0.00     0.157 A 
ATOM     16  C   UNL     1       6.708  17.527   5.992  1.00  0.00     0.062 A 
ATOM     17  C   UNL     1       6.975  18.720   6.672  1.00  0.00     0.158 A 
BRANCH  15  18
ATOM     18  O   UNL     1       7.825  19.869   8.632  1.00  0.00    -0.504 OA
ATOM     19  H   UNL     1       8.508  20.532   8.289  1.00  0.00     0.293 HD
ENDBRANCH  15  18
BRANCH  17  20
ATOM     20  O   UNL     1       6.656  19.933   6.061  1.00  0.00    -0.504 OA
ATOM     21  H   UNL     1       6.843  20.824   6.504  1.00  0.00     0.293 HD
ENDBRANCH  17  20
ENDBRANCH   1  12
BRANCH   2  22
ATOM     22  O   UNL     1       5.323  14.230   7.707  1.00  0.00    -0.502 OA
ATOM     23  H   UNL     1       5.775  14.755   8.446  1.00  0.00     0.293 HD
ENDBRANCH   2  22
BRANCH   6  24
ATOM     24  O   UNL     1       5.581  10.265   4.160  1.00  0.00    -0.507 OA
ATOM     25  H   UNL     1       5.211  10.129   5.089  1.00  0.00     0.293 HD
ENDBRANCH   6  24
BRANCH   8  26
ATOM     26  O   UNL     1       7.942  12.468   0.607  1.00  0.00    -0.508 OA
ATOM     27  H   UNL     1       7.535  11.888  -0.118  1.00  0.00     0.293 HD
ENDBRANCH   8  26
TORSDOF 6
ENDMDL
MODEL 2
REMARK VINA RESULT:    -6.183      1.970      6.616
REMARK INTER + INTRA:          -7.498
REMARK INTER:                  -7.195
REMARK INTRA:                  -0.302
REMARK UNBOUND:                -0.049
REMARK SMILES O=c1c(O)c(-c2ccc(O)c(O)c2)oc2cc(O)cc(O)c12
REMARK SMILES IDX 5 1 3 2 2 3 1 4 22 5 20 6 19 7 17 8 16 9 15 10 14 11 6 12
REMARK SMILES IDX 7 13 8 14 9 15 13 16 11 17 10 18 12 20 4 22 21 24 18 26
REMARK H PARENT 10 19 12 21 4 23 21 25 18 27
REMARK Flexibility Score: inf
ROOT
ATOM      1  C   UNL     1       6.149  12.740   4.886  1.00  0.00     0.180 A 
ATOM      2  C   UNL     1       6.050  11.604   5.708  1.00  0.00     0.208 A 
ATOM      3  C   UNL     1       6.167  11.759   7.100  1.00  0.00     0.238 A 
ATOM      4  O   UNL     1       6.132  10.732   7.827  1.00  0.00    -0.285 OA
ATOM      5  C   UNL     1       6.365  13.048   7.650  1.00  0.00     0.111 A 
ATOM      6  C   UNL     1       6.457  13.327   9.048  1.00  0.00     0.134 A 
ATOM      7  C   UNL     1       6.784  14.620   9.474  1.00  0.00     0.093 A 
ATOM      8  C   UNL     1       6.958  15.658   8.555  1.00  0.00     0.123 A 
ATOM      9  C   UNL     1       6.811  15.409   7.193  1.00  0.00     0.094 A 
ATOM     10  C   UNL     1       6.521  14.121   6.735  1.00  0.00     0.146 A 
ATOM     11  O   UNL     1       6.400  13.925   5.428  1.00  0.00    -0.452 OA
ENDROOT
BRANCH   1  12
ATOM     12  C   UNL     1       6.010  12.660   3.414  1.00  0.00     0.025 A 
ATOM     13  C   UNL     1       4.728  12.596   2.844  1.00  0.00     0.016 A 
ATOM     14  C   UNL     1       4.574  12.499   1.459  1.00  0.00     0.051 A 
ATOM     15  C   UNL     1       5.698  12.449   0.624  1.00  0.00     0.157 A 
ATOM     16  C   UNL     1       7.136  12.588   2.573  1.00  0.00     0.062 A 
ATOM     17  C   UNL     1       6.985  12.490   1.186  1.00  0.00     0.158 A 
BRANCH  15  18
ATOM     18  O   UNL     1       5.541  12.355  -0.758  1.00  0.00    -0.504 OA
ATOM     19  H   UNL     1       4.926  12.979  -1.266  1.00  0.00     0.293 HD
ENDBRANCH  15  18
BRANCH  17  20
ATOM     20  O   UNL     1       8.124  12.428   0.384  1.00  0.00    -0.504 OA
ATOM     21  H   UNL     1       8.823  13.161   0.384  1.00  0.00     0.293 HD
ENDBRANCH  17  20
ENDBRANCH   1  12
BRANCH   2  22
ATOM     22  O   UNL     1       5.876  10.339   5.143  1.00  0.00    -0.502 OA
ATOM     23  H   UNL     1       6.649   9.705   4.978  1.00  0.00     0.293 HD
ENDBRANCH   2  22
BRANCH   6  24
ATOM     24  O   UNL     1       6.212  12.383  10.049  1.00  0.00    -0.507 OA
ATOM     25  H   UNL     1       5.650  11.554   9.933  1.00  0.00     0.293 HD
ENDBRANCH   6  24
BRANCH   8  26
ATOM     26  O   UNL     1       7.268  16.946   8.989  1.00  0.00    -0.508 OA
ATOM     27  H   UNL     1       7.976  17.505   8.527  1.00  0.00     0.293 HD
ENDBRANCH   8  26
TORSDOF 6
ENDMDL
MODEL 3
REMARK VINA RESULT:    -6.094      1.882      3.562
REMARK INTER + INTRA:          -7.390
REMARK INTER:                  -7.430
REMARK INTRA:                   0.041
REMARK UNBOUND:                -0.049
REMARK SMILES O=c1c(O)c(-c2ccc(O)c(O)c2)oc2cc(O)cc(O)c12
REMARK SMILES IDX 5 1 3 2 2 3 1 4 22 5 20 6 19 7 17 8 16 9 15 10 14 11 6 12
REMARK SMILES IDX 7 13 8 14 9 15 13 16 11 17 10 18 12 20 4 22 21 24 18 26
REMARK H PARENT 10 19 12 21 4 23 21 25 18 27
REMARK Flexibility Score: inf
ROOT
ATOM      1  C   UNL     1       6.934  15.943   6.897  1.00  0.00     0.180 A 
ATOM      2  C   UNL     1       7.036  15.567   5.546  1.00  0.00     0.208 A 
ATOM      3  C   UNL     1       6.777  14.234   5.189  1.00  0.00     0.238 A 
ATOM      4  O   UNL     1       6.924  13.890   3.987  1.00  0.00    -0.285 OA
ATOM      5  C   UNL     1       6.403  13.299   6.184  1.00  0.00     0.111 A 
ATOM      6  C   UNL     1       6.079  11.931   5.930  1.00  0.00     0.134 A 
ATOM      7  C   UNL     1       5.850  11.064   7.005  1.00  0.00     0.093 A 
ATOM      8  C   UNL     1       5.870  11.530   8.322  1.00  0.00     0.123 A 
ATOM      9  C   UNL     1       6.127  12.875   8.577  1.00  0.00     0.094 A 
ATOM     10  C   UNL     1       6.395  13.757   7.526  1.00  0.00     0.146 A 
ATOM     11  O   UNL     1       6.645  15.029   7.814  1.00  0.00    -0.452 OA
ENDROOT
BRANCH   1  12
ATOM     12  C   UNL     1       7.166  17.334   7.346  1.00  0.00     0.025 A 
ATOM     13  C   UNL     1       7.911  17.568   8.513  1.00  0.00     0.016 A 
ATOM     14  C   UNL     1       8.125  18.871   8.967  1.00  0.00     0.051 A 
ATOM     15  C   UNL     1       7.585  19.961   8.270  1.00  0.00     0.157 A 
ATOM     16  C   UNL     1       6.609  18.430   6.661  1.00  0.00     0.062 A 
ATOM     17  C   UNL     1       6.820  19.736   7.114  1.00  0.00     0.158 A 
BRANCH  15  18
ATOM     18  O   UNL     1       7.803  21.261   8.725  1.00  0.00    -0.504 OA
ATOM     19  H   UNL     1       8.530  21.473   9.397  1.00  0.00     0.293 HD
ENDBRANCH  15  18
BRANCH  17  20
ATOM     20  O   UNL     1       6.257  20.798   6.405  1.00  0.00    -0.504 OA
ATOM     21  H   UNL     1       6.284  21.750   6.751  1.00  0.00     0.293 HD
ENDBRANCH  17  20
ENDBRANCH   1  12
BRANCH   2  22
ATOM     22  O   UNL     1       7.428  16.501   4.584  1.00  0.00    -0.502 OA
ATOM     23  H   UNL     1       7.645  16.241   3.629  1.00  0.00     0.293 HD
ENDBRANCH   2  22
BRANCH   6  24
ATOM     24  O   UNL     1       5.943  11.387   4.650  1.00  0.00    -0.507 OA
ATOM     25  H   UNL     1       5.370  11.777   3.916  1.00  0.00     0.293 HD
ENDBRANCH   6  24
BRANCH   8  26
ATOM     26  O   UNL     1       5.625  10.664   9.386  1.00  0.00    -0.508 OA
ATOM     27  H   UNL     1       5.224  10.993  10.256  1.00  0.00     0.293 HD
ENDBRANCH   8  26
TORSDOF 6
ENDMDL
MODEL 4
REMARK VINA RESULT:    -5.889      3.689      5.597
REMARK INTER + INTRA:          -7.143
REMARK INTER:                  -7.607
REMARK INTRA:                   0.464
REMARK UNBOUND:                -0.049
REMARK SMILES O=c1c(O)c(-c2ccc(O)c(O)c2)oc2cc(O)cc(O)c12
REMARK SMILES IDX 5 1 3 2 2 3 1 4 22 5 20 6 19 7 17 8 16 9 15 10 14 11 6 12
REMARK SMILES IDX 7 13 8 14 9 15 13 16 11 17 10 18 12 20 4 22 21 24 18 26
REMARK H PARENT 10 19 12 21 4 23 21 25 18 27
REMARK Flexibility Score: inf
ROOT
ATOM      1  C   UNL     1       5.557  12.399   2.955  1.00  0.00     0.180 A 
ATOM      2  C   UNL     1       6.600  11.787   2.238  1.00  0.00     0.208 A 
ATOM      3  C   UNL     1       6.483  11.657   0.844  1.00  0.00     0.238 A 
ATOM      4  O   UNL     1       7.394  11.059   0.214  1.00  0.00    -0.285 OA
ATOM      5  C   UNL     1       5.334  12.156   0.185  1.00  0.00     0.111 A 
ATOM      6  C   UNL     1       5.128  12.114  -1.227  1.00  0.00     0.134 A 
ATOM      7  C   UNL     1       3.897  12.519  -1.758  1.00  0.00     0.093 A 
ATOM      8  C   UNL     1       2.889  13.024  -0.934  1.00  0.00     0.123 A 
ATOM      9  C   UNL     1       3.102  13.124   0.439  1.00  0.00     0.094 A 
ATOM     10  C   UNL     1       4.306  12.694   1.002  1.00  0.00     0.146 A 
ATOM     11  O   UNL     1       4.465  12.798   2.316  1.00  0.00    -0.452 OA
ENDROOT
BRANCH   1  12
ATOM     12  C   UNL     1       5.620  12.595   4.421  1.00  0.00     0.025 A 
ATOM     13  C   UNL     1       4.551  13.223   5.080  1.00  0.00     0.016 A 
ATOM     14  C   UNL     1       4.598  13.437   6.460  1.00  0.00     0.051 A 
ATOM     15  C   UNL     1       5.720  13.040   7.200  1.00  0.00     0.157 A 
ATOM     16  C   UNL     1       6.753  12.217   5.165  1.00  0.00     0.062 A 
ATOM     17  C   UNL     1       6.803  12.431   6.546  1.00  0.00     0.158 A 
BRANCH  15  18
ATOM     18  O   UNL     1       5.762  13.252   8.577  1.00  0.00    -0.504 OA
ATOM     19  H   UNL     1       5.758  14.185   8.971  1.00  0.00     0.293 HD
ENDBRANCH  15  18
BRANCH  17  20
ATOM     20  O   UNL     1       7.941  12.036   7.251  1.00  0.00    -0.504 OA
ATOM     21  H   UNL     1       8.876  12.249   6.926  1.00  0.00     0.293 HD
ENDBRANCH  17  20
ENDBRANCH   1  12
BRANCH   2  22
ATOM     22  O   UNL     1       7.715  11.282   2.911  1.00  0.00    -0.502 OA
ATOM     23  H   UNL     1       8.384  10.663   2.469  1.00  0.00     0.293 HD
ENDBRANCH   2  22
BRANCH   6  24
ATOM     24  O   UNL     1       6.102  11.714  -2.146  1.00  0.00    -0.507 OA
ATOM     25  H   UNL     1       6.735  12.339  -2.623  1.00  0.00     0.293 HD
ENDBRANCH   6  24
BRANCH   8  26
ATOM     26  O   UNL     1       1.672  13.439  -1.472  1.00  0.00    -0.508 OA
ATOM     27  H   UNL     1       1.603  14.272  -2.046  1.00  0.00     0.293 HD
ENDBRANCH   8  26
TORSDOF 6
ENDMDL
MODEL 5
REMARK VINA RESULT:    -5.875      2.778      5.140
REMARK INTER + INTRA:          -7.126
REMARK INTER:                  -7.529
REMARK INTRA:                   0.403
REMARK UNBOUND:                -0.049
REMARK SMILES O=c1c(O)c(-c2ccc(O)c(O)c2)oc2cc(O)cc(O)c12
REMARK SMILES IDX 5 1 3 2 2 3 1 4 22 5 20 6 19 7 17 8 16 9 15 10 14 11 6 12
REMARK SMILES IDX 7 13 8 14 9 15 13 16 11 17 10 18 12 20 4 22 21 24 18 26
REMARK H PARENT 10 19 12 21 4 23 21 25 18 27
REMARK Flexibility Score: inf
ROOT
ATOM      1  C   UNL     1       7.336  18.456   8.002  1.00  0.00     0.180 A 
ATOM      2  C   UNL     1       6.992  18.441   6.640  1.00  0.00     0.208 A 
ATOM      3  C   UNL     1       6.811  17.205   5.997  1.00  0.00     0.238 A 
ATOM      4  O   UNL     1       6.556  17.196   4.764  1.00  0.00    -0.285 OA
ATOM      5  C   UNL     1       6.961  16.003   6.729  1.00  0.00     0.111 A 
ATOM      6  C   UNL     1       6.763  14.695   6.189  1.00  0.00     0.134 A 
ATOM      7  C   UNL     1       7.066  13.573   6.969  1.00  0.00     0.093 A 
ATOM      8  C   UNL     1       7.499  13.710   8.290  1.00  0.00     0.123 A 
ATOM      9  C   UNL     1       7.639  14.980   8.845  1.00  0.00     0.094 A 
ATOM     10  C   UNL     1       7.378  16.120   8.080  1.00  0.00     0.146 A 
ATOM     11  O   UNL     1       7.534  17.312   8.644  1.00  0.00    -0.452 OA
ENDROOT
BRANCH   1  12
ATOM     12  C   UNL     1       7.518  19.719   8.754  1.00  0.00     0.025 A 
ATOM     13  C   UNL     1       7.877  20.888   8.063  1.00  0.00     0.016 A 
ATOM     14  C   UNL     1       8.074  22.085   8.755  1.00  0.00     0.051 A 
ATOM     15  C   UNL     1       7.930  22.130  10.148  1.00  0.00     0.157 A 
ATOM     16  C   UNL     1       7.395  19.763  10.155  1.00  0.00     0.062 A 
ATOM     17  C   UNL     1       7.593  20.961  10.850  1.00  0.00     0.158 A 
BRANCH  15  18
ATOM     18  O   UNL     1       8.125  23.328  10.835  1.00  0.00    -0.504 OA
ATOM     19  H   UNL     1       7.704  23.495  11.740  1.00  0.00     0.293 HD
ENDBRANCH  15  18
BRANCH  17  20
ATOM     20  O   UNL     1       7.456  20.968  12.238  1.00  0.00    -0.504 OA
ATOM     21  H   UNL     1       6.591  20.705  12.695  1.00  0.00     0.293 HD
ENDBRANCH  17  20
ENDBRANCH   1  12
BRANCH   2  22
ATOM     22  O   UNL     1       6.870  19.639   5.931  1.00  0.00    -0.502 OA
ATOM     23  H   UNL     1       7.583  20.358   5.950  1.00  0.00     0.293 HD
ENDBRANCH   2  22
BRANCH   6  24
ATOM     24  O   UNL     1       6.248  14.448   4.914  1.00  0.00    -0.507 OA
ATOM     25  H   UNL     1       5.374  14.813   4.565  1.00  0.00     0.293 HD
ENDBRANCH   6  24
BRANCH   8  26
ATOM     26  O   UNL     1       7.783  12.587   9.065  1.00  0.00    -0.508 OA
ATOM     27  H   UNL     1       8.057  11.707   8.643  1.00  0.00     0.293 HD
ENDBRANCH   8  26
TORSDOF 6
ENDMDL
MODEL 6
REMARK VINA RESULT:    -5.780      2.777      6.882
REMARK INTER + INTRA:          -7.012
REMARK INTER:                  -6.799
REMARK INTRA:                  -0.214
REMARK UNBOUND:                -0.049
REMARK SMILES O=c1c(O)c(-c2ccc(O)c(O)c2)oc2cc(O)cc(O)c12
REMARK SMILES IDX 5 1 3 2 2 3 1 4 22 5 20 6 19 7 17 8 16 9 15 10 14 11 6 12
REMARK SMILES IDX 7 13 8 14 9 15 13 16 11 17 10 18 12 20 4 22 21 24 18 26
REMARK H PARENT 10 19 12 21 4 23 21 25 18 27
REMARK Flexibility Score: inf
ROOT
ATOM      1  C   UNL     1       6.307  12.747   4.359  1.00  0.00     0.180 A 
ATOM      2  C   UNL     1       6.948  13.875   4.901  1.00  0.00     0.208 A 
ATOM      3  C   UNL     1       7.115  13.960   6.293  1.00  0.00     0.238 A 
ATOM      4  O   UNL     1       7.641  14.997   6.776  1.00  0.00    -0.285 OA
ATOM      5  C   UNL     1       6.654  12.910   7.122  1.00  0.00     0.111 A 
ATOM      6  C   UNL     1       6.805  12.873   8.542  1.00  0.00     0.134 A 
ATOM      7  C   UNL     1       6.195  11.848   9.275  1.00  0.00     0.093 A 
ATOM      8  C   UNL     1       5.493  10.824   8.634  1.00  0.00     0.123 A 
ATOM      9  C   UNL     1       5.390  10.819   7.245  1.00  0.00     0.094 A 
ATOM     10  C   UNL     1       5.958  11.848   6.489  1.00  0.00     0.146 A 
ATOM     11  O   UNL     1       5.827  11.811   5.168  1.00  0.00    -0.452 OA
ENDROOT
BRANCH   1  12
ATOM     12  C   UNL     1       6.118  12.574   2.901  1.00  0.00     0.025 A 
ATOM     13  C   UNL     1       4.817  12.541   2.372  1.00  0.00     0.016 A 
ATOM     14  C   UNL     1       4.616  12.358   1.002  1.00  0.00     0.051 A 
ATOM     15  C   UNL     1       5.709  12.189   0.142  1.00  0.00     0.157 A 
ATOM     16  C   UNL     1       7.212  12.383   2.037  1.00  0.00     0.062 A 
ATOM     17  C   UNL     1       7.012  12.198   0.665  1.00  0.00     0.158 A 
BRANCH  15  18
ATOM     18  O   UNL     1       5.503  12.009  -1.225  1.00  0.00    -0.504 OA
ATOM     19  H   UNL     1       6.190  11.548  -1.809  1.00  0.00     0.293 HD
ENDBRANCH  15  18
BRANCH  17  20
ATOM     20  O   UNL     1       8.121  12.019  -0.163  1.00  0.00    -0.504 OA
ATOM     21  H   UNL     1       8.040  11.987  -1.172  1.00  0.00     0.293 HD
ENDBRANCH  17  20
ENDBRANCH   1  12
BRANCH   2  22
ATOM     22  O   UNL     1       7.376  14.909   4.065  1.00  0.00    -0.502 OA
ATOM     23  H   UNL     1       6.807  15.724   3.872  1.00  0.00     0.293 HD
ENDBRANCH   2  22
BRANCH   6  24
ATOM     24  O   UNL     1       7.562  13.795   9.270  1.00  0.00    -0.507 OA
ATOM     25  H   UNL     1       8.543  13.695   9.481  1.00  0.00     0.293 HD
ENDBRANCH   6  24
BRANCH   8  26
ATOM     26  O   UNL     1       4.902   9.799   9.370  1.00  0.00    -0.508 OA
ATOM     27  H   UNL     1       5.208   9.576  10.310  1.00  0.00     0.293 HD
ENDBRANCH   8  26
TORSDOF 6
ENDMDL
MODEL 7
REMARK VINA RESULT:    -5.768      3.247      5.206
REMARK INTER + INTRA:          -6.998
REMARK INTER:                  -6.675
REMARK INTRA:                  -0.323
REMARK UNBOUND:                -0.049
REMARK SMILES O=c1c(O)c(-c2ccc(O)c(O)c2)oc2cc(O)cc(O)c12
REMARK SMILES IDX 5 1 3 2 2 3 1 4 22 5 20 6 19 7 17 8 16 9 15 10 14 11 6 12
REMARK SMILES IDX 7 13 8 14 9 15 13 16 11 17 10 18 12 20 4 22 21 24 18 26
REMARK H PARENT 10 19 12 21 4 23 21 25 18 27
REMARK Flexibility Score: inf
ROOT
ATOM      1  C   UNL     1       5.427  12.156   2.913  1.00  0.00     0.180 A 
ATOM      2  C   UNL     1       5.657  10.793   2.660  1.00  0.00     0.208 A 
ATOM      3  C   UNL     1       5.073  10.203   1.526  1.00  0.00     0.238 A 
ATOM      4  O   UNL     1       5.238   8.969   1.334  1.00  0.00    -0.285 OA
ATOM      5  C   UNL     1       4.282  10.987   0.653  1.00  0.00     0.111 A 
ATOM      6  C   UNL     1       3.675  10.503  -0.545  1.00  0.00     0.134 A 
ATOM      7  C   UNL     1       2.806  11.333  -1.264  1.00  0.00     0.093 A 
ATOM      8  C   UNL     1       2.573  12.650  -0.862  1.00  0.00     0.123 A 
ATOM      9  C   UNL     1       3.206  13.151   0.273  1.00  0.00     0.094 A 
ATOM     10  C   UNL     1       4.051  12.335   1.031  1.00  0.00     0.146 A 
ATOM     11  O   UNL     1       4.627  12.848   2.111  1.00  0.00    -0.452 OA
ENDROOT
BRANCH   1  12
ATOM     12  C   UNL     1       6.028  12.854   4.072  1.00  0.00     0.025 A 
ATOM     13  C   UNL     1       7.287  13.460   3.936  1.00  0.00     0.016 A 
ATOM     14  C   UNL     1       7.883  14.105   5.022  1.00  0.00     0.051 A 
ATOM     15  C   UNL     1       7.236  14.142   6.265  1.00  0.00     0.157 A 
ATOM     16  C   UNL     1       5.391  12.875   5.327  1.00  0.00     0.062 A 
ATOM     17  C   UNL     1       5.986  13.520   6.416  1.00  0.00     0.158 A 
BRANCH  15  18
ATOM     18  O   UNL     1       7.832  14.790   7.346  1.00  0.00    -0.504 OA
ATOM     19  H   UNL     1       7.588  15.740   7.595  1.00  0.00     0.293 HD
ENDBRANCH  15  18
BRANCH  17  20
ATOM     20  O   UNL     1       5.322  13.526   7.643  1.00  0.00    -0.504 OA
ATOM     21  H   UNL     1       5.548  14.191   8.374  1.00  0.00     0.293 HD
ENDBRANCH  17  20
ENDBRANCH   1  12
BRANCH   2  22
ATOM     22  O   UNL     1       6.423  10.032   3.546  1.00  0.00    -0.502 OA
ATOM     23  H   UNL     1       7.317  10.348   3.903  1.00  0.00     0.293 HD
ENDBRANCH   2  22
BRANCH   6  24
ATOM     24  O   UNL     1       3.914   9.235  -1.084  1.00  0.00    -0.507 OA
ATOM     25  H   UNL     1       3.969   9.030  -2.070  1.00  0.00     0.293 HD
ENDBRANCH   6  24
BRANCH   8  26
ATOM     26  O   UNL     1       1.719  13.475  -1.591  1.00  0.00    -0.508 OA
ATOM     27  H   UNL     1       1.884  14.472  -1.671  1.00  0.00     0.293 HD
ENDBRANCH   8  26
TORSDOF 6
ENDMDL
MODEL 8
REMARK VINA RESULT:    -5.696      2.630      6.993
REMARK INTER + INTRA:          -6.911
REMARK INTER:                  -6.644
REMARK INTRA:                  -0.267
REMARK UNBOUND:                -0.049
REMARK SMILES O=c1c(O)c(-c2ccc(O)c(O)c2)oc2cc(O)cc(O)c12
REMARK SMILES IDX 5 1 3 2 2 3 1 4 22 5 20 6 19 7 17 8 16 9 15 10 14 11 6 12
REMARK SMILES IDX 7 13 8 14 9 15 13 16 11 17 10 18 12 20 4 22 21 24 18 26
REMARK H PARENT 10 19 12 21 4 23 21 25 18 27
REMARK Flexibility Score: inf
ROOT
ATOM      1  C   UNL     1       6.916  14.088   7.720  1.00  0.00     0.180 A 
ATOM      2  C   UNL     1       7.357  14.394   9.019  1.00  0.00     0.208 A 
ATOM      3  C   UNL     1       7.595  15.736   9.359  1.00  0.00     0.238 A 
ATOM      4  O   UNL     1       8.042  15.999  10.506  1.00  0.00    -0.285 OA
ATOM      5  C   UNL     1       7.374  16.755   8.401  1.00  0.00     0.111 A 
ATOM      6  C   UNL     1       7.544  18.151   8.648  1.00  0.00     0.134 A 
ATOM      7  C   UNL     1       7.423  19.060   7.590  1.00  0.00     0.093 A 
ATOM      8  C   UNL     1       7.074  18.629   6.308  1.00  0.00     0.123 A 
ATOM      9  C   UNL     1       6.847  17.276   6.070  1.00  0.00     0.094 A 
ATOM     10  C   UNL     1       6.996  16.340   7.097  1.00  0.00     0.146 A 
ATOM     11  O   UNL     1       6.781  15.059   6.825  1.00  0.00    -0.452 OA
ENDROOT
BRANCH   1  12
ATOM     12  C   UNL     1       6.619  12.701   7.296  1.00  0.00     0.025 A 
ATOM     13  C   UNL     1       7.471  12.061   6.381  1.00  0.00     0.016 A 
ATOM     14  C   UNL     1       7.198  10.760   5.952  1.00  0.00     0.051 A 
ATOM     15  C   UNL     1       6.063  10.084   6.418  1.00  0.00     0.157 A 
ATOM     16  C   UNL     1       5.469  12.026   7.746  1.00  0.00     0.062 A 
ATOM     17  C   UNL     1       5.193  10.724   7.316  1.00  0.00     0.158 A 
BRANCH  15  18
ATOM     18  O   UNL     1       5.796   8.785   5.989  1.00  0.00    -0.504 OA
ATOM     19  H   UNL     1       6.487   8.238   5.491  1.00  0.00     0.293 HD
ENDBRANCH  15  18
BRANCH  17  20
ATOM     20  O   UNL     1       4.047  10.084   7.788  1.00  0.00    -0.504 OA
ATOM     21  H   UNL     1       3.436  10.512   8.474  1.00  0.00     0.293 HD
ENDBRANCH  17  20
ENDBRANCH   1  12
BRANCH   2  22
ATOM     22  O   UNL     1       7.591  13.372   9.942  1.00  0.00    -0.502 OA
ATOM     23  H   UNL     1       7.013  13.237  10.763  1.00  0.00     0.293 HD
ENDBRANCH   2  22
BRANCH   6  24
ATOM     24  O   UNL     1       7.804  18.694   9.910  1.00  0.00    -0.507 OA
ATOM     25  H   UNL     1       8.419  18.284  10.597  1.00  0.00     0.293 HD
ENDBRANCH   6  24
BRANCH   8  26
ATOM     26  O   UNL     1       6.940  19.541   5.263  1.00  0.00    -0.508 OA
ATOM     27  H   UNL     1       7.065  19.264   4.297  1.00  0.00     0.293 HD
ENDBRANCH   8  26
TORSDOF 6
ENDMDL
MODEL 9
REMARK VINA RESULT:    -5.639      3.127      4.114
REMARK INTER + INTRA:          -6.842
REMARK INTER:                  -6.933
REMARK INTRA:                   0.091
REMARK UNBOUND:                -0.049
REMARK SMILES O=c1c(O)c(-c2ccc(O)c(O)c2)oc2cc(O)cc(O)c12
REMARK SMILES IDX 5 1 3 2 2 3 1 4 22 5 20 6 19 7 17 8 16 9 15 10 14 11 6 12
REMARK SMILES IDX 7 13 8 14 9 15 13 16 11 17 10 18 12 20 4 22 21 24 18 26
REMARK H PARENT 10 19 12 21 4 23 21 25 18 27
REMARK Flexibility Score: inf
ROOT
ATOM      1  C   UNL     1       6.432  12.858   8.307  1.00  0.00     0.180 A 
ATOM      2  C   UNL     1       5.847  11.589   8.150  1.00  0.00     0.208 A 
ATOM      3  C   UNL     1       5.717  11.055   6.857  1.00  0.00     0.238 A 
ATOM      4  O   UNL     1       5.143   9.944   6.717  1.00  0.00    -0.285 OA
ATOM      5  C   UNL     1       6.190  11.788   5.742  1.00  0.00     0.111 A 
ATOM      6  C   UNL     1       6.146  11.327   4.391  1.00  0.00     0.134 A 
ATOM      7  C   UNL     1       6.521  12.189   3.354  1.00  0.00     0.093 A 
ATOM      8  C   UNL     1       7.000  13.474   3.624  1.00  0.00     0.123 A 
ATOM      9  C   UNL     1       7.102  13.912   4.942  1.00  0.00     0.094 A 
ATOM     10  C   UNL     1       6.701  13.087   5.996  1.00  0.00     0.146 A 
ATOM     11  O   UNL     1       6.805  13.548   7.237  1.00  0.00    -0.452 OA
ENDROOT
BRANCH   1  12
ATOM     12  C   UNL     1       6.626  13.475   9.639  1.00  0.00     0.025 A 
ATOM     13  C   UNL     1       7.868  14.044   9.962  1.00  0.00     0.016 A 
ATOM     14  C   UNL     1       8.079  14.613  11.221  1.00  0.00     0.051 A 
ATOM     15  C   UNL     1       7.058  14.608  12.180  1.00  0.00     0.157 A 
ATOM     16  C   UNL     1       5.610  13.454  10.613  1.00  0.00     0.062 A 
ATOM     17  C   UNL     1       5.820  14.021  11.874  1.00  0.00     0.158 A 
BRANCH  15  18
ATOM     18  O   UNL     1       7.272  15.180  13.434  1.00  0.00    -0.504 OA
ATOM     19  H   UNL     1       6.614  15.055  14.193  1.00  0.00     0.293 HD
ENDBRANCH  15  18
BRANCH  17  20
ATOM     20  O   UNL     1       4.787  13.988  12.811  1.00  0.00    -0.504 OA
ATOM     21  H   UNL     1       4.726  14.658  13.569  1.00  0.00     0.293 HD
ENDBRANCH  17  20
ENDBRANCH   1  12
BRANCH   2  22
ATOM     22  O   UNL     1       5.368  10.892   9.262  1.00  0.00    -0.502 OA
ATOM     23  H   UNL     1       4.468  11.090   9.682  1.00  0.00     0.293 HD
ENDBRANCH   2  22
BRANCH   6  24
ATOM     24  O   UNL     1       5.772  10.032   4.021  1.00  0.00    -0.507 OA
ATOM     25  H   UNL     1       5.319   9.368   4.630  1.00  0.00     0.293 HD
ENDBRANCH   6  24
BRANCH   8  26
ATOM     26  O   UNL     1       7.386  14.321   2.587  1.00  0.00    -0.508 OA
ATOM     27  H   UNL     1       7.887  15.184   2.765  1.00  0.00     0.293 HD
ENDBRANCH   8  26
TORSDOF 6
ENDMDL
