MODEL 1
REMARK VINA RESULT:    -4.996      0.000      0.000
REMARK INTER + INTRA:          -6.410
REMARK INTER:                  -7.040
REMARK INTRA:                   0.631
REMARK UNBOUND:                 0.631
REMARK SMILES CC1=CCC(=C(C)C)C(=O)CC(C)=CCC1
REMARK SMILES IDX 12 1 14 2 13 3 15 4 16 5 2 6 1 7 3 8 11 10 9 11 10 12 5 13
REMARK SMILES IDX 6 14 7 15 8 16 4 17
REMARK H PARENT
REMARK Flexibility Score: 60.00
ROOT
ATOM      1  C   UNL     1     108.142  49.622  64.536  1.00  0.00    -0.070 C 
ATOM      2  C   UNL     1     108.001  48.531  65.324  1.00  0.00    -0.027 C 
ATOM      3  C   UNL     1     106.891  50.290  64.022  1.00  0.00     0.039 C 
ENDROOT
BRANCH   2   4
ATOM      4  C   UNL     1     109.118  47.765  65.994  1.00  0.00     0.032 C 
BRANCH   4   5
ATOM      5  C   UNL     1     110.163  47.234  64.997  1.00  0.00     0.034 C 
BRANCH   5   6
ATOM      6  C   UNL     1     109.542  46.420  63.877  1.00  0.00    -0.077 C 
ATOM      7  C   UNL     1     108.795  45.161  64.238  1.00  0.00     0.039 C 
ATOM      8  C   UNL     1     109.635  46.745  62.567  1.00  0.00    -0.023 CG0
ATOM      9  G   UNL     1     110.385  47.927  62.000  1.00  0.00     0.000 G0
ENDBRANCH   5   6
ENDBRANCH   4   5
ENDBRANCH   2   4
BRANCH   1  10
ATOM     10  C   UNL     1     109.484  50.222  64.158  1.00  0.00     0.111 C 
BRANCH  10  11
ATOM     11  C   UNL     1     109.670  50.315  62.663  1.00  0.00     0.163 C 
ATOM     12  O   UNL     1     110.054  51.413  62.179  1.00  0.00    -0.294 OA
BRANCH  11  13
ATOM     13  C   UNL     1     109.497  49.137  61.759  1.00  0.00    -0.002 C 
ATOM     14  C   UNL     1     108.471  49.102  60.859  1.00  0.00    -0.069 C 
ATOM     15  C   UNL     1     107.518  50.267  60.706  1.00  0.00     0.039 C 
ATOM     16  C   UNL     1     108.212  47.878  60.009  1.00  0.00     0.039 C 
BRANCH  13  17
ATOM     17  C   UNL     1     110.392  47.923  61.973  1.00  0.00     0.066 CG0
ATOM     18  G   UNL     1     109.628  46.759  62.557  1.00  0.00     0.000 G0
ENDBRANCH  13  17
ENDBRANCH  11  13
ENDBRANCH  10  11
ENDBRANCH   1  10
TORSDOF 0
ENDMDL
MODEL 2
REMARK VINA RESULT:    -4.453      1.625      3.178
REMARK INTER + INTRA:          -5.644
REMARK INTER:                  -6.100
REMARK INTRA:                   0.456
REMARK UNBOUND:                 0.631
REMARK SMILES CC1=CCC(=C(C)C)C(=O)CC(C)=CCC1
REMARK SMILES IDX 12 1 14 2 13 3 15 4 16 5 2 6 1 7 3 8 11 10 9 11 10 12 5 13
REMARK SMILES IDX 6 14 7 15 8 16 4 17
REMARK H PARENT
REMARK Flexibility Score: 60.00
ROOT
ATOM      1  C   UNL     1     109.266  48.053  61.324  1.00  0.00    -0.070 C 
ATOM      2  C   UNL     1     109.114  46.849  61.922  1.00  0.00    -0.027 C 
ATOM      3  C   UNL     1     108.463  48.330  60.078  1.00  0.00     0.039 C 
ENDROOT
BRANCH   2   4
ATOM      4  C   UNL     1     109.768  46.404  63.209  1.00  0.00     0.032 C 
BRANCH   4   5
ATOM      5  C   UNL     1     108.795  46.387  64.401  1.00  0.00     0.034 C 
BRANCH   5   6
ATOM      6  C   UNL     1     108.978  47.580  65.321  1.00  0.00    -0.077 C 
ATOM      7  C   UNL     1     109.880  47.428  66.520  1.00  0.00     0.039 C 
ATOM      8  C   UNL     1     108.361  48.771  65.142  1.00  0.00    -0.023 CG0
ATOM      9  G   UNL     1     107.380  49.104  64.043  1.00  0.00     0.000 G0
ENDBRANCH   5   6
ENDBRANCH   4   5
ENDBRANCH   2   4
BRANCH   1  10
ATOM     10  C   UNL     1     110.182  49.145  61.846  1.00  0.00     0.111 C 
BRANCH  10  11
ATOM     11  C   UNL     1     109.491  50.046  62.842  1.00  0.00     0.163 C 
ATOM     12  O   UNL     1     110.197  50.860  63.495  1.00  0.00    -0.294 OA
BRANCH  11  13
ATOM     13  C   UNL     1     108.006  50.061  63.013  1.00  0.00    -0.002 C 
ATOM     14  C   UNL     1     107.246  50.993  62.367  1.00  0.00    -0.069 C 
ATOM     15  C   UNL     1     107.867  51.995  61.419  1.00  0.00     0.039 C 
ATOM     16  C   UNL     1     105.757  51.096  62.607  1.00  0.00     0.039 C 
BRANCH  13  17
ATOM     17  C   UNL     1     107.387  49.119  64.037  1.00  0.00     0.066 CG0
ATOM     18  G   UNL     1     108.356  48.782  65.146  1.00  0.00     0.000 G0
ENDBRANCH  13  17
ENDBRANCH  11  13
ENDBRANCH  10  11
ENDBRANCH   1  10
TORSDOF 0
ENDMDL
MODEL 3
REMARK VINA RESULT:    -3.817      2.103      3.980
REMARK INTER + INTRA:          -4.748
REMARK INTER:                  -5.970
REMARK INTRA:                   1.222
REMARK UNBOUND:                 0.631
REMARK SMILES CC1=CCC(=C(C)C)C(=O)CC(C)=CCC1
REMARK SMILES IDX 12 1 14 2 13 3 15 4 16 5 2 6 1 7 3 8 11 10 9 11 10 12 5 13
REMARK SMILES IDX 6 14 7 15 8 16 4 17
REMARK H PARENT
REMARK Flexibility Score: 60.00
ROOT
ATOM      1  C   UNL     1     109.589  47.560  63.890  1.00  0.00    -0.070 C 
ATOM      2  C   UNL     1     110.066  47.576  62.624  1.00  0.00    -0.027 C 
ATOM      3  C   UNL     1     109.167  46.233  64.471  1.00  0.00     0.039 C 
ENDROOT
BRANCH   2   4
ATOM      4  C   UNL     1     110.603  48.781  61.888  1.00  0.00     0.032 C 
BRANCH   4   5
ATOM      5  C   UNL     1     109.518  49.538  61.104  1.00  0.00     0.034 C 
BRANCH   5   6
ATOM      6  C   UNL     1     108.232  48.742  60.969  1.00  0.00    -0.077 C 
ATOM      7  C   UNL     1     108.238  47.520  60.086  1.00  0.00     0.039 C 
ATOM      8  C   UNL     1     107.072  49.075  61.580  1.00  0.00    -0.023 CG0
ATOM      9  G   UNL     1     106.847  50.288  62.453  1.00  0.00     0.000 G0
ENDBRANCH   5   6
ENDBRANCH   4   5
ENDBRANCH   2   4
BRANCH   1  10
ATOM     10  C   UNL     1     109.474  48.795  64.764  1.00  0.00     0.111 C 
BRANCH  10  11
ATOM     11  C   UNL     1     108.175  49.533  64.547  1.00  0.00     0.163 C 
ATOM     12  O   UNL     1     107.246  49.358  65.381  1.00  0.00    -0.294 OA
BRANCH  11  13
ATOM     13  C   UNL     1     107.987  50.515  63.436  1.00  0.00    -0.002 C 
ATOM     14  C   UNL     1     108.744  51.651  63.384  1.00  0.00    -0.069 C 
ATOM     15  C   UNL     1     109.826  51.923  64.405  1.00  0.00     0.039 C 
ATOM     16  C   UNL     1     108.500  52.710  62.332  1.00  0.00     0.039 C 
BRANCH  13  17
ATOM     17  C   UNL     1     106.838  50.295  62.462  1.00  0.00     0.066 CG0
ATOM     18  G   UNL     1     107.063  49.078  61.596  1.00  0.00     0.000 G0
ENDBRANCH  13  17
ENDBRANCH  11  13
ENDBRANCH  10  11
ENDBRANCH   1  10
TORSDOF 0
ENDMDL
MODEL 4
REMARK VINA RESULT:    -3.806      1.572      2.153
REMARK INTER + INTRA:          -4.732
REMARK INTER:                  -6.435
REMARK INTRA:                   1.703
REMARK UNBOUND:                 0.631
REMARK SMILES CC1=CCC(=C(C)C)C(=O)CC(C)=CCC1
REMARK SMILES IDX 12 1 14 2 13 3 15 4 16 5 2 6 1 7 3 8 11 10 9 11 10 12 5 13
REMARK SMILES IDX 6 14 7 15 8 16 4 17
REMARK H PARENT
REMARK Flexibility Score: 60.00
ROOT
ATOM      1  C   UNL     1     106.845  49.811  63.442  1.00  0.00    -0.070 C 
ATOM      2  C   UNL     1     107.407  49.569  64.649  1.00  0.00    -0.027 C 
ATOM      3  C   UNL     1     106.410  51.222  63.133  1.00  0.00     0.039 C 
ENDROOT
BRANCH   2   4
ATOM      4  C   UNL     1     107.971  48.250  65.122  1.00  0.00     0.032 C 
BRANCH   4   5
ATOM      5  C   UNL     1     109.463  48.082  64.788  1.00  0.00     0.034 C 
BRANCH   5   6
ATOM      6  C   UNL     1     109.700  47.115  63.641  1.00  0.00    -0.077 C 
ATOM      7  C   UNL     1     109.558  45.639  63.910  1.00  0.00     0.039 C 
ATOM      8  C   UNL     1     110.050  47.500  62.392  1.00  0.00    -0.023 CG0
ATOM      9  G   UNL     1     110.298  48.919  61.939  1.00  0.00     0.000 G0
ENDBRANCH   5   6
ENDBRANCH   4   5
ENDBRANCH   2   4
BRANCH   1  10
ATOM     10  C   UNL     1     106.648  48.750  62.375  1.00  0.00     0.111 C 
BRANCH  10  11
ATOM     11  C   UNL     1     107.759  48.749  61.353  1.00  0.00     0.163 C 
ATOM     12  O   UNL     1     107.606  48.060  60.309  1.00  0.00    -0.294 OA
BRANCH  11  13
ATOM     13  C   UNL     1     108.983  49.595  61.500  1.00  0.00    -0.002 C 
ATOM     14  C   UNL     1     108.963  50.908  61.128  1.00  0.00    -0.069 C 
ATOM     15  C   UNL     1     107.699  51.562  60.615  1.00  0.00     0.039 C 
ATOM     16  C   UNL     1     110.215  51.756  61.167  1.00  0.00     0.039 C 
BRANCH  13  17
ATOM     17  C   UNL     1     110.281  48.921  61.925  1.00  0.00     0.066 CG0
ATOM     18  G   UNL     1     110.052  47.498  62.377  1.00  0.00     0.000 G0
ENDBRANCH  13  17
ENDBRANCH  11  13
ENDBRANCH  10  11
ENDBRANCH   1  10
TORSDOF 0
ENDMDL
MODEL 5
REMARK VINA RESULT:    -3.627      1.351      3.546
REMARK INTER + INTRA:          -4.480
REMARK INTER:                  -5.294
REMARK INTRA:                   0.813
REMARK UNBOUND:                 0.631
REMARK SMILES CC1=CCC(=C(C)C)C(=O)CC(C)=CCC1
REMARK SMILES IDX 12 1 14 2 13 3 15 4 16 5 2 6 1 7 3 8 11 10 9 11 10 12 5 13
REMARK SMILES IDX 6 14 7 15 8 16 4 17
REMARK H PARENT
REMARK Flexibility Score: 60.00
ROOT
ATOM      1  C   UNL     1     107.291  51.412  61.790  1.00  0.00    -0.070 C 
ATOM      2  C   UNL     1     107.534  50.620  60.720  1.00  0.00    -0.027 C 
ATOM      3  C   UNL     1     107.020  52.875  61.539  1.00  0.00     0.039 C 
ENDROOT
BRANCH   2   4
ATOM      4  C   UNL     1     107.756  49.125  60.750  1.00  0.00     0.032 C 
BRANCH   4   5
ATOM      5  C   UNL     1     109.205  48.728  60.419  1.00  0.00     0.034 C 
BRANCH   5   6
ATOM      6  C   UNL     1     109.669  47.510  61.196  1.00  0.00    -0.077 C 
ATOM      7  C   UNL     1     109.497  46.151  60.566  1.00  0.00     0.039 C 
ATOM      8  C   UNL     1     110.212  47.568  62.434  1.00  0.00    -0.023 CG0
ATOM      9  G   UNL     1     110.414  48.820  63.255  1.00  0.00     0.000 G0
ENDBRANCH   5   6
ENDBRANCH   4   5
ENDBRANCH   2   4
BRANCH   1  10
ATOM     10  C   UNL     1     107.257  50.911  63.222  1.00  0.00     0.111 C 
BRANCH  10  11
ATOM     11  C   UNL     1     108.637  50.634  63.766  1.00  0.00     0.163 C 
ATOM     12  O   UNL     1     109.348  51.616  64.109  1.00  0.00    -0.294 OA
BRANCH  11  13
ATOM     13  C   UNL     1     109.148  49.247  63.988  1.00  0.00    -0.002 C 
ATOM     14  C   UNL     1     108.561  48.435  64.915  1.00  0.00    -0.069 C 
ATOM     15  C   UNL     1     107.349  48.885  65.701  1.00  0.00     0.039 C 
ATOM     16  C   UNL     1     109.124  47.068  65.233  1.00  0.00     0.039 C 
BRANCH  13  17
ATOM     17  C   UNL     1     110.423  48.822  63.271  1.00  0.00     0.066 CG0
ATOM     18  G   UNL     1     110.209  47.581  62.437  1.00  0.00     0.000 G0
ENDBRANCH  13  17
ENDBRANCH  11  13
ENDBRANCH  10  11
ENDBRANCH   1  10
TORSDOF 0
ENDMDL
MODEL 6
REMARK VINA RESULT:    -3.448      1.727      3.331
REMARK INTER + INTRA:          -4.228
REMARK INTER:                  -5.337
REMARK INTRA:                   1.109
REMARK UNBOUND:                 0.631
REMARK SMILES CC1=CCC(=C(C)C)C(=O)CC(C)=CCC1
REMARK SMILES IDX 12 1 14 2 13 3 15 4 16 5 2 6 1 7 3 8 11 10 9 11 10 12 5 13
REMARK SMILES IDX 6 14 7 15 8 16 4 17
REMARK H PARENT
REMARK Flexibility Score: 60.00
ROOT
ATOM      1  C   UNL     1     106.999  50.043  61.731  1.00  0.00    -0.070 C 
ATOM      2  C   UNL     1     107.324  48.748  61.514  1.00  0.00    -0.027 C 
ATOM      3  C   UNL     1     106.194  50.374  62.963  1.00  0.00     0.039 C 
ENDROOT
BRANCH   2   4
ATOM      4  C   UNL     1     108.179  48.220  60.386  1.00  0.00     0.032 C 
BRANCH   4   5
ATOM      5  C   UNL     1     109.282  47.262  60.867  1.00  0.00     0.034 C 
BRANCH   5   6
ATOM      6  C   UNL     1     109.720  47.544  62.293  1.00  0.00    -0.077 C 
ATOM      7  C   UNL     1     109.485  46.482  63.337  1.00  0.00     0.039 C 
ATOM      8  C   UNL     1     110.293  48.704  62.690  1.00  0.00    -0.023 CG0
ATOM      9  G   UNL     1     110.558  49.906  61.814  1.00  0.00     0.000 G0
ENDBRANCH   5   6
ENDBRANCH   4   5
ENDBRANCH   2   4
BRANCH   1  10
ATOM     10  C   UNL     1     107.414  51.182  60.818  1.00  0.00     0.111 C 
BRANCH  10  11
ATOM     11  C   UNL     1     108.808  51.679  61.117  1.00  0.00     0.163 C 
ATOM     12  O   UNL     1     109.233  52.678  60.477  1.00  0.00    -0.294 OA
BRANCH  11  13
ATOM     13  C   UNL     1     109.657  51.083  62.194  1.00  0.00    -0.002 C 
ATOM     14  C   UNL     1     109.708  51.659  63.430  1.00  0.00    -0.069 C 
ATOM     15  C   UNL     1     108.872  52.873  63.768  1.00  0.00     0.039 C 
ATOM     16  C   UNL     1     110.640  51.138  64.502  1.00  0.00     0.039 C 
BRANCH  13  17
ATOM     17  C   UNL     1     110.573  49.920  61.833  1.00  0.00     0.066 CG0
ATOM     18  G   UNL     1     110.301  48.707  62.690  1.00  0.00     0.000 G0
ENDBRANCH  13  17
ENDBRANCH  11  13
ENDBRANCH  10  11
ENDBRANCH   1  10
TORSDOF 0
ENDMDL
MODEL 7
REMARK VINA RESULT:    -3.430      1.751      3.795
REMARK INTER + INTRA:          -4.202
REMARK INTER:                  -5.613
REMARK INTRA:                   1.410
REMARK UNBOUND:                 0.631
REMARK SMILES CC1=CCC(=C(C)C)C(=O)CC(C)=CCC1
REMARK SMILES IDX 12 1 14 2 13 3 15 4 16 5 2 6 1 7 3 8 11 10 9 11 10 12 5 13
REMARK SMILES IDX 6 14 7 15 8 16 4 17
REMARK H PARENT
REMARK Flexibility Score: 60.00
ROOT
ATOM      1  C   UNL     1     107.596  51.564  62.561  1.00  0.00    -0.070 C 
ATOM      2  C   UNL     1     108.878  51.932  62.786  1.00  0.00    -0.027 C 
ATOM      3  C   UNL     1     106.856  52.233  61.429  1.00  0.00     0.039 C 
ENDROOT
BRANCH   2   4
ATOM      4  C   UNL     1     109.809  51.336  63.816  1.00  0.00     0.032 C 
BRANCH   4   5
ATOM      5  C   UNL     1     110.638  50.163  63.268  1.00  0.00     0.034 C 
BRANCH   5   6
ATOM      6  C   UNL     1     110.331  49.860  61.812  1.00  0.00    -0.077 C 
ATOM      7  C   UNL     1     110.741  50.870  60.770  1.00  0.00     0.039 C 
ATOM      8  C   UNL     1     109.692  48.743  61.393  1.00  0.00    -0.023 CG0
ATOM      9  G   UNL     1     109.153  47.646  62.280  1.00  0.00     0.000 G0
ENDBRANCH   5   6
ENDBRANCH   4   5
ENDBRANCH   2   4
BRANCH   1  10
ATOM     10  C   UNL     1     106.867  50.505  63.368  1.00  0.00     0.111 C 
BRANCH  10  11
ATOM     11  C   UNL     1     107.068  49.117  62.807  1.00  0.00     0.163 C 
ATOM     12  O   UNL     1     106.340  48.754  61.846  1.00  0.00    -0.294 OA
BRANCH  11  13
ATOM     13  C   UNL     1     108.147  48.205  63.296  1.00  0.00    -0.002 C 
ATOM     14  C   UNL     1     108.320  47.994  64.633  1.00  0.00    -0.069 C 
ATOM     15  C   UNL     1     107.400  48.625  65.655  1.00  0.00     0.039 C 
ATOM     16  C   UNL     1     109.469  47.161  65.156  1.00  0.00     0.039 C 
BRANCH  13  17
ATOM     17  C   UNL     1     109.134  47.644  62.280  1.00  0.00     0.066 CG0
ATOM     18  G   UNL     1     109.697  48.727  61.390  1.00  0.00     0.000 G0
ENDBRANCH  13  17
ENDBRANCH  11  13
ENDBRANCH  10  11
ENDBRANCH   1  10
TORSDOF 0
ENDMDL
MODEL 8
REMARK VINA RESULT:    -3.307      2.410      5.111
REMARK INTER + INTRA:          -4.030
REMARK INTER:                  -4.925
REMARK INTRA:                   0.895
REMARK UNBOUND:                 0.631
REMARK SMILES CC1=CCC(=C(C)C)C(=O)CC(C)=CCC1
REMARK SMILES IDX 12 1 14 2 13 3 15 4 16 5 2 6 1 7 3 8 11 10 9 11 10 12 5 13
REMARK SMILES IDX 6 14 7 15 8 16 4 17
REMARK H PARENT
REMARK Flexibility Score: 60.00
ROOT
ATOM      1  C   UNL     1     109.984  49.414  61.542  1.00  0.00    -0.070 C 
ATOM      2  C   UNL     1     110.361  50.713  61.556  1.00  0.00    -0.027 C 
ATOM      3  C   UNL     1     110.941  48.393  62.107  1.00  0.00     0.039 C 
ENDROOT
BRANCH   2   4
ATOM      4  C   UNL     1     109.525  51.889  61.106  1.00  0.00     0.032 C 
BRANCH   4   5
ATOM      5  C   UNL     1     108.762  52.558  62.262  1.00  0.00     0.034 C 
BRANCH   5   6
ATOM      6  C   UNL     1     107.286  52.204  62.271  1.00  0.00    -0.077 C 
ATOM      7  C   UNL     1     106.361  52.970  61.360  1.00  0.00     0.039 C 
ATOM      8  C   UNL     1     106.745  51.251  63.066  1.00  0.00    -0.023 CG0
ATOM      9  G   UNL     1     107.489  50.419  64.083  1.00  0.00     0.000 G0
ENDBRANCH   5   6
ENDBRANCH   4   5
ENDBRANCH   2   4
BRANCH   1  10
ATOM     10  C   UNL     1     108.648  48.928  61.011  1.00  0.00     0.111 C 
BRANCH  10  11
ATOM     11  C   UNL     1     107.622  48.758  62.106  1.00  0.00     0.163 C 
ATOM     12  O   UNL     1     106.501  48.271  61.799  1.00  0.00    -0.294 OA
BRANCH  11  13
ATOM     13  C   UNL     1     107.920  49.065  63.538  1.00  0.00    -0.002 C 
ATOM     14  C   UNL     1     108.446  48.106  64.355  1.00  0.00    -0.069 C 
ATOM     15  C   UNL     1     108.796  46.731  63.831  1.00  0.00     0.039 C 
ATOM     16  C   UNL     1     108.657  48.360  65.831  1.00  0.00     0.039 C 
BRANCH  13  17
ATOM     17  C   UNL     1     107.482  50.414  64.094  1.00  0.00     0.066 CG0
ATOM     18  G   UNL     1     106.752  51.236  63.059  1.00  0.00     0.000 G0
ENDBRANCH  13  17
ENDBRANCH  11  13
ENDBRANCH  10  11
ENDBRANCH   1  10
TORSDOF 0
ENDMDL
MODEL 9
REMARK VINA RESULT:    -3.260      1.325      2.680
REMARK INTER + INTRA:          -3.963
REMARK INTER:                  -5.452
REMARK INTRA:                   1.489
REMARK UNBOUND:                 0.631
REMARK SMILES CC1=CCC(=C(C)C)C(=O)CC(C)=CCC1
REMARK SMILES IDX 12 1 14 2 13 3 15 4 16 5 2 6 1 7 3 8 11 10 9 11 10 12 5 13
REMARK SMILES IDX 6 14 7 15 8 16 4 17
REMARK H PARENT
REMARK Flexibility Score: 60.00
ROOT
ATOM      1  C   UNL     1     107.292  51.577  61.671  1.00  0.00    -0.070 C 
ATOM      2  C   UNL     1     106.971  51.319  62.959  1.00  0.00    -0.027 C 
ATOM      3  C   UNL     1     107.006  52.958  61.133  1.00  0.00     0.039 C 
ENDROOT
BRANCH   2   4
ATOM      4  C   UNL     1     107.238  50.032  63.704  1.00  0.00     0.032 C 
BRANCH   4   5
ATOM      5  C   UNL     1     108.527  50.082  64.543  1.00  0.00     0.034 C 
BRANCH   5   6
ATOM      6  C   UNL     1     109.118  48.705  64.787  1.00  0.00    -0.077 C 
ATOM      7  C   UNL     1     108.645  47.926  65.988  1.00  0.00     0.039 C 
ATOM      8  C   UNL     1     110.064  48.141  64.000  1.00  0.00    -0.023 CG0
ATOM      9  G   UNL     1     110.707  48.780  62.792  1.00  0.00     0.000 G0
ENDBRANCH   5   6
ENDBRANCH   4   5
ENDBRANCH   2   4
BRANCH   1  10
ATOM     10  C   UNL     1     107.940  50.566  60.743  1.00  0.00     0.111 C 
BRANCH  10  11
ATOM     11  C   UNL     1     109.358  50.243  61.146  1.00  0.00     0.163 C 
ATOM     12  O   UNL     1     110.200  51.181  61.158  1.00  0.00    -0.294 OA
BRANCH  11  13
ATOM     13  C   UNL     1     109.771  48.883  61.608  1.00  0.00    -0.002 C 
ATOM     14  C   UNL     1     109.201  47.767  61.064  1.00  0.00    -0.069 C 
ATOM     15  C   UNL     1     108.186  47.867  59.947  1.00  0.00     0.039 C 
ATOM     16  C   UNL     1     109.523  46.385  61.588  1.00  0.00     0.039 C 
BRANCH  13  17
ATOM     17  C   UNL     1     110.719  48.778  62.795  1.00  0.00     0.066 CG0
ATOM     18  G   UNL     1     110.050  48.142  63.991  1.00  0.00     0.000 G0
ENDBRANCH  13  17
ENDBRANCH  11  13
ENDBRANCH  10  11
ENDBRANCH   1  10
TORSDOF 0
ENDMDL
