MODEL 1
REMARK VINA RESULT:    -4.870      0.000      0.000
REMARK INTER + INTRA:          -6.593
REMARK INTER:                  -6.578
REMARK INTRA:                  -0.015
REMARK UNBOUND:                -0.015
REMARK SMILES O=c1c(-c2ccc(O)cc2)coc2c([C@H]3O[C@@H](CO)[C@H](O)[C@@H](O)[C@H]3O)c(O)ccc12
REMARK SMILES IDX 3 1 11 2 12 3 13 4 30 5 2 6 1 7 29 8 28 9 26 10 14 11 4 12
REMARK SMILES IDX 5 13 6 14 7 15 10 16 9 17 8 18 15 20 24 21 16 22 22 23 17 24
REMARK SMILES IDX 20 25 25 26 23 28 18 30 19 31 21 33 27 35
REMARK H PARENT 8 19 25 27 23 29 19 32 21 34 27 36
REMARK Flexibility Score: inf
ROOT
ATOM      1  C   UNL     1      31.861   3.912   7.948  1.00  0.00     0.065 A 
ATOM      2  C   UNL     1      32.707   4.970   8.308  1.00  0.00     0.208 A 
ATOM      3  O   UNL     1      33.307   4.991   9.492  1.00  0.00    -0.463 OA
ATOM      4  C   UNL     1      33.154   4.032  10.403  1.00  0.00     0.147 A 
ATOM      5  C   UNL     1      32.327   2.921  10.118  1.00  0.00     0.066 A 
ATOM      6  C   UNL     1      31.678   2.866   8.871  1.00  0.00     0.200 A 
ATOM      7  O   UNL     1      30.954   1.875   8.573  1.00  0.00    -0.288 OA
ATOM      8  C   UNL     1      32.183   1.902  11.070  1.00  0.00     0.020 A 
ATOM      9  C   UNL     1      32.860   1.978  12.286  1.00  0.00     0.047 A 
ATOM     10  C   UNL     1      33.684   3.072  12.579  1.00  0.00     0.125 A 
ATOM     11  C   UNL     1      33.824   4.127  11.646  1.00  0.00     0.069 A 
ENDROOT
BRANCH   1  12
ATOM     12  C   UNL     1      31.194   3.915   6.621  1.00  0.00    -0.011 A 
ATOM     13  C   UNL     1      29.792   3.949   6.532  1.00  0.00     0.013 A 
ATOM     14  C   UNL     1      29.161   3.944   5.285  1.00  0.00     0.047 A 
ATOM     15  C   UNL     1      29.921   3.901   4.112  1.00  0.00     0.115 A 
ATOM     16  C   UNL     1      31.952   3.865   5.438  1.00  0.00     0.013 A 
ATOM     17  C   UNL     1      31.319   3.860   4.191  1.00  0.00     0.047 A 
BRANCH  15  18
ATOM     18  O   UNL     1      29.279   3.897   2.875  1.00  0.00    -0.508 OA
ATOM     19  H   UNL     1      29.311   4.700   2.260  1.00  0.00     0.293 HD
ENDBRANCH  15  18
ENDBRANCH   1  12
BRANCH  11  20
ATOM     20  C   UNL     1      34.734   5.321  11.918  1.00  0.00     0.188 C 
ATOM     21  C   UNL     1      33.897   6.589  12.212  1.00  0.00     0.179 C 
ATOM     22  O   UNL     1      35.618   5.537  10.830  1.00  0.00    -0.362 OA
ATOM     23  C   UNL     1      34.839   7.786  12.467  1.00  0.00     0.177 C 
ATOM     24  C   UNL     1      36.588   6.523  11.150  1.00  0.00     0.176 C 
ATOM     25  C   UNL     1      35.920   7.904  11.372  1.00  0.00     0.177 C 
BRANCH  21  26
ATOM     26  O   UNL     1      32.975   6.858  11.181  1.00  0.00    -0.387 OA
ATOM     27  H   UNL     1      32.063   6.834  11.570  1.00  0.00     0.211 HD
ENDBRANCH  21  26
BRANCH  23  28
ATOM     28  O   UNL     1      34.117   8.984  12.611  1.00  0.00    -0.387 OA
ATOM     29  H   UNL     1      33.666   8.965  13.496  1.00  0.00     0.211 HD
ENDBRANCH  23  28
BRANCH  24  30
ATOM     30  C   UNL     1      37.626   6.570  10.016  1.00  0.00     0.191 C 
BRANCH  30  31
ATOM     31  O   UNL     1      38.858   7.061  10.475  1.00  0.00    -0.394 OA
ATOM     32  H   UNL     1      39.204   6.398  11.129  1.00  0.00     0.210 HD
ENDBRANCH  30  31
ENDBRANCH  24  30
BRANCH  25  33
ATOM     33  O   UNL     1      36.878   8.846  11.784  1.00  0.00    -0.388 OA
ATOM     34  H   UNL     1      36.571   9.219  12.650  1.00  0.00     0.211 HD
ENDBRANCH  25  33
ENDBRANCH  11  20
BRANCH  10  35
ATOM     35  O   UNL     1      34.365   3.100  13.797  1.00  0.00    -0.507 OA
ATOM     36  H   UNL     1      34.923   2.316  14.115  1.00  0.00     0.293 HD
ENDBRANCH  10  35
TORSDOF 9
ENDMDL
MODEL 2
REMARK VINA RESULT:    -4.577      1.981      3.969
REMARK INTER + INTRA:          -6.197
REMARK INTER:                  -6.727
REMARK INTRA:                   0.530
REMARK UNBOUND:                -0.015
REMARK SMILES O=c1c(-c2ccc(O)cc2)coc2c([C@H]3O[C@@H](CO)[C@H](O)[C@@H](O)[C@H]3O)c(O)ccc12
REMARK SMILES IDX 3 1 11 2 12 3 13 4 30 5 2 6 1 7 29 8 28 9 26 10 14 11 4 12
REMARK SMILES IDX 5 13 6 14 7 15 10 16 9 17 8 18 15 20 24 21 16 22 22 23 17 24
REMARK SMILES IDX 20 25 25 26 23 28 18 30 19 31 21 33 27 35
REMARK H PARENT 8 19 25 27 23 29 19 32 21 34 27 36
REMARK Flexibility Score: inf
ROOT
ATOM      1  C   UNL     1      32.375   4.241   7.586  1.00  0.00     0.065 A 
ATOM      2  C   UNL     1      32.582   3.536   8.780  1.00  0.00     0.208 A 
ATOM      3  O   UNL     1      33.273   4.073   9.777  1.00  0.00    -0.463 OA
ATOM      4  C   UNL     1      33.808   5.291   9.721  1.00  0.00     0.147 A 
ATOM      5  C   UNL     1      33.639   6.076   8.557  1.00  0.00     0.066 A 
ATOM      6  C   UNL     1      32.909   5.538   7.481  1.00  0.00     0.200 A 
ATOM      7  O   UNL     1      32.715   6.223   6.438  1.00  0.00    -0.288 OA
ATOM      8  C   UNL     1      34.186   7.366   8.506  1.00  0.00     0.020 A 
ATOM      9  C   UNL     1      34.883   7.876   9.600  1.00  0.00     0.047 A 
ATOM     10  C   UNL     1      35.056   7.109  10.759  1.00  0.00     0.125 A 
ATOM     11  C   UNL     1      34.537   5.793  10.825  1.00  0.00     0.069 A 
ENDROOT
BRANCH   1  12
ATOM     12  C   UNL     1      31.606   3.616   6.481  1.00  0.00    -0.011 A 
ATOM     13  C   UNL     1      31.614   4.189   5.198  1.00  0.00     0.013 A 
ATOM     14  C   UNL     1      30.884   3.608   4.157  1.00  0.00     0.047 A 
ATOM     15  C   UNL     1      30.133   2.450   4.385  1.00  0.00     0.115 A 
ATOM     16  C   UNL     1      30.843   2.456   6.705  1.00  0.00     0.013 A 
ATOM     17  C   UNL     1      30.114   1.875   5.663  1.00  0.00     0.047 A 
BRANCH  15  18
ATOM     18  O   UNL     1      29.411   1.880   3.339  1.00  0.00    -0.508 OA
ATOM     19  H   UNL     1      28.459   1.560   3.466  1.00  0.00     0.293 HD
ENDBRANCH  15  18
ENDBRANCH   1  12
BRANCH  11  20
ATOM     20  C   UNL     1      34.682   4.939  12.080  1.00  0.00     0.188 C 
ATOM     21  C   UNL     1      33.322   4.310  12.471  1.00  0.00     0.179 C 
ATOM     22  O   UNL     1      35.213   5.703  13.150  1.00  0.00    -0.362 OA
ATOM     23  C   UNL     1      33.490   3.465  13.753  1.00  0.00     0.177 C 
ATOM     24  C   UNL     1      35.524   4.877  14.262  1.00  0.00     0.176 C 
ATOM     25  C   UNL     1      34.239   4.243  14.855  1.00  0.00     0.177 C 
BRANCH  21  26
ATOM     26  O   UNL     1      32.316   5.286  12.615  1.00  0.00    -0.387 OA
ATOM     27  H   UNL     1      32.333   5.610  13.552  1.00  0.00     0.211 HD
ENDBRANCH  21  26
BRANCH  23  28
ATOM     28  O   UNL     1      32.253   2.981  14.213  1.00  0.00    -0.387 OA
ATOM     29  H   UNL     1      32.045   3.437  15.070  1.00  0.00     0.211 HD
ENDBRANCH  23  28
BRANCH  24  30
ATOM     30  C   UNL     1      36.272   5.725  15.304  1.00  0.00     0.191 C 
BRANCH  30  31
ATOM     31  O   UNL     1      36.841   4.918  16.302  1.00  0.00    -0.394 OA
ATOM     32  H   UNL     1      37.497   5.484  16.788  1.00  0.00     0.210 HD
ENDBRANCH  30  31
ENDBRANCH  24  30
BRANCH  25  33
ATOM     33  O   UNL     1      34.571   3.353  15.890  1.00  0.00    -0.388 OA
ATOM     34  H   UNL     1      34.762   2.473  15.473  1.00  0.00     0.211 HD
ENDBRANCH  25  33
ENDBRANCH  11  20
BRANCH  10  35
ATOM     35  O   UNL     1      35.738   7.663  11.842  1.00  0.00    -0.507 OA
ATOM     36  H   UNL     1      35.878   7.149  12.705  1.00  0.00     0.293 HD
ENDBRANCH  10  35
TORSDOF 9
ENDMDL
MODEL 3
REMARK VINA RESULT:    -3.762      2.202      8.519
REMARK INTER + INTRA:          -5.096
REMARK INTER:                  -6.870
REMARK INTRA:                   1.774
REMARK UNBOUND:                -0.015
REMARK SMILES O=c1c(-c2ccc(O)cc2)coc2c([C@H]3O[C@@H](CO)[C@H](O)[C@@H](O)[C@H]3O)c(O)ccc12
REMARK SMILES IDX 3 1 11 2 12 3 13 4 30 5 2 6 1 7 29 8 28 9 26 10 14 11 4 12
REMARK SMILES IDX 5 13 6 14 7 15 10 16 9 17 8 18 15 20 24 21 16 22 22 23 17 24
REMARK SMILES IDX 20 25 25 26 23 28 18 30 19 31 21 33 27 35
REMARK H PARENT 8 19 25 27 23 29 19 32 21 34 27 36
REMARK Flexibility Score: inf
ROOT
ATOM      1  C   UNL     1      33.160   3.848  10.817  1.00  0.00     0.065 A 
ATOM      2  C   UNL     1      32.291   3.077  10.032  1.00  0.00     0.208 A 
ATOM      3  O   UNL     1      32.069   3.384   8.760  1.00  0.00    -0.463 OA
ATOM      4  C   UNL     1      32.641   4.419   8.149  1.00  0.00     0.147 A 
ATOM      5  C   UNL     1      33.540   5.243   8.864  1.00  0.00     0.066 A 
ATOM      6  C   UNL     1      33.800   4.946  10.214  1.00  0.00     0.200 A 
ATOM      7  O   UNL     1      34.619   5.645  10.873  1.00  0.00    -0.288 OA
ATOM      8  C   UNL     1      34.157   6.322   8.214  1.00  0.00     0.020 A 
ATOM      9  C   UNL     1      33.894   6.574   6.869  1.00  0.00     0.047 A 
ATOM     10  C   UNL     1      33.007   5.763   6.149  1.00  0.00     0.125 A 
ATOM     11  C   UNL     1      32.350   4.685   6.790  1.00  0.00     0.069 A 
ENDROOT
BRANCH   1  12
ATOM     12  C   UNL     1      33.385   3.491  12.240  1.00  0.00    -0.011 A 
ATOM     13  C   UNL     1      33.972   4.417  13.120  1.00  0.00     0.013 A 
ATOM     14  C   UNL     1      34.194   4.081  14.459  1.00  0.00     0.047 A 
ATOM     15  C   UNL     1      33.836   2.815  14.935  1.00  0.00     0.115 A 
ATOM     16  C   UNL     1      33.036   2.217  12.724  1.00  0.00     0.013 A 
ATOM     17  C   UNL     1      33.258   1.883  14.063  1.00  0.00     0.047 A 
BRANCH  15  18
ATOM     18  O   UNL     1      34.062   2.493  16.271  1.00  0.00    -0.508 OA
ATOM     19  H   UNL     1      33.620   1.692  16.705  1.00  0.00     0.293 HD
ENDBRANCH  15  18
ENDBRANCH   1  12
BRANCH  11  20
ATOM     20  C   UNL     1      31.399   3.764   6.032  1.00  0.00     0.188 C 
ATOM     21  C   UNL     1      30.901   4.443   4.733  1.00  0.00     0.179 C 
ATOM     22  O   UNL     1      30.308   3.382   6.855  1.00  0.00    -0.362 OA
ATOM     23  C   UNL     1      29.927   3.499   3.994  1.00  0.00     0.177 C 
ATOM     24  C   UNL     1      29.519   2.384   6.225  1.00  0.00     0.176 C 
ATOM     25  C   UNL     1      28.848   2.937   4.942  1.00  0.00     0.177 C 
BRANCH  21  26
ATOM     26  O   UNL     1      30.320   5.700   4.989  1.00  0.00    -0.387 OA
ATOM     27  H   UNL     1      30.512   5.942   5.931  1.00  0.00     0.211 HD
ENDBRANCH  21  26
BRANCH  23  28
ATOM     28  O   UNL     1      29.355   4.130   2.875  1.00  0.00    -0.387 OA
ATOM     29  H   UNL     1      29.345   3.477   2.127  1.00  0.00     0.211 HD
ENDBRANCH  23  28
BRANCH  24  30
ATOM     30  C   UNL     1      28.479   1.875   7.236  1.00  0.00     0.191 C 
BRANCH  30  31
ATOM     31  O   UNL     1      27.192   2.335   6.916  1.00  0.00    -0.394 OA
ATOM     32  H   UNL     1      26.697   1.560   6.541  1.00  0.00     0.210 HD
ENDBRANCH  30  31
ENDBRANCH  24  30
BRANCH  25  33
ATOM     33  O   UNL     1      28.152   1.913   4.278  1.00  0.00    -0.388 OA
ATOM     34  H   UNL     1      27.597   1.447   4.954  1.00  0.00     0.211 HD
ENDBRANCH  25  33
ENDBRANCH  11  20
BRANCH  10  35
ATOM     35  O   UNL     1      32.788   6.031   4.798  1.00  0.00    -0.507 OA
ATOM     36  H   UNL     1      32.084   5.536   4.262  1.00  0.00     0.293 HD
ENDBRANCH  10  35
TORSDOF 9
ENDMDL
MODEL 4
REMARK VINA RESULT:    -2.868      2.066      3.761
REMARK INTER + INTRA:          -3.889
REMARK INTER:                  -3.884
REMARK INTRA:                  -0.004
REMARK UNBOUND:                -0.015
REMARK SMILES O=c1c(-c2ccc(O)cc2)coc2c([C@H]3O[C@@H](CO)[C@H](O)[C@@H](O)[C@H]3O)c(O)ccc12
REMARK SMILES IDX 3 1 11 2 12 3 13 4 30 5 2 6 1 7 29 8 28 9 26 10 14 11 4 12
REMARK SMILES IDX 5 13 6 14 7 15 10 16 9 17 8 18 15 20 24 21 16 22 22 23 17 24
REMARK SMILES IDX 20 25 25 26 23 28 18 30 19 31 21 33 27 35
REMARK H PARENT 8 19 25 27 23 29 19 32 21 34 27 36
REMARK Flexibility Score: inf
ROOT
ATOM      1  C   UNL     1      31.190   3.995   6.762  1.00  0.00     0.065 A 
ATOM      2  C   UNL     1      31.208   3.571   8.099  1.00  0.00     0.208 A 
ATOM      3  O   UNL     1      32.110   4.043   8.950  1.00  0.00    -0.463 OA
ATOM      4  C   UNL     1      33.042   4.931   8.608  1.00  0.00     0.147 A 
ATOM      5  C   UNL     1      33.088   5.420   7.282  1.00  0.00     0.066 A 
ATOM      6  C   UNL     1      32.145   4.943   6.354  1.00  0.00     0.200 A 
ATOM      7  O   UNL     1      32.140   5.380   5.169  1.00  0.00    -0.288 OA
ATOM      8  C   UNL     1      34.056   6.371   6.928  1.00  0.00     0.020 A 
ATOM      9  C   UNL     1      34.961   6.838   7.879  1.00  0.00     0.047 A 
ATOM     10  C   UNL     1      34.923   6.364   9.196  1.00  0.00     0.125 A 
ATOM     11  C   UNL     1      33.974   5.384   9.572  1.00  0.00     0.069 A 
ENDROOT
BRANCH   1  12
ATOM     12  C   UNL     1      30.176   3.446   5.826  1.00  0.00    -0.011 A 
ATOM     13  C   UNL     1      28.805   3.618   6.085  1.00  0.00     0.013 A 
ATOM     14  C   UNL     1      27.848   3.095   5.210  1.00  0.00     0.047 A 
ATOM     15  C   UNL     1      28.247   2.391   4.069  1.00  0.00     0.115 A 
ATOM     16  C   UNL     1      30.570   2.730   4.682  1.00  0.00     0.013 A 
ATOM     17  C   UNL     1      29.611   2.208   3.808  1.00  0.00     0.047 A 
BRANCH  15  18
ATOM     18  O   UNL     1      27.283   1.876   3.206  1.00  0.00    -0.508 OA
ATOM     19  H   UNL     1      27.510   1.164   2.523  1.00  0.00     0.293 HD
ENDBRANCH  15  18
ENDBRANCH   1  12
BRANCH  11  20
ATOM     20  C   UNL     1      33.885   4.863  11.003  1.00  0.00     0.188 C 
ATOM     21  C   UNL     1      32.422   4.905  11.509  1.00  0.00     0.179 C 
ATOM     22  O   UNL     1      34.739   5.602  11.860  1.00  0.00    -0.362 OA
ATOM     23  C   UNL     1      32.361   4.390  12.964  1.00  0.00     0.177 C 
ATOM     24  C   UNL     1      34.805   5.011  13.150  1.00  0.00     0.176 C 
ATOM     25  C   UNL     1      33.425   5.067  13.854  1.00  0.00     0.177 C 
BRANCH  21  26
ATOM     26  O   UNL     1      31.862   6.191  11.384  1.00  0.00    -0.387 OA
ATOM     27  H   UNL     1      32.601   6.836  11.237  1.00  0.00     0.211 HD
ENDBRANCH  21  26
BRANCH  23  28
ATOM     28  O   UNL     1      31.070   4.532  13.503  1.00  0.00    -0.387 OA
ATOM     29  H   UNL     1      30.421   4.186  12.837  1.00  0.00     0.211 HD
ENDBRANCH  23  28
BRANCH  24  30
ATOM     30  C   UNL     1      35.888   5.737  13.964  1.00  0.00     0.191 C 
BRANCH  30  31
ATOM     31  O   UNL     1      36.021   5.178  15.244  1.00  0.00    -0.394 OA
ATOM     32  H   UNL     1      36.876   5.519  15.618  1.00  0.00     0.210 HD
ENDBRANCH  30  31
ENDBRANCH  24  30
BRANCH  25  33
ATOM     33  O   UNL     1      33.480   4.392  15.085  1.00  0.00    -0.388 OA
ATOM     34  H   UNL     1      34.426   4.401  15.384  1.00  0.00     0.211 HD
ENDBRANCH  25  33
ENDBRANCH  11  20
BRANCH  10  35
ATOM     35  O   UNL     1      35.829   6.874  10.126  1.00  0.00    -0.507 OA
ATOM     36  H   UNL     1      35.714   7.795  10.534  1.00  0.00     0.293 HD
ENDBRANCH  10  35
TORSDOF 9
ENDMDL
MODEL 5
REMARK VINA RESULT:    -2.762      1.846      4.063
REMARK INTER + INTRA:          -3.746
REMARK INTER:                  -5.082
REMARK INTRA:                   1.336
REMARK UNBOUND:                -0.015
REMARK SMILES O=c1c(-c2ccc(O)cc2)coc2c([C@H]3O[C@@H](CO)[C@H](O)[C@@H](O)[C@H]3O)c(O)ccc12
REMARK SMILES IDX 3 1 11 2 12 3 13 4 30 5 2 6 1 7 29 8 28 9 26 10 14 11 4 12
REMARK SMILES IDX 5 13 6 14 7 15 10 16 9 17 8 18 15 20 24 21 16 22 22 23 17 24
REMARK SMILES IDX 20 25 25 26 23 28 18 30 19 31 21 33 27 35
REMARK H PARENT 8 19 25 27 23 29 19 32 21 34 27 36
REMARK Flexibility Score: inf
ROOT
ATOM      1  C   UNL     1      31.792   4.430   7.454  1.00  0.00     0.065 A 
ATOM      2  C   UNL     1      31.716   4.061   8.804  1.00  0.00     0.208 A 
ATOM      3  O   UNL     1      32.495   4.636   9.712  1.00  0.00    -0.463 OA
ATOM      4  C   UNL     1      33.383   5.582   9.416  1.00  0.00     0.147 A 
ATOM      5  C   UNL     1      33.517   6.023   8.079  1.00  0.00     0.066 A 
ATOM      6  C   UNL     1      32.706   5.436   7.091  1.00  0.00     0.200 A 
ATOM      7  O   UNL     1      32.780   5.825   5.892  1.00  0.00    -0.288 OA
ATOM      8  C   UNL     1      34.440   7.034   7.772  1.00  0.00     0.020 A 
ATOM      9  C   UNL     1      35.211   7.608   8.779  1.00  0.00     0.047 A 
ATOM     10  C   UNL     1      35.086   7.183  10.108  1.00  0.00     0.125 A 
ATOM     11  C   UNL     1      34.182   6.145  10.440  1.00  0.00     0.069 A 
ENDROOT
BRANCH   1  12
ATOM     12  C   UNL     1      30.916   3.766   6.455  1.00  0.00    -0.011 A 
ATOM     13  C   UNL     1      29.541   4.054   6.415  1.00  0.00     0.013 A 
ATOM     14  C   UNL     1      28.712   3.424   5.482  1.00  0.00     0.047 A 
ATOM     15  C   UNL     1      29.245   2.497   4.580  1.00  0.00     0.115 A 
ATOM     16  C   UNL     1      31.444   2.827   5.550  1.00  0.00     0.013 A 
ATOM     17  C   UNL     1      30.613   2.199   4.617  1.00  0.00     0.047 A 
BRANCH  15  18
ATOM     18  O   UNL     1      28.408   1.877   3.655  1.00  0.00    -0.508 OA
ATOM     19  H   UNL     1      28.573   1.951   2.659  1.00  0.00     0.293 HD
ENDBRANCH  15  18
ENDBRANCH   1  12
BRANCH  11  20
ATOM     20  C   UNL     1      33.999   5.674  11.879  1.00  0.00     0.188 C 
ATOM     21  C   UNL     1      35.167   6.167  12.768  1.00  0.00     0.179 C 
ATOM     22  O   UNL     1      33.881   4.262  11.934  1.00  0.00    -0.362 OA
ATOM     23  C   UNL     1      34.967   5.663  14.214  1.00  0.00     0.177 C 
ATOM     24  C   UNL     1      33.526   3.830  13.239  1.00  0.00     0.176 C 
ATOM     25  C   UNL     1      34.652   4.153  14.254  1.00  0.00     0.177 C 
BRANCH  21  26
ATOM     26  O   UNL     1      36.418   5.784  12.247  1.00  0.00    -0.387 OA
ATOM     27  H   UNL     1      36.286   4.970  11.696  1.00  0.00     0.211 HD
ENDBRANCH  21  26
BRANCH  23  28
ATOM     28  O   UNL     1      36.072   5.982  15.023  1.00  0.00    -0.387 OA
ATOM     29  H   UNL     1      36.346   5.159  15.504  1.00  0.00     0.211 HD
ENDBRANCH  23  28
BRANCH  24  30
ATOM     30  C   UNL     1      33.223   2.324  13.188  1.00  0.00     0.191 C 
BRANCH  30  31
ATOM     31  O   UNL     1      32.669   1.875  14.397  1.00  0.00    -0.394 OA
ATOM     32  H   UNL     1      31.687   1.821  14.260  1.00  0.00     0.210 HD
ENDBRANCH  30  31
ENDBRANCH  24  30
BRANCH  25  33
ATOM     33  O   UNL     1      34.247   3.811  15.555  1.00  0.00    -0.388 OA
ATOM     34  H   UNL     1      34.910   4.200  16.182  1.00  0.00     0.211 HD
ENDBRANCH  25  33
ENDBRANCH  11  20
BRANCH  10  35
ATOM     35  O   UNL     1      35.858   7.800  11.092  1.00  0.00    -0.507 OA
ATOM     36  H   UNL     1      36.149   8.768  11.015  1.00  0.00     0.293 HD
ENDBRANCH  10  35
TORSDOF 9
ENDMDL
MODEL 6
REMARK VINA RESULT:    -2.279      2.394      8.302
REMARK INTER + INTRA:          -3.094
REMARK INTER:                  -4.877
REMARK INTRA:                   1.783
REMARK UNBOUND:                -0.015
REMARK SMILES O=c1c(-c2ccc(O)cc2)coc2c([C@H]3O[C@@H](CO)[C@H](O)[C@@H](O)[C@H]3O)c(O)ccc12
REMARK SMILES IDX 3 1 11 2 12 3 13 4 30 5 2 6 1 7 29 8 28 9 26 10 14 11 4 12
REMARK SMILES IDX 5 13 6 14 7 15 10 16 9 17 8 18 15 20 24 21 16 22 22 23 17 24
REMARK SMILES IDX 20 25 25 26 23 28 18 30 19 31 21 33 27 35
REMARK H PARENT 8 19 25 27 23 29 19 32 21 34 27 36
REMARK Flexibility Score: inf
ROOT
ATOM      1  C   UNL     1      34.320   5.630  11.295  1.00  0.00     0.065 A 
ATOM      2  C   UNL     1      33.912   4.577  10.463  1.00  0.00     0.208 A 
ATOM      3  O   UNL     1      33.561   4.802   9.203  1.00  0.00    -0.463 OA
ATOM      4  C   UNL     1      33.569   6.012   8.649  1.00  0.00     0.147 A 
ATOM      5  C   UNL     1      33.978   7.129   9.413  1.00  0.00     0.066 A 
ATOM      6  C   UNL     1      34.359   6.927  10.752  1.00  0.00     0.200 A 
ATOM      7  O   UNL     1      34.756   7.898  11.455  1.00  0.00    -0.288 OA
ATOM      8  C   UNL     1      34.005   8.401   8.822  1.00  0.00     0.020 A 
ATOM      9  C   UNL     1      33.643   8.561   7.487  1.00  0.00     0.047 A 
ATOM     10  C   UNL     1      33.239   7.462   6.718  1.00  0.00     0.125 A 
ATOM     11  C   UNL     1      33.176   6.173   7.299  1.00  0.00     0.069 A 
ENDROOT
BRANCH   1  12
ATOM     12  C   UNL     1      34.700   5.355  12.704  1.00  0.00    -0.011 A 
ATOM     13  C   UNL     1      34.001   4.393  13.452  1.00  0.00     0.013 A 
ATOM     14  C   UNL     1      34.350   4.138  14.782  1.00  0.00     0.047 A 
ATOM     15  C   UNL     1      35.399   4.842  15.381  1.00  0.00     0.115 A 
ATOM     16  C   UNL     1      35.749   6.065  13.315  1.00  0.00     0.013 A 
ATOM     17  C   UNL     1      36.097   5.808  14.645  1.00  0.00     0.047 A 
BRANCH  15  18
ATOM     18  O   UNL     1      35.737   4.578  16.706  1.00  0.00    -0.508 OA
ATOM     19  H   UNL     1      35.837   5.322  17.386  1.00  0.00     0.293 HD
ENDBRANCH  15  18
ENDBRANCH   1  12
BRANCH  11  20
ATOM     20  C   UNL     1      32.767   4.949   6.486  1.00  0.00     0.188 C 
ATOM     21  C   UNL     1      32.030   5.374   5.193  1.00  0.00     0.179 C 
ATOM     22  O   UNL     1      31.964   4.075   7.263  1.00  0.00    -0.362 OA
ATOM     23  C   UNL     1      31.611   4.118   4.397  1.00  0.00     0.177 C 
ATOM     24  C   UNL     1      31.734   2.851   6.581  1.00  0.00     0.176 C 
ATOM     25  C   UNL     1      30.900   3.084   5.295  1.00  0.00     0.177 C 
BRANCH  21  26
ATOM     26  O   UNL     1      30.930   6.210   5.468  1.00  0.00    -0.387 OA
ATOM     27  H   UNL     1      30.187   5.644   5.799  1.00  0.00     0.211 HD
ENDBRANCH  21  26
BRANCH  23  28
ATOM     28  O   UNL     1      30.827   4.458   3.280  1.00  0.00    -0.387 OA
ATOM     29  H   UNL     1      30.746   3.652   2.706  1.00  0.00     0.211 HD
ENDBRANCH  23  28
BRANCH  24  30
ATOM     30  C   UNL     1      31.032   1.881   7.545  1.00  0.00     0.191 C 
BRANCH  30  31
ATOM     31  O   UNL     1      31.585   1.955   8.833  1.00  0.00    -0.394 OA
ATOM     32  H   UNL     1      31.031   2.601   9.345  1.00  0.00     0.210 HD
ENDBRANCH  30  31
ENDBRANCH  24  30
BRANCH  25  33
ATOM     33  O   UNL     1      30.764   1.882   4.580  1.00  0.00    -0.388 OA
ATOM     34  H   UNL     1      30.605   2.120   3.630  1.00  0.00     0.211 HD
ENDBRANCH  25  33
ENDBRANCH  11  20
BRANCH  10  35
ATOM     35  O   UNL     1      32.907   7.659   5.377  1.00  0.00    -0.507 OA
ATOM     36  H   UNL     1      31.970   7.917   5.091  1.00  0.00     0.293 HD
ENDBRANCH  10  35
TORSDOF 9
ENDMDL
MODEL 7
REMARK VINA RESULT:    -2.278      2.620      8.573
REMARK INTER + INTRA:          -3.091
REMARK INTER:                  -3.841
REMARK INTRA:                   0.750
REMARK UNBOUND:                -0.015
REMARK SMILES O=c1c(-c2ccc(O)cc2)coc2c([C@H]3O[C@@H](CO)[C@H](O)[C@@H](O)[C@H]3O)c(O)ccc12
REMARK SMILES IDX 3 1 11 2 12 3 13 4 30 5 2 6 1 7 29 8 28 9 26 10 14 11 4 12
REMARK SMILES IDX 5 13 6 14 7 15 10 16 9 17 8 18 15 20 24 21 16 22 22 23 17 24
REMARK SMILES IDX 20 25 25 26 23 28 18 30 19 31 21 33 27 35
REMARK H PARENT 8 19 25 27 23 29 19 32 21 34 27 36
REMARK Flexibility Score: inf
ROOT
ATOM      1  C   UNL     1      34.251   5.396  11.710  1.00  0.00     0.065 A 
ATOM      2  C   UNL     1      33.403   4.420  11.168  1.00  0.00     0.208 A 
ATOM      3  O   UNL     1      32.929   4.539   9.934  1.00  0.00    -0.463 OA
ATOM      4  C   UNL     1      33.216   5.568   9.139  1.00  0.00     0.147 A 
ATOM      5  C   UNL     1      34.074   6.592   9.602  1.00  0.00     0.066 A 
ATOM      6  C   UNL     1      34.596   6.497  10.905  1.00  0.00     0.200 A 
ATOM      7  O   UNL     1      35.387   7.380  11.340  1.00  0.00    -0.288 OA
ATOM      8  C   UNL     1      34.392   7.665   8.756  1.00  0.00     0.020 A 
ATOM      9  C   UNL     1      33.874   7.715   7.464  1.00  0.00     0.047 A 
ATOM     10  C   UNL     1      33.027   6.705   6.992  1.00  0.00     0.125 A 
ATOM     11  C   UNL     1      32.668   5.626   7.835  1.00  0.00     0.069 A 
ENDROOT
BRANCH   1  12
ATOM     12  C   UNL     1      34.762   5.245  13.096  1.00  0.00    -0.011 A 
ATOM     13  C   UNL     1      34.215   4.273  13.952  1.00  0.00     0.013 A 
ATOM     14  C   UNL     1      34.688   4.134  15.260  1.00  0.00     0.047 A 
ATOM     15  C   UNL     1      35.708   4.967  15.732  1.00  0.00     0.115 A 
ATOM     16  C   UNL     1      35.782   6.084  13.580  1.00  0.00     0.013 A 
ATOM     17  C   UNL     1      36.253   5.944  14.889  1.00  0.00     0.047 A 
BRANCH  15  18
ATOM     18  O   UNL     1      36.170   4.817  17.038  1.00  0.00    -0.508 OA
ATOM     19  H   UNL     1      36.153   3.919  17.505  1.00  0.00     0.293 HD
ENDBRANCH  15  18
ENDBRANCH   1  12
BRANCH  11  20
ATOM     20  C   UNL     1      31.769   4.494   7.348  1.00  0.00     0.188 C 
ATOM     21  C   UNL     1      32.471   3.683   6.232  1.00  0.00     0.179 C 
ATOM     22  O   UNL     1      30.522   5.001   6.899  1.00  0.00    -0.362 OA
ATOM     23  C   UNL     1      31.535   2.555   5.744  1.00  0.00     0.177 C 
ATOM     24  C   UNL     1      29.614   3.946   6.619  1.00  0.00     0.176 C 
ATOM     25  C   UNL     1      30.119   3.083   5.434  1.00  0.00     0.177 C 
BRANCH  21  26
ATOM     26  O   UNL     1      32.895   4.508   5.172  1.00  0.00    -0.387 OA
ATOM     27  H   UNL     1      32.592   4.097   4.322  1.00  0.00     0.211 HD
ENDBRANCH  21  26
BRANCH  23  28
ATOM     28  O   UNL     1      32.085   1.875   4.643  1.00  0.00    -0.387 OA
ATOM     29  H   UNL     1      32.324   0.958   4.937  1.00  0.00     0.211 HD
ENDBRANCH  23  28
BRANCH  24  30
ATOM     30  C   UNL     1      28.233   4.556   6.330  1.00  0.00     0.191 C 
BRANCH  30  31
ATOM     31  O   UNL     1      28.005   5.693   7.120  1.00  0.00    -0.394 OA
ATOM     32  H   UNL     1      28.266   6.479   6.572  1.00  0.00     0.210 HD
ENDBRANCH  30  31
ENDBRANCH  24  30
BRANCH  25  33
ATOM     33  O   UNL     1      29.263   1.987   5.232  1.00  0.00    -0.388 OA
ATOM     34  H   UNL     1      29.369   1.700   4.289  1.00  0.00     0.211 HD
ENDBRANCH  25  33
ENDBRANCH  11  20
BRANCH  10  35
ATOM     35  O   UNL     1      32.549   6.778   5.683  1.00  0.00    -0.507 OA
ATOM     36  H   UNL     1      31.713   6.284   5.391  1.00  0.00     0.293 HD
ENDBRANCH  10  35
TORSDOF 9
ENDMDL
