MODEL 1
REMARK VINA RESULT:    -5.191      0.000      0.000
REMARK INTER + INTRA:          -6.341
REMARK INTER:                  -6.101
REMARK INTRA:                  -0.240
REMARK UNBOUND:                -0.240
REMARK SMILES O=c1c(O)c(-c2ccc(O)c(O)c2)oc2cc(O)ccc12
REMARK SMILES IDX 5 1 3 2 2 3 1 4 21 5 15 6 14 7 16 8 17 9 19 10 20 11 6 12
REMARK SMILES IDX 7 13 8 14 9 15 13 16 11 17 10 18 12 20 4 22 18 24
REMARK H PARENT 10 19 12 21 4 23 18 25
REMARK Flexibility Score: inf
ROOT
ATOM      1  C   UNL     1       3.674   0.515   7.411  1.00  0.00     0.180 A 
ATOM      2  C   UNL     1       3.946   1.738   8.057  1.00  0.00     0.208 A 
ATOM      3  C   UNL     1       3.868   2.928   7.316  1.00  0.00     0.235 A 
ATOM      4  O   UNL     1       4.117   4.033   7.869  1.00  0.00    -0.285 OA
ATOM      5  C   UNL     1       3.502   2.874   5.962  1.00  0.00     0.069 A 
ATOM      6  C   UNL     1       3.223   1.612   5.394  1.00  0.00     0.142 A 
ATOM      7  O   UNL     1       3.317   0.509   6.128  1.00  0.00    -0.452 OA
ATOM      8  C   UNL     1       2.845   1.518   4.050  1.00  0.00     0.094 A 
ATOM      9  C   UNL     1       2.745   2.673   3.262  1.00  0.00     0.119 A 
ATOM     10  C   UNL     1       3.024   3.924   3.822  1.00  0.00     0.047 A 
ATOM     11  C   UNL     1       3.401   4.029   5.164  1.00  0.00     0.020 A 
ENDROOT
BRANCH   1  12
ATOM     12  C   UNL     1       3.755  -0.783   8.118  1.00  0.00     0.025 A 
ATOM     13  C   UNL     1       2.735  -1.145   9.013  1.00  0.00     0.016 A 
ATOM     14  C   UNL     1       2.780  -2.374   9.677  1.00  0.00     0.051 A 
ATOM     15  C   UNL     1       3.833  -3.264   9.446  1.00  0.00     0.157 A 
ATOM     16  C   UNL     1       4.802  -1.688   7.872  1.00  0.00     0.062 A 
ATOM     17  C   UNL     1       4.847  -2.923   8.535  1.00  0.00     0.158 A 
BRANCH  15  18
ATOM     18  O   UNL     1       3.852  -4.482  10.125  1.00  0.00    -0.504 OA
ATOM     19  H   UNL     1       3.346  -5.293   9.789  1.00  0.00     0.293 HD
ENDBRANCH  15  18
BRANCH  17  20
ATOM     20  O   UNL     1       5.892  -3.813   8.290  1.00  0.00    -0.504 OA
ATOM     21  H   UNL     1       6.489  -4.150   9.038  1.00  0.00     0.293 HD
ENDBRANCH  17  20
ENDBRANCH   1  12
BRANCH   2  22
ATOM     22  O   UNL     1       4.259   1.765   9.419  1.00  0.00    -0.502 OA
ATOM     23  H   UNL     1       4.334   0.922   9.974  1.00  0.00     0.293 HD
ENDBRANCH   2  22
BRANCH   9  24
ATOM     24  O   UNL     1       2.371   2.588   1.922  1.00  0.00    -0.508 OA
ATOM     25  H   UNL     1       1.526   3.028   1.578  1.00  0.00     0.293 HD
ENDBRANCH   9  24
TORSDOF 5
ENDMDL
MODEL 2
REMARK VINA RESULT:    -5.080      5.228      7.384
REMARK INTER + INTRA:          -6.210
REMARK INTER:                  -5.895
REMARK INTRA:                  -0.315
REMARK UNBOUND:                -0.240
REMARK SMILES O=c1c(O)c(-c2ccc(O)c(O)c2)oc2cc(O)ccc12
REMARK SMILES IDX 5 1 3 2 2 3 1 4 21 5 15 6 14 7 16 8 17 9 19 10 20 11 6 12
REMARK SMILES IDX 7 13 8 14 9 15 13 16 11 17 10 18 12 20 4 22 18 24
REMARK H PARENT 10 19 12 21 4 23 18 25
REMARK Flexibility Score: inf
ROOT
ATOM      1  C   UNL     1       2.699   4.919   4.491  1.00  0.00     0.180 A 
ATOM      2  C   UNL     1       2.457   3.532   4.414  1.00  0.00     0.208 A 
ATOM      3  C   UNL     1       2.819   2.845   3.245  1.00  0.00     0.235 A 
ATOM      4  O   UNL     1       2.602   1.606   3.149  1.00  0.00    -0.285 OA
ATOM      5  C   UNL     1       3.429   3.547   2.193  1.00  0.00     0.069 A 
ATOM      6  C   UNL     1       3.658   4.930   2.357  1.00  0.00     0.142 A 
ATOM      7  O   UNL     1       3.293   5.544   3.476  1.00  0.00    -0.452 OA
ATOM      8  C   UNL     1       4.273   5.663   1.335  1.00  0.00     0.094 A 
ATOM      9  C   UNL     1       4.659   5.028   0.146  1.00  0.00     0.119 A 
ATOM     10  C   UNL     1       4.431   3.658  -0.018  1.00  0.00     0.047 A 
ATOM     11  C   UNL     1       3.819   2.918   0.997  1.00  0.00     0.020 A 
ENDROOT
BRANCH   1  12
ATOM     12  C   UNL     1       2.329   5.717   5.682  1.00  0.00     0.025 A 
ATOM     13  C   UNL     1       3.238   5.831   6.746  1.00  0.00     0.016 A 
ATOM     14  C   UNL     1       2.918   6.596   7.870  1.00  0.00     0.051 A 
ATOM     15  C   UNL     1       1.695   7.269   7.943  1.00  0.00     0.157 A 
ATOM     16  C   UNL     1       1.108   6.411   5.748  1.00  0.00     0.062 A 
ATOM     17  C   UNL     1       0.786   7.181   6.875  1.00  0.00     0.158 A 
BRANCH  15  18
ATOM     18  O   UNL     1       1.402   8.022   9.080  1.00  0.00    -0.504 OA
ATOM     19  H   UNL     1       2.128   8.449   9.644  1.00  0.00     0.293 HD
ENDBRANCH  15  18
BRANCH  17  20
ATOM     20  O   UNL     1      -0.430   7.861   6.936  1.00  0.00    -0.504 OA
ATOM     21  H   UNL     1      -0.930   7.976   7.810  1.00  0.00     0.293 HD
ENDBRANCH  17  20
ENDBRANCH   1  12
BRANCH   2  22
ATOM     22  O   UNL     1       1.894   2.850   5.497  1.00  0.00    -0.502 OA
ATOM     23  H   UNL     1       1.816   1.841   5.520  1.00  0.00     0.293 HD
ENDBRANCH   2  22
BRANCH   9  24
ATOM     24  O   UNL     1       5.271   5.751  -0.877  1.00  0.00    -0.508 OA
ATOM     25  H   UNL     1       4.742   6.103  -1.667  1.00  0.00     0.293 HD
ENDBRANCH   9  24
TORSDOF 5
ENDMDL
MODEL 3
REMARK VINA RESULT:    -4.991      1.690      6.428
REMARK INTER + INTRA:          -6.106
REMARK INTER:                  -5.799
REMARK INTRA:                  -0.306
REMARK UNBOUND:                -0.240
REMARK SMILES O=c1c(O)c(-c2ccc(O)c(O)c2)oc2cc(O)ccc12
REMARK SMILES IDX 5 1 3 2 2 3 1 4 21 5 15 6 14 7 16 8 17 9 19 10 20 11 6 12
REMARK SMILES IDX 7 13 8 14 9 15 13 16 11 17 10 18 12 20 4 22 18 24
REMARK H PARENT 10 19 12 21 4 23 18 25
REMARK Flexibility Score: inf
ROOT
ATOM      1  C   UNL     1       3.914   1.869   5.615  1.00  0.00     0.180 A 
ATOM      2  C   UNL     1       4.292   2.898   6.501  1.00  0.00     0.208 A 
ATOM      3  C   UNL     1       4.269   2.646   7.882  1.00  0.00     0.235 A 
ATOM      4  O   UNL     1       4.593   3.555   8.695  1.00  0.00    -0.285 OA
ATOM      5  C   UNL     1       3.891   1.376   8.344  1.00  0.00     0.069 A 
ATOM      6  C   UNL     1       3.548   0.392   7.392  1.00  0.00     0.142 A 
ATOM      7  O   UNL     1       3.575   0.674   6.095  1.00  0.00    -0.452 OA
ATOM      8  C   UNL     1       3.176  -0.890   7.814  1.00  0.00     0.094 A 
ATOM      9  C   UNL     1       3.138  -1.200   9.180  1.00  0.00     0.119 A 
ATOM     10  C   UNL     1       3.475  -0.226  10.125  1.00  0.00     0.047 A 
ATOM     11  C   UNL     1       3.850   1.056   9.714  1.00  0.00     0.020 A 
ENDROOT
BRANCH   1  12
ATOM     12  C   UNL     1       3.894   2.063   4.147  1.00  0.00     0.025 A 
ATOM     13  C   UNL     1       2.776   2.664   3.546  1.00  0.00     0.016 A 
ATOM     14  C   UNL     1       2.744   2.875   2.166  1.00  0.00     0.051 A 
ATOM     15  C   UNL     1       3.830   2.505   1.368  1.00  0.00     0.157 A 
ATOM     16  C   UNL     1       4.993   1.710   3.347  1.00  0.00     0.062 A 
ATOM     17  C   UNL     1       4.964   1.923   1.960  1.00  0.00     0.158 A 
BRANCH  15  18
ATOM     18  O   UNL     1       3.768   2.725  -0.007  1.00  0.00    -0.504 OA
ATOM     19  H   UNL     1       3.066   2.286  -0.592  1.00  0.00     0.293 HD
ENDBRANCH  15  18
BRANCH  17  20
ATOM     20  O   UNL     1       6.056   1.565   1.172  1.00  0.00    -0.504 OA
ATOM     21  H   UNL     1       6.975   1.415   1.575  1.00  0.00     0.293 HD
ENDBRANCH  17  20
ENDBRANCH   1  12
BRANCH   2  22
ATOM     22  O   UNL     1       4.712   4.137   6.010  1.00  0.00    -0.502 OA
ATOM     23  H   UNL     1       4.894   4.296   5.026  1.00  0.00     0.293 HD
ENDBRANCH   2  22
BRANCH   9  24
ATOM     24  O   UNL     1       2.767  -2.473   9.608  1.00  0.00    -0.508 OA
ATOM     25  H   UNL     1       1.888  -2.892   9.327  1.00  0.00     0.293 HD
ENDBRANCH   9  24
TORSDOF 5
ENDMDL
MODEL 4
REMARK VINA RESULT:    -4.852      3.143      5.353
REMARK INTER + INTRA:          -5.942
REMARK INTER:                  -5.696
REMARK INTRA:                  -0.246
REMARK UNBOUND:                -0.240
REMARK SMILES O=c1c(O)c(-c2ccc(O)c(O)c2)oc2cc(O)ccc12
REMARK SMILES IDX 5 1 3 2 2 3 1 4 21 5 15 6 14 7 16 8 17 9 19 10 20 11 6 12
REMARK SMILES IDX 7 13 8 14 9 15 13 16 11 17 10 18 12 20 4 22 18 24
REMARK H PARENT 10 19 12 21 4 23 18 25
REMARK Flexibility Score: inf
ROOT
ATOM      1  C   UNL     1       3.052   4.615   4.399  1.00  0.00     0.180 A 
ATOM      2  C   UNL     1       2.314   5.722   4.864  1.00  0.00     0.208 A 
ATOM      3  C   UNL     1       2.336   6.912   4.120  1.00  0.00     0.235 A 
ATOM      4  O   UNL     1       1.692   7.920   4.521  1.00  0.00    -0.285 OA
ATOM      5  C   UNL     1       3.073   6.965   2.926  1.00  0.00     0.069 A 
ATOM      6  C   UNL     1       3.766   5.806   2.516  1.00  0.00     0.142 A 
ATOM      7  O   UNL     1       3.726   4.703   3.253  1.00  0.00    -0.452 OA
ATOM      8  C   UNL     1       4.504   5.816   1.326  1.00  0.00     0.094 A 
ATOM      9  C   UNL     1       4.559   6.975   0.540  1.00  0.00     0.119 A 
ATOM     10  C   UNL     1       3.874   8.125   0.946  1.00  0.00     0.047 A 
ATOM     11  C   UNL     1       3.134   8.125   2.131  1.00  0.00     0.020 A 
ENDROOT
BRANCH   1  12
ATOM     12  C   UNL     1       3.095   3.332   5.137  1.00  0.00     0.025 A 
ATOM     13  C   UNL     1       2.471   2.200   4.588  1.00  0.00     0.016 A 
ATOM     14  C   UNL     1       2.515   0.974   5.257  1.00  0.00     0.051 A 
ATOM     15  C   UNL     1       3.195   0.857   6.473  1.00  0.00     0.157 A 
ATOM     16  C   UNL     1       3.795   3.207   6.349  1.00  0.00     0.062 A 
ATOM     17  C   UNL     1       3.843   1.976   7.021  1.00  0.00     0.158 A 
BRANCH  15  18
ATOM     18  O   UNL     1       3.220  -0.379   7.119  1.00  0.00    -0.504 OA
ATOM     19  H   UNL     1       3.239  -0.458   8.129  1.00  0.00     0.293 HD
ENDBRANCH  15  18
BRANCH  17  20
ATOM     20  O   UNL     1       4.534   1.862   8.226  1.00  0.00    -0.504 OA
ATOM     21  H   UNL     1       4.495   2.589   8.931  1.00  0.00     0.293 HD
ENDBRANCH  17  20
ENDBRANCH   1  12
BRANCH   2  22
ATOM     22  O   UNL     1       1.550   5.625   6.030  1.00  0.00    -0.502 OA
ATOM     23  H   UNL     1       0.562   5.404   6.013  1.00  0.00     0.293 HD
ENDBRANCH   2  22
BRANCH   9  24
ATOM     24  O   UNL     1       5.291   6.994  -0.645  1.00  0.00    -0.508 OA
ATOM     25  H   UNL     1       4.849   7.169  -1.540  1.00  0.00     0.293 HD
ENDBRANCH   9  24
TORSDOF 5
ENDMDL
MODEL 5
REMARK VINA RESULT:    -4.645      2.266      3.817
REMARK INTER + INTRA:          -5.700
REMARK INTER:                  -5.398
REMARK INTRA:                  -0.302
REMARK UNBOUND:                -0.240
REMARK SMILES O=c1c(O)c(-c2ccc(O)c(O)c2)oc2cc(O)ccc12
REMARK SMILES IDX 5 1 3 2 2 3 1 4 21 5 15 6 14 7 16 8 17 9 19 10 20 11 6 12
REMARK SMILES IDX 7 13 8 14 9 15 13 16 11 17 10 18 12 20 4 22 18 24
REMARK H PARENT 10 19 12 21 4 23 18 25
REMARK Flexibility Score: inf
ROOT
ATOM      1  C   UNL     1       4.014   2.901   4.879  1.00  0.00     0.180 A 
ATOM      2  C   UNL     1       3.883   4.268   5.200  1.00  0.00     0.208 A 
ATOM      3  C   UNL     1       3.711   5.195   4.160  1.00  0.00     0.235 A 
ATOM      4  O   UNL     1       3.603   6.424   4.422  1.00  0.00    -0.285 OA
ATOM      5  C   UNL     1       3.652   4.739   2.834  1.00  0.00     0.069 A 
ATOM      6  C   UNL     1       3.768   3.353   2.597  1.00  0.00     0.142 A 
ATOM      7  O   UNL     1       3.938   2.510   3.609  1.00  0.00    -0.452 OA
ATOM      8  C   UNL     1       3.704   2.858   1.289  1.00  0.00     0.094 A 
ATOM      9  C   UNL     1       3.529   3.737   0.210  1.00  0.00     0.119 A 
ATOM     10  C   UNL     1       3.417   5.111   0.443  1.00  0.00     0.047 A 
ATOM     11  C   UNL     1       3.478   5.614   1.746  1.00  0.00     0.020 A 
ENDROOT
BRANCH   1  12
ATOM     12  C   UNL     1       4.217   1.866   5.918  1.00  0.00     0.025 A 
ATOM     13  C   UNL     1       5.507   1.646   6.429  1.00  0.00     0.016 A 
ATOM     14  C   UNL     1       5.719   0.689   7.424  1.00  0.00     0.051 A 
ATOM     15  C   UNL     1       4.648  -0.052   7.933  1.00  0.00     0.157 A 
ATOM     16  C   UNL     1       3.139   1.135   6.445  1.00  0.00     0.062 A 
ATOM     17  C   UNL     1       3.350   0.174   7.445  1.00  0.00     0.158 A 
BRANCH  15  18
ATOM     18  O   UNL     1       4.891  -1.003   8.923  1.00  0.00    -0.504 OA
ATOM     19  H   UNL     1       4.153  -1.365   9.515  1.00  0.00     0.293 HD
ENDBRANCH  15  18
BRANCH  17  20
ATOM     20  O   UNL     1       2.276  -0.551   7.959  1.00  0.00    -0.504 OA
ATOM     21  H   UNL     1       1.926  -0.389   8.896  1.00  0.00     0.293 HD
ENDBRANCH  17  20
ENDBRANCH   1  12
BRANCH   2  22
ATOM     22  O   UNL     1       3.896   4.687   6.534  1.00  0.00    -0.502 OA
ATOM     23  H   UNL     1       3.493   4.132   7.279  1.00  0.00     0.293 HD
ENDBRANCH   2  22
BRANCH   9  24
ATOM     24  O   UNL     1       3.466   3.253  -1.095  1.00  0.00    -0.508 OA
ATOM     25  H   UNL     1       4.294   3.182  -1.675  1.00  0.00     0.293 HD
ENDBRANCH   9  24
TORSDOF 5
ENDMDL
MODEL 6
REMARK VINA RESULT:    -4.532      2.859      4.990
REMARK INTER + INTRA:          -5.566
REMARK INTER:                  -5.242
REMARK INTRA:                  -0.324
REMARK UNBOUND:                -0.240
REMARK SMILES O=c1c(O)c(-c2ccc(O)c(O)c2)oc2cc(O)ccc12
REMARK SMILES IDX 5 1 3 2 2 3 1 4 21 5 15 6 14 7 16 8 17 9 19 10 20 11 6 12
REMARK SMILES IDX 7 13 8 14 9 15 13 16 11 17 10 18 12 20 4 22 18 24
REMARK H PARENT 10 19 12 21 4 23 18 25
REMARK Flexibility Score: inf
ROOT
ATOM      1  C   UNL     1       4.728   2.505   3.937  1.00  0.00     0.180 A 
ATOM      2  C   UNL     1       5.425   1.833   2.912  1.00  0.00     0.208 A 
ATOM      3  C   UNL     1       5.429   2.384   1.621  1.00  0.00     0.235 A 
ATOM      4  O   UNL     1       6.037   1.795   0.686  1.00  0.00    -0.285 OA
ATOM      5  C   UNL     1       4.759   3.595   1.386  1.00  0.00     0.069 A 
ATOM      6  C   UNL     1       4.103   4.218   2.470  1.00  0.00     0.142 A 
ATOM      7  O   UNL     1       4.117   3.659   3.674  1.00  0.00    -0.452 OA
ATOM      8  C   UNL     1       3.433   5.431   2.278  1.00  0.00     0.094 A 
ATOM      9  C   UNL     1       3.407   6.030   1.011  1.00  0.00     0.119 A 
ATOM     10  C   UNL     1       4.054   5.413  -0.064  1.00  0.00     0.047 A 
ATOM     11  C   UNL     1       4.727   4.202   0.117  1.00  0.00     0.020 A 
ENDROOT
BRANCH   1  12
ATOM     12  C   UNL     1       4.661   1.978   5.319  1.00  0.00     0.025 A 
ATOM     13  C   UNL     1       5.602   2.410   6.268  1.00  0.00     0.016 A 
ATOM     14  C   UNL     1       5.545   1.942   7.582  1.00  0.00     0.051 A 
ATOM     15  C   UNL     1       4.542   1.049   7.973  1.00  0.00     0.157 A 
ATOM     16  C   UNL     1       3.641   1.097   5.718  1.00  0.00     0.062 A 
ATOM     17  C   UNL     1       3.582   0.628   7.039  1.00  0.00     0.158 A 
BRANCH  15  18
ATOM     18  O   UNL     1       4.514   0.597   9.292  1.00  0.00    -0.504 OA
ATOM     19  H   UNL     1       3.857   0.963   9.972  1.00  0.00     0.293 HD
ENDBRANCH  15  18
BRANCH  17  20
ATOM     20  O   UNL     1       2.571  -0.251   7.426  1.00  0.00    -0.504 OA
ATOM     21  H   UNL     1       2.124  -0.179   8.333  1.00  0.00     0.293 HD
ENDBRANCH  17  20
ENDBRANCH   1  12
BRANCH   2  22
ATOM     22  O   UNL     1       6.125   0.655   3.187  1.00  0.00    -0.502 OA
ATOM     23  H   UNL     1       6.525   0.080   2.455  1.00  0.00     0.293 HD
ENDBRANCH   2  22
BRANCH   9  24
ATOM     24  O   UNL     1       2.740   7.238   0.812  1.00  0.00    -0.508 OA
ATOM     25  H   UNL     1       2.833   7.759  -0.053  1.00  0.00     0.293 HD
ENDBRANCH   9  24
TORSDOF 5
ENDMDL
MODEL 7
REMARK VINA RESULT:    -4.419      5.566      7.795
REMARK INTER + INTRA:          -5.433
REMARK INTER:                  -5.124
REMARK INTRA:                  -0.309
REMARK UNBOUND:                -0.240
REMARK SMILES O=c1c(O)c(-c2ccc(O)c(O)c2)oc2cc(O)ccc12
REMARK SMILES IDX 5 1 3 2 2 3 1 4 21 5 15 6 14 7 16 8 17 9 19 10 20 11 6 12
REMARK SMILES IDX 7 13 8 14 9 15 13 16 11 17 10 18 12 20 4 22 18 24
REMARK H PARENT 10 19 12 21 4 23 18 25
REMARK Flexibility Score: inf
ROOT
ATOM      1  C   UNL     1       3.520   5.424   3.730  1.00  0.00     0.180 A 
ATOM      2  C   UNL     1       3.502   6.037   2.460  1.00  0.00     0.208 A 
ATOM      3  C   UNL     1       4.052   5.348   1.368  1.00  0.00     0.235 A 
ATOM      4  O   UNL     1       4.058   5.880   0.224  1.00  0.00    -0.285 OA
ATOM      5  C   UNL     1       4.584   4.063   1.560  1.00  0.00     0.069 A 
ATOM      6  C   UNL     1       4.543   3.510   2.858  1.00  0.00     0.142 A 
ATOM      7  O   UNL     1       4.022   4.198   3.866  1.00  0.00    -0.452 OA
ATOM      8  C   UNL     1       5.055   2.227   3.088  1.00  0.00     0.094 A 
ATOM      9  C   UNL     1       5.612   1.490   2.033  1.00  0.00     0.119 A 
ATOM     10  C   UNL     1       5.656   2.039   0.748  1.00  0.00     0.047 A 
ATOM     11  C   UNL     1       5.146   3.317   0.507  1.00  0.00     0.020 A 
ENDROOT
BRANCH   1  12
ATOM     12  C   UNL     1       2.978   6.094   4.934  1.00  0.00     0.025 A 
ATOM     13  C   UNL     1       3.835   6.853   5.746  1.00  0.00     0.016 A 
ATOM     14  C   UNL     1       3.342   7.510   6.875  1.00  0.00     0.051 A 
ATOM     15  C   UNL     1       1.984   7.433   7.202  1.00  0.00     0.157 A 
ATOM     16  C   UNL     1       1.610   6.034   5.252  1.00  0.00     0.062 A 
ATOM     17  C   UNL     1       1.112   6.696   6.385  1.00  0.00     0.158 A 
BRANCH  15  18
ATOM     18  O   UNL     1       1.522   8.097   8.337  1.00  0.00    -0.504 OA
ATOM     19  H   UNL     1       1.318   9.090   8.334  1.00  0.00     0.293 HD
ENDBRANCH  15  18
BRANCH  17  20
ATOM     20  O   UNL     1      -0.245   6.626   6.697  1.00  0.00    -0.504 OA
ATOM     21  H   UNL     1      -0.779   5.776   6.558  1.00  0.00     0.293 HD
ENDBRANCH  17  20
ENDBRANCH   1  12
BRANCH   2  22
ATOM     22  O   UNL     1       2.921   7.296   2.290  1.00  0.00    -0.502 OA
ATOM     23  H   UNL     1       2.795   7.715   1.376  1.00  0.00     0.293 HD
ENDBRANCH   2  22
BRANCH   9  24
ATOM     24  O   UNL     1       6.125   0.214   2.254  1.00  0.00    -0.508 OA
ATOM     25  H   UNL     1       6.797   0.032   2.991  1.00  0.00     0.293 HD
ENDBRANCH   9  24
TORSDOF 5
ENDMDL
MODEL 8
REMARK VINA RESULT:    -4.336      3.249      8.515
REMARK INTER + INTRA:          -5.336
REMARK INTER:                  -5.052
REMARK INTRA:                  -0.284
REMARK UNBOUND:                -0.240
REMARK SMILES O=c1c(O)c(-c2ccc(O)c(O)c2)oc2cc(O)ccc12
REMARK SMILES IDX 5 1 3 2 2 3 1 4 21 5 15 6 14 7 16 8 17 9 19 10 20 11 6 12
REMARK SMILES IDX 7 13 8 14 9 15 13 16 11 17 10 18 12 20 4 22 18 24
REMARK H PARENT 10 19 12 21 4 23 18 25
REMARK Flexibility Score: inf
ROOT
ATOM      1  C   UNL     1       4.218   3.556   3.052  1.00  0.00     0.180 A 
ATOM      2  C   UNL     1       3.177   2.607   2.997  1.00  0.00     0.208 A 
ATOM      3  C   UNL     1       2.931   1.807   4.123  1.00  0.00     0.235 A 
ATOM      4  O   UNL     1       2.011   0.943   4.095  1.00  0.00    -0.285 OA
ATOM      5  C   UNL     1       3.709   1.983   5.279  1.00  0.00     0.069 A 
ATOM      6  C   UNL     1       4.717   2.970   5.261  1.00  0.00     0.142 A 
ATOM      7  O   UNL     1       4.924   3.701   4.172  1.00  0.00    -0.452 OA
ATOM      8  C   UNL     1       5.508   3.183   6.397  1.00  0.00     0.094 A 
ATOM      9  C   UNL     1       5.304   2.416   7.552  1.00  0.00     0.119 A 
ATOM     10  C   UNL     1       4.307   1.436   7.570  1.00  0.00     0.047 A 
ATOM     11  C   UNL     1       3.511   1.217   6.442  1.00  0.00     0.020 A 
ENDROOT
BRANCH   1  12
ATOM     12  C   UNL     1       4.553   4.424   1.899  1.00  0.00     0.025 A 
ATOM     13  C   UNL     1       5.301   3.897   0.834  1.00  0.00     0.016 A 
ATOM     14  C   UNL     1       5.611   4.691  -0.272  1.00  0.00     0.051 A 
ATOM     15  C   UNL     1       5.166   6.015  -0.340  1.00  0.00     0.157 A 
ATOM     16  C   UNL     1       4.089   5.748   1.821  1.00  0.00     0.062 A 
ATOM     17  C   UNL     1       4.397   6.546   0.709  1.00  0.00     0.158 A 
BRANCH  15  18
ATOM     18  O   UNL     1       5.494   6.784  -1.456  1.00  0.00    -0.504 OA
ATOM     19  H   UNL     1       4.867   7.489  -1.827  1.00  0.00     0.293 HD
ENDBRANCH  15  18
BRANCH  17  20
ATOM     20  O   UNL     1       3.938   7.861   0.641  1.00  0.00    -0.504 OA
ATOM     21  H   UNL     1       4.343   8.532  -0.003  1.00  0.00     0.293 HD
ENDBRANCH  17  20
ENDBRANCH   1  12
BRANCH   2  22
ATOM     22  O   UNL     1       2.386   2.488   1.851  1.00  0.00    -0.502 OA
ATOM     23  H   UNL     1       2.442   1.685   1.236  1.00  0.00     0.293 HD
ENDBRANCH   2  22
BRANCH   9  24
ATOM     24  O   UNL     1       6.088   2.621   8.686  1.00  0.00    -0.508 OA
ATOM     25  H   UNL     1       5.698   3.009   9.537  1.00  0.00     0.293 HD
ENDBRANCH   9  24
TORSDOF 5
ENDMDL
