MODEL 1
REMARK VINA RESULT:    -4.837      0.000      0.000
REMARK INTER + INTRA:          -5.930
REMARK INTER:                  -5.827
REMARK INTRA:                  -0.102
REMARK UNBOUND:                -0.102
REMARK SMILES NC(=O)C[C@H]([NH3+])C(=O)[O-]
REMARK SMILES IDX 4 1 5 2 6 3 7 7 8 8 9 9 2 10 3 11 1 12
REMARK H PARENT 6 4 6 5 6 6 1 13 1 14
REMARK Flexibility Score: inf
ROOT
ATOM      1  C   UNL     1     -21.894  69.505   1.077  1.00  0.00     0.171 C 
ENDROOT
BRANCH   1   2
ATOM      2  C   UNL     1     -21.932  68.889  -0.336  1.00  0.00     0.237 C 
BRANCH   2   3
ATOM      3  N   UNL     1     -23.153  68.094  -0.514  1.00  0.00    -0.350 N 
ATOM      4  H   UNL     1     -23.027  67.131  -0.127  1.00  0.00     0.345 HD
ATOM      5  H   UNL     1     -23.952  68.558  -0.025  1.00  0.00     0.345 HD
ATOM      6  H   UNL     1     -23.387  68.028  -1.532  1.00  0.00     0.345 HD
ENDBRANCH   2   3
BRANCH   2   7
ATOM      7  C   UNL     1     -20.717  68.032  -0.582  1.00  0.00     0.100 C 
ATOM      8  O   UNL     1     -19.807  67.961   0.285  1.00  0.00    -0.544 OA
ATOM      9  O   UNL     1     -20.597  67.307  -1.762  1.00  0.00    -0.544 OA
ENDBRANCH   2   7
ENDBRANCH   1   2
BRANCH   1  10
ATOM     10  C   UNL     1     -21.497  70.954   1.037  1.00  0.00     0.223 C 
ATOM     11  O   UNL     1     -20.942  71.425   0.008  1.00  0.00    -0.275 OA
ATOM     12  N   UNL     1     -21.777  71.810   2.145  1.00  0.00    -0.369 N 
ATOM     13  H   UNL     1     -21.513  72.819   2.111  1.00  0.00     0.159 HD
ATOM     14  H   UNL     1     -22.251  71.438   2.997  1.00  0.00     0.159 HD
ENDBRANCH   1  10
TORSDOF 4
ENDMDL
MODEL 2
REMARK VINA RESULT:    -4.640      2.044      3.629
REMARK INTER + INTRA:          -5.692
REMARK INTER:                  -5.588
REMARK INTRA:                  -0.105
REMARK UNBOUND:                -0.102
REMARK SMILES NC(=O)C[C@H]([NH3+])C(=O)[O-]
REMARK SMILES IDX 4 1 5 2 6 3 7 7 8 8 9 9 2 10 3 11 1 12
REMARK H PARENT 6 4 6 5 6 6 1 13 1 14
REMARK Flexibility Score: inf
ROOT
ATOM      1  C   UNL     1     -20.754  68.620  -1.297  1.00  0.00     0.171 C 
ENDROOT
BRANCH   1   2
ATOM      2  C   UNL     1     -21.714  68.273  -0.141  1.00  0.00     0.237 C 
BRANCH   2   3
ATOM      3  N   UNL     1     -23.107  68.312  -0.604  1.00  0.00    -0.350 N 
ATOM      4  H   UNL     1     -23.765  68.109   0.183  1.00  0.00     0.345 HD
ATOM      5  H   UNL     1     -23.323  69.257  -0.995  1.00  0.00     0.345 HD
ATOM      6  H   UNL     1     -23.248  67.604  -1.362  1.00  0.00     0.345 HD
ENDBRANCH   2   3
BRANCH   2   7
ATOM      7  C   UNL     1     -21.528  69.221   1.016  1.00  0.00     0.100 C 
ATOM      8  O   UNL     1     -21.340  68.772   2.177  1.00  0.00    -0.544 OA
ATOM      9  O   UNL     1     -21.552  70.595   0.809  1.00  0.00    -0.544 OA
ENDBRANCH   2   7
ENDBRANCH   1   2
BRANCH   1  10
ATOM     10  C   UNL     1     -19.511  67.777  -1.254  1.00  0.00     0.223 C 
ATOM     11  O   UNL     1     -19.564  66.564  -1.594  1.00  0.00    -0.275 OA
ATOM     12  N   UNL     1     -18.263  68.349  -0.865  1.00  0.00    -0.369 N 
ATOM     13  H   UNL     1     -17.398  67.766  -0.849  1.00  0.00     0.159 HD
ATOM     14  H   UNL     1     -18.201  69.356  -0.597  1.00  0.00     0.159 HD
ENDBRANCH   1  10
TORSDOF 4
ENDMDL
MODEL 3
REMARK VINA RESULT:    -4.582      2.175      3.033
REMARK INTER + INTRA:          -5.621
REMARK INTER:                  -5.440
REMARK INTRA:                  -0.181
REMARK UNBOUND:                -0.102
REMARK SMILES NC(=O)C[C@H]([NH3+])C(=O)[O-]
REMARK SMILES IDX 4 1 5 2 6 3 7 7 8 8 9 9 2 10 3 11 1 12
REMARK H PARENT 6 4 6 5 6 6 1 13 1 14
REMARK Flexibility Score: inf
ROOT
ATOM      1  C   UNL     1     -20.515  69.136  -0.317  1.00  0.00     0.171 C 
ENDROOT
BRANCH   1   2
ATOM      2  C   UNL     1     -19.500  67.995  -0.527  1.00  0.00     0.237 C 
BRANCH   2   3
ATOM      3  N   UNL     1     -18.203  68.537  -0.950  1.00  0.00    -0.350 N 
ATOM      4  H   UNL     1     -18.094  68.470  -1.988  1.00  0.00     0.345 HD
ATOM      5  H   UNL     1     -18.127  69.539  -0.663  1.00  0.00     0.345 HD
ATOM      6  H   UNL     1     -17.429  68.005  -0.488  1.00  0.00     0.345 HD
ENDBRANCH   2   3
BRANCH   2   7
ATOM      7  C   UNL     1     -20.004  67.007  -1.547  1.00  0.00     0.100 C 
ATOM      8  O   UNL     1     -21.082  67.225  -2.160  1.00  0.00    -0.544 OA
ATOM      9  O   UNL     1     -19.280  65.854  -1.825  1.00  0.00    -0.544 OA
ENDBRANCH   2   7
ENDBRANCH   1   2
BRANCH   1  10
ATOM     10  C   UNL     1     -21.596  68.743   0.650  1.00  0.00     0.223 C 
ATOM     11  O   UNL     1     -21.359  68.737   1.888  1.00  0.00    -0.275 OA
ATOM     12  N   UNL     1     -22.901  68.409   0.177  1.00  0.00    -0.369 N 
ATOM     13  H   UNL     1     -23.655  68.148   0.851  1.00  0.00     0.159 HD
ATOM     14  H   UNL     1     -23.117  68.425  -0.844  1.00  0.00     0.159 HD
ENDBRANCH   1  10
TORSDOF 4
ENDMDL
MODEL 4
REMARK VINA RESULT:    -4.478      2.026      3.890
REMARK INTER + INTRA:          -5.497
REMARK INTER:                  -5.391
REMARK INTRA:                  -0.105
REMARK UNBOUND:                -0.102
REMARK SMILES NC(=O)C[C@H]([NH3+])C(=O)[O-]
REMARK SMILES IDX 4 1 5 2 6 3 7 7 8 8 9 9 2 10 3 11 1 12
REMARK H PARENT 6 4 6 5 6 6 1 13 1 14
REMARK Flexibility Score: inf
ROOT
ATOM      1  C   UNL     1     -20.872  68.299  -1.522  1.00  0.00     0.171 C 
ENDROOT
BRANCH   1   2
ATOM      2  C   UNL     1     -21.779  68.146  -0.284  1.00  0.00     0.237 C 
BRANCH   2   3
ATOM      3  N   UNL     1     -23.192  68.242  -0.672  1.00  0.00    -0.350 N 
ATOM      4  H   UNL     1     -23.617  67.290  -0.759  1.00  0.00     0.345 HD
ATOM      5  H   UNL     1     -23.720  68.787   0.047  1.00  0.00     0.345 HD
ATOM      6  H   UNL     1     -23.275  68.741  -1.588  1.00  0.00     0.345 HD
ENDBRANCH   2   3
BRANCH   2   7
ATOM      7  C   UNL     1     -21.456  69.192   0.752  1.00  0.00     0.100 C 
ATOM      8  O   UNL     1     -21.330  70.398   0.415  1.00  0.00    -0.544 OA
ATOM      9  O   UNL     1     -21.305  68.834   2.087  1.00  0.00    -0.544 OA
ENDBRANCH   2   7
ENDBRANCH   1   2
BRANCH   1  10
ATOM     10  C   UNL     1     -19.703  67.355  -1.469  1.00  0.00     0.223 C 
ATOM     11  O   UNL     1     -18.622  67.726  -0.940  1.00  0.00    -0.275 OA
ATOM     12  N   UNL     1     -19.822  66.030  -1.984  1.00  0.00    -0.369 N 
ATOM     13  H   UNL     1     -19.014  65.371  -1.935  1.00  0.00     0.159 HD
ATOM     14  H   UNL     1     -20.717  65.703  -2.410  1.00  0.00     0.159 HD
ENDBRANCH   1  10
TORSDOF 4
ENDMDL
MODEL 5
REMARK VINA RESULT:    -4.472      2.858      4.720
REMARK INTER + INTRA:          -5.489
REMARK INTER:                  -5.425
REMARK INTRA:                  -0.064
REMARK UNBOUND:                -0.102
REMARK SMILES NC(=O)C[C@H]([NH3+])C(=O)[O-]
REMARK SMILES IDX 4 1 5 2 6 3 7 7 8 8 9 9 2 10 3 11 1 12
REMARK H PARENT 6 4 6 5 6 6 1 13 1 14
REMARK Flexibility Score: inf
ROOT
ATOM      1  C   UNL     1     -18.994  67.128  -0.953  1.00  0.00     0.171 C 
ENDROOT
BRANCH   1   2
ATOM      2  C   UNL     1     -19.339  68.625  -1.087  1.00  0.00     0.237 C 
BRANCH   2   3
ATOM      3  N   UNL     1     -18.119  69.439  -1.024  1.00  0.00    -0.350 N 
ATOM      4  H   UNL     1     -17.897  69.847  -1.961  1.00  0.00     0.345 HD
ATOM      5  H   UNL     1     -18.246  70.215  -0.334  1.00  0.00     0.345 HD
ATOM      6  H   UNL     1     -17.315  68.848  -0.707  1.00  0.00     0.345 HD
ENDBRANCH   2   3
BRANCH   2   7
ATOM      7  C   UNL     1     -20.303  69.054  -0.010  1.00  0.00     0.100 C 
ATOM      8  O   UNL     1     -20.636  68.248   0.898  1.00  0.00    -0.544 OA
ATOM      9  O   UNL     1     -20.822  70.344  -0.005  1.00  0.00    -0.544 OA
ENDBRANCH   2   7
ENDBRANCH   1   2
BRANCH   1  10
ATOM     10  C   UNL     1     -19.813  66.286  -1.890  1.00  0.00     0.223 C 
ATOM     11  O   UNL     1     -20.873  66.752  -2.387  1.00  0.00    -0.275 OA
ATOM     12  N   UNL     1     -19.379  64.975  -2.249  1.00  0.00    -0.369 N 
ATOM     13  H   UNL     1     -19.941  64.396  -2.910  1.00  0.00     0.159 HD
ATOM     14  H   UNL     1     -18.494  64.583  -1.858  1.00  0.00     0.159 HD
ENDBRANCH   1  10
TORSDOF 4
ENDMDL
MODEL 6
REMARK VINA RESULT:    -4.374      2.103      2.418
REMARK INTER + INTRA:          -5.372
REMARK INTER:                  -5.348
REMARK INTRA:                  -0.024
REMARK UNBOUND:                -0.102
REMARK SMILES NC(=O)C[C@H]([NH3+])C(=O)[O-]
REMARK SMILES IDX 4 1 5 2 6 3 7 7 8 8 9 9 2 10 3 11 1 12
REMARK H PARENT 6 4 6 5 6 6 1 13 1 14
REMARK Flexibility Score: inf
ROOT
ATOM      1  C   UNL     1     -21.694  68.185  -0.533  1.00  0.00     0.171 C 
ENDROOT
BRANCH   1   2
ATOM      2  C   UNL     1     -20.425  68.010  -1.392  1.00  0.00     0.237 C 
BRANCH   2   3
ATOM      3  N   UNL     1     -20.485  66.749  -2.141  1.00  0.00    -0.350 N 
ATOM      4  H   UNL     1     -20.832  66.913  -3.114  1.00  0.00     0.345 HD
ATOM      5  H   UNL     1     -19.534  66.317  -2.185  1.00  0.00     0.345 HD
ATOM      6  H   UNL     1     -21.127  66.079  -1.656  1.00  0.00     0.345 HD
ENDBRANCH   2   3
BRANCH   2   7
ATOM      7  C   UNL     1     -19.186  68.042  -0.534  1.00  0.00     0.100 C 
ATOM      8  O   UNL     1     -18.970  67.124   0.299  1.00  0.00    -0.544 OA
ATOM      9  O   UNL     1     -18.270  69.080  -0.663  1.00  0.00    -0.544 OA
ENDBRANCH   2   7
ENDBRANCH   1   2
BRANCH   1  10
ATOM     10  C   UNL     1     -21.494  69.212   0.546  1.00  0.00     0.223 C 
ATOM     11  O   UNL     1     -21.611  68.882   1.756  1.00  0.00    -0.275 OA
ATOM     12  N   UNL     1     -21.136  70.552   0.208  1.00  0.00    -0.369 N 
ATOM     13  H   UNL     1     -20.985  71.261   0.959  1.00  0.00     0.159 HD
ATOM     14  H   UNL     1     -21.019  70.836  -0.789  1.00  0.00     0.159 HD
ENDBRANCH   1  10
TORSDOF 4
ENDMDL
MODEL 7
REMARK VINA RESULT:    -4.372      2.566      3.556
REMARK INTER + INTRA:          -5.370
REMARK INTER:                  -5.056
REMARK INTRA:                  -0.314
REMARK UNBOUND:                -0.102
REMARK SMILES NC(=O)C[C@H]([NH3+])C(=O)[O-]
REMARK SMILES IDX 4 1 5 2 6 3 7 7 8 8 9 9 2 10 3 11 1 12
REMARK H PARENT 6 4 6 5 6 6 1 13 1 14
REMARK Flexibility Score: inf
ROOT
ATOM      1  C   UNL     1     -20.388  68.070  -1.363  1.00  0.00     0.171 C 
ENDROOT
BRANCH   1   2
ATOM      2  C   UNL     1     -21.421  69.078  -0.820  1.00  0.00     0.237 C 
BRANCH   2   3
ATOM      3  N   UNL     1     -20.786  69.999   0.131  1.00  0.00    -0.350 N 
ATOM      4  H   UNL     1     -20.142  69.482   0.773  1.00  0.00     0.345 HD
ATOM      5  H   UNL     1     -20.242  70.724  -0.389  1.00  0.00     0.345 HD
ATOM      6  H   UNL     1     -21.520  70.484   0.697  1.00  0.00     0.345 HD
ENDBRANCH   2   3
BRANCH   2   7
ATOM      7  C   UNL     1     -22.573  68.365  -0.159  1.00  0.00     0.100 C 
ATOM      8  O   UNL     1     -22.728  68.437   1.088  1.00  0.00    -0.544 OA
ATOM      9  O   UNL     1     -23.476  67.632  -0.921  1.00  0.00    -0.544 OA
ENDBRANCH   2   7
ENDBRANCH   1   2
BRANCH   1  10
ATOM     10  C   UNL     1     -19.216  67.926  -0.433  1.00  0.00     0.223 C 
ATOM     11  O   UNL     1     -19.357  67.326   0.665  1.00  0.00    -0.275 OA
ATOM     12  N   UNL     1     -17.935  68.435  -0.804  1.00  0.00    -0.369 N 
ATOM     13  H   UNL     1     -17.118  68.324  -0.163  1.00  0.00     0.159 HD
ATOM     14  H   UNL     1     -17.800  68.920  -1.718  1.00  0.00     0.159 HD
ENDBRANCH   1  10
TORSDOF 4
ENDMDL
MODEL 8
REMARK VINA RESULT:    -4.135      2.231      3.168
REMARK INTER + INTRA:          -5.084
REMARK INTER:                  -4.842
REMARK INTRA:                  -0.242
REMARK UNBOUND:                -0.102
REMARK SMILES NC(=O)C[C@H]([NH3+])C(=O)[O-]
REMARK SMILES IDX 4 1 5 2 6 3 7 7 8 8 9 9 2 10 3 11 1 12
REMARK H PARENT 6 4 6 5 6 6 1 13 1 14
REMARK Flexibility Score: inf
ROOT
ATOM      1  C   UNL     1     -21.419  68.050  -1.036  1.00  0.00     0.171 C 
ENDROOT
BRANCH   1   2
ATOM      2  C   UNL     1     -20.334  68.765  -0.207  1.00  0.00     0.237 C 
BRANCH   2   3
ATOM      3  N   UNL     1     -20.658  70.190  -0.061  1.00  0.00    -0.350 N 
ATOM      4  H   UNL     1     -20.709  70.655  -0.996  1.00  0.00     0.345 HD
ATOM      5  H   UNL     1     -21.578  70.296   0.424  1.00  0.00     0.345 HD
ATOM      6  H   UNL     1     -19.926  70.662   0.519  1.00  0.00     0.345 HD
ENDBRANCH   2   3
BRANCH   2   7
ATOM      7  C   UNL     1     -18.977  68.607  -0.845  1.00  0.00     0.100 C 
ATOM      8  O   UNL     1     -18.157  69.561  -0.830  1.00  0.00    -0.544 OA
ATOM      9  O   UNL     1     -18.620  67.405  -1.445  1.00  0.00    -0.544 OA
ENDBRANCH   2   7
ENDBRANCH   1   2
BRANCH   1  10
ATOM     10  C   UNL     1     -22.757  68.099  -0.354  1.00  0.00     0.223 C 
ATOM     11  O   UNL     1     -22.851  68.574   0.809  1.00  0.00    -0.275 OA
ATOM     12  N   UNL     1     -23.929  67.645  -1.030  1.00  0.00    -0.369 N 
ATOM     13  H   UNL     1     -24.860  67.691  -0.561  1.00  0.00     0.159 HD
ATOM     14  H   UNL     1     -23.869  67.264  -2.000  1.00  0.00     0.159 HD
ENDBRANCH   1  10
TORSDOF 4
ENDMDL
MODEL 9
REMARK VINA RESULT:    -4.096      2.389      2.719
REMARK INTER + INTRA:          -5.037
REMARK INTER:                  -4.640
REMARK INTRA:                  -0.397
REMARK UNBOUND:                -0.102
REMARK SMILES NC(=O)C[C@H]([NH3+])C(=O)[O-]
REMARK SMILES IDX 4 1 5 2 6 3 7 7 8 8 9 9 2 10 3 11 1 12
REMARK H PARENT 6 4 6 5 6 6 1 13 1 14
REMARK Flexibility Score: inf
ROOT
ATOM      1  C   UNL     1     -20.882  69.340  -0.710  1.00  0.00     0.171 C 
ENDROOT
BRANCH   1   2
ATOM      2  C   UNL     1     -19.908  68.328  -1.346  1.00  0.00     0.237 C 
BRANCH   2   3
ATOM      3  N   UNL     1     -20.630  67.125  -1.778  1.00  0.00    -0.350 N 
ATOM      4  H   UNL     1     -21.643  67.337  -1.933  1.00  0.00     0.345 HD
ATOM      5  H   UNL     1     -20.216  66.764  -2.668  1.00  0.00     0.345 HD
ATOM      6  H   UNL     1     -20.542  66.378  -1.050  1.00  0.00     0.345 HD
ENDBRANCH   2   3
BRANCH   2   7
ATOM      7  C   UNL     1     -18.813  67.954  -0.379  1.00  0.00     0.100 C 
ATOM      8  O   UNL     1     -17.690  68.517  -0.448  1.00  0.00    -0.544 OA
ATOM      9  O   UNL     1     -19.040  66.994   0.600  1.00  0.00    -0.544 OA
ENDBRANCH   2   7
ENDBRANCH   1   2
BRANCH   1  10
ATOM     10  C   UNL     1     -21.818  68.672   0.258  1.00  0.00     0.223 C 
ATOM     11  O   UNL     1     -22.839  68.071  -0.170  1.00  0.00    -0.275 OA
ATOM     12  N   UNL     1     -21.537  68.684   1.657  1.00  0.00    -0.369 N 
ATOM     13  H   UNL     1     -22.181  68.209   2.328  1.00  0.00     0.159 HD
ATOM     14  H   UNL     1     -20.686  69.163   2.025  1.00  0.00     0.159 HD
ENDBRANCH   1  10
TORSDOF 4
ENDMDL
