MODEL 1
REMARK VINA RESULT:    20.378      0.000      0.000
REMARK INTER + INTRA:          20.378
REMARK INTER:                  20.378
REMARK INTRA:                   0.000
REMARK UNBOUND:                 0.000
REMARK SMILES C=C1CCC[C@@]2(C)CC(=O)C(=C(C)C)C[C@H]12
REMARK SMILES IDX 13 1 12 2 11 3 15 4 16 5 2 6 1 7 3 8 4 9 5 10 6 11 8 12 9 13
REMARK SMILES IDX 10 14 7 15 14 16
REMARK H PARENT
REMARK Flexibility Score: inf
ROOT
ATOM      1  C   UNL     1      28.004  23.593  32.576  1.00  0.00     0.039 C 
ATOM      2  C   UNL     1      29.476  23.751  32.882  1.00  0.00    -0.070 C 
ATOM      3  C   UNL     1      30.423  23.595  31.910  1.00  0.00    -0.006 C 
ATOM      4  C   UNL     1      30.032  23.279  30.472  1.00  0.00     0.047 C 
ATOM      5  C   UNL     1      31.034  23.851  29.438  1.00  0.00     0.025 C 
ATOM      6  C   UNL     1      30.714  23.529  27.978  1.00  0.00    -0.073 C 
ATOM      7  C   UNL     1      29.656  22.797  27.581  1.00  0.00     0.008 C 
ATOM      8  C   UNL     1      31.642  24.125  26.946  1.00  0.00     0.031 C 
ATOM      9  C   UNL     1      33.097  23.769  27.267  1.00  0.00     0.005 C 
ATOM     10  C   UNL     1      33.460  24.123  28.719  1.00  0.00     0.008 C 
ATOM     11  C   UNL     1      32.510  23.463  29.765  1.00  0.00    -0.018 C 
ATOM     12  C   UNL     1      32.870  24.023  31.163  1.00  0.00     0.088 C 
ATOM     13  C   UNL     1      31.884  23.602  32.213  1.00  0.00     0.159 C 
ATOM     14  O   UNL     1      32.319  23.244  33.340  1.00  0.00    -0.295 OA
ATOM     15  C   UNL     1      32.719  21.924  29.758  1.00  0.00     0.012 C 
ATOM     16  C   UNL     1      29.842  24.123  34.300  1.00  0.00     0.039 C 
ENDROOT
TORSDOF 0
ENDMDL
