MODEL 1
REMARK VINA RESULT:     1.102      0.000      0.000
REMARK INTER + INTRA:           1.060
REMARK INTER:                   1.682
REMARK INTRA:                  -0.621
REMARK UNBOUND:                -0.621
REMARK SMILES OC[C@H]1O[C@H](O[C@]2(CO)O[C@H](CO)[C@H](O)[C@@H]2O)[C@@H](O)[C@@H](O)[C@@H]1O
REMARK SMILES IDX 6 1 5 2 3 3 22 4 4 5 20 6 18 7 2 8 1 9 23 11 21 13 19 15
REMARK SMILES IDX 7 17 16 18 10 19 14 20 11 21 8 22 9 23 17 25 15 27 12 29
REMARK SMILES IDX 13 30
REMARK H PARENT 1 10 23 12 21 14 19 16 9 24 17 26 15 28 13 31
REMARK Flexibility Score: inf
ROOT
ATOM      1  O   UNL     1      39.137  34.718  -9.410  1.00  0.00    -0.313 OA
ENDROOT
BRANCH   1   2
ATOM      2  C   UNL     1      40.054  34.675  -8.318  1.00  0.00     0.285 C 
ATOM      3  C   UNL     1      40.142  37.027  -8.150  1.00  0.00     0.178 C 
ATOM      4  C   UNL     1      39.349  37.048  -6.819  1.00  0.00     0.177 C 
ATOM      5  O   UNL     1      40.888  35.825  -8.283  1.00  0.00    -0.341 OA
ATOM      6  C   UNL     1      38.448  35.799  -6.738  1.00  0.00     0.179 C 
ATOM      7  C   UNL     1      39.275  34.521  -7.000  1.00  0.00     0.202 C 
BRANCH   3   8
ATOM      8  C   UNL     1      41.118  38.208  -8.233  1.00  0.00     0.191 C 
BRANCH   8   9
ATOM      9  O   UNL     1      41.124  38.934  -7.030  1.00  0.00    -0.394 OA
ATOM     10  H   UNL     1      41.435  39.853  -7.243  1.00  0.00     0.210 HD
ENDBRANCH   8   9
ENDBRANCH   3   8
BRANCH   4  11
ATOM     11  O   UNL     1      38.564  38.211  -6.759  1.00  0.00    -0.387 OA
ATOM     12  H   UNL     1      39.192  38.979  -6.718  1.00  0.00     0.211 HD
ENDBRANCH   4  11
BRANCH   6  13
ATOM     13  O   UNL     1      37.769  35.734  -5.507  1.00  0.00    -0.387 OA
ATOM     14  H   UNL     1      37.417  34.811  -5.398  1.00  0.00     0.211 HD
ENDBRANCH   6  13
BRANCH   7  15
ATOM     15  O   UNL     1      40.194  34.301  -5.959  1.00  0.00    -0.385 OA
ATOM     16  H   UNL     1      41.065  34.077  -6.377  1.00  0.00     0.211 HD
ENDBRANCH   7  15
ENDBRANCH   1   2
BRANCH   1  17
ATOM     17  C   UNL     1      38.750  33.430  -9.880  1.00  0.00     0.224 C 
ATOM     18  C   UNL     1      37.249  33.250  -9.583  1.00  0.00     0.208 C 
ATOM     19  O   UNL     1      38.901  33.339 -11.290  1.00  0.00    -0.337 OA
ATOM     20  C   UNL     1      36.818  32.306 -10.680  1.00  0.00     0.180 C 
ATOM     21  C   UNL     1      37.807  32.612 -11.814  1.00  0.00     0.179 C 
BRANCH  17  22
ATOM     22  C   UNL     1      39.592  32.318  -9.157  1.00  0.00     0.225 C 
BRANCH  22  23
ATOM     23  O   UNL     1      40.665  31.875  -9.948  1.00  0.00    -0.391 OA
ATOM     24  H   UNL     1      40.617  32.376 -10.805  1.00  0.00     0.210 HD
ENDBRANCH  22  23
ENDBRANCH  17  22
BRANCH  18  25
ATOM     25  O   UNL     1      36.564  34.473  -9.705  1.00  0.00    -0.385 OA
ATOM     26  H   UNL     1      35.594  34.257  -9.728  1.00  0.00     0.211 HD
ENDBRANCH  18  25
BRANCH  20  27
ATOM     27  O   UNL     1      35.474  32.503 -11.050  1.00  0.00    -0.387 OA
ATOM     28  H   UNL     1      35.095  31.602 -11.230  1.00  0.00     0.211 HD
ENDBRANCH  20  27
BRANCH  21  29
ATOM     29  C   UNL     1      37.209  33.392 -12.995  1.00  0.00     0.191 C 
BRANCH  29  30
ATOM     30  O   UNL     1      37.459  34.764 -12.860  1.00  0.00    -0.394 OA
ATOM     31  H   UNL     1      37.516  35.135 -13.783  1.00  0.00     0.210 HD
ENDBRANCH  29  30
ENDBRANCH  21  29
ENDBRANCH   1  17
TORSDOF 13
ENDMDL
MODEL 2
REMARK VINA RESULT:     2.618      1.612      5.910
REMARK INTER + INTRA:           3.374
REMARK INTER:                   4.118
REMARK INTRA:                  -0.744
REMARK UNBOUND:                -0.621
REMARK SMILES OC[C@H]1O[C@H](O[C@]2(CO)O[C@H](CO)[C@H](O)[C@@H]2O)[C@@H](O)[C@@H](O)[C@@H]1O
REMARK SMILES IDX 6 1 5 2 3 3 22 4 4 5 20 6 18 7 2 8 1 9 23 11 21 13 19 15
REMARK SMILES IDX 7 17 16 18 10 19 14 20 11 21 8 22 9 23 17 25 15 27 12 29
REMARK SMILES IDX 13 30
REMARK H PARENT 1 10 23 12 21 14 19 16 9 24 17 26 15 28 13 31
REMARK Flexibility Score: inf
ROOT
ATOM      1  O   UNL     1      38.916  35.014  -8.957  1.00  0.00    -0.313 OA
ENDROOT
BRANCH   1   2
ATOM      2  C   UNL     1      38.986  33.653  -9.378  1.00  0.00     0.285 C 
ATOM      3  C   UNL     1      36.714  33.613 -10.013  1.00  0.00     0.178 C 
ATOM      4  C   UNL     1      37.048  33.565 -11.526  1.00  0.00     0.177 C 
ATOM      5  O   UNL     1      37.734  32.993  -9.243  1.00  0.00    -0.341 OA
ATOM      6  C   UNL     1      38.427  34.213 -11.768  1.00  0.00     0.179 C 
ATOM      7  C   UNL     1      39.485  33.590 -10.832  1.00  0.00     0.202 C 
BRANCH   3   8
ATOM      8  C   UNL     1      35.388  32.900  -9.715  1.00  0.00     0.191 C 
BRANCH   8   9
ATOM      9  O   UNL     1      34.715  33.527  -8.652  1.00  0.00    -0.394 OA
ATOM     10  H   UNL     1      35.013  34.474  -8.633  1.00  0.00     0.210 HD
ENDBRANCH   8   9
ENDBRANCH   3   8
BRANCH   4  11
ATOM     11  O   UNL     1      36.060  34.255 -12.247  1.00  0.00    -0.387 OA
ATOM     12  H   UNL     1      35.302  34.404 -11.623  1.00  0.00     0.211 HD
ENDBRANCH   4  11
BRANCH   6  13
ATOM     13  O   UNL     1      38.809  34.117 -13.119  1.00  0.00    -0.387 OA
ATOM     14  H   UNL     1      39.715  34.514 -13.211  1.00  0.00     0.211 HD
ENDBRANCH   6  13
BRANCH   7  15
ATOM     15  O   UNL     1      39.719  32.245 -11.169  1.00  0.00    -0.385 OA
ATOM     16  H   UNL     1      40.692  32.146 -11.328  1.00  0.00     0.211 HD
ENDBRANCH   7  15
ENDBRANCH   1   2
BRANCH   1  17
ATOM     17  C   UNL     1      39.905  35.363  -7.993  1.00  0.00     0.224 C 
ATOM     18  C   UNL     1      39.193  35.595  -6.647  1.00  0.00     0.208 C 
ATOM     19  O   UNL     1      40.817  34.291  -7.791  1.00  0.00    -0.337 OA
ATOM     20  C   UNL     1      40.267  35.233  -5.650  1.00  0.00     0.180 C 
ATOM     21  C   UNL     1      41.125  34.213  -6.414  1.00  0.00     0.179 C 
BRANCH  17  22
ATOM     22  C   UNL     1      40.664  36.662  -8.445  1.00  0.00     0.225 C 
BRANCH  22  23
ATOM     23  O   UNL     1      40.298  37.777  -7.674  1.00  0.00    -0.391 OA
ATOM     24  H   UNL     1      40.341  38.569  -8.273  1.00  0.00     0.210 HD
ENDBRANCH  22  23
ENDBRANCH  17  22
BRANCH  18  25
ATOM     25  O   UNL     1      38.094  34.727  -6.505  1.00  0.00    -0.385 OA
ATOM     26  H   UNL     1      38.463  33.833  -6.274  1.00  0.00     0.211 HD
ENDBRANCH  18  25
BRANCH  20  27
ATOM     27  O   UNL     1      39.729  34.718  -4.455  1.00  0.00    -0.387 OA
ATOM     28  H   UNL     1      39.080  35.393  -4.123  1.00  0.00     0.211 HD
ENDBRANCH  20  27
BRANCH  21  29
ATOM     29  C   UNL     1      40.963  32.759  -5.947  1.00  0.00     0.191 C 
BRANCH  29  30
ATOM     30  O   UNL     1      40.869  31.894  -7.045  1.00  0.00    -0.394 OA
ATOM     31  H   UNL     1      40.336  32.372  -7.739  1.00  0.00     0.210 HD
ENDBRANCH  29  30
ENDBRANCH  21  29
ENDBRANCH   1  17
TORSDOF 13
ENDMDL
MODEL 3
REMARK VINA RESULT:     2.961      1.398      6.066
REMARK INTER + INTRA:           3.897
REMARK INTER:                   4.228
REMARK INTRA:                  -0.331
REMARK UNBOUND:                -0.621
REMARK SMILES OC[C@H]1O[C@H](O[C@]2(CO)O[C@H](CO)[C@H](O)[C@@H]2O)[C@@H](O)[C@@H](O)[C@@H]1O
REMARK SMILES IDX 6 1 5 2 3 3 22 4 4 5 20 6 18 7 2 8 1 9 23 11 21 13 19 15
REMARK SMILES IDX 7 17 16 18 10 19 14 20 11 21 8 22 9 23 17 25 15 27 12 29
REMARK SMILES IDX 13 30
REMARK H PARENT 1 10 23 12 21 14 19 16 9 24 17 26 15 28 13 31
REMARK Flexibility Score: inf
ROOT
ATOM      1  O   UNL     1      38.530  34.112  -8.895  1.00  0.00    -0.313 OA
ENDROOT
BRANCH   1   2
ATOM      2  C   UNL     1      38.808  32.873  -9.545  1.00  0.00     0.285 C 
ATOM      3  C   UNL     1      36.650  32.752 -10.491  1.00  0.00     0.178 C 
ATOM      4  C   UNL     1      37.169  33.033 -11.925  1.00  0.00     0.177 C 
ATOM      5  O   UNL     1      37.635  32.088  -9.712  1.00  0.00    -0.341 OA
ATOM      6  C   UNL     1      38.481  33.839 -11.846  1.00  0.00     0.179 C 
ATOM      7  C   UNL     1      39.484  33.143 -10.900  1.00  0.00     0.202 C 
BRANCH   3   8
ATOM      8  C   UNL     1      35.390  31.876 -10.519  1.00  0.00     0.191 C 
BRANCH   8   9
ATOM      9  O   UNL     1      34.710  31.944  -9.291  1.00  0.00    -0.394 OA
ATOM     10  H   UNL     1      35.374  32.214  -8.602  1.00  0.00     0.210 HD
ENDBRANCH   8   9
ENDBRANCH   3   8
BRANCH   4  11
ATOM     11  O   UNL     1      36.202  33.759 -12.639  1.00  0.00    -0.387 OA
ATOM     12  H   UNL     1      36.016  33.248 -13.470  1.00  0.00     0.211 HD
ENDBRANCH   4  11
BRANCH   6  13
ATOM     13  O   UNL     1      39.033  34.048 -13.124  1.00  0.00    -0.387 OA
ATOM     14  H   UNL     1      39.607  34.858 -13.083  1.00  0.00     0.211 HD
ENDBRANCH   6  13
BRANCH   7  15
ATOM     15  O   UNL     1      39.912  31.919 -11.441  1.00  0.00    -0.385 OA
ATOM     16  H   UNL     1      39.328  31.719 -12.217  1.00  0.00     0.211 HD
ENDBRANCH   7  15
ENDBRANCH   1   2
BRANCH   1  17
ATOM     17  C   UNL     1      39.579  34.555  -8.040  1.00  0.00     0.224 C 
ATOM     18  C   UNL     1      40.403  35.606  -8.807  1.00  0.00     0.208 C 
ATOM     19  O   UNL     1      39.054  35.207  -6.892  1.00  0.00    -0.337 OA
ATOM     20  C   UNL     1      40.935  36.472  -7.691  1.00  0.00     0.180 C 
ATOM     21  C   UNL     1      39.871  36.322  -6.594  1.00  0.00     0.179 C 
BRANCH  17  22
ATOM     22  C   UNL     1      40.485  33.340  -7.626  1.00  0.00     0.225 C 
BRANCH  22  23
ATOM     23  O   UNL     1      40.820  33.378  -6.262  1.00  0.00    -0.391 OA
ATOM     24  H   UNL     1      41.813  33.413  -6.210  1.00  0.00     0.210 HD
ENDBRANCH  22  23
ENDBRANCH  17  22
BRANCH  18  25
ATOM     25  O   UNL     1      39.577  36.369  -9.655  1.00  0.00    -0.385 OA
ATOM     26  H   UNL     1      40.107  37.163  -9.931  1.00  0.00     0.211 HD
ENDBRANCH  18  25
BRANCH  20  27
ATOM     27  O   UNL     1      41.125  37.806  -8.099  1.00  0.00    -0.387 OA
ATOM     28  H   UNL     1      41.478  37.770  -9.028  1.00  0.00     0.211 HD
ENDBRANCH  20  27
BRANCH  21  29
ATOM     29  C   UNL     1      38.978  37.556  -6.392  1.00  0.00     0.191 C 
BRANCH  29  30
ATOM     30  O   UNL     1      37.683  37.174  -6.017  1.00  0.00    -0.394 OA
ATOM     31  H   UNL     1      37.383  37.827  -5.326  1.00  0.00     0.210 HD
ENDBRANCH  29  30
ENDBRANCH  21  29
ENDBRANCH   1  17
TORSDOF 13
ENDMDL
MODEL 4
REMARK VINA RESULT:     3.432      1.811      3.148
REMARK INTER + INTRA:           4.616
REMARK INTER:                   3.039
REMARK INTRA:                   1.577
REMARK UNBOUND:                -0.621
REMARK SMILES OC[C@H]1O[C@H](O[C@]2(CO)O[C@H](CO)[C@H](O)[C@@H]2O)[C@@H](O)[C@@H](O)[C@@H]1O
REMARK SMILES IDX 6 1 5 2 3 3 22 4 4 5 20 6 18 7 2 8 1 9 23 11 21 13 19 15
REMARK SMILES IDX 7 17 16 18 10 19 14 20 11 21 8 22 9 23 17 25 15 27 12 29
REMARK SMILES IDX 13 30
REMARK H PARENT 1 10 23 12 21 14 19 16 9 24 17 26 15 28 13 31
REMARK Flexibility Score: inf
ROOT
ATOM      1  O   UNL     1      37.567  34.065  -8.604  1.00  0.00    -0.313 OA
ENDROOT
BRANCH   1   2
ATOM      2  C   UNL     1      38.733  34.864  -8.791  1.00  0.00     0.285 C 
ATOM      3  C   UNL     1      38.549  35.837  -6.649  1.00  0.00     0.178 C 
ATOM      4  C   UNL     1      39.782  35.075  -6.101  1.00  0.00     0.177 C 
ATOM      5  O   UNL     1      38.671  36.072  -8.045  1.00  0.00    -0.341 OA
ATOM      6  C   UNL     1      39.967  33.764  -6.892  1.00  0.00     0.179 C 
ATOM      7  C   UNL     1      39.981  34.048  -8.410  1.00  0.00     0.202 C 
BRANCH   3   8
ATOM      8  C   UNL     1      38.379  37.193  -5.949  1.00  0.00     0.191 C 
BRANCH   8   9
ATOM      9  O   UNL     1      37.018  37.477  -5.742  1.00  0.00    -0.394 OA
ATOM     10  H   UNL     1      36.649  36.750  -5.175  1.00  0.00     0.210 HD
ENDBRANCH   8   9
ENDBRANCH   3   8
BRANCH   4  11
ATOM     11  O   UNL     1      39.590  34.791  -4.739  1.00  0.00    -0.387 OA
ATOM     12  H   UNL     1      40.026  35.524  -4.230  1.00  0.00     0.211 HD
ENDBRANCH   4  11
BRANCH   6  13
ATOM     13  O   UNL     1      41.125  33.076  -6.482  1.00  0.00    -0.387 OA
ATOM     14  H   UNL     1      40.874  32.465  -5.740  1.00  0.00     0.211 HD
ENDBRANCH   6  13
BRANCH   7  15
ATOM     15  O   UNL     1      41.125  34.783  -8.768  1.00  0.00    -0.385 OA
ATOM     16  H   UNL     1      40.816  35.595  -9.245  1.00  0.00     0.211 HD
ENDBRANCH   7  15
ENDBRANCH   1   2
BRANCH   1  17
ATOM     17  C   UNL     1      37.049  33.522  -9.815  1.00  0.00     0.224 C 
ATOM     18  C   UNL     1      37.372  34.509 -10.953  1.00  0.00     0.208 C 
ATOM     19  O   UNL     1      37.698  32.300 -10.139  1.00  0.00    -0.337 OA
ATOM     20  C   UNL     1      37.468  33.595 -12.151  1.00  0.00     0.180 C 
ATOM     21  C   UNL     1      37.908  32.258 -11.537  1.00  0.00     0.179 C 
BRANCH  17  22
ATOM     22  C   UNL     1      35.497  33.314  -9.692  1.00  0.00     0.225 C 
BRANCH  22  23
ATOM     23  O   UNL     1      35.082  33.245  -8.351  1.00  0.00    -0.391 OA
ATOM     24  H   UNL     1      35.894  33.062  -7.807  1.00  0.00     0.210 HD
ENDBRANCH  22  23
ENDBRANCH  17  22
BRANCH  18  25
ATOM     25  O   UNL     1      38.610  35.141 -10.731  1.00  0.00    -0.385 OA
ATOM     26  H   UNL     1      38.917  35.488 -11.610  1.00  0.00     0.211 HD
ENDBRANCH  18  25
BRANCH  20  27
ATOM     27  O   UNL     1      38.368  34.082 -13.118  1.00  0.00    -0.387 OA
ATOM     28  H   UNL     1      39.195  33.537 -13.036  1.00  0.00     0.211 HD
ENDBRANCH  20  27
BRANCH  21  29
ATOM     29  C   UNL     1      39.370  31.875 -11.810  1.00  0.00     0.191 C 
BRANCH  29  30
ATOM     30  O   UNL     1      40.115  31.885 -10.623  1.00  0.00    -0.394 OA
ATOM     31  H   UNL     1      39.733  31.171 -10.042  1.00  0.00     0.210 HD
ENDBRANCH  29  30
ENDBRANCH  21  29
ENDBRANCH   1  17
TORSDOF 13
ENDMDL
MODEL 5
REMARK VINA RESULT:     3.888      1.520      3.258
REMARK INTER + INTRA:           5.312
REMARK INTER:                   5.471
REMARK INTRA:                  -0.159
REMARK UNBOUND:                -0.621
REMARK SMILES OC[C@H]1O[C@H](O[C@]2(CO)O[C@H](CO)[C@H](O)[C@@H]2O)[C@@H](O)[C@@H](O)[C@@H]1O
REMARK SMILES IDX 6 1 5 2 3 3 22 4 4 5 20 6 18 7 2 8 1 9 23 11 21 13 19 15
REMARK SMILES IDX 7 17 16 18 10 19 14 20 11 21 8 22 9 23 17 25 15 27 12 29
REMARK SMILES IDX 13 30
REMARK H PARENT 1 10 23 12 21 14 19 16 9 24 17 26 15 28 13 31
REMARK Flexibility Score: inf
ROOT
ATOM      1  O   UNL     1      37.173  34.969  -9.097  1.00  0.00    -0.313 OA
ENDROOT
BRANCH   1   2
ATOM      2  C   UNL     1      37.584  34.805  -7.741  1.00  0.00     0.285 C 
ATOM      3  C   UNL     1      39.872  34.780  -8.316  1.00  0.00     0.178 C 
ATOM      4  C   UNL     1      40.134  36.173  -7.690  1.00  0.00     0.177 C 
ATOM      5  O   UNL     1      38.817  34.106  -7.643  1.00  0.00    -0.341 OA
ATOM      6  C   UNL     1      38.828  36.993  -7.701  1.00  0.00     0.179 C 
ATOM      7  C   UNL     1      37.679  36.183  -7.062  1.00  0.00     0.202 C 
BRANCH   3   8
ATOM      8  C   UNL     1      41.125  33.896  -8.246  1.00  0.00     0.191 C 
BRANCH   8   9
ATOM      9  O   UNL     1      40.829  32.661  -7.644  1.00  0.00    -0.394 OA
ATOM     10  H   UNL     1      40.139  32.218  -8.205  1.00  0.00     0.210 HD
ENDBRANCH   8   9
ENDBRANCH   3   8
BRANCH   4  11
ATOM     11  O   UNL     1      41.125  36.840  -8.429  1.00  0.00    -0.387 OA
ATOM     12  H   UNL     1      41.839  36.175  -8.615  1.00  0.00     0.211 HD
ENDBRANCH   4  11
BRANCH   6  13
ATOM     13  O   UNL     1      38.998  38.239  -7.066  1.00  0.00    -0.387 OA
ATOM     14  H   UNL     1      39.740  38.151  -6.411  1.00  0.00     0.211 HD
ENDBRANCH   6  13
BRANCH   7  15
ATOM     15  O   UNL     1      37.906  35.992  -5.688  1.00  0.00    -0.385 OA
ATOM     16  H   UNL     1      37.047  35.708  -5.284  1.00  0.00     0.211 HD
ENDBRANCH   7  15
ENDBRANCH   1   2
BRANCH   1  17
ATOM     17  C   UNL     1      36.704  33.767  -9.699  1.00  0.00     0.224 C 
ATOM     18  C   UNL     1      36.493  34.041 -11.201  1.00  0.00     0.208 C 
ATOM     19  O   UNL     1      37.681  32.739  -9.606  1.00  0.00    -0.337 OA
ATOM     20  C   UNL     1      36.723  32.679 -11.810  1.00  0.00     0.180 C 
ATOM     21  C   UNL     1      37.685  32.009 -10.817  1.00  0.00     0.179 C 
BRANCH  17  22
ATOM     22  C   UNL     1      35.357  33.319  -9.028  1.00  0.00     0.225 C 
BRANCH  22  23
ATOM     23  O   UNL     1      34.314  34.223  -9.290  1.00  0.00    -0.391 OA
ATOM     24  H   UNL     1      34.562  34.717 -10.117  1.00  0.00     0.210 HD
ENDBRANCH  22  23
ENDBRANCH  17  22
BRANCH  18  25
ATOM     25  O   UNL     1      37.454  34.951 -11.683  1.00  0.00    -0.385 OA
ATOM     26  H   UNL     1      37.204  35.159 -12.622  1.00  0.00     0.211 HD
ENDBRANCH  18  25
BRANCH  20  27
ATOM     27  O   UNL     1      37.245  32.763 -13.115  1.00  0.00    -0.387 OA
ATOM     28  H   UNL     1      36.888  33.602 -13.509  1.00  0.00     0.211 HD
ENDBRANCH  20  27
BRANCH  21  29
ATOM     29  C   UNL     1      39.131  31.875 -11.315  1.00  0.00     0.191 C 
BRANCH  29  30
ATOM     30  O   UNL     1      40.036  32.043 -10.258  1.00  0.00    -0.394 OA
ATOM     31  H   UNL     1      40.878  31.584 -10.529  1.00  0.00     0.210 HD
ENDBRANCH  29  30
ENDBRANCH  21  29
ENDBRANCH   1  17
TORSDOF 13
ENDMDL
