MODEL 1
REMARK VINA RESULT:    -4.549      0.000      0.000
REMARK INTER + INTRA:         -11.755
REMARK INTER:                  -8.804
REMARK INTRA:                  -2.951
REMARK UNBOUND:                -2.951
REMARK SMILES CCCCCCCCCCCCCCCCCC(=O)[O-]
REMARK SMILES IDX 10 1 11 2 12 3 13 4 14 5 15 6 16 7 17 8 18 9 19 10 20 11
REMARK SMILES IDX 9 12 8 13 7 14 6 15 5 16 4 17 3 18 2 19 1 20
REMARK H PARENT
REMARK Flexibility Score: inf
ROOT
ATOM      1  C   UNL     1      17.238 -33.350  19.851  1.00  0.00     0.000 C 
ENDROOT
BRANCH   1   2
ATOM      2  C   UNL     1      16.563 -34.717  20.064  1.00  0.00     0.000 C 
BRANCH   2   3
ATOM      3  C   UNL     1      15.083 -34.653  20.482  1.00  0.00     0.000 C 
BRANCH   3   4
ATOM      4  C   UNL     1      14.747 -33.401  21.305  1.00  0.00     0.000 C 
BRANCH   4   5
ATOM      5  C   UNL     1      13.829 -32.456  20.517  1.00  0.00     0.000 C 
BRANCH   5   6
ATOM      6  C   UNL     1      13.742 -31.081  21.194  1.00  0.00     0.000 C 
BRANCH   6   7
ATOM      7  C   UNL     1      12.713 -31.035  22.338  1.00  0.00     0.006 C 
BRANCH   7   8
ATOM      8  C   UNL     1      13.197 -30.272  23.584  1.00  0.00     0.053 C 
BRANCH   8   9
ATOM      9  C   UNL     1      12.419 -29.016  23.833  1.00  0.00     0.041 C 
ATOM     10  O   UNL     1      11.332 -28.811  23.231  1.00  0.00    -0.550 OA
ATOM     11  O   UNL     1      12.912 -28.054  24.707  1.00  0.00    -0.550 OA
ENDBRANCH   8   9
ENDBRANCH   7   8
ENDBRANCH   6   7
ENDBRANCH   5   6
ENDBRANCH   4   5
ENDBRANCH   3   4
ENDBRANCH   2   3
ENDBRANCH   1   2
BRANCH   1  12
ATOM     12  C   UNL     1      18.585 -33.226  20.582  1.00  0.00     0.000 C 
BRANCH  12  13
ATOM     13  C   UNL     1      18.821 -31.784  21.054  1.00  0.00    -0.000 C 
BRANCH  13  14
ATOM     14  C   UNL     1      17.526 -30.960  21.116  1.00  0.00    -0.000 C 
BRANCH  14  15
ATOM     15  C   UNL     1      17.313 -30.291  22.482  1.00  0.00    -0.000 C 
BRANCH  15  16
ATOM     16  C   UNL     1      16.757 -31.295  23.503  1.00  0.00    -0.000 C 
BRANCH  16  17
ATOM     17  C   UNL     1      17.785 -31.678  24.580  1.00  0.00    -0.000 C 
BRANCH  17  18
ATOM     18  C   UNL     1      18.172 -33.163  24.530  1.00  0.00    -0.000 C 
BRANCH  18  19
ATOM     19  C   UNL     1      17.064 -33.994  23.873  1.00  0.00    -0.003 C 
ATOM     20  C   UNL     1      17.514 -35.434  23.648  1.00  0.00     0.004 C 
ENDBRANCH  18  19
ENDBRANCH  17  18
ENDBRANCH  16  17
ENDBRANCH  15  16
ENDBRANCH  14  15
ENDBRANCH  13  14
ENDBRANCH  12  13
ENDBRANCH   1  12
TORSDOF 16
ENDMDL
MODEL 2
REMARK VINA RESULT:    -4.511      1.964      3.657
REMARK INTER + INTRA:         -11.681
REMARK INTER:                  -8.822
REMARK INTRA:                  -2.859
REMARK UNBOUND:                -2.951
REMARK SMILES CCCCCCCCCCCCCCCCCC(=O)[O-]
REMARK SMILES IDX 10 1 11 2 12 3 13 4 14 5 15 6 16 7 17 8 18 9 19 10 20 11
REMARK SMILES IDX 9 12 8 13 7 14 6 15 5 16 4 17 3 18 2 19 1 20
REMARK H PARENT
REMARK Flexibility Score: inf
ROOT
ATOM      1  C   UNL     1      16.475 -34.391  19.310  1.00  0.00     0.000 C 
ENDROOT
BRANCH   1   2
ATOM      2  C   UNL     1      15.301 -34.697  20.258  1.00  0.00     0.000 C 
BRANCH   2   3
ATOM      3  C   UNL     1      14.983 -33.590  21.279  1.00  0.00     0.000 C 
BRANCH   3   4
ATOM      4  C   UNL     1      15.354 -33.978  22.718  1.00  0.00     0.000 C 
BRANCH   4   5
ATOM      5  C   UNL     1      15.350 -32.749  23.637  1.00  0.00     0.000 C 
BRANCH   5   6
ATOM      6  C   UNL     1      13.928 -32.424  24.117  1.00  0.00     0.000 C 
BRANCH   6   7
ATOM      7  C   UNL     1      13.379 -31.110  23.533  1.00  0.00     0.006 C 
BRANCH   7   8
ATOM      8  C   UNL     1      14.435 -29.999  23.394  1.00  0.00     0.053 C 
BRANCH   8   9
ATOM      9  C   UNL     1      14.616 -29.546  21.977  1.00  0.00     0.041 C 
ATOM     10  O   UNL     1      15.256 -28.492  21.722  1.00  0.00    -0.550 OA
ATOM     11  O   UNL     1      14.051 -30.274  20.936  1.00  0.00    -0.550 OA
ENDBRANCH   8   9
ENDBRANCH   7   8
ENDBRANCH   6   7
ENDBRANCH   5   6
ENDBRANCH   4   5
ENDBRANCH   3   4
ENDBRANCH   2   3
ENDBRANCH   1   2
BRANCH   1  12
ATOM     12  C   UNL     1      17.553 -35.485  19.319  1.00  0.00     0.000 C 
BRANCH  12  13
ATOM     13  C   UNL     1      17.137 -36.658  20.219  1.00  0.00    -0.000 C 
BRANCH  13  14
ATOM     14  C   UNL     1      18.128 -36.907  21.366  1.00  0.00    -0.000 C 
BRANCH  14  15
ATOM     15  C   UNL     1      19.098 -35.736  21.577  1.00  0.00    -0.000 C 
BRANCH  15  16
ATOM     16  C   UNL     1      18.751 -34.962  22.858  1.00  0.00    -0.000 C 
BRANCH  16  17
ATOM     17  C   UNL     1      18.935 -33.443  22.701  1.00  0.00    -0.000 C 
BRANCH  17  18
ATOM     18  C   UNL     1      19.271 -33.032  21.260  1.00  0.00    -0.000 C 
BRANCH  18  19
ATOM     19  C   UNL     1      19.134 -31.516  21.078  1.00  0.00    -0.003 C 
ATOM     20  C   UNL     1      17.672 -31.107  20.930  1.00  0.00     0.004 C 
ENDBRANCH  18  19
ENDBRANCH  17  18
ENDBRANCH  16  17
ENDBRANCH  15  16
ENDBRANCH  14  15
ENDBRANCH  13  14
ENDBRANCH  12  13
ENDBRANCH   1  12
TORSDOF 16
ENDMDL
MODEL 3
REMARK VINA RESULT:    -4.405      1.474      4.037
REMARK INTER + INTRA:         -11.477
REMARK INTER:                  -8.698
REMARK INTRA:                  -2.779
REMARK UNBOUND:                -2.951
REMARK SMILES CCCCCCCCCCCCCCCCCC(=O)[O-]
REMARK SMILES IDX 10 1 11 2 12 3 13 4 14 5 15 6 16 7 17 8 18 9 19 10 20 11
REMARK SMILES IDX 9 12 8 13 7 14 6 15 5 16 4 17 3 18 2 19 1 20
REMARK H PARENT
REMARK Flexibility Score: inf
ROOT
ATOM      1  C   UNL     1      18.733 -35.018  23.130  1.00  0.00     0.000 C 
ENDROOT
BRANCH   1   2
ATOM      2  C   UNL     1      17.242 -35.325  23.363  1.00  0.00     0.000 C 
BRANCH   2   3
ATOM      3  C   UNL     1      16.375 -34.105  23.721  1.00  0.00     0.000 C 
BRANCH   3   4
ATOM      4  C   UNL     1      17.206 -32.868  24.091  1.00  0.00     0.000 C 
BRANCH   4   5
ATOM      5  C   UNL     1      16.406 -31.578  23.859  1.00  0.00     0.000 C 
BRANCH   5   6
ATOM      6  C   UNL     1      15.044 -31.882  23.220  1.00  0.00     0.000 C 
BRANCH   6   7
ATOM      7  C   UNL     1      13.908 -31.005  23.776  1.00  0.00     0.006 C 
BRANCH   7   8
ATOM      8  C   UNL     1      13.557 -29.797  22.888  1.00  0.00     0.053 C 
BRANCH   8   9
ATOM      9  C   UNL     1      12.081 -29.565  22.781  1.00  0.00     0.041 C 
ATOM     10  O   UNL     1      11.507 -28.754  23.554  1.00  0.00    -0.550 OA
ATOM     11  O   UNL     1      11.332 -30.270  21.846  1.00  0.00    -0.550 OA
ENDBRANCH   8   9
ENDBRANCH   7   8
ENDBRANCH   6   7
ENDBRANCH   5   6
ENDBRANCH   4   5
ENDBRANCH   3   4
ENDBRANCH   2   3
ENDBRANCH   1   2
BRANCH   1  12
ATOM     12  C   UNL     1      19.352 -35.867  22.009  1.00  0.00     0.000 C 
BRANCH  12  13
ATOM     13  C   UNL     1      18.305 -36.806  21.391  1.00  0.00    -0.000 C 
BRANCH  13  14
ATOM     14  C   UNL     1      17.946 -36.426  19.946  1.00  0.00    -0.000 C 
BRANCH  14  15
ATOM     15  C   UNL     1      16.456 -36.098  19.772  1.00  0.00    -0.000 C 
BRANCH  15  16
ATOM     16  C   UNL     1      16.219 -34.582  19.839  1.00  0.00    -0.000 C 
BRANCH  16  17
ATOM     17  C   UNL     1      17.492 -33.768  19.553  1.00  0.00    -0.000 C 
BRANCH  17  18
ATOM     18  C   UNL     1      17.598 -32.507  20.422  1.00  0.00    -0.000 C 
BRANCH  18  19
ATOM     19  C   UNL     1      19.056 -32.227  20.806  1.00  0.00    -0.003 C 
ATOM     20  C   UNL     1      19.197 -30.864  21.478  1.00  0.00     0.004 C 
ENDBRANCH  18  19
ENDBRANCH  17  18
ENDBRANCH  16  17
ENDBRANCH  15  16
ENDBRANCH  14  15
ENDBRANCH  13  14
ENDBRANCH  12  13
ENDBRANCH   1  12
TORSDOF 16
ENDMDL
MODEL 4
REMARK VINA RESULT:    -4.401      2.858      5.222
REMARK INTER + INTRA:         -11.469
REMARK INTER:                  -8.690
REMARK INTRA:                  -2.779
REMARK UNBOUND:                -2.951
REMARK SMILES CCCCCCCCCCCCCCCCCC(=O)[O-]
REMARK SMILES IDX 10 1 11 2 12 3 13 4 14 5 15 6 16 7 17 8 18 9 19 10 20 11
REMARK SMILES IDX 9 12 8 13 7 14 6 15 5 16 4 17 3 18 2 19 1 20
REMARK H PARENT
REMARK Flexibility Score: inf
ROOT
ATOM      1  C   UNL     1      15.199 -34.560  19.928  1.00  0.00     0.000 C 
ENDROOT
BRANCH   1   2
ATOM      2  C   UNL     1      16.496 -34.207  19.177  1.00  0.00     0.000 C 
BRANCH   2   3
ATOM      3  C   UNL     1      17.630 -35.240  19.318  1.00  0.00     0.000 C 
BRANCH   3   4
ATOM      4  C   UNL     1      17.120 -36.644  19.673  1.00  0.00     0.000 C 
BRANCH   4   5
ATOM      5  C   UNL     1      17.941 -37.254  20.817  1.00  0.00     0.000 C 
BRANCH   5   6
ATOM      6  C   UNL     1      18.683 -36.165  21.605  1.00  0.00     0.000 C 
BRANCH   6   7
ATOM      7  C   UNL     1      18.306 -36.137  23.097  1.00  0.00     0.006 C 
BRANCH   7   8
ATOM      8  C   UNL     1      17.116 -35.217  23.425  1.00  0.00     0.053 C 
BRANCH   8   9
ATOM      9  C   UNL     1      17.014 -34.899  24.885  1.00  0.00     0.041 C 
ATOM     10  O   UNL     1      17.175 -33.718  25.292  1.00  0.00    -0.550 OA
ATOM     11  O   UNL     1      16.773 -35.915  25.803  1.00  0.00    -0.550 OA
ENDBRANCH   8   9
ENDBRANCH   7   8
ENDBRANCH   6   7
ENDBRANCH   5   6
ENDBRANCH   4   5
ENDBRANCH   3   4
ENDBRANCH   2   3
ENDBRANCH   1   2
BRANCH   1  12
ATOM     12  C   UNL     1      14.889 -33.588  21.078  1.00  0.00     0.000 C 
BRANCH  12  13
ATOM     13  C   UNL     1      13.870 -32.527  20.638  1.00  0.00    -0.000 C 
BRANCH  13  14
ATOM     14  C   UNL     1      13.532 -31.529  21.757  1.00  0.00    -0.000 C 
BRANCH  14  15
ATOM     15  C   UNL     1      14.228 -31.867  23.083  1.00  0.00    -0.000 C 
BRANCH  15  16
ATOM     16  C   UNL     1      15.148 -30.720  23.527  1.00  0.00    -0.000 C 
BRANCH  16  17
ATOM     17  C   UNL     1      16.611 -30.935  23.105  1.00  0.00    -0.000 C 
BRANCH  17  18
ATOM     18  C   UNL     1      16.972 -30.186  21.814  1.00  0.00    -0.000 C 
BRANCH  18  19
ATOM     19  C   UNL     1      17.764 -31.088  20.860  1.00  0.00    -0.003 C 
ATOM     20  C   UNL     1      18.450 -32.222  21.616  1.00  0.00     0.004 C 
ENDBRANCH  18  19
ENDBRANCH  17  18
ENDBRANCH  16  17
ENDBRANCH  15  16
ENDBRANCH  14  15
ENDBRANCH  13  14
ENDBRANCH  12  13
ENDBRANCH   1  12
TORSDOF 16
ENDMDL
MODEL 5
REMARK VINA RESULT:    -4.393      1.554      3.361
REMARK INTER + INTRA:         -11.454
REMARK INTER:                  -8.529
REMARK INTRA:                  -2.924
REMARK UNBOUND:                -2.951
REMARK SMILES CCCCCCCCCCCCCCCCCC(=O)[O-]
REMARK SMILES IDX 10 1 11 2 12 3 13 4 14 5 15 6 16 7 17 8 18 9 19 10 20 11
REMARK SMILES IDX 9 12 8 13 7 14 6 15 5 16 4 17 3 18 2 19 1 20
REMARK H PARENT
REMARK Flexibility Score: inf
ROOT
ATOM      1  C   UNL     1      17.996 -33.827  19.471  1.00  0.00     0.000 C 
ENDROOT
BRANCH   1   2
ATOM      2  C   UNL     1      18.667 -32.865  20.467  1.00  0.00     0.000 C 
BRANCH   2   3
ATOM      3  C   UNL     1      17.778 -31.705  20.951  1.00  0.00     0.000 C 
BRANCH   3   4
ATOM      4  C   UNL     1      18.336 -31.001  22.196  1.00  0.00     0.000 C 
BRANCH   4   5
ATOM      5  C   UNL     1      17.206 -30.592  23.151  1.00  0.00     0.000 C 
BRANCH   5   6
ATOM      6  C   UNL     1      15.835 -30.728  22.473  1.00  0.00     0.000 C 
BRANCH   6   7
ATOM      7  C   UNL     1      14.659 -30.545  23.449  1.00  0.00     0.006 C 
BRANCH   7   8
ATOM      8  C   UNL     1      13.444 -31.437  23.137  1.00  0.00     0.053 C 
BRANCH   8   9
ATOM      9  C   UNL     1      12.724 -31.019  21.890  1.00  0.00     0.041 C 
ATOM     10  O   UNL     1      11.844 -30.120  21.935  1.00  0.00    -0.550 OA
ATOM     11  O   UNL     1      13.003 -31.648  20.682  1.00  0.00    -0.550 OA
ENDBRANCH   8   9
ENDBRANCH   7   8
ENDBRANCH   6   7
ENDBRANCH   5   6
ENDBRANCH   4   5
ENDBRANCH   3   4
ENDBRANCH   2   3
ENDBRANCH   1   2
BRANCH   1  12
ATOM     12  C   UNL     1      18.224 -35.306  19.820  1.00  0.00     0.000 C 
BRANCH  12  13
ATOM     13  C   UNL     1      16.990 -35.902  20.514  1.00  0.00    -0.000 C 
BRANCH  13  14
ATOM     14  C   UNL     1      15.733 -35.036  20.338  1.00  0.00    -0.000 C 
BRANCH  14  15
ATOM     15  C   UNL     1      15.290 -34.360  21.644  1.00  0.00    -0.000 C 
BRANCH  15  16
ATOM     16  C   UNL     1      16.300 -34.630  22.769  1.00  0.00    -0.000 C 
BRANCH  16  17
ATOM     17  C   UNL     1      15.850 -34.051  24.121  1.00  0.00    -0.000 C 
BRANCH  17  18
ATOM     18  C   UNL     1      16.940 -34.144  25.198  1.00  0.00    -0.000 C 
BRANCH  18  19
ATOM     19  C   UNL     1      18.332 -33.946  24.586  1.00  0.00    -0.003 C 
ATOM     20  C   UNL     1      19.148 -32.936  25.387  1.00  0.00     0.004 C 
ENDBRANCH  18  19
ENDBRANCH  17  18
ENDBRANCH  16  17
ENDBRANCH  15  16
ENDBRANCH  14  15
ENDBRANCH  13  14
ENDBRANCH  12  13
ENDBRANCH   1  12
TORSDOF 16
ENDMDL
MODEL 6
REMARK VINA RESULT:    -4.393      1.597      4.132
REMARK INTER + INTRA:         -11.452
REMARK INTER:                  -8.437
REMARK INTRA:                  -3.015
REMARK UNBOUND:                -2.951
REMARK SMILES CCCCCCCCCCCCCCCCCC(=O)[O-]
REMARK SMILES IDX 10 1 11 2 12 3 13 4 14 5 15 6 16 7 17 8 18 9 19 10 20 11
REMARK SMILES IDX 9 12 8 13 7 14 6 15 5 16 4 17 3 18 2 19 1 20
REMARK H PARENT
REMARK Flexibility Score: inf
ROOT
ATOM      1  C   UNL     1      16.951 -32.510  23.698  1.00  0.00     0.000 C 
ENDROOT
BRANCH   1   2
ATOM      2  C   UNL     1      18.340 -32.278  23.075  1.00  0.00     0.000 C 
BRANCH   2   3
ATOM      3  C   UNL     1      18.388 -32.376  21.540  1.00  0.00     0.000 C 
BRANCH   3   4
ATOM      4  C   UNL     1      17.600 -31.257  20.843  1.00  0.00     0.000 C 
BRANCH   4   5
ATOM      5  C   UNL     1      18.047 -29.876  21.341  1.00  0.00     0.000 C 
BRANCH   5   6
ATOM      6  C   UNL     1      16.840 -28.958  21.579  1.00  0.00     0.000 C 
BRANCH   6   7
ATOM      7  C   UNL     1      15.522 -29.731  21.770  1.00  0.00     0.006 C 
BRANCH   7   8
ATOM      8  C   UNL     1      14.896 -29.563  23.166  1.00  0.00     0.053 C 
BRANCH   8   9
ATOM      9  C   UNL     1      13.412 -29.771  23.164  1.00  0.00     0.041 C 
ATOM     10  O   UNL     1      12.729 -29.489  24.183  1.00  0.00    -0.550 OA
ATOM     11  O   UNL     1      12.786 -30.306  22.044  1.00  0.00    -0.550 OA
ENDBRANCH   8   9
ENDBRANCH   7   8
ENDBRANCH   6   7
ENDBRANCH   5   6
ENDBRANCH   4   5
ENDBRANCH   3   4
ENDBRANCH   2   3
ENDBRANCH   1   2
BRANCH   1  12
ATOM     12  C   UNL     1      16.217 -33.717  23.095  1.00  0.00     0.000 C 
BRANCH  12  13
ATOM     13  C   UNL     1      14.793 -33.335  22.665  1.00  0.00    -0.000 C 
BRANCH  13  14
ATOM     14  C   UNL     1      14.603 -33.370  21.141  1.00  0.00    -0.000 C 
BRANCH  14  15
ATOM     15  C   UNL     1      15.145 -34.659  20.505  1.00  0.00    -0.000 C 
BRANCH  15  16
ATOM     16  C   UNL     1      16.135 -34.337  19.375  1.00  0.00    -0.000 C 
BRANCH  16  17
ATOM     17  C   UNL     1      17.303 -35.335  19.308  1.00  0.00    -0.000 C 
BRANCH  17  18
ATOM     18  C   UNL     1      16.920 -36.731  19.820  1.00  0.00    -0.000 C 
BRANCH  18  19
ATOM     19  C   UNL     1      17.967 -37.257  20.809  1.00  0.00    -0.003 C 
ATOM     20  C   UNL     1      18.668 -36.111  21.532  1.00  0.00     0.004 C 
ENDBRANCH  18  19
ENDBRANCH  17  18
ENDBRANCH  16  17
ENDBRANCH  15  16
ENDBRANCH  14  15
ENDBRANCH  13  14
ENDBRANCH  12  13
ENDBRANCH   1  12
TORSDOF 16
ENDMDL
MODEL 7
REMARK VINA RESULT:    -4.387      2.667      5.118
REMARK INTER + INTRA:         -11.441
REMARK INTER:                  -8.819
REMARK INTRA:                  -2.622
REMARK UNBOUND:                -2.951
REMARK SMILES CCCCCCCCCCCCCCCCCC(=O)[O-]
REMARK SMILES IDX 10 1 11 2 12 3 13 4 14 5 15 6 16 7 17 8 18 9 19 10 20 11
REMARK SMILES IDX 9 12 8 13 7 14 6 15 5 16 4 17 3 18 2 19 1 20
REMARK H PARENT
REMARK Flexibility Score: inf
ROOT
ATOM      1  C   UNL     1      17.822 -35.542  20.811  1.00  0.00     0.000 C 
ENDROOT
BRANCH   1   2
ATOM      2  C   UNL     1      18.496 -34.289  21.400  1.00  0.00     0.000 C 
BRANCH   2   3
ATOM      3  C   UNL     1      18.624 -33.102  20.428  1.00  0.00     0.000 C 
BRANCH   3   4
ATOM      4  C   UNL     1      18.980 -31.786  21.133  1.00  0.00     0.000 C 
BRANCH   4   5
ATOM      5  C   UNL     1      17.969 -30.685  20.787  1.00  0.00     0.000 C 
BRANCH   5   6
ATOM      6  C   UNL     1      16.782 -30.701  21.761  1.00  0.00     0.000 C 
BRANCH   6   7
ATOM      7  C   UNL     1      17.207 -30.896  23.227  1.00  0.00     0.006 C 
BRANCH   7   8
ATOM      8  C   UNL     1      16.602 -32.146  23.892  1.00  0.00     0.053 C 
BRANCH   8   9
ATOM      9  C   UNL     1      17.589 -32.883  24.746  1.00  0.00     0.041 C 
ATOM     10  O   UNL     1      18.756 -32.435  24.900  1.00  0.00    -0.550 OA
ATOM     11  O   UNL     1      17.229 -34.083  25.347  1.00  0.00    -0.550 OA
ENDBRANCH   8   9
ENDBRANCH   7   8
ENDBRANCH   6   7
ENDBRANCH   5   6
ENDBRANCH   4   5
ENDBRANCH   3   4
ENDBRANCH   2   3
ENDBRANCH   1   2
BRANCH   1  12
ATOM     12  C   UNL     1      16.757 -35.210  19.755  1.00  0.00     0.000 C 
BRANCH  12  13
ATOM     13  C   UNL     1      15.370 -35.074  20.400  1.00  0.00    -0.000 C 
BRANCH  13  14
ATOM     14  C   UNL     1      14.590 -33.855  19.881  1.00  0.00    -0.000 C 
BRANCH  14  15
ATOM     15  C   UNL     1      14.230 -32.862  20.995  1.00  0.00    -0.000 C 
BRANCH  15  16
ATOM     16  C   UNL     1      13.271 -31.781  20.475  1.00  0.00    -0.000 C 
BRANCH  16  17
ATOM     17  C   UNL     1      12.665 -30.932  21.606  1.00  0.00    -0.000 C 
BRANCH  17  18
ATOM     18  C   UNL     1      13.139 -31.374  22.998  1.00  0.00    -0.000 C 
BRANCH  18  19
ATOM     19  C   UNL     1      13.457 -30.160  23.879  1.00  0.00    -0.003 C 
ATOM     20  C   UNL     1      13.686 -28.910  23.034  1.00  0.00     0.004 C 
ENDBRANCH  18  19
ENDBRANCH  17  18
ENDBRANCH  16  17
ENDBRANCH  15  16
ENDBRANCH  14  15
ENDBRANCH  13  14
ENDBRANCH  12  13
ENDBRANCH   1  12
TORSDOF 16
ENDMDL
MODEL 8
REMARK VINA RESULT:    -4.385      2.094      4.868
REMARK INTER + INTRA:         -11.438
REMARK INTER:                  -8.966
REMARK INTRA:                  -2.472
REMARK UNBOUND:                -2.951
REMARK SMILES CCCCCCCCCCCCCCCCCC(=O)[O-]
REMARK SMILES IDX 10 1 11 2 12 3 13 4 14 5 15 6 16 7 17 8 18 9 19 10 20 11
REMARK SMILES IDX 9 12 8 13 7 14 6 15 5 16 4 17 3 18 2 19 1 20
REMARK H PARENT
REMARK Flexibility Score: inf
ROOT
ATOM      1  C   UNL     1      16.718 -36.242  19.435  1.00  0.00     0.000 C 
ENDROOT
BRANCH   1   2
ATOM      2  C   UNL     1      17.635 -36.590  20.622  1.00  0.00     0.000 C 
BRANCH   2   3
ATOM      3  C   UNL     1      18.722 -35.545  20.932  1.00  0.00     0.000 C 
BRANCH   3   4
ATOM      4  C   UNL     1      18.589 -34.942  22.338  1.00  0.00     0.000 C 
BRANCH   4   5
ATOM      5  C   UNL     1      18.684 -33.411  22.292  1.00  0.00     0.000 C 
BRANCH   5   6
ATOM      6  C   UNL     1      18.786 -32.908  20.845  1.00  0.00     0.000 C 
BRANCH   6   7
ATOM      7  C   UNL     1      18.008 -31.602  20.604  1.00  0.00     0.006 C 
BRANCH   7   8
ATOM      8  C   UNL     1      18.371 -30.469  21.580  1.00  0.00     0.053 C 
BRANCH   8   9
ATOM      9  C   UNL     1      17.167 -29.847  22.220  1.00  0.00     0.041 C 
ATOM     10  O   UNL     1      16.541 -28.924  21.636  1.00  0.00    -0.550 OA
ATOM     11  O   UNL     1      16.755 -30.267  23.480  1.00  0.00    -0.550 OA
ENDBRANCH   8   9
ENDBRANCH   7   8
ENDBRANCH   6   7
ENDBRANCH   5   6
ENDBRANCH   4   5
ENDBRANCH   3   4
ENDBRANCH   2   3
ENDBRANCH   1   2
BRANCH   1  12
ATOM     12  C   UNL     1      16.357 -34.750  19.373  1.00  0.00     0.000 C 
BRANCH  12  13
ATOM     13  C   UNL     1      14.993 -34.489  20.028  1.00  0.00    -0.000 C 
BRANCH  13  14
ATOM     14  C   UNL     1      15.086 -34.347  21.555  1.00  0.00    -0.000 C 
BRANCH  14  15
ATOM     15  C   UNL     1      14.950 -32.891  22.025  1.00  0.00    -0.000 C 
BRANCH  15  16
ATOM     16  C   UNL     1      14.010 -32.103  21.100  1.00  0.00    -0.000 C 
BRANCH  16  17
ATOM     17  C   UNL     1      13.053 -31.180  21.874  1.00  0.00    -0.000 C 
BRANCH  17  18
ATOM     18  C   UNL     1      13.380 -31.109  23.372  1.00  0.00    -0.000 C 
BRANCH  18  19
ATOM     19  C   UNL     1      13.019 -29.734  23.947  1.00  0.00    -0.003 C 
ATOM     20  C   UNL     1      13.452 -28.613  23.007  1.00  0.00     0.004 C 
ENDBRANCH  18  19
ENDBRANCH  17  18
ENDBRANCH  16  17
ENDBRANCH  15  16
ENDBRANCH  14  15
ENDBRANCH  13  14
ENDBRANCH  12  13
ENDBRANCH   1  12
TORSDOF 16
ENDMDL
MODEL 9
REMARK VINA RESULT:    -4.330      1.266      3.503
REMARK INTER + INTRA:         -11.331
REMARK INTER:                  -8.640
REMARK INTRA:                  -2.691
REMARK UNBOUND:                -2.951
REMARK SMILES CCCCCCCCCCCCCCCCCC(=O)[O-]
REMARK SMILES IDX 10 1 11 2 12 3 13 4 14 5 15 6 16 7 17 8 18 9 19 10 20 11
REMARK SMILES IDX 9 12 8 13 7 14 6 15 5 16 4 17 3 18 2 19 1 20
REMARK H PARENT
REMARK Flexibility Score: inf
ROOT
ATOM      1  C   UNL     1      17.773 -32.357  24.622  1.00  0.00     0.000 C 
ENDROOT
BRANCH   1   2
ATOM      2  C   UNL     1      18.030 -33.741  23.999  1.00  0.00     0.000 C 
BRANCH   2   3
ATOM      3  C   UNL     1      16.834 -34.709  24.046  1.00  0.00     0.000 C 
BRANCH   3   4
ATOM      4  C   UNL     1      15.479 -33.989  23.987  1.00  0.00     0.000 C 
BRANCH   4   5
ATOM      5  C   UNL     1      14.974 -33.882  22.542  1.00  0.00     0.000 C 
BRANCH   5   6
ATOM      6  C   UNL     1      14.396 -32.488  22.261  1.00  0.00     0.000 C 
BRANCH   6   7
ATOM      7  C   UNL     1      13.929 -31.761  23.535  1.00  0.00     0.006 C 
BRANCH   7   8
ATOM      8  C   UNL     1      14.167 -30.240  23.510  1.00  0.00     0.053 C 
BRANCH   8   9
ATOM      9  C   UNL     1      12.902 -29.453  23.674  1.00  0.00     0.041 C 
ATOM     10  O   UNL     1      12.752 -28.688  24.663  1.00  0.00    -0.550 OA
ATOM     11  O   UNL     1      11.873 -29.590  22.749  1.00  0.00    -0.550 OA
ENDBRANCH   8   9
ENDBRANCH   7   8
ENDBRANCH   6   7
ENDBRANCH   5   6
ENDBRANCH   4   5
ENDBRANCH   3   4
ENDBRANCH   2   3
ENDBRANCH   1   2
BRANCH   1  12
ATOM     12  C   UNL     1      18.227 -31.200  23.719  1.00  0.00     0.000 C 
BRANCH  12  13
ATOM     13  C   UNL     1      17.695 -31.379  22.289  1.00  0.00    -0.000 C 
BRANCH  13  14
ATOM     14  C   UNL     1      18.818 -31.581  21.260  1.00  0.00    -0.000 C 
BRANCH  14  15
ATOM     15  C   UNL     1      18.777 -32.969  20.603  1.00  0.00    -0.000 C 
BRANCH  15  16
ATOM     16  C   UNL     1      17.424 -33.210  19.916  1.00  0.00    -0.000 C 
BRANCH  16  17
ATOM     17  C   UNL     1      17.403 -34.504  19.086  1.00  0.00    -0.000 C 
BRANCH  17  18
ATOM     18  C   UNL     1      16.471 -35.572  19.676  1.00  0.00    -0.000 C 
BRANCH  18  19
ATOM     19  C   UNL     1      17.226 -36.885  19.914  1.00  0.00    -0.003 C 
ATOM     20  C   UNL     1      18.067 -36.816  21.184  1.00  0.00     0.004 C 
ENDBRANCH  18  19
ENDBRANCH  17  18
ENDBRANCH  16  17
ENDBRANCH  15  16
ENDBRANCH  14  15
ENDBRANCH  13  14
ENDBRANCH  12  13
ENDBRANCH   1  12
TORSDOF 16
ENDMDL
