MODEL 1
REMARK VINA RESULT:    -5.290      0.000      0.000
REMARK INTER + INTRA:          -5.965
REMARK INTER:                  -5.908
REMARK INTRA:                  -0.057
REMARK UNBOUND:                -0.057
REMARK SMILES COc1cc2ccc(=O)oc2c(O)c1O
REMARK SMILES IDX 3 1 14 2 12 3 11 4 5 5 4 6 6 7 7 8 8 9 9 10 10 11 2 12 1 13
REMARK SMILES IDX 15 14 13 16
REMARK H PARENT 15 15 13 17
REMARK Flexibility Score: inf
ROOT
ATOM      1  C   UNL     1       7.897  -7.269  -6.195  1.00  0.00     0.165 A 
ATOM      2  C   UNL     1       7.694  -5.907  -6.489  1.00  0.00     0.204 A 
ATOM      3  C   UNL     1       7.715  -5.459  -7.822  1.00  0.00     0.205 A 
ATOM      4  C   UNL     1       7.938  -6.368  -8.863  1.00  0.00     0.184 A 
ATOM      5  C   UNL     1       8.142  -7.733  -8.573  1.00  0.00     0.025 A 
ATOM      6  C   UNL     1       8.121  -8.179  -7.245  1.00  0.00     0.062 A 
ATOM      7  C   UNL     1       8.361  -8.616  -9.636  1.00  0.00     0.020 A 
ATOM      8  C   UNL     1       8.374  -8.127 -10.942  1.00  0.00     0.094 A 
ATOM      9  C   UNL     1       8.165  -6.761 -11.154  1.00  0.00     0.336 A 
ATOM     10  O   UNL     1       8.171  -6.300 -12.325  1.00  0.00    -0.246 OA
ATOM     11  O   UNL     1       7.958  -5.944 -10.125  1.00  0.00    -0.419 OA
ENDROOT
BRANCH   1  12
ATOM     12  O   UNL     1       7.870  -7.682  -4.852  1.00  0.00    -0.493 OA
ATOM     13  C   UNL     1       7.128  -8.794  -4.362  1.00  0.00     0.278 C 
ENDBRANCH   1  12
BRANCH   2  14
ATOM     14  O   UNL     1       7.471  -4.986  -5.463  1.00  0.00    -0.502 OA
ATOM     15  H   UNL     1       6.781  -5.139  -4.739  1.00  0.00     0.293 HD
ENDBRANCH   2  14
BRANCH   3  16
ATOM     16  O   UNL     1       7.516  -4.112  -8.129  1.00  0.00    -0.502 OA
ATOM     17  H   UNL     1       7.025  -3.815  -8.965  1.00  0.00     0.293 HD
ENDBRANCH   3  16
TORSDOF 3
ENDMDL
MODEL 2
REMARK VINA RESULT:    -5.276      2.376      2.739
REMARK INTER + INTRA:          -5.950
REMARK INTER:                  -5.903
REMARK INTRA:                  -0.047
REMARK UNBOUND:                -0.057
REMARK SMILES COc1cc2ccc(=O)oc2c(O)c1O
REMARK SMILES IDX 3 1 14 2 12 3 11 4 5 5 4 6 6 7 7 8 8 9 9 10 10 11 2 12 1 13
REMARK SMILES IDX 15 14 13 16
REMARK H PARENT 15 15 13 17
REMARK Flexibility Score: inf
ROOT
ATOM      1  C   UNL     1       8.658  -6.297  -7.532  1.00  0.00     0.165 A 
ATOM      2  C   UNL     1      10.032  -5.997  -7.625  1.00  0.00     0.204 A 
ATOM      3  C   UNL     1      10.757  -6.347  -8.779  1.00  0.00     0.205 A 
ATOM      4  C   UNL     1      10.114  -6.995  -9.840  1.00  0.00     0.184 A 
ATOM      5  C   UNL     1       8.740  -7.296  -9.752  1.00  0.00     0.025 A 
ATOM      6  C   UNL     1       8.017  -6.949  -8.603  1.00  0.00     0.062 A 
ATOM      7  C   UNL     1       8.128  -7.944 -10.831  1.00  0.00     0.020 A 
ATOM      8  C   UNL     1       8.886  -8.272 -11.953  1.00  0.00     0.094 A 
ATOM      9  C   UNL     1      10.245  -7.942 -11.971  1.00  0.00     0.336 A 
ATOM     10  O   UNL     1      10.947  -8.228 -12.976  1.00  0.00    -0.246 OA
ATOM     11  O   UNL     1      10.801  -7.326 -10.932  1.00  0.00    -0.419 OA
ENDROOT
BRANCH   1  12
ATOM     12  O   UNL     1       7.965  -5.934  -6.366  1.00  0.00    -0.493 OA
ATOM     13  C   UNL     1       7.848  -6.752  -5.206  1.00  0.00     0.278 C 
ENDBRANCH   1  12
BRANCH   2  14
ATOM     14  O   UNL     1      10.688  -5.352  -6.576  1.00  0.00    -0.502 OA
ATOM     15  H   UNL     1      10.690  -4.344  -6.475  1.00  0.00     0.293 HD
ENDBRANCH   2  14
BRANCH   3  16
ATOM     16  O   UNL     1      12.118  -6.056  -8.885  1.00  0.00    -0.502 OA
ATOM     17  H   UNL     1      12.804  -6.762  -9.128  1.00  0.00     0.293 HD
ENDBRANCH   3  16
TORSDOF 3
ENDMDL
MODEL 3
REMARK VINA RESULT:    -5.165      2.271      5.394
REMARK INTER + INTRA:          -5.826
REMARK INTER:                  -5.758
REMARK INTRA:                  -0.067
REMARK UNBOUND:                -0.057
REMARK SMILES COc1cc2ccc(=O)oc2c(O)c1O
REMARK SMILES IDX 3 1 14 2 12 3 11 4 5 5 4 6 6 7 7 8 8 9 9 10 10 11 2 12 1 13
REMARK SMILES IDX 15 14 13 16
REMARK H PARENT 15 15 13 17
REMARK Flexibility Score: inf
ROOT
ATOM      1  C   UNL     1       9.384  -6.829 -11.297  1.00  0.00     0.165 A 
ATOM      2  C   UNL     1      10.686  -6.583 -10.819  1.00  0.00     0.204 A 
ATOM      3  C   UNL     1      10.893  -6.228  -9.474  1.00  0.00     0.205 A 
ATOM      4  C   UNL     1       9.802  -6.118  -8.604  1.00  0.00     0.184 A 
ATOM      5  C   UNL     1       8.496  -6.363  -9.077  1.00  0.00     0.025 A 
ATOM      6  C   UNL     1       8.290  -6.716 -10.417  1.00  0.00     0.062 A 
ATOM      7  C   UNL     1       7.428  -6.245  -8.181  1.00  0.00     0.020 A 
ATOM      8  C   UNL     1       7.680  -5.890  -6.856  1.00  0.00     0.094 A 
ATOM      9  C   UNL     1       9.001  -5.662  -6.457  1.00  0.00     0.336 A 
ATOM     10  O   UNL     1       9.250  -5.342  -5.266  1.00  0.00    -0.246 OA
ATOM     11  O   UNL     1       9.998  -5.782  -7.330  1.00  0.00    -0.419 OA
ENDROOT
BRANCH   1  12
ATOM     12  O   UNL     1       9.214  -7.181 -12.646  1.00  0.00    -0.493 OA
ATOM     13  C   UNL     1       9.105  -8.518 -13.126  1.00  0.00     0.278 C 
ENDBRANCH   1  12
BRANCH   2  14
ATOM     14  O   UNL     1      11.785  -6.688 -11.674  1.00  0.00    -0.502 OA
ATOM     15  H   UNL     1      12.045  -5.951 -12.317  1.00  0.00     0.293 HD
ENDBRANCH   2  14
BRANCH   3  16
ATOM     16  O   UNL     1      12.177  -5.982  -8.987  1.00  0.00    -0.502 OA
ATOM     17  H   UNL     1      12.387  -5.189  -8.391  1.00  0.00     0.293 HD
ENDBRANCH   3  16
TORSDOF 3
ENDMDL
MODEL 4
REMARK VINA RESULT:    -4.947     13.615     14.232
REMARK INTER + INTRA:          -5.582
REMARK INTER:                  -5.516
REMARK INTRA:                  -0.067
REMARK UNBOUND:                -0.057
REMARK SMILES COc1cc2ccc(=O)oc2c(O)c1O
REMARK SMILES IDX 3 1 14 2 12 3 11 4 5 5 4 6 6 7 7 8 8 9 9 10 10 11 2 12 1 13
REMARK SMILES IDX 15 14 13 16
REMARK H PARENT 15 15 13 17
REMARK Flexibility Score: inf
ROOT
ATOM      1  C   UNL     1      19.364  -2.364  -8.306  1.00  0.00     0.165 A 
ATOM      2  C   UNL     1      18.978  -2.748  -7.007  1.00  0.00     0.204 A 
ATOM      3  C   UNL     1      19.948  -3.134  -6.064  1.00  0.00     0.205 A 
ATOM      4  C   UNL     1      21.303  -3.138  -6.415  1.00  0.00     0.184 A 
ATOM      5  C   UNL     1      21.694  -2.754  -7.714  1.00  0.00     0.025 A 
ATOM      6  C   UNL     1      20.729  -2.370  -8.653  1.00  0.00     0.062 A 
ATOM      7  C   UNL     1      23.057  -2.768  -8.033  1.00  0.00     0.020 A 
ATOM      8  C   UNL     1      23.983  -3.159  -7.066  1.00  0.00     0.094 A 
ATOM      9  C   UNL     1      23.522  -3.527  -5.798  1.00  0.00     0.336 A 
ATOM     10  O   UNL     1      24.341  -3.882  -4.911  1.00  0.00    -0.246 OA
ATOM     11  O   UNL     1      22.221  -3.504  -5.522  1.00  0.00    -0.419 OA
ENDROOT
BRANCH   1  12
ATOM     12  O   UNL     1      18.369  -1.984  -9.222  1.00  0.00    -0.493 OA
ATOM     13  C   UNL     1      18.008  -2.731 -10.380  1.00  0.00     0.278 C 
ENDBRANCH   1  12
BRANCH   2  14
ATOM     14  O   UNL     1      17.631  -2.751  -6.640  1.00  0.00    -0.502 OA
ATOM     15  H   UNL     1      16.912  -3.169  -7.217  1.00  0.00     0.293 HD
ENDBRANCH   2  14
BRANCH   3  16
ATOM     16  O   UNL     1      19.580  -3.518  -4.773  1.00  0.00    -0.502 OA
ATOM     17  H   UNL     1      19.549  -4.489  -4.486  1.00  0.00     0.293 HD
ENDBRANCH   3  16
TORSDOF 3
ENDMDL
MODEL 5
REMARK VINA RESULT:    -4.784     15.146     17.086
REMARK INTER + INTRA:          -5.401
REMARK INTER:                  -5.332
REMARK INTRA:                  -0.069
REMARK UNBOUND:                -0.057
REMARK SMILES COc1cc2ccc(=O)oc2c(O)c1O
REMARK SMILES IDX 3 1 14 2 12 3 11 4 5 5 4 6 6 7 7 8 8 9 9 10 10 11 2 12 1 13
REMARK SMILES IDX 15 14 13 16
REMARK H PARENT 15 15 13 17
REMARK Flexibility Score: inf
ROOT
ATOM      1  C   UNL     1      11.106   3.779 -19.735  1.00  0.00     0.165 A 
ATOM      2  C   UNL     1      12.015   3.183 -18.838  1.00  0.00     0.204 A 
ATOM      3  C   UNL     1      12.948   3.975 -18.145  1.00  0.00     0.205 A 
ATOM      4  C   UNL     1      12.977   5.360 -18.345  1.00  0.00     0.184 A 
ATOM      5  C   UNL     1      12.070   5.960 -19.242  1.00  0.00     0.025 A 
ATOM      6  C   UNL     1      11.140   5.172 -19.933  1.00  0.00     0.062 A 
ATOM      7  C   UNL     1      12.125   7.347 -19.419  1.00  0.00     0.020 A 
ATOM      8  C   UNL     1      13.067   8.092 -18.711  1.00  0.00     0.094 A 
ATOM      9  C   UNL     1      13.935   7.429 -17.838  1.00  0.00     0.336 A 
ATOM     10  O   UNL     1      14.793   8.083 -17.189  1.00  0.00    -0.246 OA
ATOM     11  O   UNL     1      13.861   6.110 -17.688  1.00  0.00    -0.419 OA
ENDROOT
BRANCH   1  12
ATOM     12  O   UNL     1      10.188   2.958 -20.411  1.00  0.00    -0.493 OA
ATOM     13  C   UNL     1       8.799   2.877 -20.106  1.00  0.00     0.278 C 
ENDBRANCH   1  12
BRANCH   2  14
ATOM     14  O   UNL     1      11.999   1.803 -18.626  1.00  0.00    -0.502 OA
ATOM     15  H   UNL     1      12.626   1.348 -17.975  1.00  0.00     0.293 HD
ENDBRANCH   2  14
BRANCH   3  16
ATOM     16  O   UNL     1      13.854   3.399 -17.252  1.00  0.00    -0.502 OA
ATOM     17  H   UNL     1      14.568   3.942 -16.781  1.00  0.00     0.293 HD
ENDBRANCH   3  16
TORSDOF 3
ENDMDL
MODEL 6
REMARK VINA RESULT:    -4.727     23.665     24.298
REMARK INTER + INTRA:          -5.337
REMARK INTER:                  -5.267
REMARK INTRA:                  -0.069
REMARK UNBOUND:                -0.057
REMARK SMILES COc1cc2ccc(=O)oc2c(O)c1O
REMARK SMILES IDX 3 1 14 2 12 3 11 4 5 5 4 6 6 7 7 8 8 9 9 10 10 11 2 12 1 13
REMARK SMILES IDX 15 14 13 16
REMARK H PARENT 15 15 13 17
REMARK Flexibility Score: inf
ROOT
ATOM      1  C   UNL     1      23.656   9.653 -18.226  1.00  0.00     0.165 A 
ATOM      2  C   UNL     1      22.359   9.606 -18.775  1.00  0.00     0.204 A 
ATOM      3  C   UNL     1      21.993   8.558 -19.638  1.00  0.00     0.205 A 
ATOM      4  C   UNL     1      22.917   7.555 -19.954  1.00  0.00     0.184 A 
ATOM      5  C   UNL     1      24.216   7.597 -19.406  1.00  0.00     0.025 A 
ATOM      6  C   UNL     1      24.581   8.642 -18.547  1.00  0.00     0.062 A 
ATOM      7  C   UNL     1      25.115   6.579 -19.741  1.00  0.00     0.020 A 
ATOM      8  C   UNL     1      24.708   5.560 -20.601  1.00  0.00     0.094 A 
ATOM      9  C   UNL     1      23.404   5.583 -21.106  1.00  0.00     0.336 A 
ATOM     10  O   UNL     1      23.017   4.672 -21.883  1.00  0.00    -0.246 OA
ATOM     11  O   UNL     1      22.570   6.562 -20.771  1.00  0.00    -0.419 OA
ENDROOT
BRANCH   1  12
ATOM     12  O   UNL     1      23.988  10.715 -17.368  1.00  0.00    -0.493 OA
ATOM     13  C   UNL     1      24.002  10.632 -15.946  1.00  0.00     0.278 C 
ENDBRANCH   1  12
BRANCH   2  14
ATOM     14  O   UNL     1      21.425  10.598 -18.471  1.00  0.00    -0.502 OA
ATOM     15  H   UNL     1      20.578  10.405 -17.952  1.00  0.00     0.293 HD
ENDBRANCH   2  14
BRANCH   3  16
ATOM     16  O   UNL     1      20.712   8.498 -20.190  1.00  0.00    -0.502 OA
ATOM     17  H   UNL     1      20.006   9.200 -19.996  1.00  0.00     0.293 HD
ENDBRANCH   3  16
TORSDOF 3
ENDMDL
MODEL 7
REMARK VINA RESULT:    -4.700      1.902      2.455
REMARK INTER + INTRA:          -5.306
REMARK INTER:                  -5.256
REMARK INTRA:                  -0.051
REMARK UNBOUND:                -0.057
REMARK SMILES COc1cc2ccc(=O)oc2c(O)c1O
REMARK SMILES IDX 3 1 14 2 12 3 11 4 5 5 4 6 6 7 7 8 8 9 9 10 10 11 2 12 1 13
REMARK SMILES IDX 15 14 13 16
REMARK H PARENT 15 15 13 17
REMARK Flexibility Score: inf
ROOT
ATOM      1  C   UNL     1       8.319  -6.378  -7.208  1.00  0.00     0.165 A 
ATOM      2  C   UNL     1       7.825  -5.620  -8.288  1.00  0.00     0.204 A 
ATOM      3  C   UNL     1       8.323  -5.830  -9.587  1.00  0.00     0.205 A 
ATOM      4  C   UNL     1       9.311  -6.795  -9.810  1.00  0.00     0.184 A 
ATOM      5  C   UNL     1       9.808  -7.557  -8.733  1.00  0.00     0.025 A 
ATOM      6  C   UNL     1       9.313  -7.348  -7.439  1.00  0.00     0.062 A 
ATOM      7  C   UNL     1      10.796  -8.514  -8.990  1.00  0.00     0.020 A 
ATOM      8  C   UNL     1      11.259  -8.687 -10.294  1.00  0.00     0.094 A 
ATOM      9  C   UNL     1      10.720  -7.896 -11.314  1.00  0.00     0.336 A 
ATOM     10  O   UNL     1      11.124  -8.038 -12.497  1.00  0.00    -0.246 OA
ATOM     11  O   UNL     1       9.782  -6.994 -11.041  1.00  0.00    -0.419 OA
ENDROOT
BRANCH   1  12
ATOM     12  O   UNL     1       7.800  -6.142  -5.924  1.00  0.00    -0.493 OA
ATOM     13  C   UNL     1       8.323  -5.191  -5.002  1.00  0.00     0.278 C 
ENDBRANCH   1  12
BRANCH   2  14
ATOM     14  O   UNL     1       6.839  -4.653  -8.083  1.00  0.00    -0.502 OA
ATOM     15  H   UNL     1       5.969  -4.647  -8.600  1.00  0.00     0.293 HD
ENDBRANCH   2  14
BRANCH   3  16
ATOM     16  O   UNL     1       7.844  -5.087 -10.667  1.00  0.00    -0.502 OA
ATOM     17  H   UNL     1       6.856  -4.904 -10.801  1.00  0.00     0.293 HD
ENDBRANCH   3  16
TORSDOF 3
ENDMDL
MODEL 8
REMARK VINA RESULT:    -4.698     12.244     12.614
REMARK INTER + INTRA:          -5.304
REMARK INTER:                  -5.237
REMARK INTRA:                  -0.067
REMARK UNBOUND:                -0.057
REMARK SMILES COc1cc2ccc(=O)oc2c(O)c1O
REMARK SMILES IDX 3 1 14 2 12 3 11 4 5 5 4 6 6 7 7 8 8 9 9 10 10 11 2 12 1 13
REMARK SMILES IDX 15 14 13 16
REMARK H PARENT 15 15 13 17
REMARK Flexibility Score: inf
ROOT
ATOM      1  C   UNL     1      21.122  -2.415  -7.284  1.00  0.00     0.165 A 
ATOM      2  C   UNL     1      20.020  -2.756  -6.476  1.00  0.00     0.204 A 
ATOM      3  C   UNL     1      18.717  -2.731  -7.006  1.00  0.00     0.205 A 
ATOM      4  C   UNL     1      18.513  -2.367  -8.342  1.00  0.00     0.184 A 
ATOM      5  C   UNL     1      19.613  -2.026  -9.155  1.00  0.00     0.025 A 
ATOM      6  C   UNL     1      20.910  -2.050  -8.627  1.00  0.00     0.062 A 
ATOM      7  C   UNL     1      19.373  -1.667 -10.487  1.00  0.00     0.020 A 
ATOM      8  C   UNL     1      18.065  -1.656 -10.969  1.00  0.00     0.094 A 
ATOM      9  C   UNL     1      17.023  -2.006 -10.105  1.00  0.00     0.336 A 
ATOM     10  O   UNL     1      15.835  -2.004 -10.521  1.00  0.00    -0.246 OA
ATOM     11  O   UNL     1      17.279  -2.344  -8.845  1.00  0.00    -0.419 OA
ENDROOT
BRANCH   1  12
ATOM     12  O   UNL     1      22.409  -2.451  -6.722  1.00  0.00    -0.493 OA
ATOM     13  C   UNL     1      23.308  -3.551  -6.827  1.00  0.00     0.278 C 
ENDBRANCH   1  12
BRANCH   2  14
ATOM     14  O   UNL     1      20.206  -3.121  -5.141  1.00  0.00    -0.502 OA
ATOM     15  H   UNL     1      20.492  -2.458  -4.432  1.00  0.00     0.293 HD
ENDBRANCH   2  14
BRANCH   3  16
ATOM     16  O   UNL     1      17.616  -3.066  -6.218  1.00  0.00    -0.502 OA
ATOM     17  H   UNL     1      16.720  -2.602  -6.315  1.00  0.00     0.293 HD
ENDBRANCH   3  16
TORSDOF 3
ENDMDL
MODEL 9
REMARK VINA RESULT:    -4.693     10.914     12.299
REMARK INTER + INTRA:          -5.298
REMARK INTER:                  -5.229
REMARK INTRA:                  -0.069
REMARK UNBOUND:                -0.057
REMARK SMILES COc1cc2ccc(=O)oc2c(O)c1O
REMARK SMILES IDX 3 1 14 2 12 3 11 4 5 5 4 6 6 7 7 8 8 9 9 10 10 11 2 12 1 13
REMARK SMILES IDX 15 14 13 16
REMARK H PARENT 15 15 13 17
REMARK Flexibility Score: inf
ROOT
ATOM      1  C   UNL     1      12.652   3.628  -4.426  1.00  0.00     0.165 A 
ATOM      2  C   UNL     1      12.085   2.774  -5.392  1.00  0.00     0.204 A 
ATOM      3  C   UNL     1      12.719   2.589  -6.634  1.00  0.00     0.205 A 
ATOM      4  C   UNL     1      13.917   3.256  -6.914  1.00  0.00     0.184 A 
ATOM      5  C   UNL     1      14.489   4.112  -5.951  1.00  0.00     0.025 A 
ATOM      6  C   UNL     1      13.858   4.296  -4.714  1.00  0.00     0.062 A 
ATOM      7  C   UNL     1      15.687   4.763  -6.263  1.00  0.00     0.020 A 
ATOM      8  C   UNL     1      16.279   4.551  -7.507  1.00  0.00     0.094 A 
ATOM      9  C   UNL     1      15.656   3.687  -8.414  1.00  0.00     0.336 A 
ATOM     10  O   UNL     1      16.174   3.481  -9.542  1.00  0.00    -0.246 OA
ATOM     11  O   UNL     1      14.517   3.081  -8.091  1.00  0.00    -0.419 OA
ENDROOT
BRANCH   1  12
ATOM     12  O   UNL     1      11.993   3.789  -3.196  1.00  0.00    -0.493 OA
ATOM     13  C   UNL     1      11.134   4.880  -2.875  1.00  0.00     0.278 C 
ENDBRANCH   1  12
BRANCH   2  14
ATOM     14  O   UNL     1      10.890   2.101  -5.128  1.00  0.00    -0.502 OA
ATOM     15  H   UNL     1      10.291   1.752  -5.865  1.00  0.00     0.293 HD
ENDBRANCH   2  14
BRANCH   3  16
ATOM     16  O   UNL     1      12.169   1.746  -7.601  1.00  0.00    -0.502 OA
ATOM     17  H   UNL     1      11.920   0.784  -7.400  1.00  0.00     0.293 HD
ENDBRANCH   3  16
TORSDOF 3
ENDMDL
