MODEL 1
REMARK VINA RESULT:    -3.093      0.000      0.000
REMARK INTER + INTRA:         -10.395
REMARK INTER:                  -7.070
REMARK INTRA:                  -3.325
REMARK UNBOUND:                -3.325
REMARK SMILES CCCCCCCCCCCCCCCCCCCCCCCC(=O)[O-]
REMARK SMILES IDX 13 1 14 2 15 3 16 4 17 5 18 6 19 7 20 8 21 9 22 10 23 11
REMARK SMILES IDX 24 12 25 13 26 14 12 15 11 16 10 17 9 18 8 19 7 20 6 21 5 22
REMARK SMILES IDX 4 23 3 24 2 25 1 26
REMARK H PARENT
REMARK Flexibility Score: inf
ROOT
ATOM      1  C   UNL     1       7.149  12.849   1.889  1.00  0.00     0.000 C 
ENDROOT
BRANCH   1   2
ATOM      2  C   UNL     1       6.221  11.625   1.966  1.00  0.00     0.000 C 
BRANCH   2   3
ATOM      3  C   UNL     1       4.734  12.016   2.012  1.00  0.00     0.000 C 
BRANCH   3   4
ATOM      4  C   UNL     1       3.810  10.893   1.514  1.00  0.00     0.000 C 
BRANCH   4   5
ATOM      5  C   UNL     1       3.062  10.189   2.660  1.00  0.00     0.000 C 
BRANCH   5   6
ATOM      6  C   UNL     1       3.426   8.698   2.784  1.00  0.00     0.000 C 
BRANCH   6   7
ATOM      7  C   UNL     1       4.387   8.347   3.939  1.00  0.00     0.000 C 
BRANCH   7   8
ATOM      8  C   UNL     1       5.885   8.384   3.584  1.00  0.00     0.000 C 
BRANCH   8   9
ATOM      9  C   UNL     1       6.229   7.521   2.358  1.00  0.00     0.000 C 
BRANCH   9  10
ATOM     10  C   UNL     1       6.679   8.360   1.148  1.00  0.00     0.006 C 
BRANCH  10  11
ATOM     11  C   UNL     1       6.102   7.893  -0.199  1.00  0.00     0.053 C 
BRANCH  11  12
ATOM     12  C   UNL     1       6.916   6.793  -0.809  1.00  0.00     0.041 C 
ATOM     13  O   UNL     1       6.352   5.874  -1.458  1.00  0.00    -0.550 OA
ATOM     14  O   UNL     1       8.298   6.800  -0.684  1.00  0.00    -0.550 OA
ENDBRANCH  11  12
ENDBRANCH  10  11
ENDBRANCH   9  10
ENDBRANCH   8   9
ENDBRANCH   7   8
ENDBRANCH   6   7
ENDBRANCH   5   6
ENDBRANCH   4   5
ENDBRANCH   3   4
ENDBRANCH   2   3
ENDBRANCH   1   2
BRANCH   1  15
ATOM     15  C   UNL     1       8.158  12.750   0.731  1.00  0.00     0.000 C 
BRANCH  15  16
ATOM     16  C   UNL     1       7.765  11.686  -0.308  1.00  0.00     0.000 C 
BRANCH  16  17
ATOM     17  C   UNL     1       7.315  12.301  -1.645  1.00  0.00     0.000 C 
BRANCH  17  18
ATOM     18  C   UNL     1       6.297  11.419  -2.386  1.00  0.00    -0.000 C 
BRANCH  18  19
ATOM     19  C   UNL     1       4.896  11.477  -1.759  1.00  0.00    -0.000 C 
BRANCH  19  20
ATOM     20  C   UNL     1       3.839  10.940  -2.731  1.00  0.00    -0.000 C 
BRANCH  20  21
ATOM     21  C   UNL     1       3.454  12.003  -3.770  1.00  0.00    -0.000 C 
BRANCH  21  22
ATOM     22  C   UNL     1       3.295  11.424  -5.187  1.00  0.00    -0.000 C 
BRANCH  22  23
ATOM     23  C   UNL     1       4.031  12.239  -6.273  1.00  0.00    -0.000 C 
BRANCH  23  24
ATOM     24  C   UNL     1       5.415  12.711  -5.805  1.00  0.00    -0.000 C 
BRANCH  24  25
ATOM     25  C   UNL     1       6.476  11.630  -6.043  1.00  0.00    -0.003 C 
ATOM     26  C   UNL     1       7.260  11.899  -7.323  1.00  0.00     0.004 C 
ENDBRANCH  24  25
ENDBRANCH  23  24
ENDBRANCH  22  23
ENDBRANCH  21  22
ENDBRANCH  20  21
ENDBRANCH  19  20
ENDBRANCH  18  19
ENDBRANCH  17  18
ENDBRANCH  16  17
ENDBRANCH  15  16
ENDBRANCH   1  15
TORSDOF 22
ENDMDL
MODEL 2
REMARK VINA RESULT:    -3.056      1.181      2.590
REMARK INTER + INTRA:         -10.313
REMARK INTER:                  -7.194
REMARK INTRA:                  -3.118
REMARK UNBOUND:                -3.325
REMARK SMILES CCCCCCCCCCCCCCCCCCCCCCCC(=O)[O-]
REMARK SMILES IDX 13 1 14 2 15 3 16 4 17 5 18 6 19 7 20 8 21 9 22 10 23 11
REMARK SMILES IDX 24 12 25 13 26 14 12 15 11 16 10 17 9 18 8 19 7 20 6 21 5 22
REMARK SMILES IDX 4 23 3 24 2 25 1 26
REMARK H PARENT
REMARK Flexibility Score: inf
ROOT
ATOM      1  C   UNL     1       7.851  11.928   1.253  1.00  0.00     0.000 C 
ENDROOT
BRANCH   1   2
ATOM      2  C   UNL     1       6.633  11.653   2.152  1.00  0.00     0.000 C 
BRANCH   2   3
ATOM      3  C   UNL     1       5.610  12.802   2.124  1.00  0.00     0.000 C 
BRANCH   3   4
ATOM      4  C   UNL     1       4.184  12.318   1.814  1.00  0.00     0.000 C 
BRANCH   4   5
ATOM      5  C   UNL     1       4.153  11.213   0.743  1.00  0.00     0.000 C 
BRANCH   5   6
ATOM      6  C   UNL     1       3.395   9.955   1.204  1.00  0.00     0.000 C 
BRANCH   6   7
ATOM      7  C   UNL     1       3.469   9.656   2.716  1.00  0.00     0.000 C 
BRANCH   7   8
ATOM      8  C   UNL     1       3.858   8.213   3.085  1.00  0.00     0.000 C 
BRANCH   8   9
ATOM      9  C   UNL     1       5.244   8.120   3.745  1.00  0.00     0.000 C 
BRANCH   9  10
ATOM     10  C   UNL     1       6.389   8.038   2.719  1.00  0.00     0.006 C 
BRANCH  10  11
ATOM     11  C   UNL     1       6.116   7.092   1.537  1.00  0.00     0.053 C 
BRANCH  11  12
ATOM     12  C   UNL     1       6.758   7.575   0.272  1.00  0.00     0.041 C 
ATOM     13  O   UNL     1       7.529   6.818  -0.376  1.00  0.00    -0.550 OA
ATOM     14  O   UNL     1       6.484   8.849  -0.206  1.00  0.00    -0.550 OA
ENDBRANCH  11  12
ENDBRANCH  10  11
ENDBRANCH   9  10
ENDBRANCH   8   9
ENDBRANCH   7   8
ENDBRANCH   6   7
ENDBRANCH   5   6
ENDBRANCH   4   5
ENDBRANCH   3   4
ENDBRANCH   2   3
ENDBRANCH   1   2
BRANCH   1  15
ATOM     15  C   UNL     1       7.510  12.840   0.062  1.00  0.00     0.000 C 
BRANCH  15  16
ATOM     16  C   UNL     1       7.382  12.064  -1.260  1.00  0.00     0.000 C 
BRANCH  16  17
ATOM     17  C   UNL     1       7.781  12.907  -2.484  1.00  0.00     0.000 C 
BRANCH  17  18
ATOM     18  C   UNL     1       7.498  12.188  -3.812  1.00  0.00    -0.000 C 
BRANCH  18  19
ATOM     19  C   UNL     1       8.114  12.910  -5.021  1.00  0.00    -0.000 C 
BRANCH  19  20
ATOM     20  C   UNL     1       7.069  13.125  -6.121  1.00  0.00    -0.000 C 
BRANCH  20  21
ATOM     21  C   UNL     1       6.690  11.796  -6.790  1.00  0.00    -0.000 C 
BRANCH  21  22
ATOM     22  C   UNL     1       5.237  11.374  -6.506  1.00  0.00    -0.000 C 
BRANCH  22  23
ATOM     23  C   UNL     1       4.263  12.565  -6.376  1.00  0.00    -0.000 C 
BRANCH  23  24
ATOM     24  C   UNL     1       3.553  12.586  -5.014  1.00  0.00    -0.000 C 
BRANCH  24  25
ATOM     25  C   UNL     1       3.477  11.179  -4.410  1.00  0.00    -0.003 C 
ATOM     26  C   UNL     1       4.069  11.149  -3.004  1.00  0.00     0.004 C 
ENDBRANCH  24  25
ENDBRANCH  23  24
ENDBRANCH  22  23
ENDBRANCH  21  22
ENDBRANCH  20  21
ENDBRANCH  19  20
ENDBRANCH  18  19
ENDBRANCH  17  18
ENDBRANCH  16  17
ENDBRANCH  15  16
ENDBRANCH   1  15
TORSDOF 22
ENDMDL
MODEL 3
REMARK VINA RESULT:    -3.036      1.787      6.165
REMARK INTER + INTRA:         -10.267
REMARK INTER:                  -6.297
REMARK INTRA:                  -3.970
REMARK UNBOUND:                -3.325
REMARK SMILES CCCCCCCCCCCCCCCCCCCCCCCC(=O)[O-]
REMARK SMILES IDX 13 1 14 2 15 3 16 4 17 5 18 6 19 7 20 8 21 9 22 10 23 11
REMARK SMILES IDX 24 12 25 13 26 14 12 15 11 16 10 17 9 18 8 19 7 20 6 21 5 22
REMARK SMILES IDX 4 23 3 24 2 25 1 26
REMARK H PARENT
REMARK Flexibility Score: inf
ROOT
ATOM      1  C   UNL     1       7.964  11.329   0.330  1.00  0.00     0.000 C 
ENDROOT
BRANCH   1   2
ATOM      2  C   UNL     1       8.028  12.721  -0.320  1.00  0.00     0.000 C 
BRANCH   2   3
ATOM      3  C   UNL     1       7.388  12.747  -1.719  1.00  0.00     0.000 C 
BRANCH   3   4
ATOM      4  C   UNL     1       5.871  12.997  -1.672  1.00  0.00     0.000 C 
BRANCH   4   5
ATOM      5  C   UNL     1       5.184  12.719  -3.021  1.00  0.00     0.000 C 
BRANCH   5   6
ATOM      6  C   UNL     1       4.326  11.441  -3.002  1.00  0.00     0.000 C 
BRANCH   6   7
ATOM      7  C   UNL     1       4.393  10.620  -1.697  1.00  0.00     0.000 C 
BRANCH   7   8
ATOM      8  C   UNL     1       5.475   9.526  -1.661  1.00  0.00     0.000 C 
BRANCH   8   9
ATOM      9  C   UNL     1       5.638   8.893  -0.269  1.00  0.00     0.000 C 
BRANCH   9  10
ATOM     10  C   UNL     1       5.595   7.354  -0.307  1.00  0.00     0.006 C 
BRANCH  10  11
ATOM     11  C   UNL     1       6.948   6.674  -0.040  1.00  0.00     0.053 C 
BRANCH  11  12
ATOM     12  C   UNL     1       7.764   6.537  -1.289  1.00  0.00     0.041 C 
ATOM     13  O   UNL     1       9.014   6.403  -1.216  1.00  0.00    -0.550 OA
ATOM     14  O   UNL     1       7.142   6.529  -2.529  1.00  0.00    -0.550 OA
ENDBRANCH  11  12
ENDBRANCH  10  11
ENDBRANCH   9  10
ENDBRANCH   8   9
ENDBRANCH   7   8
ENDBRANCH   6   7
ENDBRANCH   5   6
ENDBRANCH   4   5
ENDBRANCH   3   4
ENDBRANCH   2   3
ENDBRANCH   1   2
BRANCH   1  15
ATOM     15  C   UNL     1       7.255  11.349   1.695  1.00  0.00     0.000 C 
BRANCH  15  16
ATOM     16  C   UNL     1       6.888  12.771   2.151  1.00  0.00     0.000 C 
BRANCH  16  17
ATOM     17  C   UNL     1       5.368  12.984   2.264  1.00  0.00     0.000 C 
BRANCH  17  18
ATOM     18  C   UNL     1       4.565  11.887   1.547  1.00  0.00    -0.000 C 
BRANCH  18  19
ATOM     19  C   UNL     1       3.237  11.568   2.251  1.00  0.00    -0.000 C 
BRANCH  19  20
ATOM     20  C   UNL     1       2.877  10.086   2.094  1.00  0.00    -0.000 C 
BRANCH  20  21
ATOM     21  C   UNL     1       2.966   9.351   3.439  1.00  0.00    -0.000 C 
BRANCH  21  22
ATOM     22  C   UNL     1       4.063   8.273   3.461  1.00  0.00    -0.000 C 
BRANCH  22  23
ATOM     23  C   UNL     1       5.482   8.839   3.683  1.00  0.00    -0.000 C 
BRANCH  23  24
ATOM     24  C   UNL     1       6.570   7.777   3.464  1.00  0.00    -0.000 C 
BRANCH  24  25
ATOM     25  C   UNL     1       5.952   6.386   3.273  1.00  0.00    -0.003 C 
ATOM     26  C   UNL     1       6.604   5.361   4.195  1.00  0.00     0.004 C 
ENDBRANCH  24  25
ENDBRANCH  23  24
ENDBRANCH  22  23
ENDBRANCH  21  22
ENDBRANCH  20  21
ENDBRANCH  19  20
ENDBRANCH  18  19
ENDBRANCH  17  18
ENDBRANCH  16  17
ENDBRANCH  15  16
ENDBRANCH   1  15
TORSDOF 22
ENDMDL
MODEL 4
REMARK VINA RESULT:    -2.940      2.104      6.956
REMARK INTER + INTRA:         -10.047
REMARK INTER:                  -6.742
REMARK INTRA:                  -3.305
REMARK UNBOUND:                -3.325
REMARK SMILES CCCCCCCCCCCCCCCCCCCCCCCC(=O)[O-]
REMARK SMILES IDX 13 1 14 2 15 3 16 4 17 5 18 6 19 7 20 8 21 9 22 10 23 11
REMARK SMILES IDX 24 12 25 13 26 14 12 15 11 16 10 17 9 18 8 19 7 20 6 21 5 22
REMARK SMILES IDX 4 23 3 24 2 25 1 26
REMARK H PARENT
REMARK Flexibility Score: inf
ROOT
ATOM      1  C   UNL     1       6.709  10.734   1.997  1.00  0.00     0.000 C 
ENDROOT
BRANCH   1   2
ATOM      2  C   UNL     1       7.687  10.628   0.815  1.00  0.00     0.000 C 
BRANCH   2   3
ATOM      3  C   UNL     1       7.834  11.956   0.052  1.00  0.00     0.000 C 
BRANCH   3   4
ATOM      4  C   UNL     1       7.108  11.944  -1.303  1.00  0.00     0.000 C 
BRANCH   4   5
ATOM      5  C   UNL     1       7.542  13.103  -2.218  1.00  0.00     0.000 C 
BRANCH   5   6
ATOM      6  C   UNL     1       8.127  12.621  -3.558  1.00  0.00     0.000 C 
BRANCH   6   7
ATOM      7  C   UNL     1       7.376  13.102  -4.817  1.00  0.00     0.000 C 
BRANCH   7   8
ATOM      8  C   UNL     1       7.248  12.062  -5.945  1.00  0.00     0.000 C 
BRANCH   8   9
ATOM      9  C   UNL     1       5.932  11.269  -5.881  1.00  0.00     0.000 C 
BRANCH   9  10
ATOM     10  C   UNL     1       4.694  12.178  -5.771  1.00  0.00     0.006 C 
BRANCH  10  11
ATOM     11  C   UNL     1       3.512  11.554  -5.012  1.00  0.00     0.053 C 
BRANCH  11  12
ATOM     12  C   UNL     1       3.661  11.692  -3.527  1.00  0.00     0.041 C 
ATOM     13  O   UNL     1       3.303  10.756  -2.765  1.00  0.00    -0.550 OA
ATOM     14  O   UNL     1       4.221  12.842  -2.989  1.00  0.00    -0.550 OA
ENDBRANCH  11  12
ENDBRANCH  10  11
ENDBRANCH   9  10
ENDBRANCH   8   9
ENDBRANCH   7   8
ENDBRANCH   6   7
ENDBRANCH   5   6
ENDBRANCH   4   5
ENDBRANCH   3   4
ENDBRANCH   2   3
ENDBRANCH   1   2
BRANCH   1  15
ATOM     15  C   UNL     1       5.968  12.082   2.029  1.00  0.00     0.000 C 
BRANCH  15  16
ATOM     16  C   UNL     1       4.439  11.919   1.981  1.00  0.00     0.000 C 
BRANCH  16  17
ATOM     17  C   UNL     1       3.976  11.007   0.832  1.00  0.00     0.000 C 
BRANCH  17  18
ATOM     18  C   UNL     1       3.080   9.857   1.318  1.00  0.00    -0.000 C 
BRANCH  18  19
ATOM     19  C   UNL     1       2.875   9.868   2.841  1.00  0.00    -0.000 C 
BRANCH  19  20
ATOM     20  C   UNL     1       3.821   8.876   3.528  1.00  0.00    -0.000 C 
BRANCH  20  21
ATOM     21  C   UNL     1       4.182   7.716   2.589  1.00  0.00    -0.000 C 
BRANCH  21  22
ATOM     22  C   UNL     1       5.649   7.272   2.721  1.00  0.00    -0.000 C 
BRANCH  22  23
ATOM     23  C   UNL     1       6.339   7.007   1.366  1.00  0.00    -0.000 C 
BRANCH  23  24
ATOM     24  C   UNL     1       5.591   7.664   0.197  1.00  0.00    -0.000 C 
BRANCH  24  25
ATOM     25  C   UNL     1       6.455   7.684  -1.069  1.00  0.00    -0.003 C 
ATOM     26  C   UNL     1       6.989   6.293  -1.395  1.00  0.00     0.004 C 
ENDBRANCH  24  25
ENDBRANCH  23  24
ENDBRANCH  22  23
ENDBRANCH  21  22
ENDBRANCH  20  21
ENDBRANCH  19  20
ENDBRANCH  18  19
ENDBRANCH  17  18
ENDBRANCH  16  17
ENDBRANCH  15  16
ENDBRANCH   1  15
TORSDOF 22
ENDMDL
MODEL 5
REMARK VINA RESULT:    -2.908      1.709      3.990
REMARK INTER + INTRA:          -9.975
REMARK INTER:                  -6.656
REMARK INTRA:                  -3.319
REMARK UNBOUND:                -3.325
REMARK SMILES CCCCCCCCCCCCCCCCCCCCCCCC(=O)[O-]
REMARK SMILES IDX 13 1 14 2 15 3 16 4 17 5 18 6 19 7 20 8 21 9 22 10 23 11
REMARK SMILES IDX 24 12 25 13 26 14 12 15 11 16 10 17 9 18 8 19 7 20 6 21 5 22
REMARK SMILES IDX 4 23 3 24 2 25 1 26
REMARK H PARENT
REMARK Flexibility Score: inf
ROOT
ATOM      1  C   UNL     1       7.922  12.094   0.094  1.00  0.00     0.000 C 
ENDROOT
BRANCH   1   2
ATOM      2  C   UNL     1       7.582  12.541   1.526  1.00  0.00     0.000 C 
BRANCH   2   3
ATOM      3  C   UNL     1       6.341  11.825   2.087  1.00  0.00     0.000 C 
BRANCH   3   4
ATOM      4  C   UNL     1       5.097  12.728   2.112  1.00  0.00     0.000 C 
BRANCH   4   5
ATOM      5  C   UNL     1       4.014  12.272   1.118  1.00  0.00     0.000 C 
BRANCH   5   6
ATOM      6  C   UNL     1       3.013  11.280   1.738  1.00  0.00     0.000 C 
BRANCH   6   7
ATOM      7  C   UNL     1       3.369   9.789   1.566  1.00  0.00     0.000 C 
BRANCH   7   8
ATOM      8  C   UNL     1       2.894   8.862   2.700  1.00  0.00     0.000 C 
BRANCH   8   9
ATOM      9  C   UNL     1       3.968   8.636   3.776  1.00  0.00     0.000 C 
BRANCH   9  10
ATOM     10  C   UNL     1       5.400   8.744   3.220  1.00  0.00     0.006 C 
BRANCH  10  11
ATOM     11  C   UNL     1       6.419   7.816   3.902  1.00  0.00     0.053 C 
BRANCH  11  12
ATOM     12  C   UNL     1       6.286   6.398   3.439  1.00  0.00     0.041 C 
ATOM     13  O   UNL     1       5.892   6.148   2.270  1.00  0.00    -0.550 OA
ATOM     14  O   UNL     1       6.623   5.354   4.290  1.00  0.00    -0.550 OA
ENDBRANCH  11  12
ENDBRANCH  10  11
ENDBRANCH   9  10
ENDBRANCH   8   9
ENDBRANCH   7   8
ENDBRANCH   6   7
ENDBRANCH   5   6
ENDBRANCH   4   5
ENDBRANCH   3   4
ENDBRANCH   2   3
ENDBRANCH   1   2
BRANCH   1  15
ATOM     15  C   UNL     1       7.442  13.100  -0.966  1.00  0.00     0.000 C 
BRANCH  15  16
ATOM     16  C   UNL     1       8.007  12.801  -2.365  1.00  0.00     0.000 C 
BRANCH  16  17
ATOM     17  C   UNL     1       7.008  13.125  -3.490  1.00  0.00     0.000 C 
BRANCH  17  18
ATOM     18  C   UNL     1       6.643  11.888  -4.327  1.00  0.00    -0.000 C 
BRANCH  18  19
ATOM     19  C   UNL     1       5.146  11.549  -4.261  1.00  0.00    -0.000 C 
BRANCH  19  20
ATOM     20  C   UNL     1       4.581  11.833  -2.864  1.00  0.00    -0.000 C 
BRANCH  20  21
ATOM     21  C   UNL     1       4.377  10.531  -2.076  1.00  0.00    -0.000 C 
BRANCH  21  22
ATOM     22  C   UNL     1       5.696   9.796  -1.781  1.00  0.00    -0.000 C 
BRANCH  22  23
ATOM     23  C   UNL     1       5.735   9.132  -0.388  1.00  0.00    -0.000 C 
BRANCH  23  24
ATOM     24  C   UNL     1       6.895   8.135  -0.254  1.00  0.00    -0.000 C 
BRANCH  24  25
ATOM     25  C   UNL     1       6.937   7.175  -1.449  1.00  0.00    -0.003 C 
ATOM     26  C   UNL     1       6.452   5.783  -1.055  1.00  0.00     0.004 C 
ENDBRANCH  24  25
ENDBRANCH  23  24
ENDBRANCH  22  23
ENDBRANCH  21  22
ENDBRANCH  20  21
ENDBRANCH  19  20
ENDBRANCH  18  19
ENDBRANCH  17  18
ENDBRANCH  16  17
ENDBRANCH  15  16
ENDBRANCH   1  15
TORSDOF 22
ENDMDL
MODEL 6
REMARK VINA RESULT:    -2.865      2.429      6.853
REMARK INTER + INTRA:          -9.876
REMARK INTER:                  -7.066
REMARK INTRA:                  -2.809
REMARK UNBOUND:                -3.325
REMARK SMILES CCCCCCCCCCCCCCCCCCCCCCCC(=O)[O-]
REMARK SMILES IDX 13 1 14 2 15 3 16 4 17 5 18 6 19 7 20 8 21 9 22 10 23 11
REMARK SMILES IDX 24 12 25 13 26 14 12 15 11 16 10 17 9 18 8 19 7 20 6 21 5 22
REMARK SMILES IDX 4 23 3 24 2 25 1 26
REMARK H PARENT
REMARK Flexibility Score: inf
ROOT
ATOM      1  C   UNL     1       6.987  12.070   2.134  1.00  0.00     0.000 C 
ENDROOT
BRANCH   1   2
ATOM      2  C   UNL     1       7.518  12.300   0.709  1.00  0.00     0.000 C 
BRANCH   2   3
ATOM      3  C   UNL     1       7.277  11.090  -0.211  1.00  0.00     0.000 C 
BRANCH   3   4
ATOM      4  C   UNL     1       6.448  11.448  -1.456  1.00  0.00     0.000 C 
BRANCH   4   5
ATOM      5  C   UNL     1       5.211  10.548  -1.622  1.00  0.00     0.000 C 
BRANCH   5   6
ATOM      6  C   UNL     1       3.893  11.343  -1.649  1.00  0.00     0.000 C 
BRANCH   6   7
ATOM      7  C   UNL     1       3.446  11.834  -3.042  1.00  0.00     0.000 C 
BRANCH   7   8
ATOM      8  C   UNL     1       4.211  11.225  -4.231  1.00  0.00     0.000 C 
BRANCH   8   9
ATOM      9  C   UNL     1       3.778  11.815  -5.584  1.00  0.00     0.000 C 
BRANCH   9  10
ATOM     10  C   UNL     1       4.543  11.204  -6.772  1.00  0.00     0.006 C 
BRANCH  10  11
ATOM     11  C   UNL     1       5.508  12.174  -7.473  1.00  0.00     0.053 C 
BRANCH  11  12
ATOM     12  C   UNL     1       6.940  11.880  -7.144  1.00  0.00     0.041 C 
ATOM     13  O   UNL     1       7.765  11.643  -8.065  1.00  0.00    -0.550 OA
ATOM     14  O   UNL     1       7.366  11.894  -5.823  1.00  0.00    -0.550 OA
ENDBRANCH  11  12
ENDBRANCH  10  11
ENDBRANCH   9  10
ENDBRANCH   8   9
ENDBRANCH   7   8
ENDBRANCH   6   7
ENDBRANCH   5   6
ENDBRANCH   4   5
ENDBRANCH   3   4
ENDBRANCH   2   3
ENDBRANCH   1   2
BRANCH   1  15
ATOM     15  C   UNL     1       5.824  13.013   2.488  1.00  0.00     0.000 C 
BRANCH  15  16
ATOM     16  C   UNL     1       4.556  12.725   1.665  1.00  0.00     0.000 C 
BRANCH  16  17
ATOM     17  C   UNL     1       3.660  11.654   2.311  1.00  0.00     0.000 C 
BRANCH  17  18
ATOM     18  C   UNL     1       4.090  10.226   1.937  1.00  0.00    -0.000 C 
BRANCH  18  19
ATOM     19  C   UNL     1       3.385   9.154   2.784  1.00  0.00    -0.000 C 
BRANCH  19  20
ATOM     20  C   UNL     1       4.402   8.177   3.386  1.00  0.00    -0.000 C 
BRANCH  20  21
ATOM     21  C   UNL     1       5.807   8.795   3.424  1.00  0.00    -0.000 C 
BRANCH  21  22
ATOM     22  C   UNL     1       6.706   8.312   2.273  1.00  0.00    -0.000 C 
BRANCH  22  23
ATOM     23  C   UNL     1       6.158   7.068   1.541  1.00  0.00    -0.000 C 
BRANCH  23  24
ATOM     24  C   UNL     1       5.969   7.317   0.038  1.00  0.00    -0.000 C 
BRANCH  24  25
ATOM     25  C   UNL     1       6.358   6.079  -0.779  1.00  0.00    -0.003 C 
ATOM     26  C   UNL     1       7.472   6.399  -1.770  1.00  0.00     0.004 C 
ENDBRANCH  24  25
ENDBRANCH  23  24
ENDBRANCH  22  23
ENDBRANCH  21  22
ENDBRANCH  20  21
ENDBRANCH  19  20
ENDBRANCH  18  19
ENDBRANCH  17  18
ENDBRANCH  16  17
ENDBRANCH  15  16
ENDBRANCH   1  15
TORSDOF 22
ENDMDL
MODEL 7
REMARK VINA RESULT:    -2.825      1.605      2.995
REMARK INTER + INTRA:          -9.785
REMARK INTER:                  -5.961
REMARK INTRA:                  -3.823
REMARK UNBOUND:                -3.325
REMARK SMILES CCCCCCCCCCCCCCCCCCCCCCCC(=O)[O-]
REMARK SMILES IDX 13 1 14 2 15 3 16 4 17 5 18 6 19 7 20 8 21 9 22 10 23 11
REMARK SMILES IDX 24 12 25 13 26 14 12 15 11 16 10 17 9 18 8 19 7 20 6 21 5 22
REMARK SMILES IDX 4 23 3 24 2 25 1 26
REMARK H PARENT
REMARK Flexibility Score: inf
ROOT
ATOM      1  C   UNL     1       7.795   9.504   0.655  1.00  0.00     0.000 C 
ENDROOT
BRANCH   1   2
ATOM      2  C   UNL     1       6.996  10.578   1.412  1.00  0.00     0.000 C 
BRANCH   2   3
ATOM      3  C   UNL     1       7.465  12.005   1.078  1.00  0.00     0.000 C 
BRANCH   3   4
ATOM      4  C   UNL     1       6.300  13.003   0.975  1.00  0.00     0.000 C 
BRANCH   4   5
ATOM      5  C   UNL     1       5.153  12.676   1.948  1.00  0.00     0.000 C 
BRANCH   5   6
ATOM      6  C   UNL     1       3.801  12.490   1.237  1.00  0.00     0.000 C 
BRANCH   6   7
ATOM      7  C   UNL     1       3.074  11.163   1.537  1.00  0.00     0.000 C 
BRANCH   7   8
ATOM      8  C   UNL     1       2.876  10.843   3.030  1.00  0.00     0.000 C 
BRANCH   8   9
ATOM      9  C   UNL     1       2.974   9.339   3.337  1.00  0.00     0.000 C 
BRANCH   9  10
ATOM     10  C   UNL     1       4.407   8.794   3.187  1.00  0.00     0.006 C 
BRANCH  10  11
ATOM     11  C   UNL     1       4.517   7.527   2.322  1.00  0.00     0.053 C 
BRANCH  11  12
ATOM     12  C   UNL     1       5.778   6.767   2.599  1.00  0.00     0.041 C 
ATOM     13  O   UNL     1       6.375   6.169   1.664  1.00  0.00    -0.550 OA
ATOM     14  O   UNL     1       6.308   6.741   3.881  1.00  0.00    -0.550 OA
ENDBRANCH  11  12
ENDBRANCH  10  11
ENDBRANCH   9  10
ENDBRANCH   8   9
ENDBRANCH   7   8
ENDBRANCH   6   7
ENDBRANCH   5   6
ENDBRANCH   4   5
ENDBRANCH   3   4
ENDBRANCH   2   3
ENDBRANCH   1   2
BRANCH   1  15
ATOM     15  C   UNL     1       6.923   8.710  -0.334  1.00  0.00     0.000 C 
BRANCH  15  16
ATOM     16  C   UNL     1       5.565   9.382  -0.598  1.00  0.00     0.000 C 
BRANCH  16  17
ATOM     17  C   UNL     1       5.557  10.216  -1.891  1.00  0.00     0.000 C 
BRANCH  17  18
ATOM     18  C   UNL     1       4.176  10.819  -2.193  1.00  0.00    -0.000 C 
BRANCH  18  19
ATOM     19  C   UNL     1       4.204  12.353  -2.276  1.00  0.00    -0.000 C 
BRANCH  19  20
ATOM     20  C   UNL     1       3.311  12.857  -3.416  1.00  0.00    -0.000 C 
BRANCH  20  21
ATOM     21  C   UNL     1       3.192  11.805  -4.529  1.00  0.00    -0.000 C 
BRANCH  21  22
ATOM     22  C   UNL     1       3.451  12.385  -5.931  1.00  0.00    -0.000 C 
BRANCH  22  23
ATOM     23  C   UNL     1       4.934  12.721  -6.196  1.00  0.00    -0.000 C 
BRANCH  23  24
ATOM     24  C   UNL     1       5.851  11.508  -5.981  1.00  0.00    -0.000 C 
BRANCH  24  25
ATOM     25  C   UNL     1       6.952  11.822  -4.961  1.00  0.00    -0.003 C 
ATOM     26  C   UNL     1       7.795  13.012  -5.408  1.00  0.00     0.004 C 
ENDBRANCH  24  25
ENDBRANCH  23  24
ENDBRANCH  22  23
ENDBRANCH  21  22
ENDBRANCH  20  21
ENDBRANCH  19  20
ENDBRANCH  18  19
ENDBRANCH  17  18
ENDBRANCH  16  17
ENDBRANCH  15  16
ENDBRANCH   1  15
TORSDOF 22
ENDMDL
MODEL 8
REMARK VINA RESULT:    -2.822      1.161      1.885
REMARK INTER + INTRA:          -9.777
REMARK INTER:                  -6.983
REMARK INTRA:                  -2.794
REMARK UNBOUND:                -3.325
REMARK SMILES CCCCCCCCCCCCCCCCCCCCCCCC(=O)[O-]
REMARK SMILES IDX 13 1 14 2 15 3 16 4 17 5 18 6 19 7 20 8 21 9 22 10 23 11
REMARK SMILES IDX 24 12 25 13 26 14 12 15 11 16 10 17 9 18 8 19 7 20 6 21 5 22
REMARK SMILES IDX 4 23 3 24 2 25 1 26
REMARK H PARENT
REMARK Flexibility Score: inf
ROOT
ATOM      1  C   UNL     1       6.620  11.330   2.082  1.00  0.00     0.000 C 
ENDROOT
BRANCH   1   2
ATOM      2  C   UNL     1       5.625  12.493   1.937  1.00  0.00     0.000 C 
BRANCH   2   3
ATOM      3  C   UNL     1       4.263  12.036   1.386  1.00  0.00     0.000 C 
BRANCH   3   4
ATOM      4  C   UNL     1       3.155  12.057   2.453  1.00  0.00     0.000 C 
BRANCH   4   5
ATOM      5  C   UNL     1       2.876  10.664   3.044  1.00  0.00     0.000 C 
BRANCH   5   6
ATOM      6  C   UNL     1       3.257   9.521   2.086  1.00  0.00     0.000 C 
BRANCH   6   7
ATOM      7  C   UNL     1       3.738   8.222   2.767  1.00  0.00     0.000 C 
BRANCH   7   8
ATOM      8  C   UNL     1       5.220   8.206   3.182  1.00  0.00     0.000 C 
BRANCH   8   9
ATOM      9  C   UNL     1       6.090   7.338   2.257  1.00  0.00     0.000 C 
BRANCH   9  10
ATOM     10  C   UNL     1       6.142   7.873   0.814  1.00  0.00     0.006 C 
BRANCH  10  11
ATOM     11  C   UNL     1       7.401   7.468   0.030  1.00  0.00     0.053 C 
BRANCH  11  12
ATOM     12  C   UNL     1       7.106   6.431  -1.010  1.00  0.00     0.041 C 
ATOM     13  O   UNL     1       6.082   5.704  -0.907  1.00  0.00    -0.550 OA
ATOM     14  O   UNL     1       7.945   6.287  -2.107  1.00  0.00    -0.550 OA
ENDBRANCH  11  12
ENDBRANCH  10  11
ENDBRANCH   9  10
ENDBRANCH   8   9
ENDBRANCH   7   8
ENDBRANCH   6   7
ENDBRANCH   5   6
ENDBRANCH   4   5
ENDBRANCH   3   4
ENDBRANCH   2   3
ENDBRANCH   1   2
BRANCH   1  15
ATOM     15  C   UNL     1       7.667  11.307   0.954  1.00  0.00     0.000 C 
BRANCH  15  16
ATOM     16  C   UNL     1       7.712  12.624   0.161  1.00  0.00     0.000 C 
BRANCH  16  17
ATOM     17  C   UNL     1       7.323  12.441  -1.317  1.00  0.00     0.000 C 
BRANCH  17  18
ATOM     18  C   UNL     1       6.428  11.212  -1.541  1.00  0.00    -0.000 C 
BRANCH  18  19
ATOM     19  C   UNL     1       5.423  11.411  -2.687  1.00  0.00    -0.000 C 
BRANCH  19  20
ATOM     20  C   UNL     1       5.994  12.348  -3.758  1.00  0.00    -0.000 C 
BRANCH  20  21
ATOM     21  C   UNL     1       6.790  11.563  -4.810  1.00  0.00    -0.000 C 
BRANCH  21  22
ATOM     22  C   UNL     1       7.226  12.432  -6.003  1.00  0.00    -0.000 C 
BRANCH  22  23
ATOM     23  C   UNL     1       6.856  11.829  -7.375  1.00  0.00    -0.000 C 
BRANCH  23  24
ATOM     24  C   UNL     1       5.735  12.616  -8.070  1.00  0.00    -0.000 C 
BRANCH  24  25
ATOM     25  C   UNL     1       4.409  12.469  -7.315  1.00  0.00    -0.003 C 
ATOM     26  C   UNL     1       3.953  11.014  -7.276  1.00  0.00     0.004 C 
ENDBRANCH  24  25
ENDBRANCH  23  24
ENDBRANCH  22  23
ENDBRANCH  21  22
ENDBRANCH  20  21
ENDBRANCH  19  20
ENDBRANCH  18  19
ENDBRANCH  17  18
ENDBRANCH  16  17
ENDBRANCH  15  16
ENDBRANCH   1  15
TORSDOF 22
ENDMDL
MODEL 9
REMARK VINA RESULT:    -1.201      2.495      6.340
REMARK INTER + INTRA:          -6.071
REMARK INTER:                  -1.972
REMARK INTRA:                  -4.099
REMARK UNBOUND:                -3.325
REMARK SMILES CCCCCCCCCCCCCCCCCCCCCCCC(=O)[O-]
REMARK SMILES IDX 13 1 14 2 15 3 16 4 17 5 18 6 19 7 20 8 21 9 22 10 23 11
REMARK SMILES IDX 24 12 25 13 26 14 12 15 11 16 10 17 9 18 8 19 7 20 6 21 5 22
REMARK SMILES IDX 4 23 3 24 2 25 1 26
REMARK H PARENT
REMARK Flexibility Score: inf
ROOT
ATOM      1  C   UNL     1       5.151   9.116   3.172  1.00  0.00     0.000 C 
ENDROOT
BRANCH   1   2
ATOM      2  C   UNL     1       3.717   8.642   3.463  1.00  0.00     0.000 C 
BRANCH   2   3
ATOM      3  C   UNL     1       2.875   8.494   2.184  1.00  0.00     0.000 C 
BRANCH   3   4
ATOM      4  C   UNL     1       3.145   9.613   1.164  1.00  0.00     0.000 C 
BRANCH   4   5
ATOM      5  C   UNL     1       2.909   9.159  -0.288  1.00  0.00     0.000 C 
BRANCH   5   6
ATOM      6  C   UNL     1       3.202  10.268  -1.315  1.00  0.00     0.000 C 
BRANCH   6   7
ATOM      7  C   UNL     1       3.064  11.711  -0.787  1.00  0.00     0.000 C 
BRANCH   7   8
ATOM      8  C   UNL     1       3.829  12.781  -1.586  1.00  0.00     0.000 C 
BRANCH   8   9
ATOM      9  C   UNL     1       5.220  12.307  -2.039  1.00  0.00     0.000 C 
BRANCH   9  10
ATOM     10  C   UNL     1       5.495  12.603  -3.525  1.00  0.00     0.006 C 
BRANCH  10  11
ATOM     11  C   UNL     1       4.885  11.583  -4.500  1.00  0.00     0.053 C 
BRANCH  11  12
ATOM     12  C   UNL     1       5.587  11.581  -5.824  1.00  0.00     0.041 C 
ATOM     13  O   UNL     1       4.923  11.528  -6.893  1.00  0.00    -0.550 OA
ATOM     14  O   UNL     1       6.971  11.666  -5.877  1.00  0.00    -0.550 OA
ENDBRANCH  11  12
ENDBRANCH  10  11
ENDBRANCH   9  10
ENDBRANCH   8   9
ENDBRANCH   7   8
ENDBRANCH   6   7
ENDBRANCH   5   6
ENDBRANCH   4   5
ENDBRANCH   3   4
ENDBRANCH   2   3
ENDBRANCH   1   2
BRANCH   1  15
ATOM     15  C   UNL     1       6.202   8.031   3.467  1.00  0.00     0.000 C 
BRANCH  15  16
ATOM     16  C   UNL     1       5.806   6.655   2.905  1.00  0.00     0.000 C 
BRANCH  16  17
ATOM     17  C   UNL     1       6.499   6.338   1.568  1.00  0.00     0.000 C 
BRANCH  17  18
ATOM     18  C   UNL     1       5.766   6.952   0.365  1.00  0.00    -0.000 C 
BRANCH  18  19
ATOM     19  C   UNL     1       6.443   8.231  -0.152  1.00  0.00    -0.000 C 
BRANCH  19  20
ATOM     20  C   UNL     1       7.937   8.238   0.192  1.00  0.00    -0.000 C 
BRANCH  20  21
ATOM     21  C   UNL     1       8.321   9.512   0.958  1.00  0.00    -0.000 C 
BRANCH  21  22
ATOM     22  C   UNL     1       7.500  10.740   0.527  1.00  0.00    -0.000 C 
BRANCH  22  23
ATOM     23  C   UNL     1       8.086  12.080   1.021  1.00  0.00    -0.000 C 
BRANCH  23  24
ATOM     24  C   UNL     1       7.034  12.947   1.727  1.00  0.00    -0.000 C 
BRANCH  24  25
ATOM     25  C   UNL     1       5.642  12.311   1.633  1.00  0.00    -0.003 C 
ATOM     26  C   UNL     1       4.613  13.116   2.421  1.00  0.00     0.004 C 
ENDBRANCH  24  25
ENDBRANCH  23  24
ENDBRANCH  22  23
ENDBRANCH  21  22
ENDBRANCH  20  21
ENDBRANCH  19  20
ENDBRANCH  18  19
ENDBRANCH  17  18
ENDBRANCH  16  17
ENDBRANCH  15  16
ENDBRANCH   1  15
TORSDOF 22
ENDMDL
