MODEL 1
REMARK VINA RESULT:    -3.588      0.000      0.000
REMARK INTER + INTRA:          -7.909
REMARK INTER:                  -6.735
REMARK INTRA:                  -1.174
REMARK UNBOUND:                -1.174
REMARK SMILES O=C([O-])CCCCCCCCCCCCCCC(=O)[O-]
REMARK SMILES IDX 10 1 9 2 8 3 7 4 6 5 5 6 4 7 2 8 1 9 3 10 11 11 12 12 13 13
REMARK SMILES IDX 14 14 15 15 16 16 17 17 18 18 19 19 20 20
REMARK H PARENT
REMARK Flexibility Score: inf
ROOT
ATOM      1  C   UNL     1      22.756   5.615 -12.543  1.00  0.00     0.000 C 
ENDROOT
BRANCH   1   2
ATOM      2  C   UNL     1      22.047   4.597 -13.450  1.00  0.00     0.000 C 
BRANCH   2   3
ATOM      3  C   UNL     1      20.549   4.467 -13.136  1.00  0.00     0.000 C 
BRANCH   3   4
ATOM      4  C   UNL     1      19.811   3.741 -14.271  1.00  0.00     0.000 C 
BRANCH   4   5
ATOM      5  C   UNL     1      19.153   2.432 -13.807  1.00  0.00     0.000 C 
BRANCH   5   6
ATOM      6  C   UNL     1      18.763   1.517 -14.977  1.00  0.00     0.006 C 
BRANCH   6   7
ATOM      7  C   UNL     1      17.760   0.451 -14.525  1.00  0.00     0.053 C 
BRANCH   7   8
ATOM      8  C   UNL     1      17.229  -0.304 -15.703  1.00  0.00     0.041 C 
ATOM      9  O   UNL     1      16.917   0.307 -16.758  1.00  0.00    -0.550 OA
ATOM     10  O   UNL     1      17.124  -1.688 -15.652  1.00  0.00    -0.550 OA
ENDBRANCH   7   8
ENDBRANCH   6   7
ENDBRANCH   5   6
ENDBRANCH   4   5
ENDBRANCH   3   4
ENDBRANCH   2   3
ENDBRANCH   1   2
BRANCH   1  11
ATOM     11  C   UNL     1      21.872   6.831 -12.215  1.00  0.00     0.000 C 
BRANCH  11  12
ATOM     12  C   UNL     1      21.813   7.124 -10.708  1.00  0.00     0.000 C 
BRANCH  12  13
ATOM     13  C   UNL     1      21.555   5.859  -9.872  1.00  0.00     0.000 C 
BRANCH  13  14
ATOM     14  C   UNL     1      20.153   5.836  -9.239  1.00  0.00     0.000 C 
BRANCH  14  15
ATOM     15  C   UNL     1      19.174   6.894  -9.781  1.00  0.00     0.000 C 
BRANCH  15  16
ATOM     16  C   UNL     1      18.225   6.408 -10.892  1.00  0.00     0.006 C 
BRANCH  16  17
ATOM     17  C   UNL     1      18.267   4.887 -11.129  1.00  0.00     0.053 C 
BRANCH  17  18
ATOM     18  C   UNL     1      17.032   4.195 -10.638  1.00  0.00     0.041 C 
ATOM     19  O   UNL     1      17.037   2.952 -10.440  1.00  0.00    -0.550 OA
ATOM     20  O   UNL     1      15.864   4.918 -10.427  1.00  0.00    -0.550 OA
ENDBRANCH  17  18
ENDBRANCH  16  17
ENDBRANCH  15  16
ENDBRANCH  14  15
ENDBRANCH  13  14
ENDBRANCH  12  13
ENDBRANCH  11  12
ENDBRANCH   1  11
TORSDOF 15
ENDMDL
MODEL 2
REMARK VINA RESULT:    -3.341      0.718      5.675
REMARK INTER + INTRA:          -7.444
REMARK INTER:                  -6.130
REMARK INTRA:                  -1.314
REMARK UNBOUND:                -1.174
REMARK SMILES O=C([O-])CCCCCCCCCCCCCCC(=O)[O-]
REMARK SMILES IDX 10 1 9 2 8 3 7 4 6 5 5 6 4 7 2 8 1 9 3 10 11 11 12 12 13 13
REMARK SMILES IDX 14 14 15 15 16 16 17 17 18 18 19 19 20 20
REMARK H PARENT
REMARK Flexibility Score: inf
ROOT
ATOM      1  C   UNL     1      22.087   6.822 -11.593  1.00  0.00     0.000 C 
ENDROOT
BRANCH   1   2
ATOM      2  C   UNL     1      21.790   5.793 -10.491  1.00  0.00     0.000 C 
BRANCH   2   3
ATOM      3  C   UNL     1      21.186   6.433  -9.232  1.00  0.00     0.000 C 
BRANCH   3   4
ATOM      4  C   UNL     1      19.652   6.334  -9.247  1.00  0.00     0.000 C 
BRANCH   4   5
ATOM      5  C   UNL     1      19.025   7.061 -10.446  1.00  0.00     0.000 C 
BRANCH   5   6
ATOM      6  C   UNL     1      18.188   6.129 -11.334  1.00  0.00     0.006 C 
BRANCH   6   7
ATOM      7  C   UNL     1      18.257   4.685 -10.829  1.00  0.00     0.053 C 
BRANCH   7   8
ATOM      8  C   UNL     1      16.883   4.110 -10.689  1.00  0.00     0.041 C 
ATOM      9  O   UNL     1      16.639   2.947 -11.104  1.00  0.00    -0.550 OA
ATOM     10  O   UNL     1      15.883   4.840 -10.059  1.00  0.00    -0.550 OA
ENDBRANCH   7   8
ENDBRANCH   6   7
ENDBRANCH   5   6
ENDBRANCH   4   5
ENDBRANCH   3   4
ENDBRANCH   2   3
ENDBRANCH   1   2
BRANCH   1  11
ATOM     11  C   UNL     1      22.379   6.166 -12.954  1.00  0.00     0.000 C 
BRANCH  11  12
ATOM     12  C   UNL     1      21.833   4.733 -13.043  1.00  0.00     0.000 C 
BRANCH  12  13
ATOM     13  C   UNL     1      20.442   4.673 -13.695  1.00  0.00     0.000 C 
BRANCH  13  14
ATOM     14  C   UNL     1      20.091   3.273 -14.229  1.00  0.00     0.000 C 
BRANCH  14  15
ATOM     15  C   UNL     1      18.877   2.604 -13.557  1.00  0.00     0.000 C 
BRANCH  15  16
ATOM     16  C   UNL     1      18.570   1.170 -14.027  1.00  0.00     0.006 C 
BRANCH  16  17
ATOM     17  C   UNL     1      18.208   1.066 -15.521  1.00  0.00     0.053 C 
BRANCH  17  18
ATOM     18  C   UNL     1      17.414  -0.166 -15.835  1.00  0.00     0.041 C 
ATOM     19  O   UNL     1      17.263  -0.536 -17.028  1.00  0.00    -0.550 OA
ATOM     20  O   UNL     1      16.816  -0.891 -14.811  1.00  0.00    -0.550 OA
ENDBRANCH  17  18
ENDBRANCH  16  17
ENDBRANCH  15  16
ENDBRANCH  14  15
ENDBRANCH  13  14
ENDBRANCH  12  13
ENDBRANCH  11  12
ENDBRANCH   1  11
TORSDOF 15
ENDMDL
MODEL 3
REMARK VINA RESULT:    -2.949      4.730      6.951
REMARK INTER + INTRA:          -6.709
REMARK INTER:                  -5.780
REMARK INTRA:                  -0.930
REMARK UNBOUND:                -1.174
REMARK SMILES O=C([O-])CCCCCCCCCCCCCCC(=O)[O-]
REMARK SMILES IDX 10 1 9 2 8 3 7 4 6 5 5 6 4 7 2 8 1 9 3 10 11 11 12 12 13 13
REMARK SMILES IDX 14 14 15 15 16 16 17 17 18 18 19 19 20 20
REMARK H PARENT
REMARK Flexibility Score: inf
ROOT
ATOM      1  C   UNL     1      21.201   5.890 -10.684  1.00  0.00     0.000 C 
ENDROOT
BRANCH   1   2
ATOM      2  C   UNL     1      20.471   6.100  -9.348  1.00  0.00     0.000 C 
BRANCH   2   3
ATOM      3  C   UNL     1      19.045   6.641  -9.534  1.00  0.00     0.000 C 
BRANCH   3   4
ATOM      4  C   UNL     1      18.467   6.211 -10.891  1.00  0.00     0.000 C 
BRANCH   4   5
ATOM      5  C   UNL     1      17.419   5.095 -10.762  1.00  0.00     0.000 C 
BRANCH   5   6
ATOM      6  C   UNL     1      17.764   3.857 -11.603  1.00  0.00     0.006 C 
BRANCH   6   7
ATOM      7  C   UNL     1      19.161   3.986 -12.218  1.00  0.00     0.053 C 
BRANCH   7   8
ATOM      8  C   UNL     1      19.284   3.118 -13.431  1.00  0.00     0.041 C 
ATOM      9  O   UNL     1      19.989   3.489 -14.404  1.00  0.00    -0.550 OA
ATOM     10  O   UNL     1      18.657   1.879 -13.467  1.00  0.00    -0.550 OA
ENDBRANCH   7   8
ENDBRANCH   6   7
ENDBRANCH   5   6
ENDBRANCH   4   5
ENDBRANCH   3   4
ENDBRANCH   2   3
ENDBRANCH   1   2
BRANCH   1  11
ATOM     11  C   UNL     1      22.011   7.125 -11.116  1.00  0.00     0.000 C 
BRANCH  11  12
ATOM     12  C   UNL     1      22.662   6.945 -12.497  1.00  0.00     0.000 C 
BRANCH  12  13
ATOM     13  C   UNL     1      22.434   5.539 -13.076  1.00  0.00     0.000 C 
BRANCH  13  14
ATOM     14  C   UNL     1      23.722   4.700 -13.138  1.00  0.00     0.000 C 
BRANCH  14  15
ATOM     15  C   UNL     1      24.816   5.253 -14.071  1.00  0.00     0.000 C 
BRANCH  15  16
ATOM     16  C   UNL     1      25.945   4.265 -14.422  1.00  0.00     0.006 C 
BRANCH  16  17
ATOM     17  C   UNL     1      27.185   4.930 -15.048  1.00  0.00     0.053 C 
BRANCH  17  18
ATOM     18  C   UNL     1      28.375   4.019 -15.073  1.00  0.00     0.041 C 
ATOM     19  O   UNL     1      29.112   3.967 -16.091  1.00  0.00    -0.550 OA
ATOM     20  O   UNL     1      28.652   3.203 -13.983  1.00  0.00    -0.550 OA
ENDBRANCH  17  18
ENDBRANCH  16  17
ENDBRANCH  15  16
ENDBRANCH  14  15
ENDBRANCH  13  14
ENDBRANCH  12  13
ENDBRANCH  11  12
ENDBRANCH   1  11
TORSDOF 15
ENDMDL
MODEL 4
REMARK VINA RESULT:    -2.674      4.670      7.659
REMARK INTER + INTRA:          -6.193
REMARK INTER:                  -5.889
REMARK INTRA:                  -0.304
REMARK UNBOUND:                -1.174
REMARK SMILES O=C([O-])CCCCCCCCCCCCCCC(=O)[O-]
REMARK SMILES IDX 10 1 9 2 8 3 7 4 6 5 5 6 4 7 2 8 1 9 3 10 11 11 12 12 13 13
REMARK SMILES IDX 14 14 15 15 16 16 17 17 18 18 19 19 20 20
REMARK H PARENT
REMARK Flexibility Score: inf
ROOT
ATOM      1  C   UNL     1      22.066   6.732 -11.557  1.00  0.00     0.000 C 
ENDROOT
BRANCH   1   2
ATOM      2  C   UNL     1      21.814   7.125 -10.093  1.00  0.00     0.000 C 
BRANCH   2   3
ATOM      3  C   UNL     1      21.559   5.908  -9.190  1.00  0.00     0.000 C 
BRANCH   3   4
ATOM      4  C   UNL     1      20.078   5.502  -9.221  1.00  0.00     0.000 C 
BRANCH   4   5
ATOM      5  C   UNL     1      19.157   6.655  -9.649  1.00  0.00     0.000 C 
BRANCH   5   6
ATOM      6  C   UNL     1      18.316   6.315 -10.889  1.00  0.00     0.006 C 
BRANCH   6   7
ATOM      7  C   UNL     1      18.279   4.802 -11.125  1.00  0.00     0.053 C 
BRANCH   7   8
ATOM      8  C   UNL     1      16.940   4.245 -10.754  1.00  0.00     0.041 C 
ATOM      9  O   UNL     1      16.661   3.046 -11.014  1.00  0.00    -0.550 OA
ATOM     10  O   UNL     1      16.020   5.036 -10.079  1.00  0.00    -0.550 OA
ENDBRANCH   7   8
ENDBRANCH   6   7
ENDBRANCH   5   6
ENDBRANCH   4   5
ENDBRANCH   3   4
ENDBRANCH   2   3
ENDBRANCH   1   2
BRANCH   1  11
ATOM     11  C   UNL     1      21.588   5.305 -11.878  1.00  0.00     0.000 C 
BRANCH  11  12
ATOM     12  C   UNL     1      22.045   4.832 -13.266  1.00  0.00     0.000 C 
BRANCH  12  13
ATOM     13  C   UNL     1      23.566   4.625 -13.346  1.00  0.00     0.000 C 
BRANCH  13  14
ATOM     14  C   UNL     1      24.310   5.855 -13.895  1.00  0.00     0.000 C 
BRANCH  14  15
ATOM     15  C   UNL     1      25.688   5.560 -14.516  1.00  0.00     0.000 C 
BRANCH  15  16
ATOM     16  C   UNL     1      26.111   4.079 -14.512  1.00  0.00     0.006 C 
BRANCH  16  17
ATOM     17  C   UNL     1      27.558   3.843 -14.040  1.00  0.00     0.053 C 
BRANCH  17  18
ATOM     18  C   UNL     1      28.551   3.946 -15.157  1.00  0.00     0.041 C 
ATOM     19  O   UNL     1      29.482   3.106 -15.257  1.00  0.00    -0.550 OA
ATOM     20  O   UNL     1      28.467   4.988 -16.072  1.00  0.00    -0.550 OA
ENDBRANCH  17  18
ENDBRANCH  16  17
ENDBRANCH  15  16
ENDBRANCH  14  15
ENDBRANCH  13  14
ENDBRANCH  12  13
ENDBRANCH  11  12
ENDBRANCH   1  11
TORSDOF 15
ENDMDL
MODEL 5
REMARK VINA RESULT:    -2.593      4.508      6.338
REMARK INTER + INTRA:          -6.041
REMARK INTER:                  -4.782
REMARK INTRA:                  -1.260
REMARK UNBOUND:                -1.174
REMARK SMILES O=C([O-])CCCCCCCCCCCCCCC(=O)[O-]
REMARK SMILES IDX 10 1 9 2 8 3 7 4 6 5 5 6 4 7 2 8 1 9 3 10 11 11 12 12 13 13
REMARK SMILES IDX 14 14 15 15 16 16 17 17 18 18 19 19 20 20
REMARK H PARENT
REMARK Flexibility Score: inf
ROOT
ATOM      1  C   UNL     1      21.616   5.651 -10.661  1.00  0.00     0.000 C 
ENDROOT
BRANCH   1   2
ATOM      2  C   UNL     1      22.103   5.607 -12.118  1.00  0.00     0.000 C 
BRANCH   2   3
ATOM      3  C   UNL     1      22.527   6.988 -12.640  1.00  0.00     0.000 C 
BRANCH   3   4
ATOM      4  C   UNL     1      23.900   6.916 -13.328  1.00  0.00     0.000 C 
BRANCH   4   5
ATOM      5  C   UNL     1      24.296   5.481 -13.708  1.00  0.00     0.000 C 
BRANCH   5   6
ATOM      6  C   UNL     1      25.599   5.421 -14.520  1.00  0.00     0.006 C 
BRANCH   6   7
ATOM      7  C   UNL     1      26.263   4.048 -14.386  1.00  0.00     0.053 C 
BRANCH   7   8
ATOM      8  C   UNL     1      27.698   4.114 -14.805  1.00  0.00     0.041 C 
ATOM      9  O   UNL     1      28.093   5.038 -15.564  1.00  0.00    -0.550 OA
ATOM     10  O   UNL     1      28.609   3.183 -14.322  1.00  0.00    -0.550 OA
ENDBRANCH   7   8
ENDBRANCH   6   7
ENDBRANCH   5   6
ENDBRANCH   4   5
ENDBRANCH   3   4
ENDBRANCH   2   3
ENDBRANCH   1   2
BRANCH   1  11
ATOM     11  C   UNL     1      21.005   7.012 -10.282  1.00  0.00     0.000 C 
BRANCH  11  12
ATOM     12  C   UNL     1      19.527   6.900  -9.880  1.00  0.00     0.000 C 
BRANCH  12  13
ATOM     13  C   UNL     1      18.596   6.762 -11.096  1.00  0.00     0.000 C 
BRANCH  13  14
ATOM     14  C   UNL     1      17.484   5.719 -10.883  1.00  0.00     0.000 C 
BRANCH  14  15
ATOM     15  C   UNL     1      17.958   4.253 -10.873  1.00  0.00     0.000 C 
BRANCH  15  16
ATOM     16  C   UNL     1      18.819   3.830 -12.078  1.00  0.00     0.006 C 
BRANCH  16  17
ATOM     17  C   UNL     1      18.399   2.487 -12.706  1.00  0.00     0.053 C 
BRANCH  17  18
ATOM     18  C   UNL     1      19.003   2.272 -14.060  1.00  0.00     0.041 C 
ATOM     19  O   UNL     1      18.609   1.323 -14.787  1.00  0.00    -0.550 OA
ATOM     20  O   UNL     1      20.023   3.102 -14.509  1.00  0.00    -0.550 OA
ENDBRANCH  17  18
ENDBRANCH  16  17
ENDBRANCH  15  16
ENDBRANCH  14  15
ENDBRANCH  13  14
ENDBRANCH  12  13
ENDBRANCH  11  12
ENDBRANCH   1  11
TORSDOF 15
ENDMDL
MODEL 6
REMARK VINA RESULT:    -2.511      4.861      8.114
REMARK INTER + INTRA:          -5.886
REMARK INTER:                  -4.698
REMARK INTRA:                  -1.188
REMARK UNBOUND:                -1.174
REMARK SMILES O=C([O-])CCCCCCCCCCCCCCC(=O)[O-]
REMARK SMILES IDX 10 1 9 2 8 3 7 4 6 5 5 6 4 7 2 8 1 9 3 10 11 11 12 12 13 13
REMARK SMILES IDX 14 14 15 15 16 16 17 17 18 18 19 19 20 20
REMARK H PARENT
REMARK Flexibility Score: inf
ROOT
ATOM      1  C   UNL     1      19.658   3.523 -13.575  1.00  0.00     0.000 C 
ENDROOT
BRANCH   1   2
ATOM      2  C   UNL     1      18.424   3.373 -12.672  1.00  0.00     0.000 C 
BRANCH   2   3
ATOM      3  C   UNL     1      18.625   4.007 -11.287  1.00  0.00     0.000 C 
BRANCH   3   4
ATOM      4  C   UNL     1      17.517   5.028 -10.985  1.00  0.00     0.000 C 
BRANCH   4   5
ATOM      5  C   UNL     1      17.977   6.479 -11.192  1.00  0.00     0.000 C 
BRANCH   5   6
ATOM      6  C   UNL     1      18.779   7.022  -9.999  1.00  0.00     0.006 C 
BRANCH   6   7
ATOM      7  C   UNL     1      20.269   7.117 -10.340  1.00  0.00     0.053 C 
BRANCH   7   8
ATOM      8  C   UNL     1      21.072   6.235  -9.436  1.00  0.00     0.041 C 
ATOM      9  O   UNL     1      20.532   5.246  -8.875  1.00  0.00    -0.550 OA
ATOM     10  O   UNL     1      22.427   6.477  -9.251  1.00  0.00    -0.550 OA
ENDBRANCH   7   8
ENDBRANCH   6   7
ENDBRANCH   5   6
ENDBRANCH   4   5
ENDBRANCH   3   4
ENDBRANCH   2   3
ENDBRANCH   1   2
BRANCH   1  11
ATOM     11  C   UNL     1      20.418   4.838 -13.325  1.00  0.00     0.000 C 
BRANCH  11  12
ATOM     12  C   UNL     1      21.921   4.614 -13.104  1.00  0.00     0.000 C 
BRANCH  12  13
ATOM     13  C   UNL     1      22.644   5.887 -12.635  1.00  0.00     0.000 C 
BRANCH  13  14
ATOM     14  C   UNL     1      23.946   6.156 -13.408  1.00  0.00     0.000 C 
BRANCH  14  15
ATOM     15  C   UNL     1      24.575   4.920 -14.078  1.00  0.00     0.000 C 
BRANCH  15  16
ATOM     16  C   UNL     1      26.045   5.081 -14.512  1.00  0.00     0.006 C 
BRANCH  16  17
ATOM     17  C   UNL     1      26.892   3.807 -14.331  1.00  0.00     0.053 C 
BRANCH  17  18
ATOM     18  C   UNL     1      28.222   3.900 -15.017  1.00  0.00     0.041 C 
ATOM     19  O   UNL     1      28.442   4.816 -15.850  1.00  0.00    -0.550 OA
ATOM     20  O   UNL     1      29.208   2.956 -14.758  1.00  0.00    -0.550 OA
ENDBRANCH  17  18
ENDBRANCH  16  17
ENDBRANCH  15  16
ENDBRANCH  14  15
ENDBRANCH  13  14
ENDBRANCH  12  13
ENDBRANCH  11  12
ENDBRANCH   1  11
TORSDOF 15
ENDMDL
MODEL 7
REMARK VINA RESULT:    -2.350      4.660      6.191
REMARK INTER + INTRA:          -5.585
REMARK INTER:                  -5.331
REMARK INTRA:                  -0.253
REMARK UNBOUND:                -1.174
REMARK SMILES O=C([O-])CCCCCCCCCCCCCCC(=O)[O-]
REMARK SMILES IDX 10 1 9 2 8 3 7 4 6 5 5 6 4 7 2 8 1 9 3 10 11 11 12 12 13 13
REMARK SMILES IDX 14 14 15 15 16 16 17 17 18 18 19 19 20 20
REMARK H PARENT
REMARK Flexibility Score: inf
ROOT
ATOM      1  C   UNL     1      21.988   6.114 -11.475  1.00  0.00     0.000 C 
ENDROOT
BRANCH   1   2
ATOM      2  C   UNL     1      22.269   7.125 -12.598  1.00  0.00     0.000 C 
BRANCH   2   3
ATOM      3  C   UNL     1      23.610   6.867 -13.302  1.00  0.00     0.000 C 
BRANCH   3   4
ATOM      4  C   UNL     1      23.713   5.407 -13.769  1.00  0.00     0.000 C 
BRANCH   4   5
ATOM      5  C   UNL     1      25.089   4.789 -13.476  1.00  0.00     0.000 C 
BRANCH   5   6
ATOM      6  C   UNL     1      26.021   4.809 -14.697  1.00  0.00     0.006 C 
BRANCH   6   7
ATOM      7  C   UNL     1      27.153   3.790 -14.538  1.00  0.00     0.053 C 
BRANCH   7   8
ATOM      8  C   UNL     1      28.393   4.271 -15.224  1.00  0.00     0.041 C 
ATOM      9  O   UNL     1      28.531   5.491 -15.499  1.00  0.00    -0.550 OA
ATOM     10  O   UNL     1      29.416   3.378 -15.519  1.00  0.00    -0.550 OA
ENDBRANCH   7   8
ENDBRANCH   6   7
ENDBRANCH   5   6
ENDBRANCH   4   5
ENDBRANCH   3   4
ENDBRANCH   2   3
ENDBRANCH   1   2
BRANCH   1  11
ATOM     11  C   UNL     1      21.911   6.776 -10.088  1.00  0.00     0.000 C 
BRANCH  11  12
ATOM     12  C   UNL     1      21.398   5.813  -9.006  1.00  0.00     0.000 C 
BRANCH  12  13
ATOM     13  C   UNL     1      19.864   5.708  -8.992  1.00  0.00     0.000 C 
BRANCH  13  14
ATOM     14  C   UNL     1      19.190   6.649 -10.005  1.00  0.00     0.000 C 
BRANCH  14  15
ATOM     15  C   UNL     1      18.168   5.976 -10.941  1.00  0.00     0.000 C 
BRANCH  15  16
ATOM     16  C   UNL     1      18.411   4.480 -11.217  1.00  0.00     0.006 C 
BRANCH  16  17
ATOM     17  C   UNL     1      17.197   3.583 -10.909  1.00  0.00     0.053 C 
BRANCH  17  18
ATOM     18  C   UNL     1      15.960   4.374 -10.606  1.00  0.00     0.041 C 
ATOM     19  O   UNL     1      14.958   4.297 -11.363  1.00  0.00    -0.550 OA
ATOM     20  O   UNL     1      15.925   5.219  -9.504  1.00  0.00    -0.550 OA
ENDBRANCH  17  18
ENDBRANCH  16  17
ENDBRANCH  15  16
ENDBRANCH  14  15
ENDBRANCH  13  14
ENDBRANCH  12  13
ENDBRANCH  11  12
ENDBRANCH   1  11
TORSDOF 15
ENDMDL
MODEL 8
REMARK VINA RESULT:    -2.179      3.282      4.752
REMARK INTER + INTRA:          -5.264
REMARK INTER:                  -4.275
REMARK INTRA:                  -0.988
REMARK UNBOUND:                -1.174
REMARK SMILES O=C([O-])CCCCCCCCCCCCCCC(=O)[O-]
REMARK SMILES IDX 10 1 9 2 8 3 7 4 6 5 5 6 4 7 2 8 1 9 3 10 11 11 12 12 13 13
REMARK SMILES IDX 14 14 15 15 16 16 17 17 18 18 19 19 20 20
REMARK H PARENT
REMARK Flexibility Score: inf
ROOT
ATOM      1  C   UNL     1      18.449   6.592 -11.238  1.00  0.00     0.000 C 
ENDROOT
BRANCH   1   2
ATOM      2  C   UNL     1      18.749   5.132 -11.616  1.00  0.00     0.000 C 
BRANCH   2   3
ATOM      3  C   UNL     1      17.839   4.134 -10.884  1.00  0.00     0.000 C 
BRANCH   3   4
ATOM      4  C   UNL     1      17.640   2.859 -11.718  1.00  0.00     0.000 C 
BRANCH   4   5
ATOM      5  C   UNL     1      18.622   2.764 -12.896  1.00  0.00     0.000 C 
BRANCH   5   6
ATOM      6  C   UNL     1      18.658   1.364 -13.528  1.00  0.00     0.006 C 
BRANCH   6   7
ATOM      7  C   UNL     1      18.339   1.432 -15.025  1.00  0.00     0.053 C 
BRANCH   7   8
ATOM      8  C   UNL     1      17.587   0.213 -15.458  1.00  0.00     0.041 C 
ATOM      9  O   UNL     1      17.664  -0.186 -16.649  1.00  0.00    -0.550 OA
ATOM     10  O   UNL     1      16.838  -0.507 -14.536  1.00  0.00    -0.550 OA
ENDBRANCH   7   8
ENDBRANCH   6   7
ENDBRANCH   5   6
ENDBRANCH   4   5
ENDBRANCH   3   4
ENDBRANCH   2   3
ENDBRANCH   1   2
BRANCH   1  11
ATOM     11  C   UNL     1      19.070   6.994  -9.889  1.00  0.00     0.000 C 
BRANCH  11  12
ATOM     12  C   UNL     1      20.343   6.195  -9.569  1.00  0.00     0.000 C 
BRANCH  12  13
ATOM     13  C   UNL     1      21.626   6.984  -9.881  1.00  0.00     0.000 C 
BRANCH  13  14
ATOM     14  C   UNL     1      22.067   6.855 -11.349  1.00  0.00     0.000 C 
BRANCH  14  15
ATOM     15  C   UNL     1      22.087   5.417 -11.900  1.00  0.00     0.000 C 
BRANCH  15  16
ATOM     16  C   UNL     1      22.600   5.272 -13.345  1.00  0.00     0.006 C 
BRANCH  16  17
ATOM     17  C   UNL     1      23.866   4.402 -13.474  1.00  0.00     0.053 C 
BRANCH  17  18
ATOM     18  C   UNL     1      25.018   5.151 -14.071  1.00  0.00     0.041 C 
ATOM     19  O   UNL     1      26.069   4.542 -14.399  1.00  0.00    -0.550 OA
ATOM     20  O   UNL     1      24.944   6.529 -14.238  1.00  0.00    -0.550 OA
ENDBRANCH  17  18
ENDBRANCH  16  17
ENDBRANCH  15  16
ENDBRANCH  14  15
ENDBRANCH  13  14
ENDBRANCH  12  13
ENDBRANCH  11  12
ENDBRANCH   1  11
TORSDOF 15
ENDMDL
MODEL 9
REMARK VINA RESULT:    -2.077      4.330      6.975
REMARK INTER + INTRA:          -5.073
REMARK INTER:                  -4.631
REMARK INTRA:                  -0.442
REMARK UNBOUND:                -1.174
REMARK SMILES O=C([O-])CCCCCCCCCCCCCCC(=O)[O-]
REMARK SMILES IDX 10 1 9 2 8 3 7 4 6 5 5 6 4 7 2 8 1 9 3 10 11 11 12 12 13 13
REMARK SMILES IDX 14 14 15 15 16 16 17 17 18 18 19 19 20 20
REMARK H PARENT
REMARK Flexibility Score: inf
ROOT
ATOM      1  C   UNL     1      21.351   5.915 -10.393  1.00  0.00     0.000 C 
ENDROOT
BRANCH   1   2
ATOM      2  C   UNL     1      22.034   7.023 -11.210  1.00  0.00     0.000 C 
BRANCH   2   3
ATOM      3  C   UNL     1      22.219   6.639 -12.687  1.00  0.00     0.000 C 
BRANCH   3   4
ATOM      4  C   UNL     1      23.709   6.598 -13.060  1.00  0.00     0.000 C 
BRANCH   4   5
ATOM      5  C   UNL     1      24.130   5.248 -13.662  1.00  0.00     0.000 C 
BRANCH   5   6
ATOM      6  C   UNL     1      25.453   5.331 -14.438  1.00  0.00     0.006 C 
BRANCH   6   7
ATOM      7  C   UNL     1      26.292   4.068 -14.225  1.00  0.00     0.053 C 
BRANCH   7   8
ATOM      8  C   UNL     1      27.656   4.236 -14.819  1.00  0.00     0.041 C 
ATOM      9  O   UNL     1      28.510   3.319 -14.708  1.00  0.00    -0.550 OA
ATOM     10  O   UNL     1      27.967   5.385 -15.535  1.00  0.00    -0.550 OA
ENDBRANCH   7   8
ENDBRANCH   6   7
ENDBRANCH   5   6
ENDBRANCH   4   5
ENDBRANCH   3   4
ENDBRANCH   2   3
ENDBRANCH   1   2
BRANCH   1  11
ATOM     11  C   UNL     1      19.901   6.268 -10.015  1.00  0.00     0.000 C 
BRANCH  11  12
ATOM     12  C   UNL     1      18.872   5.487 -10.847  1.00  0.00     0.000 C 
BRANCH  12  13
ATOM     13  C   UNL     1      19.512   4.761 -12.043  1.00  0.00     0.000 C 
BRANCH  13  14
ATOM     14  C   UNL     1      18.642   3.611 -12.580  1.00  0.00     0.000 C 
BRANCH  14  15
ATOM     15  C   UNL     1      19.281   2.782 -13.710  1.00  0.00     0.000 C 
BRANCH  15  16
ATOM     16  C   UNL     1      18.610   1.424 -13.992  1.00  0.00     0.006 C 
BRANCH  16  17
ATOM     17  C   UNL     1      18.415   1.123 -15.490  1.00  0.00     0.053 C 
BRANCH  17  18
ATOM     18  C   UNL     1      17.495  -0.036 -15.728  1.00  0.00     0.041 C 
ATOM     19  O   UNL     1      16.958  -0.629 -14.757  1.00  0.00    -0.550 OA
ATOM     20  O   UNL     1      17.254  -0.481 -17.022  1.00  0.00    -0.550 OA
ENDBRANCH  17  18
ENDBRANCH  16  17
ENDBRANCH  15  16
ENDBRANCH  14  15
ENDBRANCH  13  14
ENDBRANCH  12  13
ENDBRANCH  11  12
ENDBRANCH   1  11
TORSDOF 15
ENDMDL
