MODEL 1
REMARK VINA RESULT:    -5.316      0.000      0.000
REMARK INTER + INTRA:         -17.566
REMARK INTER:                 -13.395
REMARK INTRA:                  -4.170
REMARK UNBOUND:                -4.170
REMARK SMILES CCCCCCCCCCCCCCCCCCCCCCCCCCCC(=O)[O-]
REMARK SMILES IDX 15 1 16 2 17 3 18 4 19 5 20 6 21 7 22 8 23 9 24 10 25 11
REMARK SMILES IDX 26 12 27 13 28 14 29 15 30 16 14 17 13 18 12 19 11 20 10 21
REMARK SMILES IDX 9 22 8 23 7 24 6 25 5 26 4 27 3 28 2 29 1 30
REMARK H PARENT
REMARK Flexibility Score: inf
ROOT
ATOM      1  C   UNL     1     -16.665  -6.500  41.841  1.00  0.00     0.000 C 
ENDROOT
BRANCH   1   2
ATOM      2  C   UNL     1     -17.658  -6.497  40.659  1.00  0.00     0.000 C 
BRANCH   2   3
ATOM      3  C   UNL     1     -17.087  -5.807  39.410  1.00  0.00     0.000 C 
BRANCH   3   4
ATOM      4  C   UNL     1     -15.549  -5.729  39.418  1.00  0.00     0.000 C 
BRANCH   4   5
ATOM      5  C   UNL     1     -14.897  -5.532  38.038  1.00  0.00     0.000 C 
BRANCH   5   6
ATOM      6  C   UNL     1     -14.613  -6.861  37.318  1.00  0.00     0.000 C 
BRANCH   6   7
ATOM      7  C   UNL     1     -13.196  -6.933  36.727  1.00  0.00     0.000 C 
BRANCH   7   8
ATOM      8  C   UNL     1     -12.379  -8.179  37.127  1.00  0.00     0.000 C 
BRANCH   8   9
ATOM      9  C   UNL     1     -11.210  -7.876  38.086  1.00  0.00     0.000 C 
BRANCH   9  10
ATOM     10  C   UNL     1     -11.217  -8.792  39.322  1.00  0.00     0.000 C 
BRANCH  10  11
ATOM     11  C   UNL     1     -11.270  -8.004  40.640  1.00  0.00     0.000 C 
BRANCH  11  12
ATOM     12  C   UNL     1     -12.071  -6.697  40.514  1.00  0.00     0.006 C 
BRANCH  12  13
ATOM     13  C   UNL     1     -12.738  -6.296  41.836  1.00  0.00     0.053 C 
BRANCH  13  14
ATOM     14  C   UNL     1     -12.974  -4.818  41.912  1.00  0.00     0.041 C 
ATOM     15  O   UNL     1     -12.743  -4.089  40.913  1.00  0.00    -0.550 OA
ATOM     16  O   UNL     1     -13.408  -4.243  43.099  1.00  0.00    -0.550 OA
ENDBRANCH  13  14
ENDBRANCH  12  13
ENDBRANCH  11  12
ENDBRANCH  10  11
ENDBRANCH   9  10
ENDBRANCH   8   9
ENDBRANCH   7   8
ENDBRANCH   6   7
ENDBRANCH   5   6
ENDBRANCH   4   5
ENDBRANCH   3   4
ENDBRANCH   2   3
ENDBRANCH   1   2
BRANCH   1  17
ATOM     17  C   UNL     1     -17.299  -6.915  43.182  1.00  0.00     0.000 C 
BRANCH  17  18
ATOM     18  C   UNL     1     -17.522  -8.430  43.349  1.00  0.00     0.000 C 
BRANCH  18  19
ATOM     19  C   UNL     1     -17.512  -8.941  44.807  1.00  0.00     0.000 C 
BRANCH  19  20
ATOM     20  C   UNL     1     -17.465  -7.846  45.888  1.00  0.00     0.000 C 
BRANCH  20  21
ATOM     21  C   UNL     1     -17.004  -8.374  47.258  1.00  0.00     0.000 C 
BRANCH  21  22
ATOM     22  C   UNL     1     -17.069  -9.908  47.345  1.00  0.00    -0.000 C 
BRANCH  22  23
ATOM     23  C   UNL     1     -15.883 -10.508  48.118  1.00  0.00    -0.000 C 
BRANCH  23  24
ATOM     24  C   UNL     1     -14.946 -11.326  47.212  1.00  0.00    -0.000 C 
BRANCH  24  25
ATOM     25  C   UNL     1     -13.461 -10.982  47.428  1.00  0.00    -0.000 C 
BRANCH  25  26
ATOM     26  C   UNL     1     -12.974  -9.862  46.495  1.00  0.00    -0.000 C 
BRANCH  26  27
ATOM     27  C   UNL     1     -13.791  -9.778  45.197  1.00  0.00    -0.000 C 
BRANCH  27  28
ATOM     28  C   UNL     1     -13.966  -8.322  44.750  1.00  0.00    -0.000 C 
BRANCH  28  29
ATOM     29  C   UNL     1     -13.397  -7.354  45.795  1.00  0.00    -0.003 C 
ATOM     30  C   UNL     1     -14.267  -6.106  45.921  1.00  0.00     0.004 C 
ENDBRANCH  28  29
ENDBRANCH  27  28
ENDBRANCH  26  27
ENDBRANCH  25  26
ENDBRANCH  24  25
ENDBRANCH  23  24
ENDBRANCH  22  23
ENDBRANCH  21  22
ENDBRANCH  20  21
ENDBRANCH  19  20
ENDBRANCH  18  19
ENDBRANCH  17  18
ENDBRANCH   1  17
TORSDOF 26
ENDMDL
MODEL 2
REMARK VINA RESULT:    -5.275      2.189      4.523
REMARK INTER + INTRA:         -17.464
REMARK INTER:                 -13.367
REMARK INTRA:                  -4.096
REMARK UNBOUND:                -4.170
REMARK SMILES CCCCCCCCCCCCCCCCCCCCCCCCCCCC(=O)[O-]
REMARK SMILES IDX 15 1 16 2 17 3 18 4 19 5 20 6 21 7 22 8 23 9 24 10 25 11
REMARK SMILES IDX 26 12 27 13 28 14 29 15 30 16 14 17 13 18 12 19 11 20 10 21
REMARK SMILES IDX 9 22 8 23 7 24 6 25 5 26 4 27 3 28 2 29 1 30
REMARK H PARENT
REMARK Flexibility Score: inf
ROOT
ATOM      1  C   UNL     1     -15.864 -10.951  44.845  1.00  0.00     0.000 C 
ENDROOT
BRANCH   1   2
ATOM      2  C   UNL     1     -16.980 -10.034  44.302  1.00  0.00     0.000 C 
BRANCH   2   3
ATOM      3  C   UNL     1     -16.506  -8.587  44.095  1.00  0.00     0.000 C 
BRANCH   3   4
ATOM      4  C   UNL     1     -17.515  -7.733  43.304  1.00  0.00     0.000 C 
BRANCH   4   5
ATOM      5  C   UNL     1     -16.898  -6.828  42.222  1.00  0.00     0.000 C 
BRANCH   5   6
ATOM      6  C   UNL     1     -17.891  -6.483  41.099  1.00  0.00     0.000 C 
BRANCH   6   7
ATOM      7  C   UNL     1     -17.254  -6.529  39.700  1.00  0.00     0.000 C 
BRANCH   7   8
ATOM      8  C   UNL     1     -15.902  -5.799  39.569  1.00  0.00     0.000 C 
BRANCH   8   9
ATOM      9  C   UNL     1     -15.311  -5.833  38.144  1.00  0.00     0.000 C 
BRANCH   9  10
ATOM     10  C   UNL     1     -13.972  -6.588  38.086  1.00  0.00     0.000 C 
BRANCH  10  11
ATOM     11  C   UNL     1     -13.192  -6.506  39.408  1.00  0.00     0.000 C 
BRANCH  11  12
ATOM     12  C   UNL     1     -12.087  -7.571  39.507  1.00  0.00     0.006 C 
BRANCH  12  13
ATOM     13  C   UNL     1     -11.707  -8.142  38.133  1.00  0.00     0.053 C 
BRANCH  13  14
ATOM     14  C   UNL     1     -10.833  -9.353  38.259  1.00  0.00     0.041 C 
ATOM     15  O   UNL     1     -10.448  -9.741  39.392  1.00  0.00    -0.550 OA
ATOM     16  O   UNL     1     -10.408 -10.024  37.120  1.00  0.00    -0.550 OA
ENDBRANCH  13  14
ENDBRANCH  12  13
ENDBRANCH  11  12
ENDBRANCH  10  11
ENDBRANCH   9  10
ENDBRANCH   8   9
ENDBRANCH   7   8
ENDBRANCH   6   7
ENDBRANCH   5   6
ENDBRANCH   4   5
ENDBRANCH   3   4
ENDBRANCH   2   3
ENDBRANCH   1   2
BRANCH   1  17
ATOM     17  C   UNL     1     -14.576 -10.200  45.229  1.00  0.00     0.000 C 
BRANCH  17  18
ATOM     18  C   UNL     1     -13.959 -10.620  46.576  1.00  0.00     0.000 C 
BRANCH  18  19
ATOM     19  C   UNL     1     -14.934 -11.292  47.567  1.00  0.00     0.000 C 
BRANCH  19  20
ATOM     20  C   UNL     1     -15.562 -10.352  48.613  1.00  0.00     0.000 C 
BRANCH  20  21
ATOM     21  C   UNL     1     -16.805  -9.614  48.087  1.00  0.00     0.000 C 
BRANCH  21  22
ATOM     22  C   UNL     1     -16.524  -8.131  47.794  1.00  0.00    -0.000 C 
BRANCH  22  23
ATOM     23  C   UNL     1     -15.671  -7.463  48.887  1.00  0.00    -0.000 C 
BRANCH  23  24
ATOM     24  C   UNL     1     -14.626  -6.497  48.306  1.00  0.00    -0.000 C 
BRANCH  24  25
ATOM     25  C   UNL     1     -13.245  -7.155  48.124  1.00  0.00    -0.000 C 
BRANCH  25  26
ATOM     26  C   UNL     1     -12.742  -7.077  46.674  1.00  0.00    -0.000 C 
BRANCH  26  27
ATOM     27  C   UNL     1     -13.856  -6.717  45.681  1.00  0.00    -0.000 C 
BRANCH  27  28
ATOM     28  C   UNL     1     -13.355  -5.723  44.626  1.00  0.00    -0.000 C 
BRANCH  28  29
ATOM     29  C   UNL     1     -13.339  -6.364  43.232  1.00  0.00    -0.003 C 
ATOM     30  C   UNL     1     -12.326  -7.503  43.161  1.00  0.00     0.004 C 
ENDBRANCH  28  29
ENDBRANCH  27  28
ENDBRANCH  26  27
ENDBRANCH  25  26
ENDBRANCH  24  25
ENDBRANCH  23  24
ENDBRANCH  22  23
ENDBRANCH  21  22
ENDBRANCH  20  21
ENDBRANCH  19  20
ENDBRANCH  18  19
ENDBRANCH  17  18
ENDBRANCH   1  17
TORSDOF 26
ENDMDL
MODEL 3
REMARK VINA RESULT:    -5.262      1.931      8.284
REMARK INTER + INTRA:         -17.431
REMARK INTER:                 -13.684
REMARK INTRA:                  -3.747
REMARK UNBOUND:                -4.170
REMARK SMILES CCCCCCCCCCCCCCCCCCCCCCCCCCCC(=O)[O-]
REMARK SMILES IDX 15 1 16 2 17 3 18 4 19 5 20 6 21 7 22 8 23 9 24 10 25 11
REMARK SMILES IDX 26 12 27 13 28 14 29 15 30 16 14 17 13 18 12 19 11 20 10 21
REMARK SMILES IDX 9 22 8 23 7 24 6 25 5 26 4 27 3 28 2 29 1 30
REMARK H PARENT
REMARK Flexibility Score: inf
ROOT
ATOM      1  C   UNL     1     -15.617 -10.995  44.916  1.00  0.00     0.000 C 
ENDROOT
BRANCH   1   2
ATOM      2  C   UNL     1     -15.234 -10.337  46.259  1.00  0.00     0.000 C 
BRANCH   2   3
ATOM      3  C   UNL     1     -15.499 -11.255  47.463  1.00  0.00     0.000 C 
BRANCH   3   4
ATOM      4  C   UNL     1     -14.491 -11.049  48.608  1.00  0.00     0.000 C 
BRANCH   4   5
ATOM      5  C   UNL     1     -15.108 -10.630  49.955  1.00  0.00     0.000 C 
BRANCH   5   6
ATOM      6  C   UNL     1     -15.901  -9.315  49.863  1.00  0.00     0.000 C 
BRANCH   6   7
ATOM      7  C   UNL     1     -15.002  -8.068  49.899  1.00  0.00     0.000 C 
BRANCH   7   8
ATOM      8  C   UNL     1     -14.644  -7.476  48.521  1.00  0.00     0.000 C 
BRANCH   8   9
ATOM      9  C   UNL     1     -15.848  -6.859  47.777  1.00  0.00     0.000 C 
BRANCH   9  10
ATOM     10  C   UNL     1     -15.445  -5.643  46.925  1.00  0.00     0.000 C 
BRANCH  10  11
ATOM     11  C   UNL     1     -15.860  -5.791  45.452  1.00  0.00     0.000 C 
BRANCH  11  12
ATOM     12  C   UNL     1     -14.656  -6.003  44.519  1.00  0.00     0.006 C 
BRANCH  12  13
ATOM     13  C   UNL     1     -14.267  -7.483  44.402  1.00  0.00     0.053 C 
BRANCH  13  14
ATOM     14  C   UNL     1     -12.823  -7.704  44.737  1.00  0.00     0.041 C 
ATOM     15  O   UNL     1     -12.371  -7.345  45.855  1.00  0.00    -0.550 OA
ATOM     16  O   UNL     1     -11.969  -8.267  43.798  1.00  0.00    -0.550 OA
ENDBRANCH  13  14
ENDBRANCH  12  13
ENDBRANCH  11  12
ENDBRANCH  10  11
ENDBRANCH   9  10
ENDBRANCH   8   9
ENDBRANCH   7   8
ENDBRANCH   6   7
ENDBRANCH   5   6
ENDBRANCH   4   5
ENDBRANCH   3   4
ENDBRANCH   2   3
ENDBRANCH   1   2
BRANCH   1  17
ATOM     17  C   UNL     1     -16.912 -10.435  44.299  1.00  0.00     0.000 C 
BRANCH  17  18
ATOM     18  C   UNL     1     -17.606  -9.343  45.135  1.00  0.00     0.000 C 
BRANCH  18  19
ATOM     19  C   UNL     1     -18.125  -8.129  44.334  1.00  0.00     0.000 C 
BRANCH  19  20
ATOM     20  C   UNL     1     -17.678  -8.072  42.861  1.00  0.00     0.000 C 
BRANCH  20  21
ATOM     21  C   UNL     1     -17.695  -6.645  42.284  1.00  0.00     0.000 C 
BRANCH  21  22
ATOM     22  C   UNL     1     -16.533  -6.396  41.309  1.00  0.00    -0.000 C 
BRANCH  22  23
ATOM     23  C   UNL     1     -17.013  -6.103  39.877  1.00  0.00    -0.000 C 
BRANCH  23  24
ATOM     24  C   UNL     1     -15.914  -5.468  39.009  1.00  0.00    -0.000 C 
BRANCH  24  25
ATOM     25  C   UNL     1     -15.565  -6.322  37.775  1.00  0.00    -0.000 C 
BRANCH  25  26
ATOM     26  C   UNL     1     -14.049  -6.473  37.575  1.00  0.00    -0.000 C 
BRANCH  26  27
ATOM     27  C   UNL     1     -13.277  -6.499  38.903  1.00  0.00    -0.000 C 
BRANCH  27  28
ATOM     28  C   UNL     1     -12.228  -7.616  38.909  1.00  0.00    -0.000 C 
BRANCH  28  29
ATOM     29  C   UNL     1     -12.034  -8.196  37.502  1.00  0.00    -0.003 C 
ATOM     30  C   UNL     1     -10.553  -8.332  37.161  1.00  0.00     0.004 C 
ENDBRANCH  28  29
ENDBRANCH  27  28
ENDBRANCH  26  27
ENDBRANCH  25  26
ENDBRANCH  24  25
ENDBRANCH  23  24
ENDBRANCH  22  23
ENDBRANCH  21  22
ENDBRANCH  20  21
ENDBRANCH  19  20
ENDBRANCH  18  19
ENDBRANCH  17  18
ENDBRANCH   1  17
TORSDOF 26
ENDMDL
MODEL 4
REMARK VINA RESULT:    -5.248      2.517      7.271
REMARK INTER + INTRA:         -17.394
REMARK INTER:                 -12.685
REMARK INTRA:                  -4.709
REMARK UNBOUND:                -4.170
REMARK SMILES CCCCCCCCCCCCCCCCCCCCCCCCCCCC(=O)[O-]
REMARK SMILES IDX 15 1 16 2 17 3 18 4 19 5 20 6 21 7 22 8 23 9 24 10 25 11
REMARK SMILES IDX 26 12 27 13 28 14 29 15 30 16 14 17 13 18 12 19 11 20 10 21
REMARK SMILES IDX 9 22 8 23 7 24 6 25 5 26 4 27 3 28 2 29 1 30
REMARK H PARENT
REMARK Flexibility Score: inf
ROOT
ATOM      1  C   UNL     1     -17.054  -7.247  42.713  1.00  0.00     0.000 C 
ENDROOT
BRANCH   1   2
ATOM      2  C   UNL     1     -17.435  -7.275  44.209  1.00  0.00     0.000 C 
BRANCH   2   3
ATOM      3  C   UNL     1     -17.799  -8.686  44.698  1.00  0.00     0.000 C 
BRANCH   3   4
ATOM      4  C   UNL     1     -17.199  -9.799  43.820  1.00  0.00     0.000 C 
BRANCH   4   5
ATOM      5  C   UNL     1     -16.225 -10.748  44.542  1.00  0.00     0.000 C 
BRANCH   5   6
ATOM      6  C   UNL     1     -15.064 -10.004  45.223  1.00  0.00     0.000 C 
BRANCH   6   7
ATOM      7  C   UNL     1     -14.738 -10.553  46.622  1.00  0.00     0.000 C 
BRANCH   7   8
ATOM      8  C   UNL     1     -15.959 -10.995  47.455  1.00  0.00     0.000 C 
BRANCH   8   9
ATOM      9  C   UNL     1     -16.680  -9.833  48.170  1.00  0.00     0.000 C 
BRANCH   9  10
ATOM     10  C   UNL     1     -15.816  -9.203  49.276  1.00  0.00     0.000 C 
BRANCH  10  11
ATOM     11  C   UNL     1     -15.554  -7.707  49.040  1.00  0.00     0.000 C 
BRANCH  11  12
ATOM     12  C   UNL     1     -16.144  -7.208  47.711  1.00  0.00     0.006 C 
BRANCH  12  13
ATOM     13  C   UNL     1     -15.176  -6.285  46.958  1.00  0.00     0.053 C 
BRANCH  13  14
ATOM     14  C   UNL     1     -14.700  -5.158  47.822  1.00  0.00     0.041 C 
ATOM     15  O   UNL     1     -15.503  -4.265  48.197  1.00  0.00    -0.550 OA
ATOM     16  O   UNL     1     -13.360  -5.070  48.176  1.00  0.00    -0.550 OA
ENDBRANCH  13  14
ENDBRANCH  12  13
ENDBRANCH  11  12
ENDBRANCH  10  11
ENDBRANCH   9  10
ENDBRANCH   8   9
ENDBRANCH   7   8
ENDBRANCH   6   7
ENDBRANCH   5   6
ENDBRANCH   4   5
ENDBRANCH   3   4
ENDBRANCH   2   3
ENDBRANCH   1   2
BRANCH   1  17
ATOM     17  C   UNL     1     -18.023  -6.426  41.842  1.00  0.00     0.000 C 
BRANCH  17  18
ATOM     18  C   UNL     1     -18.023  -6.799  40.348  1.00  0.00     0.000 C 
BRANCH  18  19
ATOM     19  C   UNL     1     -17.278  -5.814  39.422  1.00  0.00     0.000 C 
BRANCH  19  20
ATOM     20  C   UNL     1     -16.308  -6.460  38.416  1.00  0.00     0.000 C 
BRANCH  20  21
ATOM     21  C   UNL     1     -14.849  -6.015  38.619  1.00  0.00     0.000 C 
BRANCH  21  22
ATOM     22  C   UNL     1     -14.693  -5.041  39.798  1.00  0.00    -0.000 C 
BRANCH  22  23
ATOM     23  C   UNL     1     -14.082  -5.710  41.042  1.00  0.00    -0.000 C 
BRANCH  23  24
ATOM     24  C   UNL     1     -13.795  -4.702  42.167  1.00  0.00    -0.000 C 
BRANCH  24  25
ATOM     25  C   UNL     1     -13.864  -5.339  43.567  1.00  0.00    -0.000 C 
BRANCH  25  26
ATOM     26  C   UNL     1     -13.724  -6.869  43.525  1.00  0.00    -0.000 C 
BRANCH  26  27
ATOM     27  C   UNL     1     -12.323  -7.345  43.934  1.00  0.00    -0.000 C 
BRANCH  27  28
ATOM     28  C   UNL     1     -12.248  -7.609  45.443  1.00  0.00    -0.000 C 
BRANCH  28  29
ATOM     29  C   UNL     1     -11.164  -8.645  45.766  1.00  0.00    -0.003 C 
ATOM     30  C   UNL     1     -11.309  -9.886  44.890  1.00  0.00     0.004 C 
ENDBRANCH  28  29
ENDBRANCH  27  28
ENDBRANCH  26  27
ENDBRANCH  25  26
ENDBRANCH  24  25
ENDBRANCH  23  24
ENDBRANCH  22  23
ENDBRANCH  21  22
ENDBRANCH  20  21
ENDBRANCH  19  20
ENDBRANCH  18  19
ENDBRANCH  17  18
ENDBRANCH   1  17
TORSDOF 26
ENDMDL
MODEL 5
REMARK VINA RESULT:    -5.234      2.151      7.907
REMARK INTER + INTRA:         -17.359
REMARK INTER:                 -14.757
REMARK INTRA:                  -2.602
REMARK UNBOUND:                -4.170
REMARK SMILES CCCCCCCCCCCCCCCCCCCCCCCCCCCC(=O)[O-]
REMARK SMILES IDX 15 1 16 2 17 3 18 4 19 5 20 6 21 7 22 8 23 9 24 10 25 11
REMARK SMILES IDX 26 12 27 13 28 14 29 15 30 16 14 17 13 18 12 19 11 20 10 21
REMARK SMILES IDX 9 22 8 23 7 24 6 25 5 26 4 27 3 28 2 29 1 30
REMARK H PARENT
REMARK Flexibility Score: inf
ROOT
ATOM      1  C   UNL     1     -16.933  -7.015  42.573  1.00  0.00     0.000 C 
ENDROOT
BRANCH   1   2
ATOM      2  C   UNL     1     -17.293  -7.008  44.074  1.00  0.00     0.000 C 
BRANCH   2   3
ATOM      3  C   UNL     1     -17.818  -8.368  44.561  1.00  0.00     0.000 C 
BRANCH   3   4
ATOM      4  C   UNL     1     -17.009  -9.556  44.008  1.00  0.00     0.000 C 
BRANCH   4   5
ATOM      5  C   UNL     1     -16.231 -10.364  45.063  1.00  0.00     0.000 C 
BRANCH   5   6
ATOM      6  C   UNL     1     -14.772  -9.900  45.213  1.00  0.00     0.000 C 
BRANCH   6   7
ATOM      7  C   UNL     1     -14.028 -10.620  46.349  1.00  0.00     0.000 C 
BRANCH   7   8
ATOM      8  C   UNL     1     -14.909 -11.498  47.260  1.00  0.00     0.000 C 
BRANCH   8   9
ATOM      9  C   UNL     1     -14.747 -11.196  48.764  1.00  0.00     0.000 C 
BRANCH   9  10
ATOM     10  C   UNL     1     -14.728  -9.685  49.056  1.00  0.00     0.000 C 
BRANCH  10  11
ATOM     11  C   UNL     1     -16.108  -9.033  48.878  1.00  0.00     0.000 C 
BRANCH  11  12
ATOM     12  C   UNL     1     -16.076  -7.842  47.906  1.00  0.00     0.006 C 
BRANCH  12  13
ATOM     13  C   UNL     1     -14.780  -7.030  48.028  1.00  0.00     0.053 C 
BRANCH  13  14
ATOM     14  C   UNL     1     -15.002  -5.581  47.715  1.00  0.00     0.041 C 
ATOM     15  O   UNL     1     -14.619  -4.694  48.521  1.00  0.00    -0.550 OA
ATOM     16  O   UNL     1     -15.672  -5.214  46.555  1.00  0.00    -0.550 OA
ENDBRANCH  13  14
ENDBRANCH  12  13
ENDBRANCH  11  12
ENDBRANCH  10  11
ENDBRANCH   9  10
ENDBRANCH   8   9
ENDBRANCH   7   8
ENDBRANCH   6   7
ENDBRANCH   5   6
ENDBRANCH   4   5
ENDBRANCH   3   4
ENDBRANCH   2   3
ENDBRANCH   1   2
BRANCH   1  17
ATOM     17  C   UNL     1     -18.100  -6.605  41.654  1.00  0.00     0.000 C 
BRANCH  17  18
ATOM     18  C   UNL     1     -17.874  -6.889  40.158  1.00  0.00     0.000 C 
BRANCH  18  19
ATOM     19  C   UNL     1     -16.963  -5.880  39.424  1.00  0.00     0.000 C 
BRANCH  19  20
ATOM     20  C   UNL     1     -16.314  -6.400  38.128  1.00  0.00     0.000 C 
BRANCH  20  21
ATOM     21  C   UNL     1     -14.960  -5.735  37.826  1.00  0.00     0.000 C 
BRANCH  21  22
ATOM     22  C   UNL     1     -13.771  -6.637  38.192  1.00  0.00    -0.000 C 
BRANCH  22  23
ATOM     23  C   UNL     1     -13.037  -7.182  36.955  1.00  0.00    -0.000 C 
BRANCH  23  24
ATOM     24  C   UNL     1     -11.993  -8.251  37.316  1.00  0.00    -0.000 C 
BRANCH  24  25
ATOM     25  C   UNL     1     -11.729  -8.336  38.830  1.00  0.00    -0.000 C 
BRANCH  25  26
ATOM     26  C   UNL     1     -10.289  -8.765  39.154  1.00  0.00    -0.000 C 
BRANCH  26  27
ATOM     27  C   UNL     1     -10.221  -9.800  40.286  1.00  0.00    -0.000 C 
BRANCH  27  28
ATOM     28  C   UNL     1     -10.276  -9.121  41.659  1.00  0.00    -0.000 C 
BRANCH  28  29
ATOM     29  C   UNL     1     -10.032 -10.135  42.784  1.00  0.00    -0.003 C 
ATOM     30  C   UNL     1     -10.878  -9.811  44.012  1.00  0.00     0.004 C 
ENDBRANCH  28  29
ENDBRANCH  27  28
ENDBRANCH  26  27
ENDBRANCH  25  26
ENDBRANCH  24  25
ENDBRANCH  23  24
ENDBRANCH  22  23
ENDBRANCH  21  22
ENDBRANCH  20  21
ENDBRANCH  19  20
ENDBRANCH  18  19
ENDBRANCH  17  18
ENDBRANCH   1  17
TORSDOF 26
ENDMDL
MODEL 6
REMARK VINA RESULT:    -5.224      2.365      3.496
REMARK INTER + INTRA:         -17.334
REMARK INTER:                 -13.373
REMARK INTRA:                  -3.961
REMARK UNBOUND:                -4.170
REMARK SMILES CCCCCCCCCCCCCCCCCCCCCCCCCCCC(=O)[O-]
REMARK SMILES IDX 15 1 16 2 17 3 18 4 19 5 20 6 21 7 22 8 23 9 24 10 25 11
REMARK SMILES IDX 26 12 27 13 28 14 29 15 30 16 14 17 13 18 12 19 11 20 10 21
REMARK SMILES IDX 9 22 8 23 7 24 6 25 5 26 4 27 3 28 2 29 1 30
REMARK H PARENT
REMARK Flexibility Score: inf
ROOT
ATOM      1  C   UNL     1     -17.825  -6.394  41.342  1.00  0.00     0.000 C 
ENDROOT
BRANCH   1   2
ATOM      2  C   UNL     1     -17.684  -6.862  39.877  1.00  0.00     0.000 C 
BRANCH   2   3
ATOM      3  C   UNL     1     -17.203  -5.741  38.943  1.00  0.00     0.000 C 
BRANCH   3   4
ATOM      4  C   UNL     1     -16.085  -6.197  37.986  1.00  0.00     0.000 C 
BRANCH   4   5
ATOM      5  C   UNL     1     -14.659  -5.807  38.414  1.00  0.00     0.000 C 
BRANCH   5   6
ATOM      6  C   UNL     1     -14.634  -4.615  39.386  1.00  0.00     0.000 C 
BRANCH   6   7
ATOM      7  C   UNL     1     -14.155  -5.001  40.795  1.00  0.00     0.000 C 
BRANCH   7   8
ATOM      8  C   UNL     1     -13.590  -6.430  40.929  1.00  0.00     0.000 C 
BRANCH   8   9
ATOM      9  C   UNL     1     -12.053  -6.483  41.057  1.00  0.00     0.000 C 
BRANCH   9  10
ATOM     10  C   UNL     1     -11.455  -7.736  40.393  1.00  0.00     0.000 C 
BRANCH  10  11
ATOM     11  C   UNL     1     -11.799  -7.832  38.899  1.00  0.00     0.000 C 
BRANCH  11  12
ATOM     12  C   UNL     1     -11.220  -9.095  38.240  1.00  0.00     0.006 C 
BRANCH  12  13
ATOM     13  C   UNL     1     -10.270  -9.853  39.178  1.00  0.00     0.053 C 
BRANCH  13  14
ATOM     14  C   UNL     1      -8.855  -9.808  38.688  1.00  0.00     0.041 C 
ATOM     15  O   UNL     1      -8.454 -10.641  37.834  1.00  0.00    -0.550 OA
ATOM     16  O   UNL     1      -7.968  -8.875  39.209  1.00  0.00    -0.550 OA
ENDBRANCH  13  14
ENDBRANCH  12  13
ENDBRANCH  11  12
ENDBRANCH  10  11
ENDBRANCH   9  10
ENDBRANCH   8   9
ENDBRANCH   7   8
ENDBRANCH   6   7
ENDBRANCH   5   6
ENDBRANCH   4   5
ENDBRANCH   3   4
ENDBRANCH   2   3
ENDBRANCH   1   2
BRANCH   1  17
ATOM     17  C   UNL     1     -17.089  -7.292  42.353  1.00  0.00     0.000 C 
BRANCH  17  18
ATOM     18  C   UNL     1     -16.432  -6.541  43.525  1.00  0.00     0.000 C 
BRANCH  18  19
ATOM     19  C   UNL     1     -16.066  -7.413  44.746  1.00  0.00     0.000 C 
BRANCH  19  20
ATOM     20  C   UNL     1     -16.217  -8.931  44.540  1.00  0.00     0.000 C 
BRANCH  20  21
ATOM     21  C   UNL     1     -17.220  -9.572  45.515  1.00  0.00     0.000 C 
BRANCH  21  22
ATOM     22  C   UNL     1     -17.347  -8.781  46.827  1.00  0.00    -0.000 C 
BRANCH  22  23
ATOM     23  C   UNL     1     -16.949  -9.611  48.059  1.00  0.00    -0.000 C 
BRANCH  23  24
ATOM     24  C   UNL     1     -15.886  -8.908  48.921  1.00  0.00    -0.000 C 
BRANCH  24  25
ATOM     25  C   UNL     1     -14.605  -8.578  48.132  1.00  0.00    -0.000 C 
BRANCH  25  26
ATOM     26  C   UNL     1     -13.650  -9.778  48.032  1.00  0.00    -0.000 C 
BRANCH  26  27
ATOM     27  C   UNL     1     -13.472 -10.272  46.589  1.00  0.00    -0.000 C 
BRANCH  27  28
ATOM     28  C   UNL     1     -12.098  -9.876  46.037  1.00  0.00    -0.000 C 
BRANCH  28  29
ATOM     29  C   UNL     1     -12.211  -9.373  44.592  1.00  0.00    -0.003 C 
ATOM     30  C   UNL     1     -12.416  -7.861  44.550  1.00  0.00     0.004 C 
ENDBRANCH  28  29
ENDBRANCH  27  28
ENDBRANCH  26  27
ENDBRANCH  25  26
ENDBRANCH  24  25
ENDBRANCH  23  24
ENDBRANCH  22  23
ENDBRANCH  21  22
ENDBRANCH  20  21
ENDBRANCH  19  20
ENDBRANCH  18  19
ENDBRANCH  17  18
ENDBRANCH   1  17
TORSDOF 26
ENDMDL
MODEL 7
REMARK VINA RESULT:    -5.199      2.219      2.904
REMARK INTER + INTRA:         -17.271
REMARK INTER:                 -14.409
REMARK INTRA:                  -2.862
REMARK UNBOUND:                -4.170
REMARK SMILES CCCCCCCCCCCCCCCCCCCCCCCCCCCC(=O)[O-]
REMARK SMILES IDX 15 1 16 2 17 3 18 4 19 5 20 6 21 7 22 8 23 9 24 10 25 11
REMARK SMILES IDX 26 12 27 13 28 14 29 15 30 16 14 17 13 18 12 19 11 20 10 21
REMARK SMILES IDX 9 22 8 23 7 24 6 25 5 26 4 27 3 28 2 29 1 30
REMARK H PARENT
REMARK Flexibility Score: inf
ROOT
ATOM      1  C   UNL     1     -17.168  -6.980  42.357  1.00  0.00     0.000 C 
ENDROOT
BRANCH   1   2
ATOM      2  C   UNL     1     -17.996  -6.516  41.140  1.00  0.00     0.000 C 
BRANCH   2   3
ATOM      3  C   UNL     1     -17.776  -7.404  39.904  1.00  0.00     0.000 C 
BRANCH   3   4
ATOM      4  C   UNL     1     -17.065  -6.666  38.754  1.00  0.00     0.000 C 
BRANCH   4   5
ATOM      5  C   UNL     1     -16.285  -5.405  39.170  1.00  0.00     0.000 C 
BRANCH   5   6
ATOM      6  C   UNL     1     -14.848  -5.386  38.620  1.00  0.00     0.000 C 
BRANCH   6   7
ATOM      7  C   UNL     1     -14.746  -5.940  37.190  1.00  0.00     0.000 C 
BRANCH   7   8
ATOM      8  C   UNL     1     -13.649  -7.003  36.974  1.00  0.00     0.000 C 
BRANCH   8   9
ATOM      9  C   UNL     1     -12.793  -7.278  38.228  1.00  0.00     0.000 C 
BRANCH   9  10
ATOM     10  C   UNL     1     -11.391  -7.803  37.873  1.00  0.00     0.000 C 
BRANCH  10  11
ATOM     11  C   UNL     1     -11.307  -9.337  37.918  1.00  0.00     0.000 C 
BRANCH  11  12
ATOM     12  C   UNL     1     -10.283  -9.840  38.949  1.00  0.00     0.006 C 
BRANCH  12  13
ATOM     13  C   UNL     1     -10.526  -9.248  40.344  1.00  0.00     0.053 C 
BRANCH  13  14
ATOM     14  C   UNL     1      -9.468  -9.670  41.318  1.00  0.00     0.041 C 
ATOM     15  O   UNL     1      -8.350 -10.070  40.903  1.00  0.00    -0.550 OA
ATOM     16  O   UNL     1      -9.735  -9.664  42.681  1.00  0.00    -0.550 OA
ENDBRANCH  13  14
ENDBRANCH  12  13
ENDBRANCH  11  12
ENDBRANCH  10  11
ENDBRANCH   9  10
ENDBRANCH   8   9
ENDBRANCH   7   8
ENDBRANCH   6   7
ENDBRANCH   5   6
ENDBRANCH   4   5
ENDBRANCH   3   4
ENDBRANCH   2   3
ENDBRANCH   1   2
BRANCH   1  17
ATOM     17  C   UNL     1     -17.723  -8.244  43.040  1.00  0.00     0.000 C 
BRANCH  17  18
ATOM     18  C   UNL     1     -16.992  -8.656  44.330  1.00  0.00     0.000 C 
BRANCH  18  19
ATOM     19  C   UNL     1     -16.608 -10.149  44.424  1.00  0.00     0.000 C 
BRANCH  19  20
ATOM     20  C   UNL     1     -16.366 -10.678  45.850  1.00  0.00     0.000 C 
BRANCH  20  21
ATOM     21  C   UNL     1     -17.175  -9.920  46.917  1.00  0.00     0.000 C 
BRANCH  21  22
ATOM     22  C   UNL     1     -16.412  -9.788  48.245  1.00  0.00    -0.000 C 
BRANCH  22  23
ATOM     23  C   UNL     1     -15.370  -8.657  48.219  1.00  0.00    -0.000 C 
BRANCH  23  24
ATOM     24  C   UNL     1     -14.097  -9.015  49.003  1.00  0.00    -0.000 C 
BRANCH  24  25
ATOM     25  C   UNL     1     -12.841  -9.048  48.113  1.00  0.00    -0.000 C 
BRANCH  25  26
ATOM     26  C   UNL     1     -12.840 -10.238  47.139  1.00  0.00    -0.000 C 
BRANCH  26  27
ATOM     27  C   UNL     1     -12.251  -9.877  45.767  1.00  0.00    -0.000 C 
BRANCH  27  28
ATOM     28  C   UNL     1     -13.259  -9.084  44.927  1.00  0.00    -0.000 C 
BRANCH  28  29
ATOM     29  C   UNL     1     -12.556  -7.984  44.121  1.00  0.00    -0.003 C 
ATOM     30  C   UNL     1     -13.525  -6.861  43.759  1.00  0.00     0.004 C 
ENDBRANCH  28  29
ENDBRANCH  27  28
ENDBRANCH  26  27
ENDBRANCH  25  26
ENDBRANCH  24  25
ENDBRANCH  23  24
ENDBRANCH  22  23
ENDBRANCH  21  22
ENDBRANCH  20  21
ENDBRANCH  19  20
ENDBRANCH  18  19
ENDBRANCH  17  18
ENDBRANCH   1  17
TORSDOF 26
ENDMDL
MODEL 8
REMARK VINA RESULT:    -5.166      2.194      3.189
REMARK INTER + INTRA:         -17.188
REMARK INTER:                 -13.668
REMARK INTRA:                  -3.520
REMARK UNBOUND:                -4.170
REMARK SMILES CCCCCCCCCCCCCCCCCCCCCCCCCCCC(=O)[O-]
REMARK SMILES IDX 15 1 16 2 17 3 18 4 19 5 20 6 21 7 22 8 23 9 24 10 25 11
REMARK SMILES IDX 26 12 27 13 28 14 29 15 30 16 14 17 13 18 12 19 11 20 10 21
REMARK SMILES IDX 9 22 8 23 7 24 6 25 5 26 4 27 3 28 2 29 1 30
REMARK H PARENT
REMARK Flexibility Score: inf
ROOT
ATOM      1  C   UNL     1     -16.750  -6.729  41.968  1.00  0.00     0.000 C 
ENDROOT
BRANCH   1   2
ATOM      2  C   UNL     1     -17.730  -6.785  40.777  1.00  0.00     0.000 C 
BRANCH   2   3
ATOM      3  C   UNL     1     -17.346  -5.812  39.650  1.00  0.00     0.000 C 
BRANCH   3   4
ATOM      4  C   UNL     1     -16.627  -6.504  38.478  1.00  0.00     0.000 C 
BRANCH   4   5
ATOM      5  C   UNL     1     -15.330  -5.819  38.011  1.00  0.00     0.000 C 
BRANCH   5   6
ATOM      6  C   UNL     1     -14.064  -6.529  38.521  1.00  0.00     0.000 C 
BRANCH   6   7
ATOM      7  C   UNL     1     -13.663  -6.092  39.940  1.00  0.00     0.000 C 
BRANCH   7   8
ATOM      8  C   UNL     1     -12.288  -6.600  40.420  1.00  0.00     0.000 C 
BRANCH   8   9
ATOM      9  C   UNL     1     -11.783  -7.844  39.660  1.00  0.00     0.000 C 
BRANCH   9  10
ATOM     10  C   UNL     1     -10.707  -8.611  40.448  1.00  0.00     0.000 C 
BRANCH  10  11
ATOM     11  C   UNL     1     -10.262  -9.899  39.737  1.00  0.00     0.000 C 
BRANCH  11  12
ATOM     12  C   UNL     1      -9.331  -9.623  38.545  1.00  0.00     0.006 C 
BRANCH  12  13
ATOM     13  C   UNL     1      -9.981  -9.992  37.204  1.00  0.00     0.053 C 
BRANCH  13  14
ATOM     14  C   UNL     1     -10.304  -8.775  36.392  1.00  0.00     0.041 C 
ATOM     15  O   UNL     1     -11.467  -8.295  36.406  1.00  0.00    -0.550 OA
ATOM     16  O   UNL     1      -9.331  -8.199  35.585  1.00  0.00    -0.550 OA
ENDBRANCH  13  14
ENDBRANCH  12  13
ENDBRANCH  11  12
ENDBRANCH  10  11
ENDBRANCH   9  10
ENDBRANCH   8   9
ENDBRANCH   7   8
ENDBRANCH   6   7
ENDBRANCH   5   6
ENDBRANCH   4   5
ENDBRANCH   3   4
ENDBRANCH   2   3
ENDBRANCH   1   2
BRANCH   1  17
ATOM     17  C   UNL     1     -17.440  -6.518  43.328  1.00  0.00     0.000 C 
BRANCH  17  18
ATOM     18  C   UNL     1     -18.020  -7.796  43.962  1.00  0.00     0.000 C 
BRANCH  18  19
ATOM     19  C   UNL     1     -17.208  -9.085  43.711  1.00  0.00     0.000 C 
BRANCH  19  20
ATOM     20  C   UNL     1     -17.041 -10.007  44.933  1.00  0.00     0.000 C 
BRANCH  20  21
ATOM     21  C   UNL     1     -17.281  -9.282  46.269  1.00  0.00     0.000 C 
BRANCH  21  22
ATOM     22  C   UNL     1     -17.064 -10.203  47.481  1.00  0.00    -0.000 C 
BRANCH  22  23
ATOM     23  C   UNL     1     -15.707  -9.970  48.166  1.00  0.00    -0.000 C 
BRANCH  23  24
ATOM     24  C   UNL     1     -14.786 -11.199  48.075  1.00  0.00    -0.000 C 
BRANCH  24  25
ATOM     25  C   UNL     1     -13.609 -10.989  47.105  1.00  0.00    -0.000 C 
BRANCH  25  26
ATOM     26  C   UNL     1     -13.354  -9.504  46.801  1.00  0.00    -0.000 C 
BRANCH  26  27
ATOM     27  C   UNL     1     -13.454  -9.183  45.302  1.00  0.00    -0.000 C 
BRANCH  27  28
ATOM     28  C   UNL     1     -14.092  -7.808  45.075  1.00  0.00    -0.000 C 
BRANCH  28  29
ATOM     29  C   UNL     1     -13.506  -7.130  43.829  1.00  0.00    -0.003 C 
ATOM     30  C   UNL     1     -13.685  -5.616  43.890  1.00  0.00     0.004 C 
ENDBRANCH  28  29
ENDBRANCH  27  28
ENDBRANCH  26  27
ENDBRANCH  25  26
ENDBRANCH  24  25
ENDBRANCH  23  24
ENDBRANCH  22  23
ENDBRANCH  21  22
ENDBRANCH  20  21
ENDBRANCH  19  20
ENDBRANCH  18  19
ENDBRANCH  17  18
ENDBRANCH   1  17
TORSDOF 26
ENDMDL
MODEL 9
REMARK VINA RESULT:    -5.136      2.307      3.849
REMARK INTER + INTRA:         -17.112
REMARK INTER:                 -13.757
REMARK INTRA:                  -3.355
REMARK UNBOUND:                -4.170
REMARK SMILES CCCCCCCCCCCCCCCCCCCCCCCCCCCC(=O)[O-]
REMARK SMILES IDX 15 1 16 2 17 3 18 4 19 5 20 6 21 7 22 8 23 9 24 10 25 11
REMARK SMILES IDX 26 12 27 13 28 14 29 15 30 16 14 17 13 18 12 19 11 20 10 21
REMARK SMILES IDX 9 22 8 23 7 24 6 25 5 26 4 27 3 28 2 29 1 30
REMARK H PARENT
REMARK Flexibility Score: inf
ROOT
ATOM      1  C   UNL     1     -17.709  -7.628  44.542  1.00  0.00     0.000 C 
ENDROOT
BRANCH   1   2
ATOM      2  C   UNL     1     -17.044  -7.497  43.155  1.00  0.00     0.000 C 
BRANCH   2   3
ATOM      3  C   UNL     1     -18.066  -7.509  42.007  1.00  0.00     0.000 C 
BRANCH   3   4
ATOM      4  C   UNL     1     -17.721  -6.509  40.887  1.00  0.00     0.000 C 
BRANCH   4   5
ATOM      5  C   UNL     1     -17.602  -7.120  39.479  1.00  0.00     0.000 C 
BRANCH   5   6
ATOM      6  C   UNL     1     -16.962  -6.157  38.464  1.00  0.00     0.000 C 
BRANCH   6   7
ATOM      7  C   UNL     1     -15.426  -6.181  38.501  1.00  0.00     0.000 C 
BRANCH   7   8
ATOM      8  C   UNL     1     -14.769  -5.033  39.295  1.00  0.00     0.000 C 
BRANCH   8   9
ATOM      9  C   UNL     1     -14.149  -5.478  40.636  1.00  0.00     0.000 C 
BRANCH   9  10
ATOM     10  C   UNL     1     -12.614  -5.561  40.570  1.00  0.00     0.000 C 
BRANCH  10  11
ATOM     11  C   UNL     1     -12.097  -7.004  40.671  1.00  0.00     0.000 C 
BRANCH  11  12
ATOM     12  C   UNL     1     -12.173  -7.753  39.330  1.00  0.00     0.006 C 
BRANCH  12  13
ATOM     13  C   UNL     1     -10.938  -8.630  39.085  1.00  0.00     0.053 C 
BRANCH  13  14
ATOM     14  C   UNL     1     -10.779  -8.970  37.634  1.00  0.00     0.041 C 
ATOM     15  O   UNL     1     -11.657  -8.622  36.803  1.00  0.00    -0.550 OA
ATOM     16  O   UNL     1      -9.682  -9.708  37.209  1.00  0.00    -0.550 OA
ENDBRANCH  13  14
ENDBRANCH  12  13
ENDBRANCH  11  12
ENDBRANCH  10  11
ENDBRANCH   9  10
ENDBRANCH   8   9
ENDBRANCH   7   8
ENDBRANCH   6   7
ENDBRANCH   5   6
ENDBRANCH   4   5
ENDBRANCH   3   4
ENDBRANCH   2   3
ENDBRANCH   1   2
BRANCH   1  17
ATOM     17  C   UNL     1     -17.609  -9.040  45.146  1.00  0.00     0.000 C 
BRANCH  17  18
ATOM     18  C   UNL     1     -16.972 -10.095  44.222  1.00  0.00     0.000 C 
BRANCH  18  19
ATOM     19  C   UNL     1     -15.816 -10.907  44.845  1.00  0.00     0.000 C 
BRANCH  19  20
ATOM     20  C   UNL     1     -14.951 -10.145  45.865  1.00  0.00     0.000 C 
BRANCH  20  21
ATOM     21  C   UNL     1     -14.265 -11.073  46.883  1.00  0.00     0.000 C 
BRANCH  21  22
ATOM     22  C   UNL     1     -15.041 -11.164  48.207  1.00  0.00    -0.000 C 
BRANCH  22  23
ATOM     23  C   UNL     1     -16.010  -9.986  48.408  1.00  0.00    -0.000 C 
BRANCH  23  24
ATOM     24  C   UNL     1     -15.759  -9.240  49.729  1.00  0.00    -0.000 C 
BRANCH  24  25
ATOM     25  C   UNL     1     -15.593  -7.722  49.532  1.00  0.00    -0.000 C 
BRANCH  25  26
ATOM     26  C   UNL     1     -15.632  -7.312  48.051  1.00  0.00    -0.000 C 
BRANCH  26  27
ATOM     27  C   UNL     1     -14.255  -6.888  47.519  1.00  0.00    -0.000 C 
BRANCH  27  28
ATOM     28  C   UNL     1     -13.171  -7.072  48.588  1.00  0.00    -0.000 C 
BRANCH  28  29
ATOM     29  C   UNL     1     -12.164  -8.150  48.167  1.00  0.00    -0.003 C 
ATOM     30  C   UNL     1     -11.927  -8.126  46.659  1.00  0.00     0.004 C 
ENDBRANCH  28  29
ENDBRANCH  27  28
ENDBRANCH  26  27
ENDBRANCH  25  26
ENDBRANCH  24  25
ENDBRANCH  23  24
ENDBRANCH  22  23
ENDBRANCH  21  22
ENDBRANCH  20  21
ENDBRANCH  19  20
ENDBRANCH  18  19
ENDBRANCH  17  18
ENDBRANCH   1  17
TORSDOF 26
ENDMDL
