MODEL 1
REMARK VINA RESULT:    -4.476      0.000      0.000
REMARK INTER + INTRA:          -7.059
REMARK INTER:                  -6.831
REMARK INTRA:                  -0.227
REMARK UNBOUND:                -0.227
REMARK SMILES O=C([O-])CCCCCCCCC(=O)[O-]
REMARK SMILES IDX 7 1 6 2 5 3 4 4 2 5 1 6 3 7 8 8 9 9 10 10 11 11 12 12 13 13
REMARK SMILES IDX 14 14
REMARK H PARENT
REMARK Flexibility Score: inf
ROOT
ATOM      1  C   UNL     1      25.005   7.664   5.850  1.00  0.00     0.000 C 
ENDROOT
BRANCH   1   2
ATOM      2  C   UNL     1      26.365   7.405   5.178  1.00  0.00     0.000 C 
BRANCH   2   3
ATOM      3  C   UNL     1      26.901   5.988   5.433  1.00  0.00     0.006 C 
BRANCH   3   4
ATOM      4  C   UNL     1      27.980   5.997   6.521  1.00  0.00     0.053 C 
BRANCH   4   5
ATOM      5  C   UNL     1      27.607   5.071   7.635  1.00  0.00     0.041 C 
ATOM      6  O   UNL     1      27.233   3.896   7.384  1.00  0.00    -0.550 OA
ATOM      7  O   UNL     1      27.717   5.492   8.955  1.00  0.00    -0.550 OA
ENDBRANCH   4   5
ENDBRANCH   3   4
ENDBRANCH   2   3
ENDBRANCH   1   2
BRANCH   1   8
ATOM      8  C   UNL     1      24.195   8.833   5.259  1.00  0.00     0.000 C 
BRANCH   8   9
ATOM      9  C   UNL     1      24.839  10.204   5.530  1.00  0.00     0.000 C 
BRANCH   9  10
ATOM     10  C   UNL     1      23.909  11.373   5.167  1.00  0.00     0.006 C 
BRANCH  10  11
ATOM     11  C   UNL     1      24.273  12.669   5.905  1.00  0.00     0.053 C 
BRANCH  11  12
ATOM     12  C   UNL     1      23.065  13.539   6.056  1.00  0.00     0.041 C 
ATOM     13  O   UNL     1      23.064  14.709   5.588  1.00  0.00    -0.550 OA
ATOM     14  O   UNL     1      21.922  13.042   6.668  1.00  0.00    -0.550 OA
ENDBRANCH  11  12
ENDBRANCH  10  11
ENDBRANCH   9  10
ENDBRANCH   8   9
ENDBRANCH   1   8
TORSDOF 9
ENDMDL
MODEL 2
REMARK VINA RESULT:    -4.419     12.399     15.752
REMARK INTER + INTRA:          -6.972
REMARK INTER:                  -6.327
REMARK INTRA:                  -0.644
REMARK UNBOUND:                -0.227
REMARK SMILES O=C([O-])CCCCCCCCC(=O)[O-]
REMARK SMILES IDX 7 1 6 2 5 3 4 4 2 5 1 6 3 7 8 8 9 9 10 10 11 11 12 12 13 13
REMARK SMILES IDX 14 14
REMARK H PARENT
REMARK Flexibility Score: inf
ROOT
ATOM      1  C   UNL     1      15.471  16.158  -0.735  1.00  0.00     0.000 C 
ENDROOT
BRANCH   1   2
ATOM      2  C   UNL     1      16.197  16.959  -1.831  1.00  0.00     0.000 C 
BRANCH   2   3
ATOM      3  C   UNL     1      15.265  17.912  -2.595  1.00  0.00     0.006 C 
BRANCH   3   4
ATOM      4  C   UNL     1      14.002  17.185  -3.063  1.00  0.00     0.053 C 
BRANCH   4   5
ATOM      5  C   UNL     1      13.697  17.529  -4.487  1.00  0.00     0.041 C 
ATOM      6  O   UNL     1      14.323  16.965  -5.422  1.00  0.00    -0.550 OA
ATOM      7  O   UNL     1      12.690  18.439  -4.782  1.00  0.00    -0.550 OA
ENDBRANCH   4   5
ENDBRANCH   3   4
ENDBRANCH   2   3
ENDBRANCH   1   2
BRANCH   1   8
ATOM      8  C   UNL     1      15.065  16.969   0.509  1.00  0.00     0.000 C 
BRANCH   8   9
ATOM      9  C   UNL     1      16.238  17.208   1.477  1.00  0.00     0.000 C 
BRANCH   9  10
ATOM     10  C   UNL     1      16.746  18.658   1.439  1.00  0.00     0.006 C 
BRANCH  10  11
ATOM     11  C   UNL     1      18.059  18.805   0.658  1.00  0.00     0.053 C 
BRANCH  11  12
ATOM     12  C   UNL     1      18.991  17.683   0.990  1.00  0.00     0.041 C 
ATOM     13  O   UNL     1      19.583  17.659   2.102  1.00  0.00    -0.550 OA
ATOM     14  O   UNL     1      19.169  16.638   0.093  1.00  0.00    -0.550 OA
ENDBRANCH  11  12
ENDBRANCH  10  11
ENDBRANCH   9  10
ENDBRANCH   8   9
ENDBRANCH   1   8
TORSDOF 9
ENDMDL
MODEL 3
REMARK VINA RESULT:    -4.379     13.183     14.921
REMARK INTER + INTRA:          -6.910
REMARK INTER:                  -6.042
REMARK INTRA:                  -0.869
REMARK UNBOUND:                -0.227
REMARK SMILES O=C([O-])CCCCCCCCC(=O)[O-]
REMARK SMILES IDX 7 1 6 2 5 3 4 4 2 5 1 6 3 7 8 8 9 9 10 10 11 11 12 12 13 13
REMARK SMILES IDX 14 14
REMARK H PARENT
REMARK Flexibility Score: inf
ROOT
ATOM      1  C   UNL     1      14.410   2.266   2.514  1.00  0.00     0.000 C 
ENDROOT
BRANCH   1   2
ATOM      2  C   UNL     1      13.242   2.297   1.511  1.00  0.00     0.000 C 
BRANCH   2   3
ATOM      3  C   UNL     1      13.102   3.648   0.793  1.00  0.00     0.006 C 
BRANCH   3   4
ATOM      4  C   UNL     1      12.830   4.775   1.794  1.00  0.00     0.053 C 
BRANCH   4   5
ATOM      5  C   UNL     1      11.498   4.582   2.449  1.00  0.00     0.041 C 
ATOM      6  O   UNL     1      11.420   4.464   3.700  1.00  0.00    -0.550 OA
ATOM      7  O   UNL     1      10.340   4.580   1.682  1.00  0.00    -0.550 OA
ENDBRANCH   4   5
ENDBRANCH   3   4
ENDBRANCH   2   3
ENDBRANCH   1   2
BRANCH   1   8
ATOM      8  C   UNL     1      15.780   1.904   1.912  1.00  0.00     0.000 C 
BRANCH   8   9
ATOM      9  C   UNL     1      15.674   0.932   0.724  1.00  0.00     0.000 C 
BRANCH   9  10
ATOM     10  C   UNL     1      16.537   1.367  -0.471  1.00  0.00     0.006 C 
BRANCH  10  11
ATOM     11  C   UNL     1      15.702   1.927  -1.632  1.00  0.00     0.053 C 
BRANCH  11  12
ATOM     12  C   UNL     1      15.726   3.423  -1.617  1.00  0.00     0.041 C 
ATOM     13  O   UNL     1      15.041   4.075  -2.448  1.00  0.00    -0.550 OA
ATOM     14  O   UNL     1      16.466   4.097  -0.654  1.00  0.00    -0.550 OA
ENDBRANCH  11  12
ENDBRANCH  10  11
ENDBRANCH   9  10
ENDBRANCH   8   9
ENDBRANCH   1   8
TORSDOF 9
ENDMDL
MODEL 4
REMARK VINA RESULT:    -4.358     13.938     14.894
REMARK INTER + INTRA:          -6.879
REMARK INTER:                  -6.143
REMARK INTRA:                  -0.736
REMARK UNBOUND:                -0.227
REMARK SMILES O=C([O-])CCCCCCCCC(=O)[O-]
REMARK SMILES IDX 7 1 6 2 5 3 4 4 2 5 1 6 3 7 8 8 9 9 10 10 11 11 12 12 13 13
REMARK SMILES IDX 14 14
REMARK H PARENT
REMARK Flexibility Score: inf
ROOT
ATOM      1  C   UNL     1      15.793   1.787   0.942  1.00  0.00     0.000 C 
ENDROOT
BRANCH   1   2
ATOM      2  C   UNL     1      16.361   2.264  -0.406  1.00  0.00     0.000 C 
BRANCH   2   3
ATOM      3  C   UNL     1      15.925   3.692  -0.770  1.00  0.00     0.006 C 
BRANCH   3   4
ATOM      4  C   UNL     1      15.167   3.712  -2.100  1.00  0.00     0.053 C 
BRANCH   4   5
ATOM      5  C   UNL     1      13.932   2.872  -2.011  1.00  0.00     0.041 C 
ATOM      6  O   UNL     1      12.946   3.267  -1.336  1.00  0.00    -0.550 OA
ATOM      7  O   UNL     1      13.852   1.676  -2.713  1.00  0.00    -0.550 OA
ENDBRANCH   4   5
ENDBRANCH   3   4
ENDBRANCH   2   3
ENDBRANCH   1   2
BRANCH   1   8
ATOM      8  C   UNL     1      15.391   2.908   1.918  1.00  0.00     0.000 C 
BRANCH   8   9
ATOM      9  C   UNL     1      13.871   2.988   2.144  1.00  0.00     0.000 C 
BRANCH   9  10
ATOM     10  C   UNL     1      13.309   4.395   1.881  1.00  0.00     0.006 C 
BRANCH  10  11
ATOM     11  C   UNL     1      11.967   4.638   2.585  1.00  0.00     0.053 C 
BRANCH  11  12
ATOM     12  C   UNL     1      10.837   4.502   1.613  1.00  0.00     0.041 C 
ATOM     13  O   UNL     1      10.057   3.516   1.682  1.00  0.00    -0.550 OA
ATOM     14  O   UNL     1      10.616   5.491   0.663  1.00  0.00    -0.550 OA
ENDBRANCH  11  12
ENDBRANCH  10  11
ENDBRANCH   9  10
ENDBRANCH   8   9
ENDBRANCH   1   8
TORSDOF 9
ENDMDL
MODEL 5
REMARK VINA RESULT:    -4.356     12.128     15.255
REMARK INTER + INTRA:          -6.876
REMARK INTER:                  -6.143
REMARK INTRA:                  -0.733
REMARK UNBOUND:                -0.227
REMARK SMILES O=C([O-])CCCCCCCCC(=O)[O-]
REMARK SMILES IDX 7 1 6 2 5 3 4 4 2 5 1 6 3 7 8 8 9 9 10 10 11 11 12 12 13 13
REMARK SMILES IDX 14 14
REMARK H PARENT
REMARK Flexibility Score: inf
ROOT
ATOM      1  C   UNL     1      15.669  16.297  -0.507  1.00  0.00     0.000 C 
ENDROOT
BRANCH   1   2
ATOM      2  C   UNL     1      15.445  17.309   0.631  1.00  0.00     0.000 C 
BRANCH   2   3
ATOM      3  C   UNL     1      16.547  17.264   1.700  1.00  0.00     0.006 C 
BRANCH   3   4
ATOM      4  C   UNL     1      17.709  18.191   1.329  1.00  0.00     0.053 C 
BRANCH   4   5
ATOM      5  C   UNL     1      18.972  17.407   1.165  1.00  0.00     0.041 C 
ATOM      6  O   UNL     1      19.170  16.738   0.117  1.00  0.00    -0.550 OA
ATOM      7  O   UNL     1      19.952  17.454   2.149  1.00  0.00    -0.550 OA
ENDBRANCH   4   5
ENDBRANCH   3   4
ENDBRANCH   2   3
ENDBRANCH   1   2
BRANCH   1   8
ATOM      8  C   UNL     1      16.091  16.910  -1.854  1.00  0.00     0.000 C 
BRANCH   8   9
ATOM      9  C   UNL     1      16.027  18.448  -1.859  1.00  0.00     0.000 C 
BRANCH   9  10
ATOM     10  C   UNL     1      15.033  18.993  -2.897  1.00  0.00     0.006 C 
BRANCH  10  11
ATOM     11  C   UNL     1      13.788  18.107  -3.045  1.00  0.00     0.053 C 
BRANCH  11  12
ATOM     12  C   UNL     1      13.414  17.972  -4.488  1.00  0.00     0.041 C 
ATOM     13  O   UNL     1      12.438  18.618  -4.952  1.00  0.00    -0.550 OA
ATOM     14  O   UNL     1      14.173  17.172  -5.331  1.00  0.00    -0.550 OA
ENDBRANCH  11  12
ENDBRANCH  10  11
ENDBRANCH   9  10
ENDBRANCH   8   9
ENDBRANCH   1   8
TORSDOF 9
ENDMDL
MODEL 6
REMARK VINA RESULT:    -4.348     13.957     16.136
REMARK INTER + INTRA:          -6.863
REMARK INTER:                  -6.410
REMARK INTRA:                  -0.454
REMARK UNBOUND:                -0.227
REMARK SMILES O=C([O-])CCCCCCCCC(=O)[O-]
REMARK SMILES IDX 7 1 6 2 5 3 4 4 2 5 1 6 3 7 8 8 9 9 10 10 11 11 12 12 13 13
REMARK SMILES IDX 14 14
REMARK H PARENT
REMARK Flexibility Score: inf
ROOT
ATOM      1  C   UNL     1      12.378   4.440   2.688  1.00  0.00     0.000 C 
ENDROOT
BRANCH   1   2
ATOM      2  C   UNL     1      11.032   4.887   2.090  1.00  0.00     0.000 C 
BRANCH   2   3
ATOM      3  C   UNL     1      11.021   4.869   0.554  1.00  0.00     0.006 C 
BRANCH   3   4
ATOM      4  C   UNL     1       9.986   5.852   0.001  1.00  0.00     0.053 C 
BRANCH   4   5
ATOM      5  C   UNL     1       9.692   5.551  -1.435  1.00  0.00     0.041 C 
ATOM      6  O   UNL     1       9.311   4.400  -1.774  1.00  0.00    -0.550 OA
ATOM      7  O   UNL     1       9.794   6.554  -2.390  1.00  0.00    -0.550 OA
ENDBRANCH   4   5
ENDBRANCH   3   4
ENDBRANCH   2   3
ENDBRANCH   1   2
BRANCH   1   8
ATOM      8  C   UNL     1      13.514   4.241   1.668  1.00  0.00     0.000 C 
BRANCH   8   9
ATOM      9  C   UNL     1      14.351   2.979   1.943  1.00  0.00     0.000 C 
BRANCH   9  10
ATOM     10  C   UNL     1      15.715   3.012   1.237  1.00  0.00     0.006 C 
BRANCH  10  11
ATOM     11  C   UNL     1      15.784   4.075   0.132  1.00  0.00     0.053 C 
BRANCH  11  12
ATOM     12  C   UNL     1      15.913   3.425  -1.210  1.00  0.00     0.041 C 
ATOM     13  O   UNL     1      16.565   2.355  -1.335  1.00  0.00    -0.550 OA
ATOM     14  O   UNL     1      15.273   3.974  -2.313  1.00  0.00    -0.550 OA
ENDBRANCH  11  12
ENDBRANCH  10  11
ENDBRANCH   9  10
ENDBRANCH   8   9
ENDBRANCH   1   8
TORSDOF 9
ENDMDL
MODEL 7
REMARK VINA RESULT:    -4.333     13.557     16.918
REMARK INTER + INTRA:          -6.841
REMARK INTER:                  -6.268
REMARK INTRA:                  -0.573
REMARK UNBOUND:                -0.227
REMARK SMILES O=C([O-])CCCCCCCCC(=O)[O-]
REMARK SMILES IDX 7 1 6 2 5 3 4 4 2 5 1 6 3 7 8 8 9 9 10 10 11 11 12 12 13 13
REMARK SMILES IDX 14 14
REMARK H PARENT
REMARK Flexibility Score: inf
ROOT
ATOM      1  C   UNL     1      14.209  17.967  -3.043  1.00  0.00     0.000 C 
ENDROOT
BRANCH   1   2
ATOM      2  C   UNL     1      13.801  17.958  -4.526  1.00  0.00     0.000 C 
BRANCH   2   3
ATOM      3  C   UNL     1      13.764  16.546  -5.130  1.00  0.00     0.006 C 
BRANCH   3   4
ATOM      4  C   UNL     1      12.751  15.662  -4.398  1.00  0.00     0.053 C 
BRANCH   4   5
ATOM      5  C   UNL     1      12.155  14.660  -5.336  1.00  0.00     0.041 C 
ATOM      6  O   UNL     1      11.235  15.001  -6.125  1.00  0.00    -0.550 OA
ATOM      7  O   UNL     1      12.648  13.362  -5.372  1.00  0.00    -0.550 OA
ENDBRANCH   4   5
ENDBRANCH   3   4
ENDBRANCH   2   3
ENDBRANCH   1   2
BRANCH   1   8
ATOM      8  C   UNL     1      15.170  19.099  -2.635  1.00  0.00     0.000 C 
BRANCH   8   9
ATOM      9  C   UNL     1      16.451  18.582  -1.958  1.00  0.00     0.000 C 
BRANCH   9  10
ATOM     10  C   UNL     1      16.522  17.046  -1.926  1.00  0.00     0.006 C 
BRANCH  10  11
ATOM     11  C   UNL     1      17.102  16.508  -0.611  1.00  0.00     0.053 C 
BRANCH  11  12
ATOM     12  C   UNL     1      16.145  16.742   0.515  1.00  0.00     0.041 C 
ATOM     13  O   UNL     1      14.933  16.426   0.392  1.00  0.00    -0.550 OA
ATOM     14  O   UNL     1      16.602  17.264   1.718  1.00  0.00    -0.550 OA
ENDBRANCH  11  12
ENDBRANCH  10  11
ENDBRANCH   9  10
ENDBRANCH   8   9
ENDBRANCH   1   8
TORSDOF 9
ENDMDL
MODEL 8
REMARK VINA RESULT:    -4.319     13.615     15.126
REMARK INTER + INTRA:          -6.819
REMARK INTER:                  -5.786
REMARK INTRA:                  -1.033
REMARK UNBOUND:                -0.227
REMARK SMILES O=C([O-])CCCCCCCCC(=O)[O-]
REMARK SMILES IDX 7 1 6 2 5 3 4 4 2 5 1 6 3 7 8 8 9 9 10 10 11 11 12 12 13 13
REMARK SMILES IDX 14 14
REMARK H PARENT
REMARK Flexibility Score: inf
ROOT
ATOM      1  C   UNL     1      16.826   0.995  -2.354  1.00  0.00     0.000 C 
ENDROOT
BRANCH   1   2
ATOM      2  C   UNL     1      15.733  -0.022  -2.729  1.00  0.00     0.000 C 
BRANCH   2   3
ATOM      3  C   UNL     1      14.435   0.170  -1.931  1.00  0.00     0.006 C 
BRANCH   3   4
ATOM      4  C   UNL     1      13.462   1.086  -2.679  1.00  0.00     0.053 C 
BRANCH   4   5
ATOM      5  C   UNL     1      13.321   2.394  -1.966  1.00  0.00     0.041 C 
ATOM      6  O   UNL     1      13.831   3.438  -2.452  1.00  0.00    -0.550 OA
ATOM      7  O   UNL     1      12.587   2.469  -0.789  1.00  0.00    -0.550 OA
ENDBRANCH   4   5
ENDBRANCH   3   4
ENDBRANCH   2   3
ENDBRANCH   1   2
BRANCH   1   8
ATOM      8  C   UNL     1      16.907   1.348  -0.857  1.00  0.00     0.000 C 
BRANCH   8   9
ATOM      9  C   UNL     1      16.694   2.847  -0.583  1.00  0.00     0.000 C 
BRANCH   9  10
ATOM     10  C   UNL     1      15.821   3.101   0.655  1.00  0.00     0.006 C 
BRANCH  10  11
ATOM     11  C   UNL     1      15.445   1.807   1.391  1.00  0.00     0.053 C 
BRANCH  11  12
ATOM     12  C   UNL     1      14.624   2.116   2.603  1.00  0.00     0.041 C 
ATOM     13  O   UNL     1      14.951   1.648   3.725  1.00  0.00    -0.550 OA
ATOM     14  O   UNL     1      13.527   2.962   2.503  1.00  0.00    -0.550 OA
ENDBRANCH  11  12
ENDBRANCH  10  11
ENDBRANCH   9  10
ENDBRANCH   8   9
ENDBRANCH   1   8
TORSDOF 9
ENDMDL
MODEL 9
REMARK VINA RESULT:    -4.319     13.670     15.104
REMARK INTER + INTRA:          -6.818
REMARK INTER:                  -5.713
REMARK INTRA:                  -1.105
REMARK UNBOUND:                -0.227
REMARK SMILES O=C([O-])CCCCCCCCC(=O)[O-]
REMARK SMILES IDX 7 1 6 2 5 3 4 4 2 5 1 6 3 7 8 8 9 9 10 10 11 11 12 12 13 13
REMARK SMILES IDX 14 14
REMARK H PARENT
REMARK Flexibility Score: inf
ROOT
ATOM      1  C   UNL     1      16.745   1.524  -1.880  1.00  0.00     0.000 C 
ENDROOT
BRANCH   1   2
ATOM      2  C   UNL     1      16.530   1.493  -0.356  1.00  0.00     0.000 C 
BRANCH   2   3
ATOM      3  C   UNL     1      16.171   2.868   0.227  1.00  0.00     0.006 C 
BRANCH   3   4
ATOM      4  C   UNL     1      15.517   2.725   1.605  1.00  0.00     0.053 C 
BRANCH   4   5
ATOM      5  C   UNL     1      14.369   3.674   1.740  1.00  0.00     0.041 C 
ATOM      6  O   UNL     1      14.461   4.847   1.291  1.00  0.00    -0.550 OA
ATOM      7  O   UNL     1      13.180   3.250   2.320  1.00  0.00    -0.550 OA
ENDBRANCH   4   5
ENDBRANCH   3   4
ENDBRANCH   2   3
ENDBRANCH   1   2
BRANCH   1   8
ATOM      8  C   UNL     1      16.133   0.340  -2.652  1.00  0.00     0.000 C 
BRANCH   8   9
ATOM      9  C   UNL     1      14.803  -0.144  -2.049  1.00  0.00     0.000 C 
BRANCH   9  10
ATOM     10  C   UNL     1      13.610   0.727  -2.477  1.00  0.00     0.006 C 
BRANCH  10  11
ATOM     11  C   UNL     1      12.903   1.389  -1.287  1.00  0.00     0.053 C 
BRANCH  11  12
ATOM     12  C   UNL     1      12.836   2.871  -1.480  1.00  0.00     0.041 C 
ATOM     13  O   UNL     1      13.679   3.454  -2.213  1.00  0.00    -0.550 OA
ATOM     14  O   UNL     1      11.814   3.604  -0.891  1.00  0.00    -0.550 OA
ENDBRANCH  11  12
ENDBRANCH  10  11
ENDBRANCH   9  10
ENDBRANCH   8   9
ENDBRANCH   1   8
TORSDOF 9
ENDMDL
