MODEL 1
REMARK VINA RESULT:    -5.683      0.000      0.000
REMARK INTER + INTRA:          -5.849
REMARK INTER:                  -5.849
REMARK INTRA:                   0.000
REMARK UNBOUND:                 0.000
REMARK SMILES O=c1ccc2ccc(O)cc2o1
REMARK SMILES IDX 6 1 7 2 8 3 10 4 11 5 5 6 4 7 3 8 2 9 1 10 12 11 9 12
REMARK H PARENT 9 13
REMARK Flexibility Score: inf
ROOT
ATOM      1  C   UNL     1     -14.235  44.689  31.562  1.00  0.00     0.016 A 
ATOM      2  C   UNL     1     -13.265  44.694  32.570  1.00  0.00     0.047 A 
ATOM      3  C   UNL     1     -13.635  44.503  33.907  1.00  0.00     0.119 A 
ATOM      4  C   UNL     1     -14.983  44.305  34.239  1.00  0.00     0.094 A 
ATOM      5  C   UNL     1     -15.960  44.299  33.237  1.00  0.00     0.142 A 
ATOM      6  C   UNL     1     -15.583  44.491  31.889  1.00  0.00     0.018 A 
ATOM      7  C   UNL     1     -16.581  44.479  30.910  1.00  0.00     0.019 A 
ATOM      8  C   UNL     1     -17.908  44.280  31.288  1.00  0.00     0.094 A 
ATOM      9  C   UNL     1     -18.208  44.096  32.642  1.00  0.00     0.336 A 
ATOM     10  O   UNL     1     -19.399  43.913  33.003  1.00  0.00    -0.246 OA
ATOM     11  O   UNL     1     -17.238  44.111  33.554  1.00  0.00    -0.423 OA
ENDROOT
BRANCH   3  12
ATOM     12  O   UNL     1     -12.655  44.512  34.898  1.00  0.00    -0.508 OA
ATOM     13  H   UNL     1     -12.825  44.116  35.814  1.00  0.00     0.293 HD
ENDBRANCH   3  12
TORSDOF 1
ENDMDL
MODEL 2
REMARK VINA RESULT:    -5.472      1.638      4.559
REMARK INTER + INTRA:          -5.632
REMARK INTER:                  -5.632
REMARK INTRA:                   0.000
REMARK UNBOUND:                 0.000
REMARK SMILES O=c1ccc2ccc(O)cc2o1
REMARK SMILES IDX 6 1 7 2 8 3 10 4 11 5 5 6 4 7 3 8 2 9 1 10 12 11 9 12
REMARK H PARENT 9 13
REMARK Flexibility Score: inf
ROOT
ATOM      1  C   UNL     1     -17.781  42.084  33.005  1.00  0.00     0.016 A 
ATOM      2  C   UNL     1     -18.998  42.741  33.215  1.00  0.00     0.047 A 
ATOM      3  C   UNL     1     -19.022  44.116  33.483  1.00  0.00     0.119 A 
ATOM      4  C   UNL     1     -17.821  44.838  33.541  1.00  0.00     0.094 A 
ATOM      5  C   UNL     1     -16.599  44.188  33.333  1.00  0.00     0.142 A 
ATOM      6  C   UNL     1     -16.579  42.802  33.063  1.00  0.00     0.018 A 
ATOM      7  C   UNL     1     -15.343  42.181  32.858  1.00  0.00     0.019 A 
ATOM      8  C   UNL     1     -14.176  42.940  32.927  1.00  0.00     0.094 A 
ATOM      9  C   UNL     1     -14.272  44.309  33.199  1.00  0.00     0.336 A 
ATOM     10  O   UNL     1     -13.230  45.011  33.264  1.00  0.00    -0.246 OA
ATOM     11  O   UNL     1     -15.461  44.876  33.389  1.00  0.00    -0.423 OA
ENDROOT
BRANCH   3  12
ATOM     12  O   UNL     1     -20.243  44.753  33.690  1.00  0.00    -0.508 OA
ATOM     13  H   UNL     1     -20.293  45.700  34.047  1.00  0.00     0.293 HD
ENDBRANCH   3  12
TORSDOF 1
ENDMDL
MODEL 3
REMARK VINA RESULT:    -5.461      3.485      4.927
REMARK INTER + INTRA:          -5.621
REMARK INTER:                  -5.621
REMARK INTRA:                   0.000
REMARK UNBOUND:                 0.000
REMARK SMILES O=c1ccc2ccc(O)cc2o1
REMARK SMILES IDX 6 1 7 2 8 3 10 4 11 5 5 6 4 7 3 8 2 9 1 10 12 11 9 12
REMARK H PARENT 9 13
REMARK Flexibility Score: inf
ROOT
ATOM      1  C   UNL     1     -18.577  41.539  33.363  1.00  0.00     0.016 A 
ATOM      2  C   UNL     1     -19.333  42.616  33.835  1.00  0.00     0.047 A 
ATOM      3  C   UNL     1     -19.283  43.855  33.184  1.00  0.00     0.119 A 
ATOM      4  C   UNL     1     -18.470  44.018  32.053  1.00  0.00     0.094 A 
ATOM      5  C   UNL     1     -17.709  42.945  31.574  1.00  0.00     0.142 A 
ATOM      6  C   UNL     1     -17.763  41.697  32.233  1.00  0.00     0.018 A 
ATOM      7  C   UNL     1     -16.993  40.645  31.730  1.00  0.00     0.019 A 
ATOM      8  C   UNL     1     -16.200  40.854  30.603  1.00  0.00     0.094 A 
ATOM      9  C   UNL     1     -16.196  42.118  30.002  1.00  0.00     0.336 A 
ATOM     10  O   UNL     1     -15.487  42.326  28.983  1.00  0.00    -0.246 OA
ATOM     11  O   UNL     1     -16.939  43.103  30.500  1.00  0.00    -0.423 OA
ENDROOT
BRANCH   3  12
ATOM     12  O   UNL     1     -20.044  44.917  33.670  1.00  0.00    -0.508 OA
ATOM     13  H   UNL     1     -21.050  44.942  33.557  1.00  0.00     0.293 HD
ENDBRANCH   3  12
TORSDOF 1
ENDMDL
MODEL 4
REMARK VINA RESULT:    -5.416      3.070      4.497
REMARK INTER + INTRA:          -5.575
REMARK INTER:                  -5.575
REMARK INTRA:                   0.000
REMARK UNBOUND:                 0.000
REMARK SMILES O=c1ccc2ccc(O)cc2o1
REMARK SMILES IDX 6 1 7 2 8 3 10 4 11 5 5 6 4 7 3 8 2 9 1 10 12 11 9 12
REMARK H PARENT 9 13
REMARK Flexibility Score: inf
ROOT
ATOM      1  C   UNL     1     -16.783  44.046  32.578  1.00  0.00     0.016 A 
ATOM      2  C   UNL     1     -17.853  44.763  33.123  1.00  0.00     0.047 A 
ATOM      3  C   UNL     1     -19.073  44.126  33.383  1.00  0.00     0.119 A 
ATOM      4  C   UNL     1     -19.224  42.762  33.095  1.00  0.00     0.094 A 
ATOM      5  C   UNL     1     -18.159  42.036  32.548  1.00  0.00     0.142 A 
ATOM      6  C   UNL     1     -16.930  42.682  32.289  1.00  0.00     0.018 A 
ATOM      7  C   UNL     1     -15.885  41.931  31.743  1.00  0.00     0.019 A 
ATOM      8  C   UNL     1     -16.083  40.578  31.473  1.00  0.00     0.094 A 
ATOM      9  C   UNL     1     -17.328  40.004  31.756  1.00  0.00     0.336 A 
ATOM     10  O   UNL     1     -17.526  38.784  31.521  1.00  0.00    -0.246 OA
ATOM     11  O   UNL     1     -18.306  40.742  32.276  1.00  0.00    -0.423 OA
ENDROOT
BRANCH   3  12
ATOM     12  O   UNL     1     -20.127  44.857  33.926  1.00  0.00    -0.508 OA
ATOM     13  H   UNL     1     -20.270  45.833  33.694  1.00  0.00     0.293 HD
ENDBRANCH   3  12
TORSDOF 1
ENDMDL
MODEL 5
REMARK VINA RESULT:    -5.380      2.115      4.766
REMARK INTER + INTRA:          -5.537
REMARK INTER:                  -5.537
REMARK INTRA:                   0.000
REMARK UNBOUND:                 0.000
REMARK SMILES O=c1ccc2ccc(O)cc2o1
REMARK SMILES IDX 6 1 7 2 8 3 10 4 11 5 5 6 4 7 3 8 2 9 1 10 12 11 9 12
REMARK H PARENT 9 13
REMARK Flexibility Score: inf
ROOT
ATOM      1  C   UNL     1     -16.192  44.498  33.487  1.00  0.00     0.016 A 
ATOM      2  C   UNL     1     -17.509  44.325  33.049  1.00  0.00     0.047 A 
ATOM      3  C   UNL     1     -17.788  44.188  31.684  1.00  0.00     0.119 A 
ATOM      4  C   UNL     1     -16.743  44.223  30.749  1.00  0.00     0.094 A 
ATOM      5  C   UNL     1     -15.422  44.396  31.178  1.00  0.00     0.142 A 
ATOM      6  C   UNL     1     -15.144  44.534  32.557  1.00  0.00     0.018 A 
ATOM      7  C   UNL     1     -13.815  44.704  32.955  1.00  0.00     0.019 A 
ATOM      8  C   UNL     1     -12.810  44.733  31.989  1.00  0.00     0.094 A 
ATOM      9  C   UNL     1     -13.159  44.591  30.642  1.00  0.00     0.336 A 
ATOM     10  O   UNL     1     -12.266  44.614  29.756  1.00  0.00    -0.246 OA
ATOM     11  O   UNL     1     -14.432  44.430  30.289  1.00  0.00    -0.423 OA
ENDROOT
BRANCH   3  12
ATOM     12  O   UNL     1     -19.107  44.017  31.267  1.00  0.00    -0.508 OA
ATOM     13  H   UNL     1     -19.515  43.096  31.166  1.00  0.00     0.293 HD
ENDBRANCH   3  12
TORSDOF 1
ENDMDL
MODEL 6
REMARK VINA RESULT:    -5.379      1.408      1.444
REMARK INTER + INTRA:          -5.537
REMARK INTER:                  -5.537
REMARK INTRA:                   0.000
REMARK UNBOUND:                 0.000
REMARK SMILES O=c1ccc2ccc(O)cc2o1
REMARK SMILES IDX 6 1 7 2 8 3 10 4 11 5 5 6 4 7 3 8 2 9 1 10 12 11 9 12
REMARK H PARENT 9 13
REMARK Flexibility Score: inf
ROOT
ATOM      1  C   UNL     1     -14.632  42.334  32.451  1.00  0.00     0.016 A 
ATOM      2  C   UNL     1     -13.571  42.928  33.143  1.00  0.00     0.047 A 
ATOM      3  C   UNL     1     -13.811  43.980  34.036  1.00  0.00     0.119 A 
ATOM      4  C   UNL     1     -15.120  44.442  34.238  1.00  0.00     0.094 A 
ATOM      5  C   UNL     1     -16.187  43.854  33.550  1.00  0.00     0.142 A 
ATOM      6  C   UNL     1     -15.941  42.792  32.650  1.00  0.00     0.018 A 
ATOM      7  C   UNL     1     -17.027  42.224  31.978  1.00  0.00     0.019 A 
ATOM      8  C   UNL     1     -18.310  42.717  32.211  1.00  0.00     0.094 A 
ATOM      9  C   UNL     1     -18.478  43.771  33.116  1.00  0.00     0.336 A 
ATOM     10  O   UNL     1     -19.629  44.229  33.340  1.00  0.00    -0.246 OA
ATOM     11  O   UNL     1     -17.427  44.294  33.744  1.00  0.00    -0.423 OA
ENDROOT
BRANCH   3  12
ATOM     12  O   UNL     1     -12.741  44.560  34.716  1.00  0.00    -0.508 OA
ATOM     13  H   UNL     1     -12.158  45.265  34.283  1.00  0.00     0.293 HD
ENDBRANCH   3  12
TORSDOF 1
ENDMDL
MODEL 7
REMARK VINA RESULT:    -5.342      2.027      2.610
REMARK INTER + INTRA:          -5.498
REMARK INTER:                  -5.498
REMARK INTRA:                   0.000
REMARK UNBOUND:                 0.000
REMARK SMILES O=c1ccc2ccc(O)cc2o1
REMARK SMILES IDX 6 1 7 2 8 3 10 4 11 5 5 6 4 7 3 8 2 9 1 10 12 11 9 12
REMARK H PARENT 9 13
REMARK Flexibility Score: inf
ROOT
ATOM      1  C   UNL     1     -15.321  44.318  33.916  1.00  0.00     0.016 A 
ATOM      2  C   UNL     1     -13.955  44.239  34.203  1.00  0.00     0.047 A 
ATOM      3  C   UNL     1     -13.009  44.325  33.174  1.00  0.00     0.119 A 
ATOM      4  C   UNL     1     -13.433  44.491  31.847  1.00  0.00     0.094 A 
ATOM      5  C   UNL     1     -14.798  44.570  31.550  1.00  0.00     0.142 A 
ATOM      6  C   UNL     1     -15.749  44.484  32.591  1.00  0.00     0.018 A 
ATOM      7  C   UNL     1     -17.105  44.567  32.263  1.00  0.00     0.019 A 
ATOM      8  C   UNL     1     -17.479  44.731  30.930  1.00  0.00     0.094 A 
ATOM      9  C   UNL     1     -16.482  44.809  29.951  1.00  0.00     0.336 A 
ATOM     10  O   UNL     1     -16.799  44.958  28.742  1.00  0.00    -0.246 OA
ATOM     11  O   UNL     1     -15.197  44.727  30.290  1.00  0.00    -0.423 OA
ENDROOT
BRANCH   3  12
ATOM     12  O   UNL     1     -11.652  44.244  33.480  1.00  0.00    -0.508 OA
ATOM     13  H   UNL     1     -11.303  44.476  34.401  1.00  0.00     0.293 HD
ENDBRANCH   3  12
TORSDOF 1
ENDMDL
MODEL 8
REMARK VINA RESULT:    -5.318      1.269      4.233
REMARK INTER + INTRA:          -5.473
REMARK INTER:                  -5.473
REMARK INTRA:                   0.000
REMARK UNBOUND:                 0.000
REMARK SMILES O=c1ccc2ccc(O)cc2o1
REMARK SMILES IDX 6 1 7 2 8 3 10 4 11 5 5 6 4 7 3 8 2 9 1 10 12 11 9 12
REMARK H PARENT 9 13
REMARK Flexibility Score: inf
ROOT
ATOM      1  C   UNL     1     -15.784  43.210  31.179  1.00  0.00     0.016 A 
ATOM      2  C   UNL     1     -17.161  43.204  30.935  1.00  0.00     0.047 A 
ATOM      3  C   UNL     1     -18.032  43.906  31.778  1.00  0.00     0.119 A 
ATOM      4  C   UNL     1     -17.522  44.618  32.873  1.00  0.00     0.094 A 
ATOM      5  C   UNL     1     -16.146  44.630  33.125  1.00  0.00     0.142 A 
ATOM      6  C   UNL     1     -15.271  43.921  32.272  1.00  0.00     0.018 A 
ATOM      7  C   UNL     1     -13.901  43.951  32.549  1.00  0.00     0.019 A 
ATOM      8  C   UNL     1     -13.441  44.673  33.650  1.00  0.00     0.094 A 
ATOM      9  C   UNL     1     -14.366  45.351  34.451  1.00  0.00     0.336 A 
ATOM     10  O   UNL     1     -13.970  46.009  35.448  1.00  0.00    -0.246 OA
ATOM     11  O   UNL     1     -15.665  45.307  34.165  1.00  0.00    -0.423 OA
ENDROOT
BRANCH   3  12
ATOM     12  O   UNL     1     -19.401  43.888  31.519  1.00  0.00    -0.508 OA
ATOM     13  H   UNL     1     -20.081  44.057  32.250  1.00  0.00     0.293 HD
ENDBRANCH   3  12
TORSDOF 1
ENDMDL
MODEL 9
REMARK VINA RESULT:    -5.114      2.637      4.225
REMARK INTER + INTRA:          -5.263
REMARK INTER:                  -5.263
REMARK INTRA:                   0.000
REMARK UNBOUND:                 0.000
REMARK SMILES O=c1ccc2ccc(O)cc2o1
REMARK SMILES IDX 6 1 7 2 8 3 10 4 11 5 5 6 4 7 3 8 2 9 1 10 12 11 9 12
REMARK H PARENT 9 13
REMARK Flexibility Score: inf
ROOT
ATOM      1  C   UNL     1     -18.613  43.505  32.304  1.00  0.00     0.016 A 
ATOM      2  C   UNL     1     -18.781  42.478  33.239  1.00  0.00     0.047 A 
ATOM      3  C   UNL     1     -17.707  41.646  33.577  1.00  0.00     0.119 A 
ATOM      4  C   UNL     1     -16.455  41.842  32.975  1.00  0.00     0.094 A 
ATOM      5  C   UNL     1     -16.277  42.866  32.039  1.00  0.00     0.142 A 
ATOM      6  C   UNL     1     -17.364  43.704  31.701  1.00  0.00     0.018 A 
ATOM      7  C   UNL     1     -17.156  44.719  30.763  1.00  0.00     0.019 A 
ATOM      8  C   UNL     1     -15.894  44.874  30.191  1.00  0.00     0.094 A 
ATOM      9  C   UNL     1     -14.864  44.007  30.573  1.00  0.00     0.336 A 
ATOM     10  O   UNL     1     -13.718  44.133  30.069  1.00  0.00    -0.246 OA
ATOM     11  O   UNL     1     -15.088  43.049  31.470  1.00  0.00    -0.423 OA
ENDROOT
BRANCH   3  12
ATOM     12  O   UNL     1     -17.893  40.628  34.510  1.00  0.00    -0.508 OA
ATOM     13  H   UNL     1     -18.653  39.964  34.425  1.00  0.00     0.293 HD
ENDBRANCH   3  12
TORSDOF 1
ENDMDL
