MODEL 1
REMARK VINA RESULT:    -0.807      0.000      0.000
REMARK INTER + INTRA:          -1.003
REMARK INTER:                  -0.854
REMARK INTRA:                  -0.149
REMARK UNBOUND:                -0.149
REMARK SMILES C=C(C)[C@H]1CC=C(C)C(=O)C1
REMARK SMILES IDX 8 1 7 2 6 3 5 4 4 5 11 6 9 7 10 8 2 9 1 10 3 11
REMARK H PARENT
REMARK Flexibility Score: inf
ROOT
ATOM      1  C   UNL     1      31.051  23.858  31.353  1.00  0.00     0.048 C 
ATOM      2  C   UNL     1      31.133  23.990  29.858  1.00  0.00    -0.012 C 
ATOM      3  C   UNL     1      30.013  23.957  29.121  1.00  0.00    -0.019 C 
ATOM      4  C   UNL     1      30.051  24.119  27.628  1.00  0.00     0.036 C 
ATOM      5  C   UNL     1      31.280  23.421  27.014  1.00  0.00     0.025 C 
ATOM      6  C   UNL     1      32.575  23.929  27.690  1.00  0.00     0.089 C 
ATOM      7  C   UNL     1      32.458  24.018  29.190  1.00  0.00     0.158 C 
ATOM      8  O   UNL     1      33.509  24.125  29.878  1.00  0.00    -0.295 OA
ENDROOT
BRANCH   5   9
ATOM      9  C   UNL     1      31.102  21.899  27.000  1.00  0.00    -0.077 C 
ATOM     10  C   UNL     1      32.191  21.123  26.876  1.00  0.00     0.008 C 
ATOM     11  C   UNL     1      29.761  21.209  27.107  1.00  0.00     0.039 C 
ENDBRANCH   5   9
TORSDOF 1
ENDMDL
MODEL 2
REMARK VINA RESULT:    -0.449      1.981      4.105
REMARK INTER + INTRA:          -0.624
REMARK INTER:                  -0.466
REMARK INTRA:                  -0.159
REMARK UNBOUND:                -0.149
REMARK SMILES C=C(C)[C@H]1CC=C(C)C(=O)C1
REMARK SMILES IDX 8 1 7 2 6 3 5 4 4 5 11 6 9 7 10 8 2 9 1 10 3 11
REMARK H PARENT
REMARK Flexibility Score: inf
ROOT
ATOM      1  C   UNL     1      31.691  20.044  26.876  1.00  0.00     0.048 C 
ATOM      2  C   UNL     1      31.334  21.490  27.075  1.00  0.00    -0.012 C 
ATOM      3  C   UNL     1      32.276  22.436  26.946  1.00  0.00    -0.019 C 
ATOM      4  C   UNL     1      31.951  23.894  27.104  1.00  0.00     0.036 C 
ATOM      5  C   UNL     1      30.918  24.125  28.223  1.00  0.00     0.025 C 
ATOM      6  C   UNL     1      29.655  23.270  27.967  1.00  0.00     0.089 C 
ATOM      7  C   UNL     1      29.977  21.858  27.549  1.00  0.00     0.158 C 
ATOM      8  O   UNL     1      29.069  20.985  27.600  1.00  0.00    -0.295 OA
ENDROOT
BRANCH   5   9
ATOM      9  C   UNL     1      31.553  23.956  29.608  1.00  0.00    -0.077 C 
ATOM     10  C   UNL     1      30.755  23.702  30.657  1.00  0.00     0.008 C 
ATOM     11  C   UNL     1      33.038  24.071  29.869  1.00  0.00     0.039 C 
ENDBRANCH   5   9
TORSDOF 1
ENDMDL
MODEL 3
REMARK VINA RESULT:     1.547      1.869      3.882
REMARK INTER + INTRA:           1.488
REMARK INTER:                   1.704
REMARK INTRA:                  -0.216
REMARK UNBOUND:                -0.149
REMARK SMILES C=C(C)[C@H]1CC=C(C)C(=O)C1
REMARK SMILES IDX 8 1 7 2 6 3 5 4 4 5 11 6 9 7 10 8 2 9 1 10 3 11
REMARK H PARENT
REMARK Flexibility Score: inf
ROOT
ATOM      1  C   UNL     1      30.661  20.150  27.195  1.00  0.00     0.048 C 
ATOM      2  C   UNL     1      31.199  21.552  27.132  1.00  0.00    -0.012 C 
ATOM      3  C   UNL     1      32.515  21.757  26.976  1.00  0.00    -0.019 C 
ATOM      4  C   UNL     1      33.087  23.142  26.875  1.00  0.00     0.036 C 
ATOM      5  C   UNL     1      32.361  24.124  27.815  1.00  0.00     0.025 C 
ATOM      6  C   UNL     1      30.840  24.099  27.540  1.00  0.00     0.089 C 
ATOM      7  C   UNL     1      30.295  22.702  27.380  1.00  0.00     0.158 C 
ATOM      8  O   UNL     1      29.050  22.521  27.452  1.00  0.00    -0.295 OA
ENDROOT
BRANCH   5   9
ATOM      9  C   UNL     1      32.767  23.895  29.275  1.00  0.00    -0.077 C 
ATOM     10  C   UNL     1      34.068  23.966  29.602  1.00  0.00     0.008 C 
ATOM     11  C   UNL     1      31.784  23.580  30.380  1.00  0.00     0.039 C 
ENDBRANCH   5   9
TORSDOF 1
ENDMDL
