MODEL 1
REMARK VINA RESULT:    -3.047      0.000      0.000
REMARK INTER + INTRA:          -3.617
REMARK INTER:                  -3.582
REMARK INTRA:                  -0.035
REMARK UNBOUND:                -0.035
REMARK SMILES O=C([O-])CCC(=O)[O-]
REMARK SMILES IDX 4 1 2 2 1 3 3 4 5 5 6 6 7 7 8 8
REMARK H PARENT
REMARK Flexibility Score: inf
ROOT
ATOM      1  C   UNL     1      67.503 -15.297  14.810  1.00  0.00     0.059 C 
ENDROOT
BRANCH   1   2
ATOM      2  C   UNL     1      68.389 -16.053  15.749  1.00  0.00     0.042 C 
ATOM      3  O   UNL     1      67.902 -16.611  16.768  1.00  0.00    -0.550 OA
ATOM      4  O   UNL     1      69.759 -16.101  15.527  1.00  0.00    -0.550 OA
ENDBRANCH   1   2
BRANCH   1   5
ATOM      5  C   UNL     1      66.105 -15.917  14.777  1.00  0.00     0.059 C 
BRANCH   5   6
ATOM      6  C   UNL     1      65.429 -15.614  13.477  1.00  0.00     0.042 C 
ATOM      7  O   UNL     1      64.496 -16.351  13.061  1.00  0.00    -0.550 OA
ATOM      8  O   UNL     1      65.795 -14.489  12.748  1.00  0.00    -0.550 OA
ENDBRANCH   5   6
ENDBRANCH   1   5
TORSDOF 3
ENDMDL
MODEL 2
REMARK VINA RESULT:    -2.998      1.470      2.094
REMARK INTER + INTRA:          -3.559
REMARK INTER:                  -3.519
REMARK INTRA:                  -0.040
REMARK UNBOUND:                -0.035
REMARK SMILES O=C([O-])CCC(=O)[O-]
REMARK SMILES IDX 4 1 2 2 1 3 3 4 5 5 6 6 7 7 8 8
REMARK H PARENT
REMARK Flexibility Score: inf
ROOT
ATOM      1  C   UNL     1      68.195 -15.752  15.047  1.00  0.00     0.059 C 
ENDROOT
BRANCH   1   2
ATOM      2  C   UNL     1      68.072 -16.679  16.215  1.00  0.00     0.042 C 
ATOM      3  O   UNL     1      69.104 -17.115  16.790  1.00  0.00    -0.550 OA
ATOM      4  O   UNL     1      66.818 -17.100  16.639  1.00  0.00    -0.550 OA
ENDBRANCH   1   2
BRANCH   1   5
ATOM      5  C   UNL     1      66.814 -15.275  14.594  1.00  0.00     0.059 C 
BRANCH   5   6
ATOM      6  C   UNL     1      66.917 -14.525  13.304  1.00  0.00     0.042 C 
ATOM      7  O   UNL     1      68.033 -14.390  12.736  1.00  0.00    -0.550 OA
ATOM      8  O   UNL     1      65.772 -14.018  12.701  1.00  0.00    -0.550 OA
ENDBRANCH   5   6
ENDBRANCH   1   5
TORSDOF 3
ENDMDL
MODEL 3
REMARK VINA RESULT:    -2.990      1.948      4.529
REMARK INTER + INTRA:          -3.549
REMARK INTER:                  -3.450
REMARK INTRA:                  -0.099
REMARK UNBOUND:                -0.035
REMARK SMILES O=C([O-])CCC(=O)[O-]
REMARK SMILES IDX 4 1 2 2 1 3 3 4 5 5 6 6 7 7 8 8
REMARK H PARENT
REMARK Flexibility Score: inf
ROOT
ATOM      1  C   UNL     1      65.961 -14.833  13.015  1.00  0.00     0.059 C 
ENDROOT
BRANCH   1   2
ATOM      2  C   UNL     1      65.877 -14.114  11.705  1.00  0.00     0.042 C 
ATOM      3  O   UNL     1      66.473 -14.568  10.693  1.00  0.00    -0.550 OA
ATOM      4  O   UNL     1      65.181 -12.915  11.614  1.00  0.00    -0.550 OA
ENDBRANCH   1   2
BRANCH   1   5
ATOM      5  C   UNL     1      67.233 -14.432  13.764  1.00  0.00     0.059 C 
BRANCH   5   6
ATOM      6  C   UNL     1      68.023 -15.646  14.140  1.00  0.00     0.042 C 
ATOM      7  O   UNL     1      68.269 -16.533  13.280  1.00  0.00    -0.550 OA
ATOM      8  O   UNL     1      68.529 -15.775  15.427  1.00  0.00    -0.550 OA
ENDBRANCH   5   6
ENDBRANCH   1   5
TORSDOF 3
ENDMDL
MODEL 4
REMARK VINA RESULT:    -2.977      1.927      2.285
REMARK INTER + INTRA:          -3.535
REMARK INTER:                  -3.416
REMARK INTRA:                  -0.118
REMARK UNBOUND:                -0.035
REMARK SMILES O=C([O-])CCC(=O)[O-]
REMARK SMILES IDX 4 1 2 2 1 3 3 4 5 5 6 6 7 7 8 8
REMARK H PARENT
REMARK Flexibility Score: inf
ROOT
ATOM      1  C   UNL     1      67.152 -14.533  13.945  1.00  0.00     0.059 C 
ENDROOT
BRANCH   1   2
ATOM      2  C   UNL     1      68.092 -15.689  14.080  1.00  0.00     0.042 C 
ATOM      3  O   UNL     1      68.702 -15.886  15.164  1.00  0.00    -0.550 OA
ATOM      4  O   UNL     1      68.335 -16.519  12.993  1.00  0.00    -0.550 OA
ENDBRANCH   1   2
BRANCH   1   5
ATOM      5  C   UNL     1      65.936 -14.929  13.106  1.00  0.00     0.059 C 
BRANCH   5   6
ATOM      6  C   UNL     1      65.894 -14.136  11.838  1.00  0.00     0.042 C 
ATOM      7  O   UNL     1      66.515 -14.538  10.818  1.00  0.00    -0.550 OA
ATOM      8  O   UNL     1      65.130 -12.978  11.766  1.00  0.00    -0.550 OA
ENDBRANCH   5   6
ENDBRANCH   1   5
TORSDOF 3
ENDMDL
MODEL 5
REMARK VINA RESULT:    -2.972      1.951      4.114
REMARK INTER + INTRA:          -3.528
REMARK INTER:                  -3.429
REMARK INTRA:                  -0.099
REMARK UNBOUND:                -0.035
REMARK SMILES O=C([O-])CCC(=O)[O-]
REMARK SMILES IDX 4 1 2 2 1 3 3 4 5 5 6 6 7 7 8 8
REMARK H PARENT
REMARK Flexibility Score: inf
ROOT
ATOM      1  C   UNL     1      65.854 -14.408  12.555  1.00  0.00     0.059 C 
ENDROOT
BRANCH   1   2
ATOM      2  C   UNL     1      65.989 -15.292  11.355  1.00  0.00     0.042 C 
ATOM      3  O   UNL     1      65.172 -16.231  11.165  1.00  0.00    -0.550 OA
ATOM      4  O   UNL     1      67.047 -15.111  10.473  1.00  0.00    -0.550 OA
ENDBRANCH   1   2
BRANCH   1   5
ATOM      5  C   UNL     1      67.155 -14.396  13.359  1.00  0.00     0.059 C 
BRANCH   5   6
ATOM      6  C   UNL     1      67.030 -15.268  14.569  1.00  0.00     0.042 C 
ATOM      7  O   UNL     1      65.918 -15.776  14.872  1.00  0.00    -0.550 OA
ATOM      8  O   UNL     1      68.152 -15.561  15.334  1.00  0.00    -0.550 OA
ENDBRANCH   5   6
ENDBRANCH   1   5
TORSDOF 3
ENDMDL
MODEL 6
REMARK VINA RESULT:    -2.967      2.585      4.004
REMARK INTER + INTRA:          -3.522
REMARK INTER:                  -3.352
REMARK INTRA:                  -0.170
REMARK UNBOUND:                -0.035
REMARK SMILES O=C([O-])CCC(=O)[O-]
REMARK SMILES IDX 4 1 2 2 1 3 3 4 5 5 6 6 7 7 8 8
REMARK H PARENT
REMARK Flexibility Score: inf
ROOT
ATOM      1  C   UNL     1      65.921 -14.466  11.025  1.00  0.00     0.059 C 
ENDROOT
BRANCH   1   2
ATOM      2  C   UNL     1      67.212 -15.188  10.795  1.00  0.00     0.042 C 
ATOM      3  O   UNL     1      67.240 -16.224  10.079  1.00  0.00    -0.550 OA
ATOM      4  O   UNL     1      68.375 -14.746  11.412  1.00  0.00    -0.550 OA
ENDBRANCH   1   2
BRANCH   1   5
ATOM      5  C   UNL     1      65.729 -14.177  12.515  1.00  0.00     0.059 C 
BRANCH   5   6
ATOM      6  C   UNL     1      65.481 -15.447  13.267  1.00  0.00     0.042 C 
ATOM      7  O   UNL     1      66.109 -15.685  14.332  1.00  0.00    -0.550 OA
ATOM      8  O   UNL     1      64.521 -16.345  12.818  1.00  0.00    -0.550 OA
ENDBRANCH   5   6
ENDBRANCH   1   5
TORSDOF 3
ENDMDL
MODEL 7
REMARK VINA RESULT:    -2.897      1.553      3.931
REMARK INTER + INTRA:          -3.440
REMARK INTER:                  -3.404
REMARK INTRA:                  -0.036
REMARK UNBOUND:                -0.035
REMARK SMILES O=C([O-])CCC(=O)[O-]
REMARK SMILES IDX 4 1 2 2 1 3 3 4 5 5 6 6 7 7 8 8
REMARK H PARENT
REMARK Flexibility Score: inf
ROOT
ATOM      1  C   UNL     1      67.125 -14.875  14.594  1.00  0.00     0.059 C 
ENDROOT
BRANCH   1   2
ATOM      2  C   UNL     1      67.082 -14.504  13.145  1.00  0.00     0.042 C 
ATOM      3  O   UNL     1      65.982 -14.239  12.591  1.00  0.00    -0.550 OA
ATOM      4  O   UNL     1      68.250 -14.500  12.393  1.00  0.00    -0.550 OA
ENDBRANCH   1   2
BRANCH   1   5
ATOM      5  C   UNL     1      68.137 -15.998  14.829  1.00  0.00     0.059 C 
BRANCH   5   6
ATOM      6  C   UNL     1      67.802 -16.751  16.078  1.00  0.00     0.042 C 
ATOM      7  O   UNL     1      68.714 -17.080  16.882  1.00  0.00    -0.550 OA
ATOM      8  O   UNL     1      66.479 -17.046  16.379  1.00  0.00    -0.550 OA
ENDBRANCH   5   6
ENDBRANCH   1   5
TORSDOF 3
ENDMDL
MODEL 8
REMARK VINA RESULT:    -2.882      2.990      4.286
REMARK INTER + INTRA:          -3.423
REMARK INTER:                  -3.313
REMARK INTRA:                  -0.109
REMARK UNBOUND:                -0.035
REMARK SMILES O=C([O-])CCC(=O)[O-]
REMARK SMILES IDX 4 1 2 2 1 3 3 4 5 5 6 6 7 7 8 8
REMARK H PARENT
REMARK Flexibility Score: inf
ROOT
ATOM      1  C   UNL     1      65.382 -16.259  11.580  1.00  0.00     0.059 C 
ENDROOT
BRANCH   1   2
ATOM      2  C   UNL     1      64.897 -16.207  12.994  1.00  0.00     0.042 C 
ATOM      3  O   UNL     1      65.585 -15.634  13.879  1.00  0.00    -0.550 OA
ATOM      4  O   UNL     1      63.708 -16.834  13.345  1.00  0.00    -0.550 OA
ENDBRANCH   1   2
BRANCH   1   5
ATOM      5  C   UNL     1      65.942 -14.900  11.156  1.00  0.00     0.059 C 
BRANCH   5   6
ATOM      6  C   UNL     1      67.421 -14.986  10.949  1.00  0.00     0.042 C 
ATOM      7  O   UNL     1      67.885 -15.339   9.832  1.00  0.00    -0.550 OA
ATOM      8  O   UNL     1      68.289 -14.627  11.972  1.00  0.00    -0.550 OA
ENDBRANCH   5   6
ENDBRANCH   1   5
TORSDOF 3
ENDMDL
MODEL 9
REMARK VINA RESULT:    -2.859      2.186      3.085
REMARK INTER + INTRA:          -3.396
REMARK INTER:                  -3.219
REMARK INTRA:                  -0.177
REMARK UNBOUND:                -0.035
REMARK SMILES O=C([O-])CCC(=O)[O-]
REMARK SMILES IDX 4 1 2 2 1 3 3 4 5 5 6 6 7 7 8 8
REMARK H PARENT
REMARK Flexibility Score: inf
ROOT
ATOM      1  C   UNL     1      67.127 -14.583  13.645  1.00  0.00     0.059 C 
ENDROOT
BRANCH   1   2
ATOM      2  C   UNL     1      66.618 -15.946  13.995  1.00  0.00     0.042 C 
ATOM      3  O   UNL     1      67.425 -16.898  14.173  1.00  0.00    -0.550 OA
ATOM      4  O   UNL     1      65.251 -16.179  14.075  1.00  0.00    -0.550 OA
ENDBRANCH   1   2
BRANCH   1   5
ATOM      5  C   UNL     1      67.777 -14.594  12.261  1.00  0.00     0.059 C 
BRANCH   5   6
ATOM      6  C   UNL     1      66.749 -14.843  11.202  1.00  0.00     0.042 C 
ATOM      7  O   UNL     1      65.788 -14.043  11.052  1.00  0.00    -0.550 OA
ATOM      8  O   UNL     1      66.878 -15.932  10.349  1.00  0.00    -0.550 OA
ENDBRANCH   5   6
ENDBRANCH   1   5
TORSDOF 3
ENDMDL
