MODEL 1
REMARK VINA RESULT:    -4.435      0.000      0.000
REMARK INTER + INTRA:          -8.652
REMARK INTER:                  -7.547
REMARK INTRA:                  -1.106
REMARK UNBOUND:                -1.106
REMARK SMILES CCCCCCCCCCCCCC(=O)[O-]
REMARK SMILES IDX 8 1 9 2 10 3 11 4 12 5 13 6 14 7 15 8 16 9 7 10 6 11 5 12
REMARK SMILES IDX 4 13 3 14 2 15 1 16
REMARK H PARENT
REMARK Flexibility Score: inf
ROOT
ATOM      1  C   UNL     1      17.779  23.545  47.643  1.00  0.00     0.000 C 
ENDROOT
BRANCH   1   2
ATOM      2  C   UNL     1      18.365  22.336  48.397  1.00  0.00     0.000 C 
BRANCH   2   3
ATOM      3  C   UNL     1      19.851  22.467  48.781  1.00  0.00     0.000 C 
BRANCH   3   4
ATOM      4  C   UNL     1      20.554  23.730  48.249  1.00  0.00     0.000 C 
BRANCH   4   5
ATOM      5  C   UNL     1      21.530  23.455  47.084  1.00  0.00     0.006 C 
BRANCH   5   6
ATOM      6  C   UNL     1      20.891  23.702  45.712  1.00  0.00     0.053 C 
BRANCH   6   7
ATOM      7  C   UNL     1      20.668  22.405  44.998  1.00  0.00     0.041 C 
ATOM      8  O   UNL     1      19.524  21.880  44.979  1.00  0.00    -0.550 OA
ATOM      9  O   UNL     1      21.736  21.752  44.397  1.00  0.00    -0.550 OA
ENDBRANCH   6   7
ENDBRANCH   5   6
ENDBRANCH   4   5
ENDBRANCH   3   4
ENDBRANCH   2   3
ENDBRANCH   1   2
BRANCH   1  10
ATOM     10  C   UNL     1      16.501  23.204  46.864  1.00  0.00     0.000 C 
BRANCH  10  11
ATOM     11  C   UNL     1      15.299  23.079  47.807  1.00  0.00    -0.000 C 
BRANCH  11  12
ATOM     12  C   UNL     1      14.047  22.623  47.048  1.00  0.00    -0.000 C 
BRANCH  12  13
ATOM     13  C   UNL     1      12.799  23.356  47.553  1.00  0.00    -0.000 C 
BRANCH  13  14
ATOM     14  C   UNL     1      12.386  24.472  46.583  1.00  0.00    -0.000 C 
BRANCH  14  15
ATOM     15  C   UNL     1      13.017  24.309  45.191  1.00  0.00    -0.003 C 
ATOM     16  C   UNL     1      13.902  25.492  44.800  1.00  0.00     0.004 C 
ENDBRANCH  14  15
ENDBRANCH  13  14
ENDBRANCH  12  13
ENDBRANCH  11  12
ENDBRANCH  10  11
ENDBRANCH   1  10
TORSDOF 12
ENDMDL
MODEL 2
REMARK VINA RESULT:    -4.426      6.848      9.702
REMARK INTER + INTRA:          -8.637
REMARK INTER:                  -7.879
REMARK INTRA:                  -0.758
REMARK UNBOUND:                -1.106
REMARK SMILES CCCCCCCCCCCCCC(=O)[O-]
REMARK SMILES IDX 8 1 9 2 10 3 11 4 12 5 13 6 14 7 15 8 16 9 7 10 6 11 5 12
REMARK SMILES IDX 4 13 3 14 2 15 1 16
REMARK H PARENT
REMARK Flexibility Score: inf
ROOT
ATOM      1  C   UNL     1      10.292  22.754  42.033  1.00  0.00     0.000 C 
ENDROOT
BRANCH   1   2
ATOM      2  C   UNL     1      10.549  21.538  41.122  1.00  0.00     0.000 C 
BRANCH   2   3
ATOM      3  C   UNL     1      10.385  21.809  39.615  1.00  0.00     0.000 C 
BRANCH   3   4
ATOM      4  C   UNL     1      11.680  22.198  38.876  1.00  0.00     0.000 C 
BRANCH   4   5
ATOM      5  C   UNL     1      11.551  22.167  37.338  1.00  0.00     0.006 C 
BRANCH   5   6
ATOM      6  C   UNL     1      12.711  21.420  36.667  1.00  0.00     0.053 C 
BRANCH   6   7
ATOM      7  C   UNL     1      12.581  21.483  35.177  1.00  0.00     0.041 C 
ATOM      8  O   UNL     1      11.571  22.023  34.652  1.00  0.00    -0.550 OA
ATOM      9  O   UNL     1      13.550  20.902  34.370  1.00  0.00    -0.550 OA
ENDBRANCH   6   7
ENDBRANCH   5   6
ENDBRANCH   4   5
ENDBRANCH   3   4
ENDBRANCH   2   3
ENDBRANCH   1   2
BRANCH   1  10
ATOM     10  C   UNL     1      11.235  22.806  43.243  1.00  0.00     0.000 C 
BRANCH  10  11
ATOM     11  C   UNL     1      12.624  22.267  42.882  1.00  0.00    -0.000 C 
BRANCH  11  12
ATOM     12  C   UNL     1      13.409  21.877  44.141  1.00  0.00    -0.000 C 
BRANCH  12  13
ATOM     13  C   UNL     1      12.506  21.895  45.380  1.00  0.00    -0.000 C 
BRANCH  13  14
ATOM     14  C   UNL     1      13.336  22.064  46.662  1.00  0.00    -0.000 C 
BRANCH  14  15
ATOM     15  C   UNL     1      12.852  23.238  47.528  1.00  0.00    -0.003 C 
ATOM     16  C   UNL     1      12.542  24.490  46.708  1.00  0.00     0.004 C 
ENDBRANCH  14  15
ENDBRANCH  13  14
ENDBRANCH  12  13
ENDBRANCH  11  12
ENDBRANCH  10  11
ENDBRANCH   1  10
TORSDOF 12
ENDMDL
MODEL 3
REMARK VINA RESULT:    -4.415      4.605      8.383
REMARK INTER + INTRA:          -8.618
REMARK INTER:                  -7.975
REMARK INTRA:                  -0.642
REMARK UNBOUND:                -1.106
REMARK SMILES CCCCCCCCCCCCCC(=O)[O-]
REMARK SMILES IDX 8 1 9 2 10 3 11 4 12 5 13 6 14 7 15 8 16 9 7 10 6 11 5 12
REMARK SMILES IDX 4 13 3 14 2 15 1 16
REMARK H PARENT
REMARK Flexibility Score: inf
ROOT
ATOM      1  C   UNL     1      12.740  21.951  46.267  1.00  0.00     0.000 C 
ENDROOT
BRANCH   1   2
ATOM      2  C   UNL     1      12.174  22.726  45.063  1.00  0.00     0.000 C 
BRANCH   2   3
ATOM      3  C   UNL     1      12.834  22.400  43.710  1.00  0.00     0.000 C 
BRANCH   3   4
ATOM      4  C   UNL     1      11.960  22.676  42.472  1.00  0.00     0.000 C 
BRANCH   4   5
ATOM      5  C   UNL     1      10.453  22.788  42.788  1.00  0.00     0.006 C 
BRANCH   5   6
ATOM      6  C   UNL     1       9.612  23.098  41.543  1.00  0.00     0.053 C 
BRANCH   6   7
ATOM      7  C   UNL     1       9.889  22.097  40.464  1.00  0.00     0.041 C 
ATOM      8  O   UNL     1       9.581  20.887  40.629  1.00  0.00    -0.550 OA
ATOM      9  O   UNL     1      10.531  22.493  39.298  1.00  0.00    -0.550 OA
ENDBRANCH   6   7
ENDBRANCH   5   6
ENDBRANCH   4   5
ENDBRANCH   3   4
ENDBRANCH   2   3
ENDBRANCH   1   2
BRANCH   1  10
ATOM     10  C   UNL     1      13.438  22.859  47.289  1.00  0.00     0.000 C 
BRANCH  10  11
ATOM     11  C   UNL     1      14.588  23.637  46.639  1.00  0.00    -0.000 C 
BRANCH  11  12
ATOM     12  C   UNL     1      15.864  22.788  46.580  1.00  0.00    -0.000 C 
BRANCH  12  13
ATOM     13  C   UNL     1      16.683  22.934  47.868  1.00  0.00    -0.000 C 
BRANCH  13  14
ATOM     14  C   UNL     1      17.933  23.795  47.629  1.00  0.00    -0.000 C 
BRANCH  14  15
ATOM     15  C   UNL     1      19.187  23.218  48.304  1.00  0.00    -0.003 C 
ATOM     16  C   UNL     1      19.042  21.736  48.652  1.00  0.00     0.004 C 
ENDBRANCH  14  15
ENDBRANCH  13  14
ENDBRANCH  12  13
ENDBRANCH  11  12
ENDBRANCH  10  11
ENDBRANCH   1  10
TORSDOF 12
ENDMDL
MODEL 4
REMARK VINA RESULT:    -4.401     11.505     14.194
REMARK INTER + INTRA:          -8.594
REMARK INTER:                  -7.918
REMARK INTRA:                  -0.676
REMARK UNBOUND:                -1.106
REMARK SMILES CCCCCCCCCCCCCC(=O)[O-]
REMARK SMILES IDX 8 1 9 2 10 3 11 4 12 5 13 6 14 7 15 8 16 9 7 10 6 11 5 12
REMARK SMILES IDX 4 13 3 14 2 15 1 16
REMARK H PARENT
REMARK Flexibility Score: inf
ROOT
ATOM      1  C   UNL     1      19.399  21.551  32.612  1.00  0.00     0.000 C 
ENDROOT
BRANCH   1   2
ATOM      2  C   UNL     1      18.156  22.237  33.210  1.00  0.00     0.000 C 
BRANCH   2   3
ATOM      3  C   UNL     1      17.544  21.524  34.430  1.00  0.00     0.000 C 
BRANCH   3   4
ATOM      4  C   UNL     1      16.181  22.075  34.892  1.00  0.00     0.000 C 
BRANCH   4   5
ATOM      5  C   UNL     1      14.984  21.524  34.087  1.00  0.00     0.006 C 
BRANCH   5   6
ATOM      6  C   UNL     1      13.858  21.004  34.991  1.00  0.00     0.053 C 
BRANCH   6   7
ATOM      7  C   UNL     1      12.751  22.007  35.077  1.00  0.00     0.041 C 
ATOM      8  O   UNL     1      11.911  22.105  34.144  1.00  0.00    -0.550 OA
ATOM      9  O   UNL     1      12.677  22.868  36.165  1.00  0.00    -0.550 OA
ENDBRANCH   6   7
ENDBRANCH   5   6
ENDBRANCH   4   5
ENDBRANCH   3   4
ENDBRANCH   2   3
ENDBRANCH   1   2
BRANCH   1  10
ATOM     10  C   UNL     1      20.136  20.661  33.622  1.00  0.00     0.000 C 
BRANCH  10  11
ATOM     11  C   UNL     1      21.306  21.412  34.266  1.00  0.00    -0.000 C 
BRANCH  11  12
ATOM     12  C   UNL     1      21.006  21.747  35.732  1.00  0.00    -0.000 C 
BRANCH  12  13
ATOM     13  C   UNL     1      22.293  21.773  36.566  1.00  0.00    -0.000 C 
BRANCH  13  14
ATOM     14  C   UNL     1      23.517  22.043  35.678  1.00  0.00    -0.000 C 
BRANCH  14  15
ATOM     15  C   UNL     1      24.831  22.074  36.476  1.00  0.00    -0.003 C 
ATOM     16  C   UNL     1      24.936  20.932  37.486  1.00  0.00     0.004 C 
ENDBRANCH  14  15
ENDBRANCH  13  14
ENDBRANCH  12  13
ENDBRANCH  11  12
ENDBRANCH  10  11
ENDBRANCH   1  10
TORSDOF 12
ENDMDL
MODEL 5
REMARK VINA RESULT:    -4.385     10.420     13.572
REMARK INTER + INTRA:          -8.567
REMARK INTER:                  -7.829
REMARK INTRA:                  -0.737
REMARK UNBOUND:                -1.106
REMARK SMILES CCCCCCCCCCCCCC(=O)[O-]
REMARK SMILES IDX 8 1 9 2 10 3 11 4 12 5 13 6 14 7 15 8 16 9 7 10 6 11 5 12
REMARK SMILES IDX 4 13 3 14 2 15 1 16
REMARK H PARENT
REMARK Flexibility Score: inf
ROOT
ATOM      1  C   UNL     1      14.006  23.647  35.279  1.00  0.00     0.000 C 
ENDROOT
BRANCH   1   2
ATOM      2  C   UNL     1      13.105  22.832  34.333  1.00  0.00     0.000 C 
BRANCH   2   3
ATOM      3  C   UNL     1      12.032  21.976  35.034  1.00  0.00     0.000 C 
BRANCH   3   4
ATOM      4  C   UNL     1      12.335  21.623  36.502  1.00  0.00     0.000 C 
BRANCH   4   5
ATOM      5  C   UNL     1      11.311  22.198  37.504  1.00  0.00     0.006 C 
BRANCH   5   6
ATOM      6  C   UNL     1      11.649  21.843  38.958  1.00  0.00     0.053 C 
BRANCH   6   7
ATOM      7  C   UNL     1      10.411  21.855  39.800  1.00  0.00     0.041 C 
ATOM      8  O   UNL     1       9.924  20.775  40.226  1.00  0.00    -0.550 OA
ATOM      9  O   UNL     1       9.768  23.056  40.071  1.00  0.00    -0.550 OA
ENDBRANCH   6   7
ENDBRANCH   5   6
ENDBRANCH   4   5
ENDBRANCH   3   4
ENDBRANCH   2   3
ENDBRANCH   1   2
BRANCH   1  10
ATOM     10  C   UNL     1      15.485  23.246  35.191  1.00  0.00     0.000 C 
BRANCH  10  11
ATOM     11  C   UNL     1      15.651  21.911  34.457  1.00  0.00    -0.000 C 
BRANCH  11  12
ATOM     12  C   UNL     1      17.132  21.580  34.240  1.00  0.00    -0.000 C 
BRANCH  12  13
ATOM     13  C   UNL     1      17.629  22.133  32.899  1.00  0.00    -0.000 C 
BRANCH  13  14
ATOM     14  C   UNL     1      19.065  21.669  32.612  1.00  0.00    -0.000 C 
BRANCH  14  15
ATOM     15  C   UNL     1      19.629  20.770  33.723  1.00  0.00    -0.003 C 
ATOM     16  C   UNL     1      21.042  21.172  34.148  1.00  0.00     0.004 C 
ENDBRANCH  14  15
ENDBRANCH  13  14
ENDBRANCH  12  13
ENDBRANCH  11  12
ENDBRANCH  10  11
ENDBRANCH   1  10
TORSDOF 12
ENDMDL
MODEL 6
REMARK VINA RESULT:    -4.363      2.535      6.748
REMARK INTER + INTRA:          -8.530
REMARK INTER:                  -7.336
REMARK INTRA:                  -1.194
REMARK UNBOUND:                -1.106
REMARK SMILES CCCCCCCCCCCCCC(=O)[O-]
REMARK SMILES IDX 8 1 9 2 10 3 11 4 12 5 13 6 14 7 15 8 16 9 7 10 6 11 5 12
REMARK SMILES IDX 4 13 3 14 2 15 1 16
REMARK H PARENT
REMARK Flexibility Score: inf
ROOT
ATOM      1  C   UNL     1      17.548  23.383  47.571  1.00  0.00     0.000 C 
ENDROOT
BRANCH   1   2
ATOM      2  C   UNL     1      16.185  23.197  46.878  1.00  0.00     0.000 C 
BRANCH   2   3
ATOM      3  C   UNL     1      14.963  23.294  47.811  1.00  0.00     0.000 C 
BRANCH   3   4
ATOM      4  C   UNL     1      13.638  22.790  47.206  1.00  0.00     0.000 C 
BRANCH   4   5
ATOM      5  C   UNL     1      12.624  23.915  46.906  1.00  0.00     0.006 C 
BRANCH   5   6
ATOM      6  C   UNL     1      12.889  24.601  45.559  1.00  0.00     0.053 C 
BRANCH   6   7
ATOM      7  C   UNL     1      12.911  23.591  44.455  1.00  0.00     0.041 C 
ATOM      8  O   UNL     1      11.872  22.940  44.170  1.00  0.00    -0.550 OA
ATOM      9  O   UNL     1      14.094  23.333  43.774  1.00  0.00    -0.550 OA
ENDBRANCH   6   7
ENDBRANCH   5   6
ENDBRANCH   4   5
ENDBRANCH   3   4
ENDBRANCH   2   3
ENDBRANCH   1   2
BRANCH   1  10
ATOM     10  C   UNL     1      17.977  22.157  48.390  1.00  0.00     0.000 C 
BRANCH  10  11
ATOM     11  C   UNL     1      19.498  21.976  48.354  1.00  0.00    -0.000 C 
BRANCH  11  12
ATOM     12  C   UNL     1      20.215  23.247  48.825  1.00  0.00    -0.000 C 
BRANCH  12  13
ATOM     13  C   UNL     1      21.351  23.626  47.868  1.00  0.00    -0.000 C 
BRANCH  13  14
ATOM     14  C   UNL     1      21.206  22.893  46.526  1.00  0.00    -0.000 C 
BRANCH  14  15
ATOM     15  C   UNL     1      20.677  23.806  45.408  1.00  0.00    -0.003 C 
ATOM     16  C   UNL     1      19.634  23.118  44.527  1.00  0.00     0.004 C 
ENDBRANCH  14  15
ENDBRANCH  13  14
ENDBRANCH  12  13
ENDBRANCH  11  12
ENDBRANCH  10  11
ENDBRANCH   1  10
TORSDOF 12
ENDMDL
MODEL 7
REMARK VINA RESULT:    -4.342      9.467     11.836
REMARK INTER + INTRA:          -8.493
REMARK INTER:                  -7.392
REMARK INTRA:                  -1.101
REMARK UNBOUND:                -1.106
REMARK SMILES CCCCCCCCCCCCCC(=O)[O-]
REMARK SMILES IDX 8 1 9 2 10 3 11 4 12 5 13 6 14 7 15 8 16 9 7 10 6 11 5 12
REMARK SMILES IDX 4 13 3 14 2 15 1 16
REMARK H PARENT
REMARK Flexibility Score: inf
ROOT
ATOM      1  C   UNL     1      21.486  21.527  35.861  1.00  0.00     0.000 C 
ENDROOT
BRANCH   1   2
ATOM      2  C   UNL     1      22.620  22.394  36.436  1.00  0.00     0.000 C 
BRANCH   2   3
ATOM      3  C   UNL     1      24.019  22.103  35.858  1.00  0.00     0.000 C 
BRANCH   3   4
ATOM      4  C   UNL     1      25.120  21.856  36.906  1.00  0.00     0.000 C 
BRANCH   4   5
ATOM      5  C   UNL     1      24.647  21.031  38.122  1.00  0.00     0.006 C 
BRANCH   5   6
ATOM      6  C   UNL     1      24.731  21.820  39.436  1.00  0.00     0.053 C 
BRANCH   6   7
ATOM      7  C   UNL     1      23.359  22.093  39.969  1.00  0.00     0.041 C 
ATOM      8  O   UNL     1      22.475  21.198  39.932  1.00  0.00    -0.550 OA
ATOM      9  O   UNL     1      23.045  23.353  40.462  1.00  0.00    -0.550 OA
ENDBRANCH   6   7
ENDBRANCH   5   6
ENDBRANCH   4   5
ENDBRANCH   3   4
ENDBRANCH   2   3
ENDBRANCH   1   2
BRANCH   1  10
ATOM     10  C   UNL     1      21.182  21.837  34.388  1.00  0.00     0.000 C 
BRANCH  10  11
ATOM     11  C   UNL     1      20.535  20.633  33.694  1.00  0.00    -0.000 C 
BRANCH  11  12
ATOM     12  C   UNL     1      19.558  21.085  32.602  1.00  0.00    -0.000 C 
BRANCH  12  13
ATOM     13  C   UNL     1      18.828  22.368  33.014  1.00  0.00    -0.000 C 
BRANCH  13  14
ATOM     14  C   UNL     1      17.353  22.083  33.332  1.00  0.00    -0.000 C 
BRANCH  14  15
ATOM     15  C   UNL     1      17.143  21.596  34.775  1.00  0.00    -0.003 C 
ATOM     16  C   UNL     1      17.757  22.536  35.812  1.00  0.00     0.004 C 
ENDBRANCH  14  15
ENDBRANCH  13  14
ENDBRANCH  12  13
ENDBRANCH  11  12
ENDBRANCH  10  11
ENDBRANCH   1  10
TORSDOF 12
ENDMDL
MODEL 8
REMARK VINA RESULT:    -4.334      3.041      4.698
REMARK INTER + INTRA:          -8.479
REMARK INTER:                  -7.934
REMARK INTRA:                  -0.545
REMARK UNBOUND:                -1.106
REMARK SMILES CCCCCCCCCCCCCC(=O)[O-]
REMARK SMILES IDX 8 1 9 2 10 3 11 4 12 5 13 6 14 7 15 8 16 9 7 10 6 11 5 12
REMARK SMILES IDX 4 13 3 14 2 15 1 16
REMARK H PARENT
REMARK Flexibility Score: inf
ROOT
ATOM      1  C   UNL     1      12.657  23.333  46.726  1.00  0.00     0.000 C 
ENDROOT
BRANCH   1   2
ATOM      2  C   UNL     1      13.917  23.283  47.610  1.00  0.00     0.000 C 
BRANCH   2   3
ATOM      3  C   UNL     1      15.252  23.336  46.844  1.00  0.00     0.000 C 
BRANCH   3   4
ATOM      4  C   UNL     1      16.501  23.011  47.686  1.00  0.00     0.000 C 
BRANCH   4   5
ATOM      5  C   UNL     1      17.789  23.693  47.176  1.00  0.00     0.006 C 
BRANCH   5   6
ATOM      6  C   UNL     1      18.715  24.129  48.319  1.00  0.00     0.053 C 
BRANCH   6   7
ATOM      7  C   UNL     1      19.785  23.107  48.542  1.00  0.00     0.041 C 
ATOM      8  O   UNL     1      19.486  21.957  48.958  1.00  0.00    -0.550 OA
ATOM      9  O   UNL     1      21.118  23.442  48.339  1.00  0.00    -0.550 OA
ENDBRANCH   6   7
ENDBRANCH   5   6
ENDBRANCH   4   5
ENDBRANCH   3   4
ENDBRANCH   2   3
ENDBRANCH   1   2
BRANCH   1  10
ATOM     10  C   UNL     1      12.620  22.218  45.671  1.00  0.00     0.000 C 
BRANCH  10  11
ATOM     11  C   UNL     1      11.761  22.626  44.469  1.00  0.00    -0.000 C 
BRANCH  11  12
ATOM     12  C   UNL     1      12.634  23.139  43.317  1.00  0.00    -0.000 C 
BRANCH  12  13
ATOM     13  C   UNL     1      11.828  23.234  42.016  1.00  0.00    -0.000 C 
BRANCH  13  14
ATOM     14  C   UNL     1      10.673  22.222  42.010  1.00  0.00    -0.000 C 
BRANCH  14  15
ATOM     15  C   UNL     1       9.336  22.854  41.591  1.00  0.00    -0.003 C 
ATOM     16  C   UNL     1       9.491  23.868  40.457  1.00  0.00     0.004 C 
ENDBRANCH  14  15
ENDBRANCH  13  14
ENDBRANCH  12  13
ENDBRANCH  11  12
ENDBRANCH  10  11
ENDBRANCH   1  10
TORSDOF 12
ENDMDL
MODEL 9
REMARK VINA RESULT:    -4.329      4.103      8.057
REMARK INTER + INTRA:          -8.472
REMARK INTER:                  -7.906
REMARK INTRA:                  -0.565
REMARK UNBOUND:                -1.106
REMARK SMILES CCCCCCCCCCCCCC(=O)[O-]
REMARK SMILES IDX 8 1 9 2 10 3 11 4 12 5 13 6 14 7 15 8 16 9 7 10 6 11 5 12
REMARK SMILES IDX 4 13 3 14 2 15 1 16
REMARK H PARENT
REMARK Flexibility Score: inf
ROOT
ATOM      1  C   UNL     1      14.049  22.938  47.381  1.00  0.00     0.000 C 
ENDROOT
BRANCH   1   2
ATOM      2  C   UNL     1      12.812  23.777  47.011  1.00  0.00     0.000 C 
BRANCH   2   3
ATOM      3  C   UNL     1      12.510  23.861  45.502  1.00  0.00     0.000 C 
BRANCH   3   4
ATOM      4  C   UNL     1      12.077  22.535  44.848  1.00  0.00     0.000 C 
BRANCH   4   5
ATOM      5  C   UNL     1      12.052  22.582  43.305  1.00  0.00     0.006 C 
BRANCH   5   6
ATOM      6  C   UNL     1      10.649  22.858  42.749  1.00  0.00     0.053 C 
BRANCH   6   7
ATOM      7  C   UNL     1      10.335  21.914  41.631  1.00  0.00     0.041 C 
ATOM      8  O   UNL     1      11.187  21.062  41.263  1.00  0.00    -0.550 OA
ATOM      9  O   UNL     1       9.121  22.007  40.963  1.00  0.00    -0.550 OA
ENDBRANCH   6   7
ENDBRANCH   5   6
ENDBRANCH   4   5
ENDBRANCH   3   4
ENDBRANCH   2   3
ENDBRANCH   1   2
BRANCH   1  10
ATOM     10  C   UNL     1      15.320  23.387  46.644  1.00  0.00     0.000 C 
BRANCH  10  11
ATOM     11  C   UNL     1      16.566  23.155  47.506  1.00  0.00    -0.000 C 
BRANCH  11  12
ATOM     12  C   UNL     1      17.650  22.409  46.717  1.00  0.00    -0.000 C 
BRANCH  12  13
ATOM     13  C   UNL     1      18.766  21.916  47.647  1.00  0.00    -0.000 C 
BRANCH  13  14
ATOM     14  C   UNL     1      20.147  22.316  47.107  1.00  0.00    -0.000 C 
BRANCH  14  15
ATOM     15  C   UNL     1      20.637  23.658  47.672  1.00  0.00    -0.003 C 
ATOM     16  C   UNL     1      20.245  23.862  49.136  1.00  0.00     0.004 C 
ENDBRANCH  14  15
ENDBRANCH  13  14
ENDBRANCH  12  13
ENDBRANCH  11  12
ENDBRANCH  10  11
ENDBRANCH   1  10
TORSDOF 12
ENDMDL
