MODEL 1
REMARK VINA RESULT:    -4.605      0.000      0.000
REMARK INTER + INTRA:          -5.193
REMARK INTER:                  -5.009
REMARK INTRA:                  -0.183
REMARK UNBOUND:                -0.183
REMARK SMILES C=C(C)[C@@H]1CC=C(C)[C@H](O)C1
REMARK SMILES IDX 8 1 7 2 6 3 5 4 4 5 11 6 9 7 10 8 2 10 1 11 3 12
REMARK H PARENT 10 9
REMARK Flexibility Score: inf
ROOT
ATOM      1  C   UNL     1     133.715 140.375 138.603  1.00  0.00     0.042 C 
ATOM      2  C   UNL     1     132.335 140.267 138.006  1.00  0.00    -0.049 C 
ATOM      3  C   UNL     1     132.090 139.387 137.018  1.00  0.00    -0.025 C 
ATOM      4  C   UNL     1     130.701 139.252 136.451  1.00  0.00     0.035 C 
ATOM      5  C   UNL     1     129.596 139.283 137.546  1.00  0.00     0.021 C 
ATOM      6  C   UNL     1     130.006 140.048 138.839  1.00  0.00     0.044 C 
ATOM      7  C   UNL     1     131.165 141.030 138.595  1.00  0.00     0.140 C 
ENDROOT
BRANCH   7   8
ATOM      8  O   UNL     1     131.531 141.647 139.803  1.00  0.00    -0.389 OA
ATOM      9  H   UNL     1     131.942 142.519 139.566  1.00  0.00     0.211 HD
ENDBRANCH   7   8
BRANCH   5  10
ATOM     10  C   UNL     1     129.115 137.877 137.883  1.00  0.00    -0.077 C 
ATOM     11  C   UNL     1     128.875 136.988 136.905  1.00  0.00     0.008 C 
ATOM     12  C   UNL     1     128.875 137.465 139.314  1.00  0.00     0.039 C 
ENDBRANCH   5  10
TORSDOF 2
ENDMDL
MODEL 2
REMARK VINA RESULT:    -4.342      1.976      4.409
REMARK INTER + INTRA:          -4.906
REMARK INTER:                  -4.713
REMARK INTRA:                  -0.193
REMARK UNBOUND:                -0.183
REMARK SMILES C=C(C)[C@@H]1CC=C(C)[C@H](O)C1
REMARK SMILES IDX 8 1 7 2 6 3 5 4 4 5 11 6 9 7 10 8 2 10 1 11 3 12
REMARK H PARENT 10 9
REMARK Flexibility Score: inf
ROOT
ATOM      1  C   UNL     1     128.875 137.729 137.953  1.00  0.00     0.042 C 
ATOM      2  C   UNL     1     129.806 138.872 137.636  1.00  0.00    -0.049 C 
ATOM      3  C   UNL     1     130.330 139.614 138.629  1.00  0.00    -0.025 C 
ATOM      4  C   UNL     1     131.292 140.730 138.313  1.00  0.00     0.035 C 
ATOM      5  C   UNL     1     132.321 140.347 137.210  1.00  0.00     0.021 C 
ATOM      6  C   UNL     1     131.822 139.241 136.234  1.00  0.00     0.044 C 
ATOM      7  C   UNL     1     130.288 139.121 136.221  1.00  0.00     0.140 C 
ENDROOT
BRANCH   7   8
ATOM      8  O   UNL     1     129.898 138.073 135.371  1.00  0.00    -0.389 OA
ATOM      9  H   UNL     1     130.486 138.117 134.573  1.00  0.00     0.211 HD
ENDBRANCH   7   8
BRANCH   5  10
ATOM     10  C   UNL     1     133.663 139.961 137.820  1.00  0.00    -0.077 C 
ATOM     11  C   UNL     1     134.374 138.944 137.308  1.00  0.00     0.008 C 
ATOM     12  C   UNL     1     134.205 140.695 139.021  1.00  0.00     0.039 C 
ENDBRANCH   5  10
TORSDOF 2
ENDMDL
MODEL 3
REMARK VINA RESULT:    -4.293     13.309     14.478
REMARK INTER + INTRA:          -4.853
REMARK INTER:                  -4.657
REMARK INTRA:                  -0.196
REMARK UNBOUND:                -0.183
REMARK SMILES C=C(C)[C@@H]1CC=C(C)[C@H](O)C1
REMARK SMILES IDX 8 1 7 2 6 3 5 4 4 5 11 6 9 7 10 8 2 10 1 11 3 12
REMARK H PARENT 10 9
REMARK Flexibility Score: inf
ROOT
ATOM      1  C   UNL     1     141.532 134.231 148.806  1.00  0.00     0.042 C 
ATOM      2  C   UNL     1     140.073 134.606 148.740  1.00  0.00    -0.049 C 
ATOM      3  C   UNL     1     139.327 134.243 147.681  1.00  0.00    -0.025 C 
ATOM      4  C   UNL     1     137.860 134.584 147.635  1.00  0.00     0.035 C 
ATOM      5  C   UNL     1     137.148 134.371 149.002  1.00  0.00     0.021 C 
ATOM      6  C   UNL     1     138.093 134.481 150.235  1.00  0.00     0.044 C 
ATOM      7  C   UNL     1     139.379 135.264 149.916  1.00  0.00     0.140 C 
ENDROOT
BRANCH   7   8
ATOM      8  O   UNL     1     140.219 135.283 151.043  1.00  0.00    -0.389 OA
ATOM      9  H   UNL     1     139.895 134.571 151.653  1.00  0.00     0.211 HD
ENDBRANCH   7   8
BRANCH   5  10
ATOM     10  C   UNL     1     136.386 133.051 149.026  1.00  0.00    -0.077 C 
ATOM     11  C   UNL     1     136.463 132.241 150.094  1.00  0.00     0.008 C 
ATOM     12  C   UNL     1     135.553 132.619 147.845  1.00  0.00     0.039 C 
ENDBRANCH   5  10
TORSDOF 2
ENDMDL
MODEL 4
REMARK VINA RESULT:    -4.268     13.261     15.379
REMARK INTER + INTRA:          -4.826
REMARK INTER:                  -4.624
REMARK INTRA:                  -0.202
REMARK UNBOUND:                -0.183
REMARK SMILES C=C(C)[C@@H]1CC=C(C)[C@H](O)C1
REMARK SMILES IDX 8 1 7 2 6 3 5 4 4 5 11 6 9 7 10 8 2 10 1 11 3 12
REMARK H PARENT 10 9
REMARK Flexibility Score: inf
ROOT
ATOM      1  C   UNL     1     137.191 135.065 148.132  1.00  0.00     0.042 C 
ATOM      2  C   UNL     1     138.641 134.727 148.366  1.00  0.00    -0.049 C 
ATOM      3  C   UNL     1     139.495 134.645 147.329  1.00  0.00    -0.025 C 
ATOM      4  C   UNL     1     140.952 134.346 147.570  1.00  0.00     0.035 C 
ATOM      5  C   UNL     1     141.531 135.110 148.796  1.00  0.00     0.021 C 
ATOM      6  C   UNL     1     140.467 135.489 149.868  1.00  0.00     0.044 C 
ATOM      7  C   UNL     1     139.203 134.617 149.770  1.00  0.00     0.140 C 
ENDROOT
BRANCH   7   8
ATOM      8  O   UNL     1     138.257 135.039 150.719  1.00  0.00    -0.389 OA
ATOM      9  H   UNL     1     137.363 134.921 150.305  1.00  0.00     0.211 HD
ENDBRANCH   7   8
BRANCH   5  10
ATOM     10  C   UNL     1     142.314 136.342 148.357  1.00  0.00    -0.077 C 
ATOM     11  C   UNL     1     141.967 137.561 148.800  1.00  0.00     0.008 C 
ATOM     12  C   UNL     1     143.473 136.219 147.400  1.00  0.00     0.039 C 
ENDBRANCH   5  10
TORSDOF 2
ENDMDL
MODEL 5
REMARK VINA RESULT:    -4.207     13.010     14.533
REMARK INTER + INTRA:          -4.759
REMARK INTER:                  -4.578
REMARK INTRA:                  -0.182
REMARK UNBOUND:                -0.183
REMARK SMILES C=C(C)[C@@H]1CC=C(C)[C@H](O)C1
REMARK SMILES IDX 8 1 7 2 6 3 5 4 4 5 11 6 9 7 10 8 2 10 1 11 3 12
REMARK H PARENT 10 9
REMARK Flexibility Score: inf
ROOT
ATOM      1  C   UNL     1     135.954 129.941 148.484  1.00  0.00     0.042 C 
ATOM      2  C   UNL     1     135.975 131.387 148.908  1.00  0.00    -0.049 C 
ATOM      3  C   UNL     1     136.700 131.771 149.975  1.00  0.00    -0.025 C 
ATOM      4  C   UNL     1     136.751 133.223 150.374  1.00  0.00     0.035 C 
ATOM      5  C   UNL     1     136.882 134.180 149.154  1.00  0.00     0.021 C 
ATOM      6  C   UNL     1     136.316 133.596 147.826  1.00  0.00     0.044 C 
ATOM      7  C   UNL     1     135.308 132.459 148.070  1.00  0.00     0.140 C 
ENDROOT
BRANCH   7   8
ATOM      8  O   UNL     1     134.875 131.933 146.841  1.00  0.00    -0.389 OA
ATOM      9  H   UNL     1     133.883 131.944 146.859  1.00  0.00     0.211 HD
ENDBRANCH   7   8
BRANCH   5  10
ATOM     10  C   UNL     1     138.323 134.640 148.968  1.00  0.00    -0.077 C 
ATOM     11  C   UNL     1     139.072 134.975 150.031  1.00  0.00     0.008 C 
ATOM     12  C   UNL     1     138.926 134.751 147.590  1.00  0.00     0.039 C 
ENDBRANCH   5  10
TORSDOF 2
ENDMDL
MODEL 6
REMARK VINA RESULT:    -4.061      1.070      1.580
REMARK INTER + INTRA:          -4.601
REMARK INTER:                  -4.419
REMARK INTRA:                  -0.182
REMARK UNBOUND:                -0.183
REMARK SMILES C=C(C)[C@@H]1CC=C(C)[C@H](O)C1
REMARK SMILES IDX 8 1 7 2 6 3 5 4 4 5 11 6 9 7 10 8 2 10 1 11 3 12
REMARK H PARENT 10 9
REMARK Flexibility Score: inf
ROOT
ATOM      1  C   UNL     1     134.539 139.046 137.626  1.00  0.00     0.042 C 
ATOM      2  C   UNL     1     133.133 139.425 137.238  1.00  0.00    -0.049 C 
ATOM      3  C   UNL     1     132.422 138.638 136.410  1.00  0.00    -0.025 C 
ATOM      4  C   UNL     1     131.003 138.998 136.055  1.00  0.00     0.035 C 
ATOM      5  C   UNL     1     130.188 139.515 137.276  1.00  0.00     0.021 C 
ATOM      6  C   UNL     1     131.061 140.153 138.397  1.00  0.00     0.044 C 
ATOM      7  C   UNL     1     132.436 140.609 137.879  1.00  0.00     0.140 C 
ENDROOT
BRANCH   7   8
ATOM      8  O   UNL     1     133.200 141.122 138.940  1.00  0.00    -0.389 OA
ATOM      9  H   UNL     1     132.605 141.153 139.733  1.00  0.00     0.211 HD
ENDBRANCH   7   8
BRANCH   5  10
ATOM     10  C   UNL     1     129.297 138.418 137.847  1.00  0.00    -0.077 C 
ATOM     11  C   UNL     1     128.876 138.479 139.121  1.00  0.00     0.008 C 
ATOM     12  C   UNL     1     128.893 137.235 137.005  1.00  0.00     0.039 C 
ENDBRANCH   5  10
TORSDOF 2
ENDMDL
MODEL 7
REMARK VINA RESULT:    -3.905      8.915     11.214
REMARK INTER + INTRA:          -4.431
REMARK INTER:                  -4.228
REMARK INTRA:                  -0.204
REMARK UNBOUND:                -0.183
REMARK SMILES C=C(C)[C@@H]1CC=C(C)[C@H](O)C1
REMARK SMILES IDX 8 1 7 2 6 3 5 4 4 5 11 6 9 7 10 8 2 10 1 11 3 12
REMARK H PARENT 10 9
REMARK Flexibility Score: inf
ROOT
ATOM      1  C   UNL     1     142.227 145.061 144.234  1.00  0.00     0.042 C 
ATOM      2  C   UNL     1     141.535 144.131 143.270  1.00  0.00    -0.049 C 
ATOM      3  C   UNL     1     141.186 142.890 143.657  1.00  0.00    -0.025 C 
ATOM      4  C   UNL     1     140.460 141.976 142.705  1.00  0.00     0.035 C 
ATOM      5  C   UNL     1     139.354 142.709 141.890  1.00  0.00     0.021 C 
ATOM      6  C   UNL     1     139.605 144.235 141.710  1.00  0.00     0.044 C 
ATOM      7  C   UNL     1     141.085 144.611 141.905  1.00  0.00     0.140 C 
ENDROOT
BRANCH   7   8
ATOM      8  O   UNL     1     141.243 146.002 141.790  1.00  0.00    -0.389 OA
ATOM      9  H   UNL     1     140.585 146.418 142.405  1.00  0.00     0.211 HD
ENDBRANCH   7   8
BRANCH   5  10
ATOM     10  C   UNL     1     137.974 142.457 142.485  1.00  0.00    -0.077 C 
ATOM     11  C   UNL     1     137.247 143.477 142.969  1.00  0.00     0.008 C 
ATOM     12  C   UNL     1     137.410 141.061 142.564  1.00  0.00     0.039 C 
ENDBRANCH   5  10
TORSDOF 2
ENDMDL
MODEL 8
REMARK VINA RESULT:    -3.880      2.370      3.272
REMARK INTER + INTRA:          -4.403
REMARK INTER:                  -4.209
REMARK INTRA:                  -0.194
REMARK UNBOUND:                -0.183
REMARK SMILES C=C(C)[C@@H]1CC=C(C)[C@H](O)C1
REMARK SMILES IDX 8 1 7 2 6 3 5 4 4 5 11 6 9 7 10 8 2 10 1 11 3 12
REMARK H PARENT 10 9
REMARK Flexibility Score: inf
ROOT
ATOM      1  C   UNL     1     130.742 140.729 139.103  1.00  0.00     0.042 C 
ATOM      2  C   UNL     1     130.518 139.721 138.004  1.00  0.00    -0.049 C 
ATOM      3  C   UNL     1     131.307 139.719 136.914  1.00  0.00    -0.025 C 
ATOM      4  C   UNL     1     131.107 138.686 135.836  1.00  0.00     0.035 C 
ATOM      5  C   UNL     1     130.828 137.265 136.406  1.00  0.00     0.021 C 
ATOM      6  C   UNL     1     130.192 137.265 137.828  1.00  0.00     0.044 C 
ATOM      7  C   UNL     1     129.508 138.602 138.162  1.00  0.00     0.140 C 
ENDROOT
BRANCH   7   8
ATOM      8  O   UNL     1     129.004 138.567 139.473  1.00  0.00    -0.389 OA
ATOM      9  H   UNL     1     129.604 137.973 139.994  1.00  0.00     0.211 HD
ENDBRANCH   7   8
BRANCH   5  10
ATOM     10  C   UNL     1     132.085 136.404 136.379  1.00  0.00    -0.077 C 
ATOM     11  C   UNL     1     132.369 135.584 137.405  1.00  0.00     0.008 C 
ATOM     12  C   UNL     1     133.044 136.473 135.218  1.00  0.00     0.039 C 
ENDBRANCH   5  10
TORSDOF 2
ENDMDL
MODEL 9
REMARK VINA RESULT:    -3.839     13.352     15.109
REMARK INTER + INTRA:          -4.359
REMARK INTER:                  -4.164
REMARK INTRA:                  -0.196
REMARK UNBOUND:                -0.183
REMARK SMILES C=C(C)[C@@H]1CC=C(C)[C@H](O)C1
REMARK SMILES IDX 8 1 7 2 6 3 5 4 4 5 11 6 9 7 10 8 2 10 1 11 3 12
REMARK H PARENT 10 9
REMARK Flexibility Score: inf
ROOT
ATOM      1  C   UNL     1     142.855 137.335 147.347  1.00  0.00     0.042 C 
ATOM      2  C   UNL     1     142.183 136.228 148.120  1.00  0.00    -0.049 C 
ATOM      3  C   UNL     1     141.492 136.506 149.240  1.00  0.00    -0.025 C 
ATOM      4  C   UNL     1     140.788 135.405 149.989  1.00  0.00     0.035 C 
ATOM      5  C   UNL     1     140.067 134.398 149.045  1.00  0.00     0.021 C 
ATOM      6  C   UNL     1     140.687 134.309 147.620  1.00  0.00     0.044 C 
ATOM      7  C   UNL     1     142.141 134.811 147.583  1.00  0.00     0.140 C 
ENDROOT
BRANCH   7   8
ATOM      8  O   UNL     1     142.630 134.763 146.266  1.00  0.00    -0.389 OA
ATOM      9  H   UNL     1     143.138 135.603 146.119  1.00  0.00     0.211 HD
ENDBRANCH   7   8
BRANCH   5  10
ATOM     10  C   UNL     1     138.574 134.693 148.965  1.00  0.00    -0.077 C 
ATOM     11  C   UNL     1     137.808 134.631 150.066  1.00  0.00     0.008 C 
ATOM     12  C   UNL     1     137.924 135.034 147.647  1.00  0.00     0.039 C 
ENDBRANCH   5  10
TORSDOF 2
ENDMDL
