MODEL 1
REMARK VINA RESULT:    -5.701      0.000      0.000
REMARK INTER + INTRA:          -6.587
REMARK INTER:                  -6.535
REMARK INTRA:                  -0.053
REMARK UNBOUND:                -0.053
REMARK SMILES O=C([O-])c1cc(O)c(O)c(O)c1
REMARK SMILES IDX 4 1 5 2 12 3 6 4 10 5 8 6 2 7 1 8 3 9 7 10 11 12 9 14
REMARK H PARENT 7 11 11 13 9 15
REMARK Flexibility Score: inf
ROOT
ATOM      1  C   UNL     1      19.872  18.863  14.637  1.00  0.00     0.005 A 
ATOM      2  C   UNL     1      18.746  18.809  13.801  1.00  0.00     0.060 A 
ATOM      3  C   UNL     1      19.877  18.108  15.820  1.00  0.00     0.060 A 
ATOM      4  C   UNL     1      17.645  18.017  14.136  1.00  0.00     0.162 A 
ATOM      5  C   UNL     1      18.784  17.310  16.171  1.00  0.00     0.162 A 
ATOM      6  C   UNL     1      17.651  17.260  15.323  1.00  0.00     0.200 A 
ENDROOT
BRANCH   1   7
ATOM      7  C   UNL     1      21.038  19.701  14.280  1.00  0.00     0.072 C 
ATOM      8  O   UNL     1      20.980  20.497  13.305  1.00  0.00    -0.545 OA
ATOM      9  O   UNL     1      22.214  19.623  15.016  1.00  0.00    -0.545 OA
ENDBRANCH   1   7
BRANCH   4  10
ATOM     10  O   UNL     1      16.547  17.995  13.275  1.00  0.00    -0.504 OA
ATOM     11  H   UNL     1      15.612  18.230  13.584  1.00  0.00     0.293 HD
ENDBRANCH   4  10
BRANCH   5  12
ATOM     12  O   UNL     1      18.865  16.588  17.364  1.00  0.00    -0.504 OA
ATOM     13  H   UNL     1      18.084  16.112  17.793  1.00  0.00     0.293 HD
ENDBRANCH   5  12
BRANCH   6  14
ATOM     14  O   UNL     1      16.529  16.482  15.621  1.00  0.00    -0.502 OA
ATOM     15  H   UNL     1      16.507  15.474  15.568  1.00  0.00     0.293 HD
ENDBRANCH   6  14
TORSDOF 4
ENDMDL
MODEL 2
REMARK VINA RESULT:    -5.650      0.121      2.447
REMARK INTER + INTRA:          -6.529
REMARK INTER:                  -6.476
REMARK INTRA:                  -0.053
REMARK UNBOUND:                -0.053
REMARK SMILES O=C([O-])c1cc(O)c(O)c(O)c1
REMARK SMILES IDX 4 1 5 2 12 3 6 4 10 5 8 6 2 7 1 8 3 9 7 10 11 12 9 14
REMARK H PARENT 7 11 11 13 9 15
REMARK Flexibility Score: inf
ROOT
ATOM      1  C   UNL     1      19.968  18.893  14.601  1.00  0.00     0.005 A 
ATOM      2  C   UNL     1      19.957  18.132  15.781  1.00  0.00     0.060 A 
ATOM      3  C   UNL     1      18.838  18.875  13.770  1.00  0.00     0.060 A 
ATOM      4  C   UNL     1      18.840  17.366  16.126  1.00  0.00     0.162 A 
ATOM      5  C   UNL     1      17.711  18.114  14.100  1.00  0.00     0.162 A 
ATOM      6  C   UNL     1      17.707  17.349  15.291  1.00  0.00     0.200 A 
ENDROOT
BRANCH   1   7
ATOM      7  C   UNL     1      21.151  19.704  14.238  1.00  0.00     0.072 C 
ATOM      8  O   UNL     1      21.122  20.464  13.233  1.00  0.00    -0.545 OA
ATOM      9  O   UNL     1      22.311  19.640  15.000  1.00  0.00    -0.545 OA
ENDBRANCH   1   7
BRANCH   4  10
ATOM     10  O   UNL     1      18.875  16.625  17.307  1.00  0.00    -0.504 OA
ATOM     11  H   UNL     1      19.522  16.833  18.058  1.00  0.00     0.293 HD
ENDBRANCH   4  10
BRANCH   5  12
ATOM     12  O   UNL     1      16.626  18.148  13.222  1.00  0.00    -0.504 OA
ATOM     13  H   UNL     1      15.805  17.568  13.312  1.00  0.00     0.293 HD
ENDBRANCH   5  12
BRANCH   6  14
ATOM     14  O   UNL     1      16.612  16.569  15.674  1.00  0.00    -0.502 OA
ATOM     15  H   UNL     1      15.772  16.463  15.125  1.00  0.00     0.293 HD
ENDBRANCH   6  14
TORSDOF 4
ENDMDL
MODEL 3
REMARK VINA RESULT:    -5.513      1.663      5.030
REMARK INTER + INTRA:          -6.371
REMARK INTER:                  -6.324
REMARK INTRA:                  -0.048
REMARK UNBOUND:                -0.053
REMARK SMILES O=C([O-])c1cc(O)c(O)c(O)c1
REMARK SMILES IDX 4 1 5 2 12 3 6 4 10 5 8 6 2 7 1 8 3 9 7 10 11 12 9 14
REMARK H PARENT 7 11 11 13 9 15
REMARK Flexibility Score: inf
ROOT
ATOM      1  C   UNL     1      17.629  18.568  13.010  1.00  0.00     0.005 A 
ATOM      2  C   UNL     1      18.178  18.488  14.300  1.00  0.00     0.060 A 
ATOM      3  C   UNL     1      18.398  19.126  11.977  1.00  0.00     0.060 A 
ATOM      4  C   UNL     1      19.469  18.956  14.556  1.00  0.00     0.162 A 
ATOM      5  C   UNL     1      19.692  19.599  12.216  1.00  0.00     0.162 A 
ATOM      6  C   UNL     1      20.239  19.515  13.519  1.00  0.00     0.200 A 
ENDROOT
BRANCH   1   7
ATOM      7  C   UNL     1      16.261  18.071  12.740  1.00  0.00     0.072 C 
ATOM      8  O   UNL     1      15.912  16.919  13.114  1.00  0.00    -0.545 OA
ATOM      9  O   UNL     1      15.342  18.868  12.069  1.00  0.00    -0.545 OA
ENDBRANCH   1   7
BRANCH   4  10
ATOM     10  O   UNL     1      19.973  18.856  15.853  1.00  0.00    -0.504 OA
ATOM     11  H   UNL     1      20.949  19.021  16.069  1.00  0.00     0.293 HD
ENDBRANCH   4  10
BRANCH   5  12
ATOM     12  O   UNL     1      20.394  20.141  11.137  1.00  0.00    -0.504 OA
ATOM     13  H   UNL     1      20.274  21.084  10.799  1.00  0.00     0.293 HD
ENDBRANCH   5  12
BRANCH   6  14
ATOM     14  O   UNL     1      21.526  19.972  13.819  1.00  0.00    -0.502 OA
ATOM     15  H   UNL     1      22.246  19.404  14.241  1.00  0.00     0.293 HD
ENDBRANCH   6  14
TORSDOF 4
ENDMDL
MODEL 4
REMARK VINA RESULT:    -5.512      1.635      4.488
REMARK INTER + INTRA:          -6.370
REMARK INTER:                  -6.323
REMARK INTRA:                  -0.047
REMARK UNBOUND:                -0.053
REMARK SMILES O=C([O-])c1cc(O)c(O)c(O)c1
REMARK SMILES IDX 4 1 5 2 12 3 6 4 10 5 8 6 2 7 1 8 3 9 7 10 11 12 9 14
REMARK H PARENT 7 11 11 13 9 15
REMARK Flexibility Score: inf
ROOT
ATOM      1  C   UNL     1      17.614  18.548  13.034  1.00  0.00     0.005 A 
ATOM      2  C   UNL     1      18.388  19.135  12.019  1.00  0.00     0.060 A 
ATOM      3  C   UNL     1      18.159  18.430  14.322  1.00  0.00     0.060 A 
ATOM      4  C   UNL     1      19.680  19.596  12.284  1.00  0.00     0.162 A 
ATOM      5  C   UNL     1      19.451  18.886  14.604  1.00  0.00     0.162 A 
ATOM      6  C   UNL     1      20.225  19.477  13.576  1.00  0.00     0.200 A 
ENDROOT
BRANCH   1   7
ATOM      7  C   UNL     1      16.246  18.061  12.752  1.00  0.00     0.072 C 
ATOM      8  O   UNL     1      15.904  16.890  13.069  1.00  0.00    -0.545 OA
ATOM      9  O   UNL     1      15.316  18.890  12.135  1.00  0.00    -0.545 OA
ENDBRANCH   1   7
BRANCH   4  10
ATOM     10  O   UNL     1      20.412  20.171  11.245  1.00  0.00    -0.504 OA
ATOM     11  H   UNL     1      20.027  20.300  10.317  1.00  0.00     0.293 HD
ENDBRANCH   4  10
BRANCH   5  12
ATOM     12  O   UNL     1      19.921  18.733  15.909  1.00  0.00    -0.504 OA
ATOM     13  H   UNL     1      20.897  18.752  16.167  1.00  0.00     0.293 HD
ENDBRANCH   5  12
BRANCH   6  14
ATOM     14  O   UNL     1      21.521  19.950  13.797  1.00  0.00    -0.502 OA
ATOM     15  H   UNL     1      21.766  20.927  13.857  1.00  0.00     0.293 HD
ENDBRANCH   6  14
TORSDOF 4
ENDMDL
MODEL 5
REMARK VINA RESULT:    -5.475      1.716      3.664
REMARK INTER + INTRA:          -6.327
REMARK INTER:                  -6.274
REMARK INTRA:                  -0.053
REMARK UNBOUND:                -0.053
REMARK SMILES O=C([O-])c1cc(O)c(O)c(O)c1
REMARK SMILES IDX 4 1 5 2 12 3 6 4 10 5 8 6 2 7 1 8 3 9 7 10 11 12 9 14
REMARK H PARENT 7 11 11 13 9 15
REMARK Flexibility Score: inf
ROOT
ATOM      1  C   UNL     1      17.647  18.811  12.891  1.00  0.00     0.005 A 
ATOM      2  C   UNL     1      18.807  19.379  13.443  1.00  0.00     0.060 A 
ATOM      3  C   UNL     1      17.010  17.765  13.576  1.00  0.00     0.060 A 
ATOM      4  C   UNL     1      19.321  18.914  14.656  1.00  0.00     0.162 A 
ATOM      5  C   UNL     1      17.512  17.287  14.791  1.00  0.00     0.162 A 
ATOM      6  C   UNL     1      18.682  17.865  15.342  1.00  0.00     0.200 A 
ENDROOT
BRANCH   1   7
ATOM      7  C   UNL     1      17.102  19.306  11.607  1.00  0.00     0.072 C 
ATOM      8  O   UNL     1      16.042  18.818  11.131  1.00  0.00    -0.545 OA
ATOM      9  O   UNL     1      17.752  20.316  10.909  1.00  0.00    -0.545 OA
ENDBRANCH   1   7
BRANCH   4  10
ATOM     10  O   UNL     1      20.476  19.508  15.166  1.00  0.00    -0.504 OA
ATOM     11  H   UNL     1      21.030  20.165  14.629  1.00  0.00     0.293 HD
ENDBRANCH   4  10
BRANCH   5  12
ATOM     12  O   UNL     1      16.822  16.244  15.412  1.00  0.00    -0.504 OA
ATOM     13  H   UNL     1      16.671  16.177  16.408  1.00  0.00     0.293 HD
ENDBRANCH   5  12
BRANCH   6  14
ATOM     14  O   UNL     1      19.230  17.429  16.552  1.00  0.00    -0.502 OA
ATOM     15  H   UNL     1      20.071  17.808  16.962  1.00  0.00     0.293 HD
ENDBRANCH   6  14
TORSDOF 4
ENDMDL
MODEL 6
REMARK VINA RESULT:    -5.464      1.717      3.614
REMARK INTER + INTRA:          -6.315
REMARK INTER:                  -6.262
REMARK INTRA:                  -0.053
REMARK UNBOUND:                -0.053
REMARK SMILES O=C([O-])c1cc(O)c(O)c(O)c1
REMARK SMILES IDX 4 1 5 2 12 3 6 4 10 5 8 6 2 7 1 8 3 9 7 10 11 12 9 14
REMARK H PARENT 7 11 11 13 9 15
REMARK Flexibility Score: inf
ROOT
ATOM      1  C   UNL     1      17.581  18.799  12.894  1.00  0.00     0.005 A 
ATOM      2  C   UNL     1      16.965  17.755  13.601  1.00  0.00     0.060 A 
ATOM      3  C   UNL     1      18.748  19.378  13.416  1.00  0.00     0.060 A 
ATOM      4  C   UNL     1      17.502  17.295  14.806  1.00  0.00     0.162 A 
ATOM      5  C   UNL     1      19.299  18.929  14.621  1.00  0.00     0.162 A 
ATOM      6  C   UNL     1      18.672  17.875  15.329  1.00  0.00     0.200 A 
ENDROOT
BRANCH   1   7
ATOM      7  C   UNL     1      17.012  19.285  11.617  1.00  0.00     0.072 C 
ATOM      8  O   UNL     1      15.920  18.825  11.187  1.00  0.00    -0.545 OA
ATOM      9  O   UNL     1      17.673  20.256  10.875  1.00  0.00    -0.545 OA
ENDBRANCH   1   7
BRANCH   4  10
ATOM     10  O   UNL     1      16.855  16.255  15.475  1.00  0.00    -0.504 OA
ATOM     11  H   UNL     1      15.847  16.159  15.481  1.00  0.00     0.293 HD
ENDBRANCH   4  10
BRANCH   5  12
ATOM     12  O   UNL     1      20.462  19.556  15.074  1.00  0.00    -0.504 OA
ATOM     13  H   UNL     1      21.109  20.052  14.479  1.00  0.00     0.293 HD
ENDBRANCH   5  12
BRANCH   6  14
ATOM     14  O   UNL     1      19.176  17.386  16.537  1.00  0.00    -0.502 OA
ATOM     15  H   UNL     1      18.696  16.719  17.123  1.00  0.00     0.293 HD
ENDBRANCH   6  14
TORSDOF 4
ENDMDL
MODEL 7
REMARK VINA RESULT:    -4.889      1.652      4.000
REMARK INTER + INTRA:          -5.656
REMARK INTER:                  -5.603
REMARK INTRA:                  -0.053
REMARK UNBOUND:                -0.053
REMARK SMILES O=C([O-])c1cc(O)c(O)c(O)c1
REMARK SMILES IDX 4 1 5 2 12 3 6 4 10 5 8 6 2 7 1 8 3 9 7 10 11 12 9 14
REMARK H PARENT 7 11 11 13 9 15
REMARK Flexibility Score: inf
ROOT
ATOM      1  C   UNL     1      18.985  19.457  13.024  1.00  0.00     0.005 A 
ATOM      2  C   UNL     1      20.262  20.032  12.916  1.00  0.00     0.060 A 
ATOM      3  C   UNL     1      18.677  18.693  14.160  1.00  0.00     0.060 A 
ATOM      4  C   UNL     1      21.213  19.850  13.923  1.00  0.00     0.162 A 
ATOM      5  C   UNL     1      19.618  18.501  15.177  1.00  0.00     0.162 A 
ATOM      6  C   UNL     1      20.903  19.084  15.062  1.00  0.00     0.200 A 
ENDROOT
BRANCH   1   7
ATOM      7  C   UNL     1      17.978  19.651  11.957  1.00  0.00     0.072 C 
ATOM      8  O   UNL     1      18.291  20.216  10.875  1.00  0.00    -0.545 OA
ATOM      9  O   UNL     1      16.671  19.212  12.134  1.00  0.00    -0.545 OA
ENDBRANCH   1   7
BRANCH   4  10
ATOM     10  O   UNL     1      22.469  20.440  13.773  1.00  0.00    -0.504 OA
ATOM     11  H   UNL     1      22.858  20.662  12.864  1.00  0.00     0.293 HD
ENDBRANCH   4  10
BRANCH   5  12
ATOM     12  O   UNL     1      19.236  17.729  16.276  1.00  0.00    -0.504 OA
ATOM     13  H   UNL     1      18.805  18.102  17.109  1.00  0.00     0.293 HD
ENDBRANCH   5  12
BRANCH   6  14
ATOM     14  O   UNL     1      21.884  18.927  16.045  1.00  0.00    -0.502 OA
ATOM     15  H   UNL     1      21.705  18.581  16.976  1.00  0.00     0.293 HD
ENDBRANCH   6  14
TORSDOF 4
ENDMDL
MODEL 8
REMARK VINA RESULT:    -4.876      1.857      3.197
REMARK INTER + INTRA:          -5.641
REMARK INTER:                  -5.588
REMARK INTRA:                  -0.053
REMARK UNBOUND:                -0.053
REMARK SMILES O=C([O-])c1cc(O)c(O)c(O)c1
REMARK SMILES IDX 4 1 5 2 12 3 6 4 10 5 8 6 2 7 1 8 3 9 7 10 11 12 9 14
REMARK H PARENT 7 11 11 13 9 15
REMARK Flexibility Score: inf
ROOT
ATOM      1  C   UNL     1      18.756  18.764  14.020  1.00  0.00     0.005 A 
ATOM      2  C   UNL     1      18.742  19.619  12.907  1.00  0.00     0.060 A 
ATOM      3  C   UNL     1      17.718  17.833  14.175  1.00  0.00     0.060 A 
ATOM      4  C   UNL     1      17.712  19.548  11.965  1.00  0.00     0.162 A 
ATOM      5  C   UNL     1      16.679  17.749  13.242  1.00  0.00     0.162 A 
ATOM      6  C   UNL     1      16.671  18.615  12.122  1.00  0.00     0.200 A 
ENDROOT
BRANCH   1   7
ATOM      7  C   UNL     1      19.848  18.839  15.016  1.00  0.00     0.072 C 
ATOM      8  O   UNL     1      20.762  19.699  14.901  1.00  0.00    -0.545 OA
ATOM      9  O   UNL     1      19.881  17.962  16.093  1.00  0.00    -0.545 OA
ENDBRANCH   1   7
BRANCH   4  10
ATOM     10  O   UNL     1      17.740  20.419  10.875  1.00  0.00    -0.504 OA
ATOM     11  H   UNL     1      17.864  21.418  10.983  1.00  0.00     0.293 HD
ENDBRANCH   4  10
BRANCH   5  12
ATOM     12  O   UNL     1      15.682  16.797  13.466  1.00  0.00    -0.504 OA
ATOM     13  H   UNL     1      14.703  16.943  13.267  1.00  0.00     0.293 HD
ENDBRANCH   5  12
BRANCH   6  14
ATOM     14  O   UNL     1      15.660  18.578  11.157  1.00  0.00    -0.502 OA
ATOM     15  H   UNL     1      14.674  18.606  11.368  1.00  0.00     0.293 HD
ENDBRANCH   6  14
TORSDOF 4
ENDMDL
MODEL 9
REMARK VINA RESULT:    -4.701      1.577      4.098
REMARK INTER + INTRA:          -5.440
REMARK INTER:                  -5.389
REMARK INTRA:                  -0.052
REMARK UNBOUND:                -0.053
REMARK SMILES O=C([O-])c1cc(O)c(O)c(O)c1
REMARK SMILES IDX 4 1 5 2 12 3 6 4 10 5 8 6 2 7 1 8 3 9 7 10 11 12 9 14
REMARK H PARENT 7 11 11 13 9 15
REMARK Flexibility Score: inf
ROOT
ATOM      1  C   UNL     1      18.106  18.042  14.465  1.00  0.00     0.005 A 
ATOM      2  C   UNL     1      17.075  18.014  13.512  1.00  0.00     0.060 A 
ATOM      3  C   UNL     1      19.246  18.820  14.211  1.00  0.00     0.060 A 
ATOM      4  C   UNL     1      17.179  18.748  12.327  1.00  0.00     0.162 A 
ATOM      5  C   UNL     1      19.366  19.560  13.030  1.00  0.00     0.162 A 
ATOM      6  C   UNL     1      18.322  19.527  12.074  1.00  0.00     0.200 A 
ENDROOT
BRANCH   1   7
ATOM      7  C   UNL     1      17.995  17.265  15.719  1.00  0.00     0.072 C 
ATOM      8  O   UNL     1      16.867  16.904  16.152  1.00  0.00    -0.545 OA
ATOM      9  O   UNL     1      19.133  16.922  16.439  1.00  0.00    -0.545 OA
ENDBRANCH   1   7
BRANCH   4  10
ATOM     10  O   UNL     1      16.130  18.689  11.409  1.00  0.00    -0.504 OA
ATOM     11  H   UNL     1      15.257  19.183  11.551  1.00  0.00     0.293 HD
ENDBRANCH   4  10
BRANCH   5  12
ATOM     12  O   UNL     1      20.530  20.310  12.851  1.00  0.00    -0.504 OA
ATOM     13  H   UNL     1      21.002  20.421  11.965  1.00  0.00     0.293 HD
ENDBRANCH   5  12
BRANCH   6  14
ATOM     14  O   UNL     1      18.385  20.246  10.876  1.00  0.00    -0.502 OA
ATOM     15  H   UNL     1      17.733  20.136  10.114  1.00  0.00     0.293 HD
ENDBRANCH   6  14
TORSDOF 4
ENDMDL
