MODEL 1
REMARK VINA RESULT:    -4.075      0.000      0.000
REMARK INTER + INTRA:          -9.044
REMARK INTER:                  -7.171
REMARK INTRA:                  -1.873
REMARK UNBOUND:                -1.873
REMARK SMILES CCCCCCC=CCCCCCCCC(=O)[O-]
REMARK SMILES IDX 10 1 11 2 12 3 13 4 14 5 15 6 16 7 17 8 18 9 9 10 8 11 7 12
REMARK SMILES IDX 6 13 5 14 4 15 3 16 2 17 1 18
REMARK H PARENT
REMARK Flexibility Score: inf
ROOT
ATOM      1  C   UNL     1       8.759  -3.109   0.801  1.00  0.00     0.004 C 
ENDROOT
BRANCH   1   2
ATOM      2  C   UNL     1       8.363  -4.587   0.947  1.00  0.00     0.000 C 
BRANCH   2   3
ATOM      3  C   UNL     1       9.547  -5.542   0.717  1.00  0.00     0.000 C 
BRANCH   3   4
ATOM      4  C   UNL     1       9.228  -6.642  -0.308  1.00  0.00     0.000 C 
BRANCH   4   5
ATOM      5  C   UNL     1       7.721  -6.772  -0.590  1.00  0.00     0.006 C 
BRANCH   5   6
ATOM      6  C   UNL     1       7.439  -7.544  -1.886  1.00  0.00     0.053 C 
BRANCH   6   7
ATOM      7  C   UNL     1       7.912  -8.963  -1.805  1.00  0.00     0.041 C 
ATOM      8  O   UNL     1       7.331  -9.782  -1.045  1.00  0.00    -0.550 OA
ATOM      9  O   UNL     1       8.974  -9.390  -2.592  1.00  0.00    -0.550 OA
ENDBRANCH   6   7
ENDBRANCH   5   6
ENDBRANCH   4   5
ENDBRANCH   3   4
ENDBRANCH   2   3
ENDBRANCH   1   2
BRANCH   1  10
ATOM     10  C   UNL     1       8.019  -2.409  -0.348  1.00  0.00     0.027 C 
BRANCH  10  11
ATOM     11  C   UNL     1       8.419  -2.983  -1.680  1.00  0.00    -0.031 C 
ATOM     12  C   UNL     1       7.541  -3.636  -2.457  1.00  0.00    -0.031 C 
BRANCH  12  13
ATOM     13  C   UNL     1       7.941  -4.209  -3.788  1.00  0.00     0.027 C 
BRANCH  13  14
ATOM     14  C   UNL     1       6.820  -4.045  -4.823  1.00  0.00     0.004 C 
BRANCH  14  15
ATOM     15  C   UNL     1       5.530  -3.542  -4.159  1.00  0.00     0.000 C 
BRANCH  15  16
ATOM     16  C   UNL     1       4.301  -4.379  -4.543  1.00  0.00    -0.000 C 
BRANCH  16  17
ATOM     17  C   UNL     1       4.677  -5.742  -5.142  1.00  0.00    -0.003 C 
ATOM     18  C   UNL     1       4.572  -6.849  -4.096  1.00  0.00     0.004 C 
ENDBRANCH  16  17
ENDBRANCH  15  16
ENDBRANCH  14  15
ENDBRANCH  13  14
ENDBRANCH  12  13
ENDBRANCH  10  11
ENDBRANCH   1  10
TORSDOF 13
ENDMDL
MODEL 2
REMARK VINA RESULT:    -3.898      2.659      5.702
REMARK INTER + INTRA:          -8.733
REMARK INTER:                  -6.848
REMARK INTRA:                  -1.885
REMARK UNBOUND:                -1.873
REMARK SMILES CCCCCCC=CCCCCCCCC(=O)[O-]
REMARK SMILES IDX 10 1 11 2 12 3 13 4 14 5 15 6 16 7 17 8 18 9 9 10 8 11 7 12
REMARK SMILES IDX 6 13 5 14 4 15 3 16 2 17 1 18
REMARK H PARENT
REMARK Flexibility Score: inf
ROOT
ATOM      1  C   UNL     1       4.883  -4.236  -4.395  1.00  0.00     0.004 C 
ENDROOT
BRANCH   1   2
ATOM      2  C   UNL     1       6.154  -3.780  -5.130  1.00  0.00     0.000 C 
BRANCH   2   3
ATOM      3  C   UNL     1       7.431  -4.023  -4.308  1.00  0.00     0.000 C 
BRANCH   3   4
ATOM      4  C   UNL     1       7.140  -4.248  -2.816  1.00  0.00     0.000 C 
BRANCH   4   5
ATOM      5  C   UNL     1       8.371  -3.996  -1.926  1.00  0.00     0.006 C 
BRANCH   5   6
ATOM      6  C   UNL     1       8.227  -2.717  -1.090  1.00  0.00     0.053 C 
BRANCH   6   7
ATOM      7  C   UNL     1       8.424  -2.981   0.372  1.00  0.00     0.041 C 
ATOM      8  O   UNL     1       7.775  -3.896   0.944  1.00  0.00    -0.550 OA
ATOM      9  O   UNL     1       9.346  -2.236   1.096  1.00  0.00    -0.550 OA
ENDBRANCH   6   7
ENDBRANCH   5   6
ENDBRANCH   4   5
ENDBRANCH   3   4
ENDBRANCH   2   3
ENDBRANCH   1   2
BRANCH   1  10
ATOM     10  C   UNL     1       3.846  -4.863  -5.338  1.00  0.00     0.027 C 
BRANCH  10  11
ATOM     11  C   UNL     1       3.985  -6.360  -5.379  1.00  0.00    -0.031 C 
ATOM     12  C   UNL     1       4.659  -7.031  -4.431  1.00  0.00    -0.031 C 
BRANCH  12  13
ATOM     13  C   UNL     1       4.797  -8.527  -4.471  1.00  0.00     0.027 C 
BRANCH  13  14
ATOM     14  C   UNL     1       6.222  -8.964  -4.107  1.00  0.00     0.004 C 
BRANCH  14  15
ATOM     15  C   UNL     1       7.146  -7.747  -3.953  1.00  0.00     0.000 C 
BRANCH  15  16
ATOM     16  C   UNL     1       8.282  -7.991  -2.948  1.00  0.00    -0.000 C 
BRANCH  16  17
ATOM     17  C   UNL     1       7.771  -8.469  -1.581  1.00  0.00    -0.003 C 
ATOM     18  C   UNL     1       7.386  -7.288  -0.695  1.00  0.00     0.004 C 
ENDBRANCH  16  17
ENDBRANCH  15  16
ENDBRANCH  14  15
ENDBRANCH  13  14
ENDBRANCH  12  13
ENDBRANCH  10  11
ENDBRANCH   1  10
TORSDOF 13
ENDMDL
MODEL 3
REMARK VINA RESULT:    -3.878      2.876      5.561
REMARK INTER + INTRA:          -8.698
REMARK INTER:                  -7.086
REMARK INTRA:                  -1.612
REMARK UNBOUND:                -1.873
REMARK SMILES CCCCCCC=CCCCCCCCC(=O)[O-]
REMARK SMILES IDX 10 1 11 2 12 3 13 4 14 5 15 6 16 7 17 8 18 9 9 10 8 11 7 12
REMARK SMILES IDX 6 13 5 14 4 15 3 16 2 17 1 18
REMARK H PARENT
REMARK Flexibility Score: inf
ROOT
ATOM      1  C   UNL     1       5.513  -3.374  -4.346  1.00  0.00     0.004 C 
ENDROOT
BRANCH   1   2
ATOM      2  C   UNL     1       6.702  -4.056  -5.042  1.00  0.00     0.000 C 
BRANCH   2   3
ATOM      3  C   UNL     1       7.819  -4.444  -4.058  1.00  0.00     0.000 C 
BRANCH   3   4
ATOM      4  C   UNL     1       7.494  -4.049  -2.609  1.00  0.00     0.000 C 
BRANCH   4   5
ATOM      5  C   UNL     1       8.694  -3.413  -1.884  1.00  0.00     0.006 C 
BRANCH   5   6
ATOM      6  C   UNL     1       8.255  -2.427  -0.794  1.00  0.00     0.053 C 
BRANCH   6   7
ATOM      7  C   UNL     1       8.460  -2.985   0.581  1.00  0.00     0.041 C 
ATOM      8  O   UNL     1       7.728  -3.920   1.001  1.00  0.00    -0.550 OA
ATOM      9  O   UNL     1       9.481  -2.496   1.387  1.00  0.00    -0.550 OA
ENDBRANCH   6   7
ENDBRANCH   5   6
ENDBRANCH   4   5
ENDBRANCH   3   4
ENDBRANCH   2   3
ENDBRANCH   1   2
BRANCH   1  10
ATOM     10  C   UNL     1       4.239  -4.230  -4.375  1.00  0.00     0.027 C 
BRANCH  10  11
ATOM     11  C   UNL     1       4.105  -4.960  -5.683  1.00  0.00    -0.031 C 
ATOM     12  C   UNL     1       2.983  -5.619  -6.010  1.00  0.00    -0.031 C 
BRANCH  12  13
ATOM     13  C   UNL     1       2.849  -6.348  -7.319  1.00  0.00     0.027 C 
BRANCH  13  14
ATOM     14  C   UNL     1       3.435  -7.763  -7.230  1.00  0.00     0.004 C 
BRANCH  14  15
ATOM     15  C   UNL     1       3.012  -8.450  -5.923  1.00  0.00     0.000 C 
BRANCH  15  16
ATOM     16  C   UNL     1       4.179  -9.168  -5.228  1.00  0.00    -0.000 C 
BRANCH  16  17
ATOM     17  C   UNL     1       4.955  -8.250  -4.274  1.00  0.00    -0.003 C 
ATOM     18  C   UNL     1       6.316  -7.877  -4.855  1.00  0.00     0.004 C 
ENDBRANCH  16  17
ENDBRANCH  15  16
ENDBRANCH  14  15
ENDBRANCH  13  14
ENDBRANCH  12  13
ENDBRANCH  10  11
ENDBRANCH   1  10
TORSDOF 13
ENDMDL
MODEL 4
REMARK VINA RESULT:    -3.876      1.374      5.360
REMARK INTER + INTRA:          -8.695
REMARK INTER:                  -6.890
REMARK INTRA:                  -1.805
REMARK UNBOUND:                -1.873
REMARK SMILES CCCCCCC=CCCCCCCCC(=O)[O-]
REMARK SMILES IDX 10 1 11 2 12 3 13 4 14 5 15 6 16 7 17 8 18 9 9 10 8 11 7 12
REMARK SMILES IDX 6 13 5 14 4 15 3 16 2 17 1 18
REMARK H PARENT
REMARK Flexibility Score: inf
ROOT
ATOM      1  C   UNL     1       6.839  -4.112  -4.987  1.00  0.00     0.004 C 
ENDROOT
BRANCH   1   2
ATOM      2  C   UNL     1       5.619  -3.321  -4.488  1.00  0.00     0.000 C 
BRANCH   2   3
ATOM      3  C   UNL     1       4.358  -4.193  -4.365  1.00  0.00     0.000 C 
BRANCH   3   4
ATOM      4  C   UNL     1       4.049  -4.971  -5.654  1.00  0.00     0.000 C 
BRANCH   4   5
ATOM      5  C   UNL     1       3.909  -6.485  -5.415  1.00  0.00     0.006 C 
BRANCH   5   6
ATOM      6  C   UNL     1       4.618  -6.936  -4.131  1.00  0.00     0.053 C 
BRANCH   6   7
ATOM      7  C   UNL     1       5.924  -7.609  -4.421  1.00  0.00     0.041 C 
ATOM      8  O   UNL     1       6.644  -8.030  -3.477  1.00  0.00    -0.550 OA
ATOM      9  O   UNL     1       6.333  -7.800  -5.735  1.00  0.00    -0.550 OA
ENDBRANCH   6   7
ENDBRANCH   5   6
ENDBRANCH   4   5
ENDBRANCH   3   4
ENDBRANCH   2   3
ENDBRANCH   1   2
BRANCH   1  10
ATOM     10  C   UNL     1       7.859  -4.392  -3.873  1.00  0.00     0.027 C 
BRANCH  10  11
ATOM     11  C   UNL     1       7.461  -3.714  -2.591  1.00  0.00    -0.031 C 
ATOM     12  C   UNL     1       8.344  -3.011  -1.863  1.00  0.00    -0.031 C 
BRANCH  12  13
ATOM     13  C   UNL     1       7.946  -2.333  -0.582  1.00  0.00     0.027 C 
BRANCH  13  14
ATOM     14  C   UNL     1       8.781  -2.844   0.600  1.00  0.00     0.004 C 
BRANCH  14  15
ATOM     15  C   UNL     1       8.230  -4.178   1.125  1.00  0.00     0.000 C 
BRANCH  15  16
ATOM     16  C   UNL     1       9.302  -5.277   1.187  1.00  0.00    -0.000 C 
BRANCH  16  17
ATOM     17  C   UNL     1       9.352  -6.128  -0.089  1.00  0.00    -0.003 C 
ATOM     18  C   UNL     1       7.955  -6.589  -0.498  1.00  0.00     0.004 C 
ENDBRANCH  16  17
ENDBRANCH  15  16
ENDBRANCH  14  15
ENDBRANCH  13  14
ENDBRANCH  12  13
ENDBRANCH  10  11
ENDBRANCH   1  10
TORSDOF 13
ENDMDL
MODEL 5
REMARK VINA RESULT:    -3.855      3.555      4.842
REMARK INTER + INTRA:          -8.658
REMARK INTER:                  -8.035
REMARK INTRA:                  -0.623
REMARK UNBOUND:                -1.873
REMARK SMILES CCCCCCC=CCCCCCCCC(=O)[O-]
REMARK SMILES IDX 10 1 11 2 12 3 13 4 14 5 15 6 16 7 17 8 18 9 9 10 8 11 7 12
REMARK SMILES IDX 6 13 5 14 4 15 3 16 2 17 1 18
REMARK H PARENT
REMARK Flexibility Score: inf
ROOT
ATOM      1  C   UNL     1       8.107  -3.350  -1.924  1.00  0.00     0.004 C 
ENDROOT
BRANCH   1   2
ATOM      2  C   UNL     1       8.498  -4.243  -0.735  1.00  0.00     0.000 C 
BRANCH   2   3
ATOM      3  C   UNL     1       8.195  -3.586   0.622  1.00  0.00     0.000 C 
BRANCH   3   4
ATOM      4  C   UNL     1       9.286  -3.862   1.668  1.00  0.00     0.000 C 
BRANCH   4   5
ATOM      5  C   UNL     1       8.792  -4.752   2.822  1.00  0.00     0.006 C 
BRANCH   5   6
ATOM      6  C   UNL     1       9.876  -4.977   3.885  1.00  0.00     0.053 C 
BRANCH   6   7
ATOM      7  C   UNL     1       9.314  -4.938   5.273  1.00  0.00     0.041 C 
ATOM      8  O   UNL     1       8.511  -4.026   5.607  1.00  0.00    -0.550 OA
ATOM      9  O   UNL     1       9.652  -5.926   6.190  1.00  0.00    -0.550 OA
ENDBRANCH   6   7
ENDBRANCH   5   6
ENDBRANCH   4   5
ENDBRANCH   3   4
ENDBRANCH   2   3
ENDBRANCH   1   2
BRANCH   1  10
ATOM     10  C   UNL     1       8.165  -4.092  -3.267  1.00  0.00     0.027 C 
BRANCH  10  11
ATOM     11  C   UNL     1       6.793  -4.518  -3.712  1.00  0.00    -0.031 C 
ATOM     12  C   UNL     1       5.827  -3.623  -3.970  1.00  0.00    -0.031 C 
BRANCH  12  13
ATOM     13  C   UNL     1       4.456  -4.048  -4.415  1.00  0.00     0.027 C 
BRANCH  13  14
ATOM     14  C   UNL     1       4.472  -5.475  -4.978  1.00  0.00     0.004 C 
BRANCH  14  15
ATOM     15  C   UNL     1       4.466  -5.459  -6.514  1.00  0.00     0.000 C 
BRANCH  15  16
ATOM     16  C   UNL     1       3.052  -5.319  -7.098  1.00  0.00    -0.000 C 
BRANCH  16  17
ATOM     17  C   UNL     1       2.000  -6.098  -6.295  1.00  0.00    -0.003 C 
ATOM     18  C   UNL     1       1.237  -7.071  -7.189  1.00  0.00     0.004 C 
ENDBRANCH  16  17
ENDBRANCH  15  16
ENDBRANCH  14  15
ENDBRANCH  13  14
ENDBRANCH  12  13
ENDBRANCH  10  11
ENDBRANCH   1  10
TORSDOF 13
ENDMDL
MODEL 6
REMARK VINA RESULT:    -3.845      3.046      5.547
REMARK INTER + INTRA:          -8.639
REMARK INTER:                  -7.091
REMARK INTRA:                  -1.548
REMARK UNBOUND:                -1.873
REMARK SMILES CCCCCCC=CCCCCCCCC(=O)[O-]
REMARK SMILES IDX 10 1 11 2 12 3 13 4 14 5 15 6 16 7 17 8 18 9 9 10 8 11 7 12
REMARK SMILES IDX 6 13 5 14 4 15 3 16 2 17 1 18
REMARK H PARENT
REMARK Flexibility Score: inf
ROOT
ATOM      1  C   UNL     1       5.352  -3.474  -4.302  1.00  0.00     0.004 C 
ENDROOT
BRANCH   1   2
ATOM      2  C   UNL     1       6.595  -3.800  -5.147  1.00  0.00     0.000 C 
BRANCH   2   3
ATOM      3  C   UNL     1       7.829  -4.117  -4.285  1.00  0.00     0.000 C 
BRANCH   3   4
ATOM      4  C   UNL     1       7.488  -4.254  -2.793  1.00  0.00     0.000 C 
BRANCH   4   5
ATOM      5  C   UNL     1       8.627  -3.773  -1.876  1.00  0.00     0.006 C 
BRANCH   5   6
ATOM      6  C   UNL     1       8.181  -2.637  -0.946  1.00  0.00     0.053 C 
BRANCH   6   7
ATOM      7  C   UNL     1       8.456  -2.953   0.493  1.00  0.00     0.041 C 
ATOM      8  O   UNL     1       9.304  -2.281   1.138  1.00  0.00    -0.550 OA
ATOM      9  O   UNL     1       7.755  -3.969   1.130  1.00  0.00    -0.550 OA
ENDBRANCH   6   7
ENDBRANCH   5   6
ENDBRANCH   4   5
ENDBRANCH   3   4
ENDBRANCH   2   3
ENDBRANCH   1   2
BRANCH   1  10
ATOM     10  C   UNL     1       4.179  -4.424  -4.584  1.00  0.00     0.027 C 
BRANCH  10  11
ATOM     11  C   UNL     1       4.670  -5.784  -4.998  1.00  0.00    -0.031 C 
ATOM     12  C   UNL     1       4.846  -6.771  -4.106  1.00  0.00    -0.031 C 
BRANCH  12  13
ATOM     13  C   UNL     1       5.336  -8.131  -4.520  1.00  0.00     0.027 C 
BRANCH  13  14
ATOM     14  C   UNL     1       4.171  -9.039  -4.934  1.00  0.00     0.004 C 
BRANCH  14  15
ATOM     15  C   UNL     1       4.070  -9.139  -6.463  1.00  0.00     0.000 C 
BRANCH  15  16
ATOM     16  C   UNL     1       2.645  -8.889  -6.980  1.00  0.00    -0.000 C 
BRANCH  16  17
ATOM     17  C   UNL     1       1.805  -8.042  -6.014  1.00  0.00    -0.003 C 
ATOM     18  C   UNL     1       1.498  -6.671  -6.610  1.00  0.00     0.004 C 
ENDBRANCH  16  17
ENDBRANCH  15  16
ENDBRANCH  14  15
ENDBRANCH  13  14
ENDBRANCH  12  13
ENDBRANCH  10  11
ENDBRANCH   1  10
TORSDOF 13
ENDMDL
MODEL 7
REMARK VINA RESULT:    -3.793      2.217      5.862
REMARK INTER + INTRA:          -8.548
REMARK INTER:                  -6.949
REMARK INTRA:                  -1.599
REMARK UNBOUND:                -1.873
REMARK SMILES CCCCCCC=CCCCCCCCC(=O)[O-]
REMARK SMILES IDX 10 1 11 2 12 3 13 4 14 5 15 6 16 7 17 8 18 9 9 10 8 11 7 12
REMARK SMILES IDX 6 13 5 14 4 15 3 16 2 17 1 18
REMARK H PARENT
REMARK Flexibility Score: inf
ROOT
ATOM      1  C   UNL     1       7.293  -5.817  -3.976  1.00  0.00     0.004 C 
ENDROOT
BRANCH   1   2
ATOM      2  C   UNL     1       6.928  -4.345  -3.729  1.00  0.00     0.000 C 
BRANCH   2   3
ATOM      3  C   UNL     1       5.879  -3.821  -4.724  1.00  0.00     0.000 C 
BRANCH   3   4
ATOM      4  C   UNL     1       4.456  -4.295  -4.387  1.00  0.00     0.000 C 
BRANCH   4   5
ATOM      5  C   UNL     1       3.740  -4.930  -5.593  1.00  0.00     0.006 C 
BRANCH   5   6
ATOM      6  C   UNL     1       4.316  -6.307  -5.948  1.00  0.00     0.053 C 
BRANCH   6   7
ATOM      7  C   UNL     1       3.694  -7.400  -5.133  1.00  0.00     0.041 C 
ATOM      8  O   UNL     1       4.298  -7.866  -4.132  1.00  0.00    -0.550 OA
ATOM      9  O   UNL     1       2.432  -7.881  -5.461  1.00  0.00    -0.550 OA
ENDBRANCH   6   7
ENDBRANCH   5   6
ENDBRANCH   4   5
ENDBRANCH   3   4
ENDBRANCH   2   3
ENDBRANCH   1   2
BRANCH   1  10
ATOM     10  C   UNL     1       7.286  -6.653  -2.688  1.00  0.00     0.027 C 
BRANCH  10  11
ATOM     11  C   UNL     1       8.324  -6.162  -1.716  1.00  0.00    -0.031 C 
ATOM     12  C   UNL     1       8.069  -6.069  -0.402  1.00  0.00    -0.031 C 
BRANCH  12  13
ATOM     13  C   UNL     1       9.107  -5.578   0.569  1.00  0.00     0.027 C 
BRANCH  13  14
ATOM     14  C   UNL     1       8.540  -4.484   1.483  1.00  0.00     0.004 C 
BRANCH  14  15
ATOM     15  C   UNL     1       9.101  -3.106   1.102  1.00  0.00     0.000 C 
BRANCH  15  16
ATOM     16  C   UNL     1       8.269  -2.408   0.015  1.00  0.00    -0.000 C 
BRANCH  16  17
ATOM     17  C   UNL     1       9.138  -1.740  -1.059  1.00  0.00    -0.003 C 
ATOM     18  C   UNL     1       9.834  -2.782  -1.930  1.00  0.00     0.004 C 
ENDBRANCH  16  17
ENDBRANCH  15  16
ENDBRANCH  14  15
ENDBRANCH  13  14
ENDBRANCH  12  13
ENDBRANCH  10  11
ENDBRANCH   1  10
TORSDOF 13
ENDMDL
MODEL 8
REMARK VINA RESULT:    -3.734      2.488      5.852
REMARK INTER + INTRA:          -8.444
REMARK INTER:                  -6.787
REMARK INTRA:                  -1.657
REMARK UNBOUND:                -1.873
REMARK SMILES CCCCCCC=CCCCCCCCC(=O)[O-]
REMARK SMILES IDX 10 1 11 2 12 3 13 4 14 5 15 6 16 7 17 8 18 9 9 10 8 11 7 12
REMARK SMILES IDX 6 13 5 14 4 15 3 16 2 17 1 18
REMARK H PARENT
REMARK Flexibility Score: inf
ROOT
ATOM      1  C   UNL     1       6.561  -4.029  -5.304  1.00  0.00     0.004 C 
ENDROOT
BRANCH   1   2
ATOM      2  C   UNL     1       5.358  -3.512  -4.498  1.00  0.00     0.000 C 
BRANCH   2   3
ATOM      3  C   UNL     1       4.174  -4.493  -4.509  1.00  0.00     0.000 C 
BRANCH   3   4
ATOM      4  C   UNL     1       4.546  -5.863  -5.100  1.00  0.00     0.000 C 
BRANCH   4   5
ATOM      5  C   UNL     1       4.590  -6.975  -4.037  1.00  0.00     0.006 C 
BRANCH   5   6
ATOM      6  C   UNL     1       4.612  -8.375  -4.666  1.00  0.00     0.053 C 
BRANCH   6   7
ATOM      7  C   UNL     1       3.502  -8.561  -5.655  1.00  0.00     0.041 C 
ATOM      8  O   UNL     1       2.304  -8.585  -5.266  1.00  0.00    -0.550 OA
ATOM      9  O   UNL     1       3.788  -8.677  -7.010  1.00  0.00    -0.550 OA
ENDBRANCH   6   7
ENDBRANCH   5   6
ENDBRANCH   4   5
ENDBRANCH   3   4
ENDBRANCH   2   3
ENDBRANCH   1   2
BRANCH   1  10
ATOM     10  C   UNL     1       7.856  -4.066  -4.478  1.00  0.00     0.027 C 
BRANCH  10  11
ATOM     11  C   UNL     1       7.586  -4.508  -3.066  1.00  0.00    -0.031 C 
ATOM     12  C   UNL     1       7.787  -5.776  -2.676  1.00  0.00    -0.031 C 
BRANCH  12  13
ATOM     13  C   UNL     1       7.518  -6.218  -1.264  1.00  0.00     0.027 C 
BRANCH  13  14
ATOM     14  C   UNL     1       8.702  -5.891  -0.344  1.00  0.00     0.004 C 
BRANCH  14  15
ATOM     15  C   UNL     1       8.393  -4.670   0.535  1.00  0.00     0.000 C 
BRANCH  15  16
ATOM     16  C   UNL     1       9.583  -3.705   0.645  1.00  0.00    -0.000 C 
BRANCH  16  17
ATOM     17  C   UNL     1       9.162  -2.232   0.547  1.00  0.00    -0.003 C 
ATOM     18  C   UNL     1       7.966  -2.064  -0.386  1.00  0.00     0.004 C 
ENDBRANCH  16  17
ENDBRANCH  15  16
ENDBRANCH  14  15
ENDBRANCH  13  14
ENDBRANCH  12  13
ENDBRANCH  10  11
ENDBRANCH   1  10
TORSDOF 13
ENDMDL
MODEL 9
REMARK VINA RESULT:    -3.714      2.637      4.746
REMARK INTER + INTRA:          -8.409
REMARK INTER:                  -6.697
REMARK INTRA:                  -1.712
REMARK UNBOUND:                -1.873
REMARK SMILES CCCCCCC=CCCCCCCCC(=O)[O-]
REMARK SMILES IDX 10 1 11 2 12 3 13 4 14 5 15 6 16 7 17 8 18 9 9 10 8 11 7 12
REMARK SMILES IDX 6 13 5 14 4 15 3 16 2 17 1 18
REMARK H PARENT
REMARK Flexibility Score: inf
ROOT
ATOM      1  C   UNL     1       7.059  -7.053  -2.450  1.00  0.00     0.004 C 
ENDROOT
BRANCH   1   2
ATOM      2  C   UNL     1       7.542  -7.525  -1.068  1.00  0.00     0.000 C 
BRANCH   2   3
ATOM      3  C   UNL     1       8.905  -6.927  -0.682  1.00  0.00     0.000 C 
BRANCH   3   4
ATOM      4  C   UNL     1       9.161  -5.563  -1.343  1.00  0.00     0.000 C 
BRANCH   4   5
ATOM      5  C   UNL     1       9.982  -4.615  -0.450  1.00  0.00     0.006 C 
BRANCH   5   6
ATOM      6  C   UNL     1       9.621  -3.142  -0.684  1.00  0.00     0.053 C 
BRANCH   6   7
ATOM      7  C   UNL     1       8.279  -2.798  -0.112  1.00  0.00     0.041 C 
ATOM      8  O   UNL     1       7.614  -1.841  -0.588  1.00  0.00    -0.550 OA
ATOM      9  O   UNL     1       7.750  -3.554   0.927  1.00  0.00    -0.550 OA
ENDBRANCH   6   7
ENDBRANCH   5   6
ENDBRANCH   4   5
ENDBRANCH   3   4
ENDBRANCH   2   3
ENDBRANCH   1   2
BRANCH   1  10
ATOM     10  C   UNL     1       6.775  -8.219  -3.408  1.00  0.00     0.027 C 
BRANCH  10  11
ATOM     11  C   UNL     1       5.804  -7.813  -4.482  1.00  0.00    -0.031 C 
ATOM     12  C   UNL     1       4.833  -6.915  -4.251  1.00  0.00    -0.031 C 
BRANCH  12  13
ATOM     13  C   UNL     1       3.863  -6.509  -5.326  1.00  0.00     0.027 C 
BRANCH  13  14
ATOM     14  C   UNL     1       3.869  -4.989  -5.534  1.00  0.00     0.004 C 
BRANCH  14  15
ATOM     15  C   UNL     1       4.315  -4.262  -4.257  1.00  0.00     0.000 C 
BRANCH  15  16
ATOM     16  C   UNL     1       5.472  -3.282  -4.508  1.00  0.00    -0.000 C 
BRANCH  16  17
ATOM     17  C   UNL     1       6.828  -3.838  -4.051  1.00  0.00    -0.003 C 
ATOM     18  C   UNL     1       7.617  -4.401  -5.230  1.00  0.00     0.004 C 
ENDBRANCH  16  17
ENDBRANCH  15  16
ENDBRANCH  14  15
ENDBRANCH  13  14
ENDBRANCH  12  13
ENDBRANCH  10  11
ENDBRANCH   1  10
TORSDOF 13
ENDMDL
