MODEL 1
REMARK VINA RESULT:    -7.606      0.000      0.000
REMARK INTER + INTRA:          -8.732
REMARK INTER:                  -8.273
REMARK INTRA:                  -0.459
REMARK UNBOUND:                -0.459
REMARK SMILES C=C(C)[C@H]1CC[C@@]2(C)CC[C@@]3(C)[C@H](CC[C@@H]4[C@@]5(C)CC[C@@H](O)C(C)(C)[C@@H]5CC[C@@]43C)[C@@H]12
REMARK SMILES IDX 4 1 5 2 6 3 7 4 31 5 13 6 14 7 15 8 16 9 17 10 19 11 20 12
REMARK SMILES IDX 21 13 23 14 26 15 27 16 28 17 29 18 11 19 10 20 9 21 12 22
REMARK SMILES IDX 30 23 24 24 25 25 18 26 8 27 2 28 3 29 1 30 22 31
REMARK H PARENT 22 32
REMARK Flexibility Score: inf
ROOT
ATOM      1  C   UNL     1      -6.500  30.801  47.908  1.00  0.00     0.018 C 
ATOM      2  C   UNL     1      -7.655  31.353  47.061  1.00  0.00     0.009 C 
ATOM      3  C   UNL     1      -8.006  30.255  46.077  1.00  0.00     0.008 C 
ATOM      4  C   UNL     1      -7.783  28.920  46.825  1.00  0.00    -0.029 C 
ATOM      5  C   UNL     1      -6.720  29.245  47.927  1.00  0.00     0.006 C 
ATOM      6  C   UNL     1      -5.455  28.285  48.042  1.00  0.00    -0.000 C 
ATOM      7  C   UNL     1      -5.689  27.185  49.120  1.00  0.00     0.005 C 
ATOM      8  C   UNL     1      -6.277  25.933  48.513  1.00  0.00     0.005 C 
ATOM      9  C   UNL     1      -5.291  25.200  47.536  1.00  0.00     0.002 C 
ATOM     10  C   UNL     1      -4.693  23.794  48.113  1.00  0.00    -0.026 C 
ATOM     11  C   UNL     1      -5.376  22.612  47.357  1.00  0.00     0.010 C 
ATOM     12  C   UNL     1      -4.770  21.242  47.705  1.00  0.00     0.033 C 
ATOM     13  C   UNL     1      -3.266  21.174  47.368  1.00  0.00     0.120 C 
ATOM     14  C   UNL     1      -2.428  22.300  48.076  1.00  0.00    -0.006 C 
ATOM     15  C   UNL     1      -3.153  23.694  47.835  1.00  0.00     0.003 C 
ATOM     16  C   UNL     1      -2.440  24.939  48.401  1.00  0.00     0.005 C 
ATOM     17  C   UNL     1      -2.903  26.260  47.734  1.00  0.00     0.008 C 
ATOM     18  C   UNL     1      -4.226  26.205  46.859  1.00  0.00    -0.024 C 
ATOM     19  C   UNL     1      -4.836  27.713  46.680  1.00  0.00    -0.024 C 
ATOM     20  C   UNL     1      -5.884  27.814  45.485  1.00  0.00     0.008 C 
ATOM     21  C   UNL     1      -7.364  27.811  45.835  1.00  0.00     0.007 C 
ATOM     22  C   UNL     1      -3.642  28.654  46.271  1.00  0.00     0.012 C 
ATOM     23  C   UNL     1      -3.800  25.649  45.432  1.00  0.00     0.012 C 
ATOM     24  C   UNL     1      -2.188  21.940  49.576  1.00  0.00     0.014 C 
ATOM     25  C   UNL     1      -1.018  22.327  47.406  1.00  0.00     0.014 C 
ATOM     26  C   UNL     1      -4.992  23.612  49.641  1.00  0.00     0.012 C 
ATOM     27  C   UNL     1      -9.133  28.502  47.472  1.00  0.00     0.011 C 
ENDROOT
BRANCH   1  28
ATOM     28  C   UNL     1      -5.120  31.335  47.498  1.00  0.00    -0.077 C 
ATOM     29  C   UNL     1      -4.847  31.887  46.115  1.00  0.00     0.039 C 
ATOM     30  C   UNL     1      -4.187  31.528  48.448  1.00  0.00     0.008 C 
ENDBRANCH   1  28
BRANCH  13  31
ATOM     31  O   UNL     1      -3.108  21.256  45.967  1.00  0.00    -0.393 OA
ATOM     32  H   UNL     1      -3.890  21.761  45.619  1.00  0.00     0.210 HD
ENDBRANCH  13  31
TORSDOF 2
ENDMDL
MODEL 2
REMARK VINA RESULT:    -7.557      2.371      5.016
REMARK INTER + INTRA:          -8.679
REMARK INTER:                  -8.241
REMARK INTRA:                  -0.438
REMARK UNBOUND:                -0.459
REMARK SMILES C=C(C)[C@H]1CC[C@@]2(C)CC[C@@]3(C)[C@H](CC[C@@H]4[C@@]5(C)CC[C@@H](O)C(C)(C)[C@@H]5CC[C@@]43C)[C@@H]12
REMARK SMILES IDX 4 1 5 2 6 3 7 4 31 5 13 6 14 7 15 8 16 9 17 10 19 11 20 12
REMARK SMILES IDX 21 13 23 14 26 15 27 16 28 17 29 18 11 19 10 20 9 21 12 22
REMARK SMILES IDX 30 23 24 24 25 25 18 26 8 27 2 28 3 29 1 30 22 31
REMARK H PARENT 22 32
REMARK Flexibility Score: inf
ROOT
ATOM      1  C   UNL     1      -5.261  27.406  48.112  1.00  0.00     0.018 C 
ATOM      2  C   UNL     1      -4.466  28.711  48.255  1.00  0.00     0.009 C 
ATOM      3  C   UNL     1      -3.022  28.294  48.451  1.00  0.00     0.008 C 
ATOM      4  C   UNL     1      -2.824  27.019  47.598  1.00  0.00    -0.029 C 
ATOM      5  C   UNL     1      -4.248  26.381  47.485  1.00  0.00     0.006 C 
ATOM      6  C   UNL     1      -4.398  24.835  47.829  1.00  0.00    -0.000 C 
ATOM      7  C   UNL     1      -4.315  23.967  46.539  1.00  0.00     0.005 C 
ATOM      8  C   UNL     1      -2.899  23.518  46.265  1.00  0.00     0.005 C 
ATOM      9  C   UNL     1      -2.351  22.517  47.343  1.00  0.00     0.002 C 
ATOM     10  C   UNL     1      -2.192  20.980  46.815  1.00  0.00    -0.026 C 
ATOM     11  C   UNL     1      -0.675  20.671  46.621  1.00  0.00     0.010 C 
ATOM     12  C   UNL     1      -0.397  19.197  46.281  1.00  0.00     0.033 C 
ATOM     13  C   UNL     1      -0.906  18.245  47.383  1.00  0.00     0.120 C 
ATOM     14  C   UNL     1      -2.438  18.421  47.686  1.00  0.00    -0.006 C 
ATOM     15  C   UNL     1      -2.738  19.970  47.884  1.00  0.00     0.003 C 
ATOM     16  C   UNL     1      -4.187  20.341  48.258  1.00  0.00     0.005 C 
ATOM     17  C   UNL     1      -4.307  21.746  48.905  1.00  0.00     0.008 C 
ATOM     18  C   UNL     1      -3.052  22.709  48.783  1.00  0.00    -0.024 C 
ATOM     19  C   UNL     1      -3.516  24.258  49.036  1.00  0.00    -0.024 C 
ATOM     20  C   UNL     1      -2.289  25.221  49.362  1.00  0.00     0.008 C 
ATOM     21  C   UNL     1      -1.759  26.102  48.241  1.00  0.00     0.007 C 
ATOM     22  C   UNL     1      -4.414  24.272  50.328  1.00  0.00     0.012 C 
ATOM     23  C   UNL     1      -2.040  22.280  49.931  1.00  0.00     0.012 C 
ATOM     24  C   UNL     1      -3.296  17.727  46.582  1.00  0.00     0.014 C 
ATOM     25  C   UNL     1      -2.745  17.661  49.015  1.00  0.00     0.014 C 
ATOM     26  C   UNL     1      -2.900  20.758  45.434  1.00  0.00     0.012 C 
ATOM     27  C   UNL     1      -2.304  27.453  46.201  1.00  0.00     0.011 C 
ENDROOT
BRANCH   1  28
ATOM     28  C   UNL     1      -6.015  26.997  49.385  1.00  0.00    -0.077 C 
ATOM     29  C   UNL     1      -5.548  27.407  50.766  1.00  0.00     0.039 C 
ATOM     30  C   UNL     1      -7.239  26.451  49.272  1.00  0.00     0.008 C 
ENDBRANCH   1  28
BRANCH  13  31
ATOM     31  O   UNL     1      -0.149  18.460  48.556  1.00  0.00    -0.393 OA
ATOM     32  H   UNL     1       0.654  17.878  48.489  1.00  0.00     0.210 HD
ENDBRANCH  13  31
TORSDOF 2
ENDMDL
MODEL 3
REMARK VINA RESULT:    -7.199      2.837      8.524
REMARK INTER + INTRA:          -8.290
REMARK INTER:                  -7.909
REMARK INTRA:                  -0.381
REMARK UNBOUND:                -0.459
REMARK SMILES C=C(C)[C@H]1CC[C@@]2(C)CC[C@@]3(C)[C@H](CC[C@@H]4[C@@]5(C)CC[C@@H](O)C(C)(C)[C@@H]5CC[C@@]43C)[C@@H]12
REMARK SMILES IDX 4 1 5 2 6 3 7 4 31 5 13 6 14 7 15 8 16 9 17 10 19 11 20 12
REMARK SMILES IDX 21 13 23 14 26 15 27 16 28 17 29 18 11 19 10 20 9 21 12 22
REMARK SMILES IDX 30 23 24 24 25 25 18 26 8 27 2 28 3 29 1 30 22 31
REMARK H PARENT 22 32
REMARK Flexibility Score: inf
ROOT
ATOM      1  C   UNL     1      -1.451  18.848  48.267  1.00  0.00     0.018 C 
ATOM      2  C   UNL     1      -0.829  18.259  46.993  1.00  0.00     0.009 C 
ATOM      3  C   UNL     1      -1.043  19.299  45.912  1.00  0.00     0.008 C 
ATOM      4  C   UNL     1      -0.931  20.675  46.609  1.00  0.00    -0.029 C 
ATOM      5  C   UNL     1      -1.314  20.405  48.102  1.00  0.00     0.006 C 
ATOM      6  C   UNL     1      -2.404  21.353  48.771  1.00  0.00    -0.000 C 
ATOM      7  C   UNL     1      -1.724  22.520  49.546  1.00  0.00     0.005 C 
ATOM      8  C   UNL     1      -1.554  23.740  48.672  1.00  0.00     0.005 C 
ATOM      9  C   UNL     1      -2.919  24.399  48.262  1.00  0.00     0.002 C 
ATOM     10  C   UNL     1      -3.221  25.830  48.989  1.00  0.00    -0.026 C 
ATOM     11  C   UNL     1      -3.038  26.971  47.941  1.00  0.00     0.010 C 
ATOM     12  C   UNL     1      -3.456  28.353  48.474  1.00  0.00     0.033 C 
ATOM     13  C   UNL     1      -4.936  28.380  48.906  1.00  0.00     0.120 C 
ATOM     14  C   UNL     1      -5.281  27.289  49.984  1.00  0.00    -0.006 C 
ATOM     15  C   UNL     1      -4.706  25.892  49.489  1.00  0.00     0.003 C 
ATOM     16  C   UNL     1      -5.005  24.676  50.388  1.00  0.00     0.005 C 
ATOM     17  C   UNL     1      -4.867  23.322  49.644  1.00  0.00     0.008 C 
ATOM     18  C   UNL     1      -4.136  23.341  48.235  1.00  0.00    -0.024 C 
ATOM     19  C   UNL     1      -3.628  21.832  47.854  1.00  0.00    -0.024 C 
ATOM     20  C   UNL     1      -3.285  21.671  46.307  1.00  0.00     0.008 C 
ATOM     21  C   UNL     1      -1.822  21.715  45.895  1.00  0.00     0.007 C 
ATOM     22  C   UNL     1      -4.830  20.852  48.122  1.00  0.00     0.012 C 
ATOM     23  C   UNL     1      -5.222  23.802  47.170  1.00  0.00     0.012 C 
ATOM     24  C   UNL     1      -4.780  27.737  51.393  1.00  0.00     0.014 C 
ATOM     25  C   UNL     1      -6.836  27.203  50.085  1.00  0.00     0.014 C 
ATOM     26  C   UNL     1      -2.229  26.109  50.170  1.00  0.00     0.012 C 
ATOM     27  C   UNL     1       0.545  21.149  46.499  1.00  0.00     0.011 C 
ENDROOT
BRANCH   1  28
ATOM     28  C   UNL     1      -2.834  18.272  48.604  1.00  0.00    -0.077 C 
ATOM     29  C   UNL     1      -3.803  17.819  47.531  1.00  0.00     0.039 C 
ATOM     30  C   UNL     1      -3.113  17.950  49.880  1.00  0.00     0.008 C 
ENDBRANCH   1  28
BRANCH  13  31
ATOM     31  O   UNL     1      -5.749  28.210  47.763  1.00  0.00    -0.393 OA
ATOM     32  H   UNL     1      -6.068  27.269  47.776  1.00  0.00     0.210 HD
ENDBRANCH  13  31
TORSDOF 2
ENDMDL
MODEL 4
REMARK VINA RESULT:    -7.063      2.647      8.456
REMARK INTER + INTRA:          -8.141
REMARK INTER:                  -7.907
REMARK INTRA:                  -0.235
REMARK UNBOUND:                -0.459
REMARK SMILES C=C(C)[C@H]1CC[C@@]2(C)CC[C@@]3(C)[C@H](CC[C@@H]4[C@@]5(C)CC[C@@H](O)C(C)(C)[C@@H]5CC[C@@]43C)[C@@H]12
REMARK SMILES IDX 4 1 5 2 6 3 7 4 31 5 13 6 14 7 15 8 16 9 17 10 19 11 20 12
REMARK SMILES IDX 21 13 23 14 26 15 27 16 28 17 29 18 11 19 10 20 9 21 12 22
REMARK SMILES IDX 30 23 24 24 25 25 18 26 8 27 2 28 3 29 1 30 22 31
REMARK H PARENT 22 32
REMARK Flexibility Score: inf
ROOT
ATOM      1  C   UNL     1      -0.964  19.068  46.284  1.00  0.00     0.018 C 
ATOM      2  C   UNL     1      -1.220  17.640  46.782  1.00  0.00     0.009 C 
ATOM      3  C   UNL     1      -2.173  17.776  47.952  1.00  0.00     0.008 C 
ATOM      4  C   UNL     1      -3.104  18.964  47.613  1.00  0.00    -0.029 C 
ATOM      5  C   UNL     1      -2.276  19.860  46.633  1.00  0.00     0.006 C 
ATOM      6  C   UNL     1      -2.179  21.416  46.954  1.00  0.00    -0.000 C 
ATOM      7  C   UNL     1      -3.265  22.214  46.173  1.00  0.00     0.005 C 
ATOM      8  C   UNL     1      -4.527  22.373  46.986  1.00  0.00     0.005 C 
ATOM      9  C   UNL     1      -4.333  23.281  48.253  1.00  0.00     0.002 C 
ATOM     10  C   UNL     1      -5.053  24.742  48.150  1.00  0.00    -0.026 C 
ATOM     11  C   UNL     1      -6.310  24.747  49.075  1.00  0.00     0.010 C 
ATOM     12  C   UNL     1      -6.975  26.130  49.183  1.00  0.00     0.033 C 
ATOM     13  C   UNL     1      -6.008  27.193  49.742  1.00  0.00     0.120 C 
ATOM     14  C   UNL     1      -4.687  27.325  48.901  1.00  0.00    -0.006 C 
ATOM     15  C   UNL     1      -4.092  25.869  48.667  1.00  0.00     0.003 C 
ATOM     16  C   UNL     1      -2.750  25.795  47.912  1.00  0.00     0.005 C 
ATOM     17  C   UNL     1      -1.996  24.460  48.142  1.00  0.00     0.008 C 
ATOM     18  C   UNL     1      -2.815  23.269  48.798  1.00  0.00    -0.024 C 
ATOM     19  C   UNL     1      -2.065  21.847  48.494  1.00  0.00    -0.024 C 
ATOM     20  C   UNL     1      -2.555  20.675  49.455  1.00  0.00     0.008 C 
ATOM     21  C   UNL     1      -3.561  19.676  48.905  1.00  0.00     0.007 C 
ATOM     22  C   UNL     1      -0.538  22.044  48.817  1.00  0.00     0.012 C 
ATOM     23  C   UNL     1      -2.809  23.529  50.367  1.00  0.00     0.012 C 
ATOM     24  C   UNL     1      -4.951  28.138  47.595  1.00  0.00     0.014 C 
ATOM     25  C   UNL     1      -3.677  28.168  49.740  1.00  0.00     0.014 C 
ATOM     26  C   UNL     1      -5.539  25.056  46.693  1.00  0.00     0.012 C 
ATOM     27  C   UNL     1      -4.365  18.397  46.904  1.00  0.00     0.011 C 
ENDROOT
BRANCH   1  28
ATOM     28  C   UNL     1       0.380  19.652  46.741  1.00  0.00    -0.077 C 
ATOM     29  C   UNL     1       1.282  18.932  47.721  1.00  0.00     0.039 C 
ATOM     30  C   UNL     1       0.882  20.720  46.093  1.00  0.00     0.008 C 
ENDBRANCH   1  28
BRANCH  13  31
ATOM     31  O   UNL     1      -5.702  26.872  51.083  1.00  0.00    -0.393 OA
ATOM     32  H   UNL     1      -6.263  27.461  51.654  1.00  0.00     0.210 HD
ENDBRANCH  13  31
TORSDOF 2
ENDMDL
MODEL 5
REMARK VINA RESULT:    -6.805      3.862      7.984
REMARK INTER + INTRA:          -7.861
REMARK INTER:                  -7.401
REMARK INTRA:                  -0.460
REMARK UNBOUND:                -0.459
REMARK SMILES C=C(C)[C@H]1CC[C@@]2(C)CC[C@@]3(C)[C@H](CC[C@@H]4[C@@]5(C)CC[C@@H](O)C(C)(C)[C@@H]5CC[C@@]43C)[C@@H]12
REMARK SMILES IDX 4 1 5 2 6 3 7 4 31 5 13 6 14 7 15 8 16 9 17 10 19 11 20 12
REMARK SMILES IDX 21 13 23 14 26 15 27 16 28 17 29 18 11 19 10 20 9 21 12 22
REMARK SMILES IDX 30 23 24 24 25 25 18 26 8 27 2 28 3 29 1 30 22 31
REMARK H PARENT 22 32
REMARK Flexibility Score: inf
ROOT
ATOM      1  C   UNL     1       1.889  23.623  51.901  1.00  0.00     0.018 C 
ATOM      2  C   UNL     1       2.190  23.460  53.397  1.00  0.00     0.009 C 
ATOM      3  C   UNL     1       1.018  24.087  54.125  1.00  0.00     0.008 C 
ATOM      4  C   UNL     1      -0.230  23.802  53.256  1.00  0.00    -0.029 C 
ATOM      5  C   UNL     1       0.320  23.625  51.802  1.00  0.00     0.006 C 
ATOM      6  C   UNL     1      -0.381  24.454  50.638  1.00  0.00    -0.000 C 
ATOM      7  C   UNL     1      -1.474  23.601  49.929  1.00  0.00     0.005 C 
ATOM      8  C   UNL     1      -2.831  23.805  50.560  1.00  0.00     0.005 C 
ATOM      9  C   UNL     1      -3.394  25.256  50.353  1.00  0.00     0.002 C 
ATOM     10  C   UNL     1      -4.645  25.350  49.308  1.00  0.00    -0.026 C 
ATOM     11  C   UNL     1      -5.955  25.599  50.118  1.00  0.00     0.010 C 
ATOM     12  C   UNL     1      -7.177  25.868  49.223  1.00  0.00     0.033 C 
ATOM     13  C   UNL     1      -6.971  27.102  48.321  1.00  0.00     0.120 C 
ATOM     14  C   UNL     1      -5.688  26.996  47.419  1.00  0.00    -0.006 C 
ATOM     15  C   UNL     1      -4.462  26.567  48.336  1.00  0.00     0.003 C 
ATOM     16  C   UNL     1      -3.090  26.475  47.639  1.00  0.00     0.005 C 
ATOM     17  C   UNL     1      -1.899  26.544  48.629  1.00  0.00     0.008 C 
ATOM     18  C   UNL     1      -2.227  26.355  50.171  1.00  0.00    -0.024 C 
ATOM     19  C   UNL     1      -0.865  25.943  50.980  1.00  0.00    -0.024 C 
ATOM     20  C   UNL     1      -0.998  26.156  52.553  1.00  0.00     0.008 C 
ATOM     21  C   UNL     1      -1.268  24.934  53.417  1.00  0.00     0.007 C 
ATOM     22  C   UNL     1       0.271  26.928  50.517  1.00  0.00     0.012 C 
ATOM     23  C   UNL     1      -2.734  27.765  50.700  1.00  0.00     0.012 C 
ATOM     24  C   UNL     1      -5.953  26.054  46.203  1.00  0.00     0.014 C 
ATOM     25  C   UNL     1      -5.416  28.412  46.820  1.00  0.00     0.014 C 
ATOM     26  C   UNL     1      -4.836  24.021  48.499  1.00  0.00     0.012 C 
ATOM     27  C   UNL     1      -0.874  22.483  53.763  1.00  0.00     0.011 C 
ENDROOT
BRANCH   1  28
ATOM     28  C   UNL     1       2.660  24.772  51.236  1.00  0.00    -0.077 C 
ATOM     29  C   UNL     1       3.187  25.953  52.023  1.00  0.00     0.039 C 
ATOM     30  C   UNL     1       3.077  24.627  49.965  1.00  0.00     0.008 C 
ENDBRANCH   1  28
BRANCH  13  31
ATOM     31  O   UNL     1      -6.901  28.255  49.134  1.00  0.00    -0.393 OA
ATOM     32  H   UNL     1      -5.972  28.600  49.063  1.00  0.00     0.210 HD
ENDBRANCH  13  31
TORSDOF 2
ENDMDL
MODEL 6
REMARK VINA RESULT:    -6.799      2.277      4.605
REMARK INTER + INTRA:          -7.854
REMARK INTER:                  -7.761
REMARK INTRA:                  -0.093
REMARK UNBOUND:                -0.459
REMARK SMILES C=C(C)[C@H]1CC[C@@]2(C)CC[C@@]3(C)[C@H](CC[C@@H]4[C@@]5(C)CC[C@@H](O)C(C)(C)[C@@H]5CC[C@@]43C)[C@@H]12
REMARK SMILES IDX 4 1 5 2 6 3 7 4 31 5 13 6 14 7 15 8 16 9 17 10 19 11 20 12
REMARK SMILES IDX 21 13 23 14 26 15 27 16 28 17 29 18 11 19 10 20 9 21 12 22
REMARK SMILES IDX 30 23 24 24 25 25 18 26 8 27 2 28 3 29 1 30 22 31
REMARK H PARENT 22 32
REMARK Flexibility Score: inf
ROOT
ATOM      1  C   UNL     1      -3.856  27.667  49.174  1.00  0.00     0.018 C 
ATOM      2  C   UNL     1      -4.792  28.251  50.240  1.00  0.00     0.009 C 
ATOM      3  C   UNL     1      -5.610  27.084  50.755  1.00  0.00     0.008 C 
ATOM      4  C   UNL     1      -4.671  25.855  50.726  1.00  0.00    -0.029 C 
ATOM      5  C   UNL     1      -3.613  26.179  49.621  1.00  0.00     0.006 C 
ATOM      6  C   UNL     1      -3.338  25.073  48.510  1.00  0.00    -0.000 C 
ATOM      7  C   UNL     1      -2.115  24.189  48.896  1.00  0.00     0.005 C 
ATOM      8  C   UNL     1      -2.541  22.961  49.666  1.00  0.00     0.005 C 
ATOM      9  C   UNL     1      -3.384  21.956  48.803  1.00  0.00     0.002 C 
ATOM     10  C   UNL     1      -2.598  20.578  48.416  1.00  0.00    -0.026 C 
ATOM     11  C   UNL     1      -3.184  19.411  49.269  1.00  0.00     0.010 C 
ATOM     12  C   UNL     1      -2.630  18.033  48.869  1.00  0.00     0.033 C 
ATOM     13  C   UNL     1      -2.929  17.697  47.394  1.00  0.00     0.120 C 
ATOM     14  C   UNL     1      -2.381  18.780  46.395  1.00  0.00    -0.006 C 
ATOM     15  C   UNL     1      -2.835  20.214  46.908  1.00  0.00     0.003 C 
ATOM     16  C   UNL     1      -2.446  21.411  46.017  1.00  0.00     0.005 C 
ATOM     17  C   UNL     1      -3.306  22.673  46.285  1.00  0.00     0.008 C 
ATOM     18  C   UNL     1      -4.185  22.683  47.607  1.00  0.00    -0.024 C 
ATOM     19  C   UNL     1      -4.593  24.222  47.989  1.00  0.00    -0.024 C 
ATOM     20  C   UNL     1      -5.806  24.298  49.019  1.00  0.00     0.008 C 
ATOM     21  C   UNL     1      -5.482  24.563  50.481  1.00  0.00     0.007 C 
ATOM     22  C   UNL     1      -5.116  24.908  46.673  1.00  0.00     0.012 C 
ATOM     23  C   UNL     1      -5.508  21.867  47.275  1.00  0.00     0.012 C 
ATOM     24  C   UNL     1      -0.841  18.613  46.202  1.00  0.00     0.014 C 
ATOM     25  C   UNL     1      -3.025  18.502  45.000  1.00  0.00     0.014 C 
ATOM     26  C   UNL     1      -1.065  20.669  48.728  1.00  0.00     0.012 C 
ATOM     27  C   UNL     1      -3.992  25.739  52.119  1.00  0.00     0.011 C 
ENDROOT
BRANCH   1  28
ATOM     28  C   UNL     1      -4.318  27.927  47.733  1.00  0.00    -0.077 C 
ATOM     29  C   UNL     1      -3.363  27.878  46.559  1.00  0.00     0.039 C 
ATOM     30  C   UNL     1      -5.636  27.979  47.470  1.00  0.00     0.008 C 
ENDBRANCH   1  28
BRANCH  13  31
ATOM     31  O   UNL     1      -4.325  17.548  47.234  1.00  0.00    -0.393 OA
ATOM     32  H   UNL     1      -4.461  16.963  46.442  1.00  0.00     0.210 HD
ENDBRANCH  13  31
TORSDOF 2
ENDMDL
MODEL 7
REMARK VINA RESULT:    -6.788      2.254      7.562
REMARK INTER + INTRA:          -7.842
REMARK INTER:                  -7.382
REMARK INTRA:                  -0.460
REMARK UNBOUND:                -0.459
REMARK SMILES C=C(C)[C@H]1CC[C@@]2(C)CC[C@@]3(C)[C@H](CC[C@@H]4[C@@]5(C)CC[C@@H](O)C(C)(C)[C@@H]5CC[C@@]43C)[C@@H]12
REMARK SMILES IDX 4 1 5 2 6 3 7 4 31 5 13 6 14 7 15 8 16 9 17 10 19 11 20 12
REMARK SMILES IDX 21 13 23 14 26 15 27 16 28 17 29 18 11 19 10 20 9 21 12 22
REMARK SMILES IDX 30 23 24 24 25 25 18 26 8 27 2 28 3 29 1 30 22 31
REMARK H PARENT 22 32
REMARK Flexibility Score: inf
ROOT
ATOM      1  C   UNL     1      -2.009  21.845  46.729  1.00  0.00     0.018 C 
ATOM      2  C   UNL     1      -2.335  20.616  47.589  1.00  0.00     0.009 C 
ATOM      3  C   UNL     1      -3.204  21.124  48.722  1.00  0.00     0.008 C 
ATOM      4  C   UNL     1      -4.067  22.261  48.125  1.00  0.00    -0.029 C 
ATOM      5  C   UNL     1      -3.238  22.806  46.916  1.00  0.00     0.006 C 
ATOM      6  C   UNL     1      -3.012  24.379  46.821  1.00  0.00    -0.000 C 
ATOM      7  C   UNL     1      -4.084  25.041  45.905  1.00  0.00     0.005 C 
ATOM      8  C   UNL     1      -5.280  25.507  46.701  1.00  0.00     0.005 C 
ATOM      9  C   UNL     1      -4.945  26.686  47.682  1.00  0.00     0.002 C 
ATOM     10  C   UNL     1      -5.565  28.129  47.235  1.00  0.00    -0.026 C 
ATOM     11  C   UNL     1      -6.760  28.474  48.179  1.00  0.00     0.010 C 
ATOM     12  C   UNL     1      -7.318  29.890  47.954  1.00  0.00     0.033 C 
ATOM     13  C   UNL     1      -6.246  30.975  48.181  1.00  0.00     0.120 C 
ATOM     14  C   UNL     1      -4.972  30.777  47.281  1.00  0.00    -0.006 C 
ATOM     15  C   UNL     1      -4.497  29.265  47.406  1.00  0.00     0.003 C 
ATOM     16  C   UNL     1      -3.212  28.890  46.642  1.00  0.00     0.005 C 
ATOM     17  C   UNL     1      -2.542  27.598  47.177  1.00  0.00     0.008 C 
ATOM     18  C   UNL     1      -3.402  26.686  48.150  1.00  0.00    -0.024 C 
ATOM     19  C   UNL     1      -2.774  25.174  48.192  1.00  0.00    -0.024 C 
ATOM     20  C   UNL     1      -3.287  24.331  49.442  1.00  0.00     0.008 C 
ATOM     21  C   UNL     1      -4.393  23.313  49.208  1.00  0.00     0.007 C 
ATOM     22  C   UNL     1      -1.220  25.319  48.392  1.00  0.00     0.012 C 
ATOM     23  C   UNL     1      -3.282  27.333  49.597  1.00  0.00     0.012 C 
ATOM     24  C   UNL     1      -5.256  31.253  45.822  1.00  0.00     0.014 C 
ATOM     25  C   UNL     1      -3.855  31.718  47.834  1.00  0.00     0.014 C 
ATOM     26  C   UNL     1      -6.114  28.103  45.768  1.00  0.00     0.012 C 
ATOM     27  C   UNL     1      -5.405  21.641  47.638  1.00  0.00     0.011 C 
ENDROOT
BRANCH   1  28
ATOM     28  C   UNL     1      -0.602  22.410  46.966  1.00  0.00    -0.077 C 
ATOM     29  C   UNL     1       0.167  22.153  48.244  1.00  0.00     0.039 C 
ATOM     30  C   UNL     1       0.062  22.960  45.933  1.00  0.00     0.008 C 
ENDBRANCH   1  28
BRANCH  13  31
ATOM     31  O   UNL     1      -5.883  30.979  49.546  1.00  0.00    -0.393 OA
ATOM     32  H   UNL     1      -6.562  30.434  50.025  1.00  0.00     0.210 HD
ENDBRANCH  13  31
TORSDOF 2
ENDMDL
MODEL 8
REMARK VINA RESULT:    -6.615      4.204      7.215
REMARK INTER + INTRA:          -7.654
REMARK INTER:                  -7.269
REMARK INTRA:                  -0.384
REMARK UNBOUND:                -0.459
REMARK SMILES C=C(C)[C@H]1CC[C@@]2(C)CC[C@@]3(C)[C@H](CC[C@@H]4[C@@]5(C)CC[C@@H](O)C(C)(C)[C@@H]5CC[C@@]43C)[C@@H]12
REMARK SMILES IDX 4 1 5 2 6 3 7 4 31 5 13 6 14 7 15 8 16 9 17 10 19 11 20 12
REMARK SMILES IDX 21 13 23 14 26 15 27 16 28 17 29 18 11 19 10 20 9 21 12 22
REMARK SMILES IDX 30 23 24 24 25 25 18 26 8 27 2 28 3 29 1 30 22 31
REMARK H PARENT 22 32
REMARK Flexibility Score: inf
ROOT
ATOM      1  C   UNL     1      -5.443  23.493  48.818  1.00  0.00     0.018 C 
ATOM      2  C   UNL     1      -5.728  22.478  47.702  1.00  0.00     0.009 C 
ATOM      3  C   UNL     1      -4.374  22.070  47.161  1.00  0.00     0.008 C 
ATOM      4  C   UNL     1      -3.408  22.074  48.369  1.00  0.00    -0.029 C 
ATOM      5  C   UNL     1      -4.035  23.085  49.385  1.00  0.00     0.006 C 
ATOM      6  C   UNL     1      -3.088  24.213  49.990  1.00  0.00    -0.000 C 
ATOM      7  C   UNL     1      -2.503  23.770  51.363  1.00  0.00     0.005 C 
ATOM      8  C   UNL     1      -1.170  23.080  51.200  1.00  0.00     0.005 C 
ATOM      9  C   UNL     1      -0.040  24.040  50.681  1.00  0.00     0.002 C 
ATOM     10  C   UNL     1       1.087  24.419  51.801  1.00  0.00    -0.026 C 
ATOM     11  C   UNL     1       2.405  23.655  51.462  1.00  0.00     0.010 C 
ATOM     12  C   UNL     1       3.587  24.064  52.358  1.00  0.00     0.033 C 
ATOM     13  C   UNL     1       3.904  25.569  52.243  1.00  0.00     0.120 C 
ATOM     14  C   UNL     1       2.670  26.483  52.574  1.00  0.00    -0.006 C 
ATOM     15  C   UNL     1       1.415  25.952  51.755  1.00  0.00     0.003 C 
ATOM     16  C   UNL     1       0.114  26.767  51.898  1.00  0.00     0.005 C 
ATOM     17  C   UNL     1      -0.890  26.517  50.742  1.00  0.00     0.008 C 
ATOM     18  C   UNL     1      -0.618  25.264  49.806  1.00  0.00    -0.024 C 
ATOM     19  C   UNL     1      -1.992  24.857  49.014  1.00  0.00    -0.024 C 
ATOM     20  C   UNL     1      -1.720  23.918  47.756  1.00  0.00     0.008 C 
ATOM     21  C   UNL     1      -1.975  22.427  47.912  1.00  0.00     0.007 C 
ATOM     22  C   UNL     1      -2.603  26.182  48.425  1.00  0.00     0.012 C 
ATOM     23  C   UNL     1       0.472  25.723  48.744  1.00  0.00     0.012 C 
ATOM     24  C   UNL     1       2.452  26.567  54.118  1.00  0.00     0.014 C 
ATOM     25  C   UNL     1       3.018  27.931  52.106  1.00  0.00     0.014 C 
ATOM     26  C   UNL     1       0.649  23.990  53.243  1.00  0.00     0.012 C 
ATOM     27  C   UNL     1      -3.383  20.640  48.967  1.00  0.00     0.011 C 
ENDROOT
BRANCH   1  28
ATOM     28  C   UNL     1      -5.663  24.953  48.399  1.00  0.00    -0.077 C 
ATOM     29  C   UNL     1      -5.428  25.430  46.981  1.00  0.00     0.039 C 
ATOM     30  C   UNL     1      -6.292  25.788  49.247  1.00  0.00     0.008 C 
ENDBRANCH   1  28
BRANCH  13  31
ATOM     31  O   UNL     1       4.374  25.837  50.938  1.00  0.00    -0.393 OA
ATOM     32  H   UNL     1       5.186  25.280  50.806  1.00  0.00     0.210 HD
ENDBRANCH  13  31
TORSDOF 2
ENDMDL
