MODEL 1
REMARK VINA RESULT:    -6.598      0.000      0.000
REMARK INTER + INTRA:          -7.488
REMARK INTER:                  -7.177
REMARK INTRA:                  -0.311
REMARK UNBOUND:                -0.311
REMARK SMILES C=C1C[C@@]2(O)O[C@@]3(C[C@@H]2C(C)C)[C@@H](C)CC[C@@H]13
REMARK SMILES IDX 14 1 13 2 15 3 16 4 17 5 7 6 8 7 9 8 4 9 6 10 3 11 2 12 1 13
REMARK SMILES IDX 10 14 11 15 12 16 5 17
REMARK H PARENT 5 18
REMARK Flexibility Score: inf
ROOT
ATOM      1  C   UNL     1      20.124 -18.004 -13.108  1.00  0.00     0.011 C 
ATOM      2  C   UNL     1      21.213 -16.922 -13.130  1.00  0.00     0.019 C 
ATOM      3  C   UNL     1      20.626 -15.508 -13.236  1.00  0.00     0.007 C 
ATOM      4  C   UNL     1      21.486 -14.599 -12.352  1.00  0.00     0.011 C 
ATOM      5  C   UNL     1      22.645 -15.458 -11.847  1.00  0.00     0.047 C 
ATOM      6  C   UNL     1      22.103 -16.899 -11.878  1.00  0.00     0.081 C 
ATOM      7  C   UNL     1      23.232 -17.935 -11.883  1.00  0.00     0.046 C 
ATOM      8  C   UNL     1      23.442 -18.219 -10.395  1.00  0.00     0.054 C 
ATOM      9  C   UNL     1      22.336 -17.354  -9.718  1.00  0.00     0.173 C 
ATOM     10  O   UNL     1      21.355 -17.133 -10.705  1.00  0.00    -0.342 OA
ATOM     11  C   UNL     1      22.890 -15.974  -9.272  1.00  0.00     0.096 C 
ATOM     12  C   UNL     1      23.116 -15.054 -10.458  1.00  0.00    -0.066 C 
ATOM     13  C   UNL     1      23.726 -13.875 -10.273  1.00  0.00     0.008 C 
ENDROOT
BRANCH   8  14
ATOM     14  C   UNL     1      23.449 -19.755 -10.090  1.00  0.00    -0.009 C 
ATOM     15  C   UNL     1      24.828 -20.339  -9.721  1.00  0.00     0.008 C 
ATOM     16  C   UNL     1      22.804 -20.567 -11.224  1.00  0.00     0.008 C 
ENDBRANCH   8  14
BRANCH   9  17
ATOM     17  O   UNL     1      21.772 -17.998  -8.605  1.00  0.00    -0.365 OA
ATOM     18  H   UNL     1      21.466 -17.293  -7.977  1.00  0.00     0.214 HD
ENDBRANCH   9  17
TORSDOF 2
ENDMDL
MODEL 2
REMARK VINA RESULT:    -6.573      1.629      3.530
REMARK INTER + INTRA:          -7.461
REMARK INTER:                  -7.153
REMARK INTRA:                  -0.308
REMARK UNBOUND:                -0.311
REMARK SMILES C=C1C[C@@]2(O)O[C@@]3(C[C@@H]2C(C)C)[C@@H](C)CC[C@@H]13
REMARK SMILES IDX 14 1 13 2 15 3 16 4 17 5 7 6 8 7 9 8 4 9 6 10 3 11 2 12 1 13
REMARK SMILES IDX 10 14 11 15 12 16 5 17
REMARK H PARENT 5 18
REMARK Flexibility Score: inf
ROOT
ATOM      1  C   UNL     1      24.369 -17.534  -8.969  1.00  0.00     0.011 C 
ATOM      2  C   UNL     1      23.138 -16.701  -9.355  1.00  0.00     0.019 C 
ATOM      3  C   UNL     1      23.481 -15.220  -9.569  1.00  0.00     0.007 C 
ATOM      4  C   UNL     1      22.639 -14.731 -10.751  1.00  0.00     0.011 C 
ATOM      5  C   UNL     1      21.712 -15.887 -11.129  1.00  0.00     0.047 C 
ATOM      6  C   UNL     1      22.455 -17.150 -10.656  1.00  0.00     0.081 C 
ATOM      7  C   UNL     1      21.508 -18.344 -10.495  1.00  0.00     0.046 C 
ATOM      8  C   UNL     1      21.572 -19.019 -11.867  1.00  0.00     0.054 C 
ATOM      9  C   UNL     1      22.624 -18.156 -12.628  1.00  0.00     0.173 C 
ATOM     10  O   UNL     1      23.399 -17.522 -11.636  1.00  0.00    -0.342 OA
ATOM     11  C   UNL     1      21.943 -17.054 -13.483  1.00  0.00     0.096 C 
ATOM     12  C   UNL     1      21.403 -15.931 -12.618  1.00  0.00    -0.066 C 
ATOM     13  C   UNL     1      20.657 -14.967 -13.176  1.00  0.00     0.008 C 
ENDROOT
BRANCH   8  14
ATOM     14  C   UNL     1      21.843 -20.556 -11.748  1.00  0.00    -0.009 C 
ATOM     15  C   UNL     1      20.579 -21.434 -11.655  1.00  0.00     0.008 C 
ATOM     16  C   UNL     1      22.812 -20.880 -10.601  1.00  0.00     0.008 C 
ENDBRANCH   8  14
BRANCH   9  17
ATOM     17  O   UNL     1      23.442 -18.937 -13.460  1.00  0.00    -0.365 OA
ATOM     18  H   UNL     1      24.385 -18.727 -13.232  1.00  0.00     0.214 HD
ENDBRANCH   9  17
TORSDOF 2
ENDMDL
MODEL 3
REMARK VINA RESULT:    -6.405      1.919      4.777
REMARK INTER + INTRA:          -7.278
REMARK INTER:                  -6.960
REMARK INTRA:                  -0.318
REMARK UNBOUND:                -0.311
REMARK SMILES C=C1C[C@@]2(O)O[C@@]3(C[C@@H]2C(C)C)[C@@H](C)CC[C@@H]13
REMARK SMILES IDX 14 1 13 2 15 3 16 4 17 5 7 6 8 7 9 8 4 9 6 10 3 11 2 12 1 13
REMARK SMILES IDX 10 14 11 15 12 16 5 17
REMARK H PARENT 5 18
REMARK Flexibility Score: inf
ROOT
ATOM      1  C   UNL     1      20.294 -20.343 -13.966  1.00  0.00     0.011 C 
ATOM      2  C   UNL     1      20.695 -20.683 -12.523  1.00  0.00     0.019 C 
ATOM      3  C   UNL     1      21.300 -22.088 -12.403  1.00  0.00     0.007 C 
ATOM      4  C   UNL     1      22.437 -22.000 -11.381  1.00  0.00     0.011 C 
ATOM      5  C   UNL     1      22.399 -20.582 -10.812  1.00  0.00     0.047 C 
ATOM      6  C   UNL     1      21.745 -19.736 -11.921  1.00  0.00     0.081 C 
ATOM      7  C   UNL     1      21.176 -18.421 -11.379  1.00  0.00     0.046 C 
ATOM      8  C   UNL     1      22.343 -17.447 -11.550  1.00  0.00     0.054 C 
ATOM      9  C   UNL     1      23.425 -18.324 -12.253  1.00  0.00     0.173 C 
ATOM     10  O   UNL     1      22.728 -19.382 -12.869  1.00  0.00    -0.342 OA
ATOM     11  C   UNL     1      24.416 -18.933 -11.225  1.00  0.00     0.096 C 
ATOM     12  C   UNL     1      23.778 -20.060 -10.436  1.00  0.00    -0.066 C 
ATOM     13  C   UNL     1      24.442 -20.604  -9.406  1.00  0.00     0.008 C 
ENDROOT
BRANCH   8  14
ATOM     14  C   UNL     1      21.900 -16.128 -12.267  1.00  0.00    -0.009 C 
ATOM     15  C   UNL     1      21.695 -14.917 -11.334  1.00  0.00     0.008 C 
ATOM     16  C   UNL     1      20.663 -16.344 -13.152  1.00  0.00     0.008 C 
ENDBRANCH   8  14
BRANCH   9  17
ATOM     17  O   UNL     1      24.150 -17.596 -13.209  1.00  0.00    -0.365 OA
ATOM     18  H   UNL     1      23.840 -17.890 -14.105  1.00  0.00     0.214 HD
ENDBRANCH   9  17
TORSDOF 2
ENDMDL
MODEL 4
REMARK VINA RESULT:    -6.368      1.979      3.789
REMARK INTER + INTRA:          -7.237
REMARK INTER:                  -6.923
REMARK INTRA:                  -0.314
REMARK UNBOUND:                -0.311
REMARK SMILES C=C1C[C@@]2(O)O[C@@]3(C[C@@H]2C(C)C)[C@@H](C)CC[C@@H]13
REMARK SMILES IDX 14 1 13 2 15 3 16 4 17 5 7 6 8 7 9 8 4 9 6 10 3 11 2 12 1 13
REMARK SMILES IDX 10 14 11 15 12 16 5 17
REMARK H PARENT 5 18
REMARK Flexibility Score: inf
ROOT
ATOM      1  C   UNL     1      23.768 -19.016  -8.998  1.00  0.00     0.011 C 
ATOM      2  C   UNL     1      22.500 -18.336  -9.531  1.00  0.00     0.019 C 
ATOM      3  C   UNL     1      22.366 -16.888  -9.040  1.00  0.00     0.007 C 
ATOM      4  C   UNL     1      21.796 -16.071 -10.203  1.00  0.00     0.011 C 
ATOM      5  C   UNL     1      21.474 -17.069 -11.316  1.00  0.00     0.047 C 
ATOM      6  C   UNL     1      22.427 -18.252 -11.064  1.00  0.00     0.081 C 
ATOM      7  C   UNL     1      21.941 -19.534 -11.747  1.00  0.00     0.046 C 
ATOM      8  C   UNL     1      22.631 -19.479 -13.110  1.00  0.00     0.054 C 
ATOM      9  C   UNL     1      23.502 -18.190 -13.005  1.00  0.00     0.173 C 
ATOM     10  O   UNL     1      23.686 -17.955 -11.627  1.00  0.00    -0.342 OA
ATOM     11  C   UNL     1      22.771 -16.962 -13.609  1.00  0.00     0.096 C 
ATOM     12  C   UNL     1      21.652 -16.479 -12.707  1.00  0.00    -0.066 C 
ATOM     13  C   UNL     1      20.822 -15.518 -13.138  1.00  0.00     0.008 C 
ENDROOT
BRANCH   8  14
ATOM     14  C   UNL     1      23.362 -20.823 -13.448  1.00  0.00    -0.009 C 
ATOM     15  C   UNL     1      22.521 -21.837 -14.248  1.00  0.00     0.008 C 
ATOM     16  C   UNL     1      23.956 -21.482 -12.194  1.00  0.00     0.008 C 
ENDBRANCH   8  14
BRANCH   9  17
ATOM     17  O   UNL     1      24.743 -18.341 -13.643  1.00  0.00    -0.365 OA
ATOM     18  H   UNL     1      24.609 -18.950 -14.416  1.00  0.00     0.214 HD
ENDBRANCH   9  17
TORSDOF 2
ENDMDL
MODEL 5
REMARK VINA RESULT:    -6.297      2.584      5.248
REMARK INTER + INTRA:          -7.161
REMARK INTER:                  -6.875
REMARK INTRA:                  -0.285
REMARK UNBOUND:                -0.311
REMARK SMILES C=C1C[C@@]2(O)O[C@@]3(C[C@@H]2C(C)C)[C@@H](C)CC[C@@H]13
REMARK SMILES IDX 14 1 13 2 15 3 16 4 17 5 7 6 8 7 9 8 4 9 6 10 3 11 2 12 1 13
REMARK SMILES IDX 10 14 11 15 12 16 5 17
REMARK H PARENT 5 18
REMARK Flexibility Score: inf
ROOT
ATOM      1  C   UNL     1      21.393 -19.131 -15.148  1.00  0.00     0.011 C 
ATOM      2  C   UNL     1      20.628 -20.184 -14.333  1.00  0.00     0.019 C 
ATOM      3  C   UNL     1      20.740 -21.587 -14.945  1.00  0.00     0.007 C 
ATOM      4  C   UNL     1      20.857 -22.576 -13.781  1.00  0.00     0.011 C 
ATOM      5  C   UNL     1      20.676 -21.760 -12.501  1.00  0.00     0.047 C 
ATOM      6  C   UNL     1      21.116 -20.334 -12.884  1.00  0.00     0.081 C 
ATOM      7  C   UNL     1      20.560 -19.285 -11.916  1.00  0.00     0.046 C 
ATOM      8  C   UNL     1      21.666 -19.168 -10.865  1.00  0.00     0.054 C 
ATOM      9  C   UNL     1      22.767 -20.125 -11.416  1.00  0.00     0.173 C 
ATOM     10  O   UNL     1      22.522 -20.249 -12.798  1.00  0.00    -0.342 OA
ATOM     11  C   UNL     1      22.661 -21.537 -10.779  1.00  0.00     0.096 C 
ATOM     12  C   UNL     1      21.479 -22.311 -11.333  1.00  0.00    -0.066 C 
ATOM     13  C   UNL     1      21.151 -23.493 -10.791  1.00  0.00     0.008 C 
ENDROOT
BRANCH   8  14
ATOM     14  C   UNL     1      22.065 -17.677 -10.602  1.00  0.00    -0.009 C 
ATOM     15  C   UNL     1      21.931 -17.217  -9.137  1.00  0.00     0.008 C 
ATOM     16  C   UNL     1      21.328 -16.713 -11.542  1.00  0.00     0.008 C 
ENDBRANCH   8  14
BRANCH   9  17
ATOM     17  O   UNL     1      24.059 -19.622 -11.194  1.00  0.00    -0.365 OA
ATOM     18  H   UNL     1      23.968 -18.799 -10.647  1.00  0.00     0.214 HD
ENDBRANCH   9  17
TORSDOF 2
ENDMDL
MODEL 6
REMARK VINA RESULT:    -6.285      2.176      3.779
REMARK INTER + INTRA:          -7.147
REMARK INTER:                  -6.916
REMARK INTRA:                  -0.232
REMARK UNBOUND:                -0.311
REMARK SMILES C=C1C[C@@]2(O)O[C@@]3(C[C@@H]2C(C)C)[C@@H](C)CC[C@@H]13
REMARK SMILES IDX 14 1 13 2 15 3 16 4 17 5 7 6 8 7 9 8 4 9 6 10 3 11 2 12 1 13
REMARK SMILES IDX 10 14 11 15 12 16 5 17
REMARK H PARENT 5 18
REMARK Flexibility Score: inf
ROOT
ATOM      1  C   UNL     1      22.155 -14.049 -13.921  1.00  0.00     0.011 C 
ATOM      2  C   UNL     1      22.736 -14.703 -12.659  1.00  0.00     0.019 C 
ATOM      3  C   UNL     1      22.279 -13.997 -11.376  1.00  0.00     0.007 C 
ATOM      4  C   UNL     1      22.043 -15.086 -10.325  1.00  0.00     0.011 C 
ATOM      5  C   UNL     1      22.493 -16.403 -10.958  1.00  0.00     0.047 C 
ATOM      6  C   UNL     1      22.341 -16.176 -12.474  1.00  0.00     0.081 C 
ATOM      7  C   UNL     1      23.182 -17.165 -13.288  1.00  0.00     0.046 C 
ATOM      8  C   UNL     1      22.211 -18.323 -13.528  1.00  0.00     0.054 C 
ATOM      9  C   UNL     1      20.891 -17.808 -12.878  1.00  0.00     0.173 C 
ATOM     10  O   UNL     1      20.997 -16.403 -12.840  1.00  0.00    -0.342 OA
ATOM     11  C   UNL     1      20.741 -18.319 -11.420  1.00  0.00     0.096 C 
ATOM     12  C   UNL     1      21.682 -17.596 -10.475  1.00  0.00    -0.066 C 
ATOM     13  C   UNL     1      21.790 -18.010  -9.205  1.00  0.00     0.008 C 
ENDROOT
BRANCH   8  14
ATOM     14  C   UNL     1      22.163 -18.738 -15.037  1.00  0.00    -0.009 C 
ATOM     15  C   UNL     1      22.063 -20.256 -15.291  1.00  0.00     0.008 C 
ATOM     16  C   UNL     1      23.326 -18.132 -15.836  1.00  0.00     0.008 C 
ENDBRANCH   8  14
BRANCH   9  17
ATOM     17  O   UNL     1      19.759 -18.191 -13.614  1.00  0.00    -0.365 OA
ATOM     18  H   UNL     1      18.965 -18.047 -13.035  1.00  0.00     0.214 HD
ENDBRANCH   9  17
TORSDOF 2
ENDMDL
MODEL 7
REMARK VINA RESULT:    -6.059      2.205      3.390
REMARK INTER + INTRA:          -6.902
REMARK INTER:                  -6.646
REMARK INTRA:                  -0.256
REMARK UNBOUND:                -0.311
REMARK SMILES C=C1C[C@@]2(O)O[C@@]3(C[C@@H]2C(C)C)[C@@H](C)CC[C@@H]13
REMARK SMILES IDX 14 1 13 2 15 3 16 4 17 5 7 6 8 7 9 8 4 9 6 10 3 11 2 12 1 13
REMARK SMILES IDX 10 14 11 15 12 16 5 17
REMARK H PARENT 5 18
REMARK Flexibility Score: inf
ROOT
ATOM      1  C   UNL     1      20.022 -18.856 -13.252  1.00  0.00     0.011 C 
ATOM      2  C   UNL     1      21.295 -18.133 -12.790  1.00  0.00     0.019 C 
ATOM      3  C   UNL     1      20.999 -17.036 -11.758  1.00  0.00     0.007 C 
ATOM      4  C   UNL     1      22.137 -17.066 -10.733  1.00  0.00     0.011 C 
ATOM      5  C   UNL     1      23.155 -18.084 -11.247  1.00  0.00     0.047 C 
ATOM      6  C   UNL     1      22.333 -19.048 -12.122  1.00  0.00     0.081 C 
ATOM      7  C   UNL     1      23.216 -19.827 -13.103  1.00  0.00     0.046 C 
ATOM      8  C   UNL     1      23.564 -21.093 -12.319  1.00  0.00     0.054 C 
ATOM      9  C   UNL     1      22.759 -20.913 -10.996  1.00  0.00     0.173 C 
ATOM     10  O   UNL     1      21.718 -20.010 -11.292  1.00  0.00    -0.342 OA
ATOM     11  C   UNL     1      23.636 -20.287  -9.879  1.00  0.00     0.096 C 
ATOM     12  C   UNL     1      23.882 -18.810 -10.125  1.00  0.00    -0.066 C 
ATOM     13  C   UNL     1      24.738 -18.142  -9.339  1.00  0.00     0.008 C 
ENDROOT
BRANCH   8  14
ATOM     14  C   UNL     1      23.300 -22.389 -13.158  1.00  0.00    -0.009 C 
ATOM     15  C   UNL     1      24.429 -23.437 -13.107  1.00  0.00     0.008 C 
ATOM     16  C   UNL     1      22.929 -22.063 -14.612  1.00  0.00     0.008 C 
ENDBRANCH   8  14
BRANCH   9  17
ATOM     17  O   UNL     1      22.231 -22.128 -10.532  1.00  0.00    -0.365 OA
ATOM     18  H   UNL     1      21.562 -21.914  -9.830  1.00  0.00     0.214 HD
ENDBRANCH   9  17
TORSDOF 2
ENDMDL
MODEL 8
REMARK VINA RESULT:    -6.040      2.040      4.221
REMARK INTER + INTRA:          -6.881
REMARK INTER:                  -6.649
REMARK INTRA:                  -0.232
REMARK UNBOUND:                -0.311
REMARK SMILES C=C1C[C@@]2(O)O[C@@]3(C[C@@H]2C(C)C)[C@@H](C)CC[C@@H]13
REMARK SMILES IDX 14 1 13 2 15 3 16 4 17 5 7 6 8 7 9 8 4 9 6 10 3 11 2 12 1 13
REMARK SMILES IDX 10 14 11 15 12 16 5 17
REMARK H PARENT 5 18
REMARK Flexibility Score: inf
ROOT
ATOM      1  C   UNL     1      21.498 -15.992 -11.652  1.00  0.00     0.011 C 
ATOM      2  C   UNL     1      22.795 -16.555 -11.052  1.00  0.00     0.019 C 
ATOM      3  C   UNL     1      22.805 -16.482  -9.519  1.00  0.00     0.007 C 
ATOM      4  C   UNL     1      23.482 -17.759  -9.014  1.00  0.00     0.011 C 
ATOM      5  C   UNL     1      23.983 -18.502 -10.253  1.00  0.00     0.047 C 
ATOM      6  C   UNL     1      23.056 -18.030 -11.389  1.00  0.00     0.081 C 
ATOM      7  C   UNL     1      23.677 -18.265 -12.770  1.00  0.00     0.046 C 
ATOM      8  C   UNL     1      23.162 -19.655 -13.145  1.00  0.00     0.054 C 
ATOM      9  C   UNL     1      22.232 -20.015 -11.946  1.00  0.00     0.173 C 
ATOM     10  O   UNL     1      21.867 -18.789 -11.355  1.00  0.00    -0.342 OA
ATOM     11  C   UNL     1      22.981 -20.859 -10.881  1.00  0.00     0.096 C 
ATOM     12  C   UNL     1      23.957 -20.013 -10.085  1.00  0.00    -0.066 C 
ATOM     13  C   UNL     1      24.794 -20.606  -9.221  1.00  0.00     0.008 C 
ENDROOT
BRANCH   8  14
ATOM     14  C   UNL     1      22.536 -19.677 -14.581  1.00  0.00    -0.009 C 
ATOM     15  C   UNL     1      22.843 -20.943 -15.405  1.00  0.00     0.008 C 
ATOM     16  C   UNL     1      22.891 -18.413 -15.379  1.00  0.00     0.008 C 
ENDBRANCH   8  14
BRANCH   9  17
ATOM     17  O   UNL     1      21.088 -20.716 -12.360  1.00  0.00    -0.365 OA
ATOM     18  H   UNL     1      21.302 -21.147 -13.229  1.00  0.00     0.214 HD
ENDBRANCH   9  17
TORSDOF 2
ENDMDL
MODEL 9
REMARK VINA RESULT:    -5.967      1.755      5.135
REMARK INTER + INTRA:          -6.801
REMARK INTER:                  -6.566
REMARK INTRA:                  -0.236
REMARK UNBOUND:                -0.311
REMARK SMILES C=C1C[C@@]2(O)O[C@@]3(C[C@@H]2C(C)C)[C@@H](C)CC[C@@H]13
REMARK SMILES IDX 14 1 13 2 15 3 16 4 17 5 7 6 8 7 9 8 4 9 6 10 3 11 2 12 1 13
REMARK SMILES IDX 10 14 11 15 12 16 5 17
REMARK H PARENT 5 18
REMARK Flexibility Score: inf
ROOT
ATOM      1  C   UNL     1      22.487 -17.958  -9.506  1.00  0.00     0.011 C 
ATOM      2  C   UNL     1      23.537 -17.943 -10.626  1.00  0.00     0.019 C 
ATOM      3  C   UNL     1      24.167 -19.324 -10.852  1.00  0.00     0.007 C 
ATOM      4  C   UNL     1      24.368 -19.483 -12.362  1.00  0.00     0.011 C 
ATOM      5  C   UNL     1      23.984 -18.144 -12.993  1.00  0.00     0.047 C 
ATOM      6  C   UNL     1      22.990 -17.517 -11.997  1.00  0.00     0.081 C 
ATOM      7  C   UNL     1      22.867 -16.002 -12.189  1.00  0.00     0.046 C 
ATOM      8  C   UNL     1      21.707 -15.875 -13.177  1.00  0.00     0.054 C 
ATOM      9  C   UNL     1      21.253 -17.354 -13.370  1.00  0.00     0.173 C 
ATOM     10  O   UNL     1      21.706 -18.053 -12.232  1.00  0.00    -0.342 OA
ATOM     11  C   UNL     1      21.915 -17.992 -14.621  1.00  0.00     0.096 C 
ATOM     12  C   UNL     1      23.381 -18.299 -14.381  1.00  0.00    -0.066 C 
ATOM     13  C   UNL     1      24.144 -18.718 -15.400  1.00  0.00     0.008 C 
ENDROOT
BRANCH   8  14
ATOM     14  C   UNL     1      20.634 -14.845 -12.686  1.00  0.00    -0.009 C 
ATOM     15  C   UNL     1      20.038 -13.950 -13.791  1.00  0.00     0.008 C 
ATOM     16  C   UNL     1      21.151 -13.992 -11.519  1.00  0.00     0.008 C 
ENDBRANCH   8  14
BRANCH   9  17
ATOM     17  O   UNL     1      19.858 -17.465 -13.486  1.00  0.00    -0.365 OA
ATOM     18  H   UNL     1      19.668 -17.949 -14.332  1.00  0.00     0.214 HD
ENDBRANCH   9  17
TORSDOF 2
ENDMDL
