MODEL 1
REMARK VINA RESULT:    -4.203      0.000      0.000
REMARK INTER + INTRA:          -5.569
REMARK INTER:                  -5.923
REMARK INTRA:                   0.354
REMARK UNBOUND:                 0.354
REMARK SMILES CC1=CCC(=C(C)C)C(=O)CC(C)=CCC1
REMARK SMILES IDX 12 1 14 2 13 3 15 4 16 5 2 6 1 7 3 8 11 10 9 11 10 12 5 13
REMARK SMILES IDX 6 14 7 15 8 16 4 17
REMARK H PARENT
REMARK Flexibility Score: 60.00
ROOT
ATOM      1  C   UNL     1      -7.932  73.939  21.388  1.00  0.00    -0.070 C 
ATOM      2  C   UNL     1      -9.193  74.212  21.789  1.00  0.00    -0.027 C 
ATOM      3  C   UNL     1      -7.712  73.590  19.938  1.00  0.00     0.039 C 
ENDROOT
BRANCH   2   4
ATOM      4  C   UNL     1      -9.627  74.487  23.213  1.00  0.00     0.032 C 
BRANCH   4   5
ATOM      5  C   UNL     1     -10.118  73.248  23.991  1.00  0.00     0.034 C 
BRANCH   5   6
ATOM      6  C   UNL     1      -9.324  72.985  25.258  1.00  0.00    -0.077 C 
ATOM      7  C   UNL     1      -9.713  73.745  26.500  1.00  0.00     0.039 C 
ATOM      8  C   UNL     1      -8.247  72.166  25.327  1.00  0.00    -0.023 CG0
ATOM      9  G   UNL     1      -7.688  71.293  24.220  1.00  0.00     0.000 G0
ENDBRANCH   5   6
ENDBRANCH   4   5
ENDBRANCH   2   4
BRANCH   1  10
ATOM     10  C   UNL     1      -6.753  73.875  22.337  1.00  0.00     0.111 C 
BRANCH  10  11
ATOM     11  C   UNL     1      -6.225  72.471  22.474  1.00  0.00     0.163 C 
ATOM     12  O   UNL     1      -5.738  71.917  21.452  1.00  0.00    -0.294 OA
BRANCH  11  13
ATOM     13  C   UNL     1      -6.314  71.702  23.751  1.00  0.00    -0.002 C 
ATOM     14  C   UNL     1      -5.183  71.328  24.422  1.00  0.00    -0.069 C 
ATOM     15  C   UNL     1      -5.233  70.417  25.628  1.00  0.00     0.039 C 
ATOM     16  C   UNL     1      -3.817  71.808  23.986  1.00  0.00     0.039 C 
BRANCH  13  17
ATOM     17  C   UNL     1      -7.699  71.279  24.212  1.00  0.00     0.066 CG0
ATOM     18  G   UNL     1      -8.228  72.158  25.329  1.00  0.00     0.000 G0
ENDBRANCH  13  17
ENDBRANCH  11  13
ENDBRANCH  10  11
ENDBRANCH   1  10
TORSDOF 0
ENDMDL
MODEL 2
REMARK VINA RESULT:    -4.156      1.961      3.901
REMARK INTER + INTRA:          -5.503
REMARK INTER:                  -5.619
REMARK INTRA:                   0.115
REMARK UNBOUND:                 0.354
REMARK SMILES CC1=CCC(=C(C)C)C(=O)CC(C)=CCC1
REMARK SMILES IDX 12 1 14 2 13 3 15 4 16 5 2 6 1 7 3 8 11 10 9 11 10 12 5 13
REMARK SMILES IDX 6 14 7 15 8 16 4 17
REMARK H PARENT
REMARK Flexibility Score: 60.00
ROOT
ATOM      1  C   UNL     1      -9.072  72.836  25.035  1.00  0.00    -0.070 C 
ATOM      2  C   UNL     1      -9.444  73.971  24.404  1.00  0.00    -0.027 C 
ATOM      3  C   UNL     1      -9.120  72.817  26.542  1.00  0.00     0.039 C 
ENDROOT
BRANCH   2   4
ATOM      4  C   UNL     1      -9.372  74.216  22.912  1.00  0.00     0.032 C 
BRANCH   4   5
ATOM      5  C   UNL     1      -7.986  74.649  22.392  1.00  0.00     0.034 C 
BRANCH   5   6
ATOM      6  C   UNL     1      -7.526  73.855  21.183  1.00  0.00    -0.077 C 
ATOM      7  C   UNL     1      -8.251  74.077  19.880  1.00  0.00     0.039 C 
ATOM      8  C   UNL     1      -6.555  72.909  21.215  1.00  0.00    -0.023 CG0
ATOM      9  G   UNL     1      -5.685  72.531  22.397  1.00  0.00     0.000 G0
ENDBRANCH   5   6
ENDBRANCH   4   5
ENDBRANCH   2   4
BRANCH   1  10
ATOM     10  C   UNL     1      -8.525  71.622  24.311  1.00  0.00     0.111 C 
BRANCH  10  11
ATOM     11  C   UNL     1      -7.021  71.572  24.369  1.00  0.00     0.163 C 
ATOM     12  O   UNL     1      -6.461  71.805  25.474  1.00  0.00    -0.294 OA
BRANCH  11  13
ATOM     13  C   UNL     1      -6.180  71.318  23.161  1.00  0.00    -0.002 C 
ATOM     14  C   UNL     1      -5.821  70.045  22.814  1.00  0.00    -0.069 C 
ATOM     15  C   UNL     1      -4.844  69.766  21.694  1.00  0.00     0.039 C 
ATOM     16  C   UNL     1      -6.386  68.845  23.542  1.00  0.00     0.039 C 
BRANCH  13  17
ATOM     17  C   UNL     1      -5.670  72.532  22.401  1.00  0.00     0.066 CG0
ATOM     18  G   UNL     1      -6.563  72.895  21.231  1.00  0.00     0.000 G0
ENDBRANCH  13  17
ENDBRANCH  11  13
ENDBRANCH  10  11
ENDBRANCH   1  10
TORSDOF 0
ENDMDL
MODEL 3
REMARK VINA RESULT:    -3.724     11.616     13.734
REMARK INTER + INTRA:          -4.894
REMARK INTER:                  -5.090
REMARK INTRA:                   0.196
REMARK UNBOUND:                 0.354
REMARK SMILES CC1=CCC(=C(C)C)C(=O)CC(C)=CCC1
REMARK SMILES IDX 12 1 14 2 13 3 15 4 16 5 2 6 1 7 3 8 11 10 9 11 10 12 5 13
REMARK SMILES IDX 6 14 7 15 8 16 4 17
REMARK H PARENT
REMARK Flexibility Score: 60.00
ROOT
ATOM      1  C   UNL     1     -10.195  72.579  35.135  1.00  0.00    -0.070 C 
ATOM      2  C   UNL     1     -11.379  72.889  35.706  1.00  0.00    -0.027 C 
ATOM      3  C   UNL     1     -10.073  72.723  33.639  1.00  0.00     0.039 C 
ENDROOT
BRANCH   2   4
ATOM      4  C   UNL     1     -11.726  72.719  37.169  1.00  0.00     0.032 C 
BRANCH   4   5
ATOM      5  C   UNL     1     -12.019  71.267  37.601  1.00  0.00     0.034 C 
BRANCH   5   6
ATOM      6  C   UNL     1     -11.240  70.842  38.833  1.00  0.00    -0.077 C 
ATOM      7  C   UNL     1     -11.518  71.569  40.125  1.00  0.00     0.039 C 
ATOM      8  C   UNL     1     -10.264  69.902  38.832  1.00  0.00    -0.023 CG0
ATOM      9  G   UNL     1      -9.829  69.036  37.666  1.00  0.00     0.000 G0
ENDBRANCH   5   6
ENDBRANCH   4   5
ENDBRANCH   2   4
BRANCH   1  10
ATOM     10  C   UNL     1      -9.023  72.010  35.908  1.00  0.00     0.111 C 
BRANCH  10  11
ATOM     11  C   UNL     1      -8.933  70.514  35.761  1.00  0.00     0.163 C 
ATOM     12  O   UNL     1      -9.164  70.014  34.627  1.00  0.00    -0.294 OA
BRANCH  11  13
ATOM     13  C   UNL     1      -8.644  69.611  36.914  1.00  0.00    -0.002 C 
ATOM     14  C   UNL     1      -7.359  69.259  37.221  1.00  0.00    -0.069 C 
ATOM     15  C   UNL     1      -7.044  68.225  38.279  1.00  0.00     0.039 C 
ATOM     16  C   UNL     1      -6.182  69.889  36.510  1.00  0.00     0.039 C 
BRANCH  13  17
ATOM     17  C   UNL     1      -9.835  69.033  37.661  1.00  0.00     0.066 CG0
ATOM     18  G   UNL     1     -10.257  69.900  38.832  1.00  0.00     0.000 G0
ENDBRANCH  13  17
ENDBRANCH  11  13
ENDBRANCH  10  11
ENDBRANCH   1  10
TORSDOF 0
ENDMDL
MODEL 4
REMARK VINA RESULT:    -3.564      4.271      6.299
REMARK INTER + INTRA:          -4.669
REMARK INTER:                  -4.894
REMARK INTRA:                   0.225
REMARK UNBOUND:                 0.354
REMARK SMILES CC1=CCC(=C(C)C)C(=O)CC(C)=CCC1
REMARK SMILES IDX 12 1 14 2 13 3 15 4 16 5 2 6 1 7 3 8 11 10 9 11 10 12 5 13
REMARK SMILES IDX 6 14 7 15 8 16 4 17
REMARK H PARENT
REMARK Flexibility Score: 60.00
ROOT
ATOM      1  C   UNL     1      -7.039  66.267  23.099  1.00  0.00    -0.070 C 
ATOM      2  C   UNL     1      -7.193  67.483  22.531  1.00  0.00    -0.027 C 
ATOM      3  C   UNL     1      -7.245  65.051  22.232  1.00  0.00     0.039 C 
ENDROOT
BRANCH   2   4
ATOM      4  C   UNL     1      -7.124  68.811  23.254  1.00  0.00     0.032 C 
BRANCH   4   5
ATOM      5  C   UNL     1      -5.711  69.421  23.355  1.00  0.00     0.034 C 
BRANCH   5   6
ATOM      6  C   UNL     1      -5.389  69.956  24.739  1.00  0.00    -0.077 C 
ATOM      7  C   UNL     1      -5.984  71.284  25.134  1.00  0.00     0.039 C 
ATOM      8  C   UNL     1      -4.547  69.353  25.613  1.00  0.00    -0.023 CG0
ATOM      9  G   UNL     1      -3.853  68.016  25.442  1.00  0.00     0.000 G0
ENDBRANCH   5   6
ENDBRANCH   4   5
ENDBRANCH   2   4
BRANCH   1  10
ATOM     10  C   UNL     1      -6.765  66.068  24.576  1.00  0.00     0.111 C 
BRANCH  10  11
ATOM     11  C   UNL     1      -5.289  65.998  24.863  1.00  0.00     0.163 C 
ATOM     12  O   UNL     1      -4.596  65.167  24.216  1.00  0.00    -0.294 OA
BRANCH  11  13
ATOM     13  C   UNL     1      -4.637  66.830  25.918  1.00  0.00    -0.002 C 
ATOM     14  C   UNL     1      -4.847  66.567  27.244  1.00  0.00    -0.069 C 
ATOM     15  C   UNL     1      -4.332  67.482  28.332  1.00  0.00     0.039 C 
ATOM     16  C   UNL     1      -5.612  65.340  27.689  1.00  0.00     0.039 C 
BRANCH  13  17
ATOM     17  C   UNL     1      -3.818  68.025  25.456  1.00  0.00     0.066 CG0
ATOM     18  G   UNL     1      -4.569  69.333  25.613  1.00  0.00     0.000 G0
ENDBRANCH  13  17
ENDBRANCH  11  13
ENDBRANCH  10  11
ENDBRANCH   1  10
TORSDOF 0
ENDMDL
MODEL 5
REMARK VINA RESULT:    -3.231      2.038      5.319
REMARK INTER + INTRA:          -4.199
REMARK INTER:                  -4.496
REMARK INTRA:                   0.297
REMARK UNBOUND:                 0.354
REMARK SMILES CC1=CCC(=C(C)C)C(=O)CC(C)=CCC1
REMARK SMILES IDX 12 1 14 2 13 3 15 4 16 5 2 6 1 7 3 8 11 10 9 11 10 12 5 13
REMARK SMILES IDX 6 14 7 15 8 16 4 17
REMARK H PARENT
REMARK Flexibility Score: 60.00
ROOT
ATOM      1  C   UNL     1      -4.738  70.752  24.392  1.00  0.00    -0.070 C 
ATOM      2  C   UNL     1      -3.740  70.594  23.494  1.00  0.00    -0.027 C 
ATOM      3  C   UNL     1      -4.990  69.633  25.370  1.00  0.00     0.039 C 
ENDROOT
BRANCH   2   4
ATOM      4  C   UNL     1      -3.398  71.556  22.376  1.00  0.00     0.032 C 
BRANCH   4   5
ATOM      5  C   UNL     1      -4.451  71.643  21.252  1.00  0.00     0.034 C 
BRANCH   5   6
ATOM      6  C   UNL     1      -4.909  73.064  20.973  1.00  0.00    -0.077 C 
ATOM      7  C   UNL     1      -3.858  74.082  20.612  1.00  0.00     0.039 C 
ATOM      8  C   UNL     1      -6.190  73.490  21.095  1.00  0.00    -0.023 CG0
ATOM      9  G   UNL     1      -7.408  72.648  21.425  1.00  0.00     0.000 G0
ENDBRANCH   5   6
ENDBRANCH   4   5
ENDBRANCH   2   4
BRANCH   1  10
ATOM     10  C   UNL     1      -5.668  71.948  24.400  1.00  0.00     0.111 C 
BRANCH  10  11
ATOM     11  C   UNL     1      -6.993  71.626  23.761  1.00  0.00     0.163 C 
ATOM     12  O   UNL     1      -7.454  70.462  23.904  1.00  0.00    -0.294 OA
BRANCH  11  13
ATOM     13  C   UNL     1      -7.739  72.612  22.923  1.00  0.00    -0.002 C 
ATOM     14  C   UNL     1      -8.719  73.394  23.469  1.00  0.00    -0.069 C 
ATOM     15  C   UNL     1      -9.598  74.285  22.620  1.00  0.00     0.039 C 
ATOM     16  C   UNL     1      -8.975  73.404  24.960  1.00  0.00     0.039 C 
BRANCH  13  17
ATOM     17  C   UNL     1      -7.428  72.637  21.435  1.00  0.00     0.066 CG0
ATOM     18  G   UNL     1      -6.212  73.484  21.115  1.00  0.00     0.000 G0
ENDBRANCH  13  17
ENDBRANCH  11  13
ENDBRANCH  10  11
ENDBRANCH   1  10
TORSDOF 0
ENDMDL
MODEL 6
REMARK VINA RESULT:    -3.218      4.531      6.771
REMARK INTER + INTRA:          -4.181
REMARK INTER:                  -4.404
REMARK INTRA:                   0.224
REMARK UNBOUND:                 0.354
REMARK SMILES CC1=CCC(=C(C)C)C(=O)CC(C)=CCC1
REMARK SMILES IDX 12 1 14 2 13 3 15 4 16 5 2 6 1 7 3 8 11 10 9 11 10 12 5 13
REMARK SMILES IDX 6 14 7 15 8 16 4 17
REMARK H PARENT
REMARK Flexibility Score: 60.00
ROOT
ATOM      1  C   UNL     1      -4.200  69.543  26.760  1.00  0.00    -0.070 C 
ATOM      2  C   UNL     1      -4.784  70.422  25.916  1.00  0.00    -0.027 C 
ATOM      3  C   UNL     1      -4.747  69.438  28.161  1.00  0.00     0.039 C 
ENDROOT
BRANCH   2   4
ATOM      4  C   UNL     1      -4.321  70.739  24.511  1.00  0.00     0.032 C 
BRANCH   4   5
ATOM      5  C   UNL     1      -4.459  69.577  23.505  1.00  0.00     0.034 C 
BRANCH   5   6
ATOM      6  C   UNL     1      -5.749  68.793  23.672  1.00  0.00    -0.077 C 
ATOM      7  C   UNL     1      -7.042  69.488  23.330  1.00  0.00     0.039 C 
ATOM      8  C   UNL     1      -5.818  67.536  24.175  1.00  0.00    -0.023 CG0
ATOM      9  G   UNL     1      -4.658  66.642  24.567  1.00  0.00     0.000 G0
ENDBRANCH   5   6
ENDBRANCH   4   5
ENDBRANCH   2   4
BRANCH   1  10
ATOM     10  C   UNL     1      -2.972  68.733  26.397  1.00  0.00     0.111 C 
BRANCH  10  11
ATOM     11  C   UNL     1      -3.206  67.256  26.580  1.00  0.00     0.163 C 
ATOM     12  O   UNL     1      -2.309  66.579  27.151  1.00  0.00    -0.294 OA
BRANCH  11  13
ATOM     13  C   UNL     1      -4.424  66.567  26.059  1.00  0.00    -0.002 C 
ATOM     14  C   UNL     1      -5.234  65.851  26.896  1.00  0.00    -0.069 C 
ATOM     15  C   UNL     1      -6.382  65.015  26.376  1.00  0.00     0.039 C 
ATOM     16  C   UNL     1      -5.019  65.861  28.393  1.00  0.00     0.039 C 
BRANCH  13  17
ATOM     17  C   UNL     1      -4.663  66.618  24.558  1.00  0.00     0.066 CG0
ATOM     18  G   UNL     1      -5.805  67.545  24.189  1.00  0.00     0.000 G0
ENDBRANCH  13  17
ENDBRANCH  11  13
ENDBRANCH  10  11
ENDBRANCH   1  10
TORSDOF 0
ENDMDL
MODEL 7
REMARK VINA RESULT:    -3.041     11.783     13.578
REMARK INTER + INTRA:          -3.931
REMARK INTER:                  -4.267
REMARK INTRA:                   0.337
REMARK UNBOUND:                 0.354
REMARK SMILES CC1=CCC(=C(C)C)C(=O)CC(C)=CCC1
REMARK SMILES IDX 12 1 14 2 13 3 15 4 16 5 2 6 1 7 3 8 11 10 9 11 10 12 5 13
REMARK SMILES IDX 6 14 7 15 8 16 4 17
REMARK H PARENT
REMARK Flexibility Score: 60.00
ROOT
ATOM      1  C   UNL     1      -4.583  67.465  33.860  1.00  0.00    -0.070 C 
ATOM      2  C   UNL     1      -5.890  67.392  33.526  1.00  0.00    -0.027 C 
ATOM      3  C   UNL     1      -3.566  67.433  32.747  1.00  0.00     0.039 C 
ENDROOT
BRANCH   2   4
ATOM      4  C   UNL     1      -7.047  67.312  34.498  1.00  0.00     0.032 C 
BRANCH   4   5
ATOM      5  C   UNL     1      -7.416  68.647  35.178  1.00  0.00     0.034 C 
BRANCH   5   6
ATOM      6  C   UNL     1      -7.363  68.579  36.694  1.00  0.00    -0.077 C 
ATOM      7  C   UNL     1      -8.384  67.720  37.394  1.00  0.00     0.039 C 
ATOM      8  C   UNL     1      -6.504  69.295  37.460  1.00  0.00    -0.023 CG0
ATOM      9  G   UNL     1      -5.389  70.204  36.980  1.00  0.00     0.000 G0
ENDBRANCH   5   6
ENDBRANCH   4   5
ENDBRANCH   2   4
BRANCH   1  10
ATOM     10  C   UNL     1      -4.091  67.482  35.293  1.00  0.00     0.111 C 
BRANCH  10  11
ATOM     11  C   UNL     1      -3.598  68.847  35.695  1.00  0.00     0.163 C 
ATOM     12  O   UNL     1      -2.754  69.417  34.952  1.00  0.00    -0.294 OA
BRANCH  11  13
ATOM     13  C   UNL     1      -4.026  69.513  36.962  1.00  0.00    -0.002 C 
ATOM     14  C   UNL     1      -3.259  69.428  38.090  1.00  0.00    -0.069 C 
ATOM     15  C   UNL     1      -3.737  69.955  39.425  1.00  0.00     0.039 C 
ATOM     16  C   UNL     1      -1.884  68.798  38.058  1.00  0.00     0.039 C 
BRANCH  13  17
ATOM     17  C   UNL     1      -5.384  70.198  36.963  1.00  0.00     0.066 CG0
ATOM     18  G   UNL     1      -6.490  69.284  37.454  1.00  0.00     0.000 G0
ENDBRANCH  13  17
ENDBRANCH  11  13
ENDBRANCH  10  11
ENDBRANCH   1  10
TORSDOF 0
ENDMDL
MODEL 8
REMARK VINA RESULT:    -2.960     12.013     14.257
REMARK INTER + INTRA:          -3.818
REMARK INTER:                  -4.444
REMARK INTRA:                   0.626
REMARK UNBOUND:                 0.354
REMARK SMILES CC1=CCC(=C(C)C)C(=O)CC(C)=CCC1
REMARK SMILES IDX 12 1 14 2 13 3 15 4 16 5 2 6 1 7 3 8 11 10 9 11 10 12 5 13
REMARK SMILES IDX 6 14 7 15 8 16 4 17
REMARK H PARENT
REMARK Flexibility Score: 60.00
ROOT
ATOM      1  C   UNL     1      -6.807  67.177  38.505  1.00  0.00    -0.070 C 
ATOM      2  C   UNL     1      -8.119  67.159  38.826  1.00  0.00    -0.027 C 
ATOM      3  C   UNL     1      -6.121  65.855  38.266  1.00  0.00     0.039 C 
ENDROOT
BRANCH   2   4
ATOM      4  C   UNL     1      -8.954  68.367  39.196  1.00  0.00     0.032 C 
BRANCH   4   5
ATOM      5  C   UNL     1     -10.027  68.756  38.158  1.00  0.00     0.034 C 
BRANCH   5   6
ATOM      6  C   UNL     1      -9.566  69.843  37.203  1.00  0.00    -0.077 C 
ATOM      7  C   UNL     1     -10.118  71.232  37.403  1.00  0.00     0.039 C 
ATOM      8  C   UNL     1      -8.749  69.632  36.142  1.00  0.00    -0.023 CG0
ATOM      9  G   UNL     1      -8.065  68.334  35.758  1.00  0.00     0.000 G0
ENDBRANCH   5   6
ENDBRANCH   4   5
ENDBRANCH   2   4
BRANCH   1  10
ATOM     10  C   UNL     1      -5.977  68.443  38.468  1.00  0.00     0.111 C 
BRANCH  10  11
ATOM     11  C   UNL     1      -6.013  69.092  37.109  1.00  0.00     0.163 C 
ATOM     12  O   UNL     1      -5.624  70.287  37.011  1.00  0.00    -0.294 OA
BRANCH  11  13
ATOM     13  C   UNL     1      -6.547  68.394  35.902  1.00  0.00    -0.002 C 
ATOM     14  C   UNL     1      -5.702  67.916  34.940  1.00  0.00    -0.069 C 
ATOM     15  C   UNL     1      -6.214  67.348  33.635  1.00  0.00     0.039 C 
ATOM     16  C   UNL     1      -4.202  67.934  35.134  1.00  0.00     0.039 C 
BRANCH  13  17
ATOM     17  C   UNL     1      -8.058  68.327  35.748  1.00  0.00     0.066 CG0
ATOM     18  G   UNL     1      -8.735  69.626  36.139  1.00  0.00     0.000 G0
ENDBRANCH  13  17
ENDBRANCH  11  13
ENDBRANCH  10  11
ENDBRANCH   1  10
TORSDOF 0
ENDMDL
MODEL 9
REMARK VINA RESULT:    -2.919     12.043     13.928
REMARK INTER + INTRA:          -3.760
REMARK INTER:                  -4.289
REMARK INTRA:                   0.530
REMARK UNBOUND:                 0.354
REMARK SMILES CC1=CCC(=C(C)C)C(=O)CC(C)=CCC1
REMARK SMILES IDX 12 1 14 2 13 3 15 4 16 5 2 6 1 7 3 8 11 10 9 11 10 12 5 13
REMARK SMILES IDX 6 14 7 15 8 16 4 17
REMARK H PARENT
REMARK Flexibility Score: 60.00
ROOT
ATOM      1  C   UNL     1      -7.549  68.905  35.995  1.00  0.00    -0.070 C 
ATOM      2  C   UNL     1      -7.098  69.779  36.921  1.00  0.00    -0.027 C 
ATOM      3  C   UNL     1      -8.992  68.475  36.072  1.00  0.00     0.039 C 
ENDROOT
BRANCH   2   4
ATOM      4  C   UNL     1      -5.668  70.252  37.068  1.00  0.00     0.032 C 
BRANCH   4   5
ATOM      5  C   UNL     1      -4.818  69.444  38.071  1.00  0.00     0.034 C 
BRANCH   5   6
ATOM      6  C   UNL     1      -3.360  69.331  37.662  1.00  0.00    -0.077 C 
ATOM      7  C   UNL     1      -2.463  70.513  37.929  1.00  0.00     0.039 C 
ATOM      8  C   UNL     1      -2.830  68.267  37.012  1.00  0.00    -0.023 CG0
ATOM      9  G   UNL     1      -3.530  66.969  36.657  1.00  0.00     0.000 G0
ENDBRANCH   5   6
ENDBRANCH   4   5
ENDBRANCH   2   4
BRANCH   1  10
ATOM     10  C   UNL     1      -6.657  68.271  34.947  1.00  0.00     0.111 C 
BRANCH  10  11
ATOM     11  C   UNL     1      -5.833  67.149  35.523  1.00  0.00     0.163 C 
ATOM     12  O   UNL     1      -6.425  66.261  36.194  1.00  0.00    -0.294 OA
BRANCH  11  13
ATOM     13  C   UNL     1      -4.348  67.090  35.379  1.00  0.00    -0.002 C 
ATOM     14  C   UNL     1      -3.766  67.057  34.142  1.00  0.00    -0.069 C 
ATOM     15  C   UNL     1      -2.281  66.839  33.963  1.00  0.00     0.039 C 
ATOM     16  C   UNL     1      -4.587  67.238  32.885  1.00  0.00     0.039 C 
BRANCH  13  17
ATOM     17  C   UNL     1      -3.529  66.972  36.655  1.00  0.00     0.066 CG0
ATOM     18  G   UNL     1      -2.819  68.265  37.006  1.00  0.00     0.000 G0
ENDBRANCH  13  17
ENDBRANCH  11  13
ENDBRANCH  10  11
ENDBRANCH   1  10
TORSDOF 0
ENDMDL
