MODEL 1
REMARK VINA RESULT:    -5.095      0.000      0.000
REMARK INTER + INTRA:          -6.296
REMARK INTER:                  -5.989
REMARK INTRA:                  -0.307
REMARK UNBOUND:                -0.307
REMARK SMILES O=c1cc(-c2ccc(O)c(O)c2)oc2cc(O)cc(O)c12
REMARK SMILES IDX 4 1 3 2 2 3 1 4 21 5 19 6 18 7 16 8 15 9 14 10 13 11 5 12
REMARK SMILES IDX 6 13 7 14 8 15 12 16 10 17 9 18 11 20 20 22 17 24
REMARK H PARENT 9 19 11 21 20 23 17 25
REMARK Flexibility Score: inf
ROOT
ATOM      1  C   UNL     1      98.830 109.163 108.738  1.00  0.00     0.138 A 
ATOM      2  C   UNL     1      99.966 109.082 109.555  1.00  0.00     0.100 A 
ATOM      3  C   UNL     1     100.280 107.876 110.184  1.00  0.00     0.197 A 
ATOM      4  O   UNL     1     101.336 107.822 110.865  1.00  0.00    -0.289 OA
ATOM      5  C   UNL     1      99.431 106.756 110.021  1.00  0.00     0.107 A 
ATOM      6  C   UNL     1      99.632 105.484 110.641  1.00  0.00     0.134 A 
ATOM      7  C   UNL     1      98.779 104.421 110.325  1.00  0.00     0.093 A 
ATOM      8  C   UNL     1      97.698 104.595 109.460  1.00  0.00     0.123 A 
ATOM      9  C   UNL     1      97.462 105.846 108.889  1.00  0.00     0.094 A 
ATOM     10  C   UNL     1      98.316 106.918 109.156  1.00  0.00     0.146 A 
ATOM     11  O   UNL     1      98.066 108.088 108.577  1.00  0.00    -0.456 OA
ENDROOT
BRANCH   1  12
ATOM     12  C   UNL     1      98.446 110.421 108.049  1.00  0.00     0.021 A 
ATOM     13  C   UNL     1      99.405 111.373 107.659  1.00  0.00     0.016 A 
ATOM     14  C   UNL     1      99.014 112.542 107.004  1.00  0.00     0.051 A 
ATOM     15  C   UNL     1      97.668 112.785 106.714  1.00  0.00     0.157 A 
ATOM     16  C   UNL     1      97.095 110.659 107.745  1.00  0.00     0.062 A 
ATOM     17  C   UNL     1      96.695 111.829 107.088  1.00  0.00     0.158 A 
BRANCH  15  18
ATOM     18  O   UNL     1      97.345 113.975 106.059  1.00  0.00    -0.504 OA
ATOM     19  H   UNL     1      96.464 114.143 105.596  1.00  0.00     0.293 HD
ENDBRANCH  15  18
BRANCH  17  20
ATOM     20  O   UNL     1      95.333 111.998 106.830  1.00  0.00    -0.504 OA
ATOM     21  H   UNL     1      94.733 112.622 107.351  1.00  0.00     0.293 HD
ENDBRANCH  17  20
ENDBRANCH   1  12
BRANCH   6  22
ATOM     22  O   UNL     1     100.634 105.220 111.581  1.00  0.00    -0.507 OA
ATOM     23  H   UNL     1     100.487 104.776 112.474  1.00  0.00     0.293 HD
ENDBRANCH   6  22
BRANCH   8  24
ATOM     24  O   UNL     1      96.860 103.517 109.183  1.00  0.00    -0.508 OA
ATOM     25  H   UNL     1      97.154 102.758 108.579  1.00  0.00     0.293 HD
ENDBRANCH   8  24
TORSDOF 5
ENDMDL
MODEL 2
REMARK VINA RESULT:    -4.953      1.711      7.284
REMARK INTER + INTRA:          -6.129
REMARK INTER:                  -5.867
REMARK INTRA:                  -0.263
REMARK UNBOUND:                -0.307
REMARK SMILES O=c1cc(-c2ccc(O)c(O)c2)oc2cc(O)cc(O)c12
REMARK SMILES IDX 4 1 3 2 2 3 1 4 21 5 19 6 18 7 16 8 15 9 14 10 13 11 5 12
REMARK SMILES IDX 6 13 7 14 8 15 12 16 10 17 9 18 11 20 20 22 17 24
REMARK H PARENT 9 19 11 21 20 23 17 25
REMARK Flexibility Score: inf
ROOT
ATOM      1  C   UNL     1      98.101 109.475 108.570  1.00  0.00     0.138 A 
ATOM      2  C   UNL     1      96.904 110.083 108.168  1.00  0.00     0.100 A 
ATOM      3  C   UNL     1      96.944 111.265 107.427  1.00  0.00     0.197 A 
ATOM      4  O   UNL     1      95.854 111.756 107.036  1.00  0.00    -0.289 OA
ATOM      5  C   UNL     1      98.191 111.860 107.119  1.00  0.00     0.107 A 
ATOM      6  C   UNL     1      98.354 113.083 106.399  1.00  0.00     0.134 A 
ATOM      7  C   UNL     1      99.641 113.521 106.067  1.00  0.00     0.093 A 
ATOM      8  C   UNL     1     100.772 112.816 106.478  1.00  0.00     0.123 A 
ATOM      9  C   UNL     1     100.626 111.647 107.226  1.00  0.00     0.094 A 
ATOM     10  C   UNL     1      99.354 111.164 107.542  1.00  0.00     0.146 A 
ATOM     11  O   UNL     1      99.259 110.037 108.240  1.00  0.00    -0.456 OA
ENDROOT
BRANCH   1  12
ATOM     12  C   UNL     1      98.117 108.219 109.362  1.00  0.00     0.021 A 
ATOM     13  C   UNL     1      98.197 108.231 110.766  1.00  0.00     0.016 A 
ATOM     14  C   UNL     1      98.200 107.034 111.484  1.00  0.00     0.051 A 
ATOM     15  C   UNL     1      98.114 105.804 110.824  1.00  0.00     0.157 A 
ATOM     16  C   UNL     1      98.017 106.983 108.701  1.00  0.00     0.062 A 
ATOM     17  C   UNL     1      98.020 105.778 109.413  1.00  0.00     0.158 A 
BRANCH  15  18
ATOM     18  O   UNL     1      98.125 104.644 111.602  1.00  0.00    -0.504 OA
ATOM     19  H   UNL     1      98.916 104.340 112.151  1.00  0.00     0.293 HD
ENDBRANCH  15  18
BRANCH  17  20
ATOM     20  O   UNL     1      97.927 104.590 108.685  1.00  0.00    -0.504 OA
ATOM     21  H   UNL     1      97.889 103.672 109.105  1.00  0.00     0.293 HD
ENDBRANCH  17  20
ENDBRANCH   1  12
BRANCH   6  22
ATOM     22  O   UNL     1      97.295 113.909 106.007  1.00  0.00    -0.507 OA
ATOM     23  H   UNL     1      96.642 113.703 105.267  1.00  0.00     0.293 HD
ENDBRANCH   6  22
BRANCH   8  24
ATOM     24  O   UNL     1     102.038 113.293 106.143  1.00  0.00    -0.508 OA
ATOM     25  H   UNL     1     102.670 113.658 106.847  1.00  0.00     0.293 HD
ENDBRANCH   8  24
TORSDOF 5
ENDMDL
MODEL 3
REMARK VINA RESULT:    -4.940      1.912      6.741
REMARK INTER + INTRA:          -6.114
REMARK INTER:                  -5.835
REMARK INTRA:                  -0.279
REMARK UNBOUND:                -0.307
REMARK SMILES O=c1cc(-c2ccc(O)c(O)c2)oc2cc(O)cc(O)c12
REMARK SMILES IDX 4 1 3 2 2 3 1 4 21 5 19 6 18 7 16 8 15 9 14 10 13 11 5 12
REMARK SMILES IDX 6 13 7 14 8 15 12 16 10 17 9 18 11 20 20 22 17 24
REMARK H PARENT 9 19 11 21 20 23 17 25
REMARK Flexibility Score: inf
ROOT
ATOM      1  C   UNL     1      98.218 109.101 108.518  1.00  0.00     0.138 A 
ATOM      2  C   UNL     1      99.608 109.096 108.705  1.00  0.00     0.100 A 
ATOM      3  C   UNL     1     100.368 110.179 108.261  1.00  0.00     0.197 A 
ATOM      4  O   UNL     1     101.605 110.168 108.492  1.00  0.00    -0.289 OA
ATOM      5  C   UNL     1      99.737 111.256 107.594  1.00  0.00     0.107 A 
ATOM      6  C   UNL     1     100.415 112.398 107.068  1.00  0.00     0.134 A 
ATOM      7  C   UNL     1      99.671 113.448 106.517  1.00  0.00     0.093 A 
ATOM      8  C   UNL     1      98.282 113.375 106.419  1.00  0.00     0.123 A 
ATOM      9  C   UNL     1      97.613 112.242 106.884  1.00  0.00     0.094 A 
ATOM     10  C   UNL     1      98.323 111.192 107.472  1.00  0.00     0.146 A 
ATOM     11  O   UNL     1      97.646 110.139 107.918  1.00  0.00    -0.456 OA
ENDROOT
BRANCH   1  12
ATOM     12  C   UNL     1      97.361 107.975 108.967  1.00  0.00     0.021 A 
ATOM     13  C   UNL     1      96.097 108.191 109.542  1.00  0.00     0.016 A 
ATOM     14  C   UNL     1      95.310 107.111 109.946  1.00  0.00     0.051 A 
ATOM     15  C   UNL     1      95.758 105.797 109.778  1.00  0.00     0.157 A 
ATOM     16  C   UNL     1      97.805 106.654 108.786  1.00  0.00     0.062 A 
ATOM     17  C   UNL     1      97.022 105.565 109.189  1.00  0.00     0.158 A 
BRANCH  15  18
ATOM     18  O   UNL     1      94.922 104.763 110.206  1.00  0.00    -0.504 OA
ATOM     19  H   UNL     1      94.122 104.432 109.686  1.00  0.00     0.293 HD
ENDBRANCH  15  18
BRANCH  17  20
ATOM     20  O   UNL     1      97.535 104.283 108.985  1.00  0.00    -0.504 OA
ATOM     21  H   UNL     1      98.215 104.053 108.273  1.00  0.00     0.293 HD
ENDBRANCH  17  20
ENDBRANCH   1  12
BRANCH   6  22
ATOM     22  O   UNL     1     101.806 112.541 107.042  1.00  0.00    -0.507 OA
ATOM     23  H   UNL     1     102.386 112.716 107.848  1.00  0.00     0.293 HD
ENDBRANCH   6  22
BRANCH   8  24
ATOM     24  O   UNL     1      97.577 114.432 105.848  1.00  0.00    -0.508 OA
ATOM     25  H   UNL     1      97.931 114.931 105.040  1.00  0.00     0.293 HD
ENDBRANCH   8  24
TORSDOF 5
ENDMDL
MODEL 4
REMARK VINA RESULT:    -4.928      3.575      6.031
REMARK INTER + INTRA:          -6.100
REMARK INTER:                  -5.786
REMARK INTRA:                  -0.313
REMARK UNBOUND:                -0.307
REMARK SMILES O=c1cc(-c2ccc(O)c(O)c2)oc2cc(O)cc(O)c12
REMARK SMILES IDX 4 1 3 2 2 3 1 4 21 5 19 6 18 7 16 8 15 9 14 10 13 11 5 12
REMARK SMILES IDX 6 13 7 14 8 15 12 16 10 17 9 18 11 20 20 22 17 24
REMARK H PARENT 9 19 11 21 20 23 17 25
REMARK Flexibility Score: inf
ROOT
ATOM      1  C   UNL     1     100.627 110.985 108.122  1.00  0.00     0.138 A 
ATOM      2  C   UNL     1     101.067 109.693 108.444  1.00  0.00     0.100 A 
ATOM      3  C   UNL     1     102.407 109.482 108.772  1.00  0.00     0.197 A 
ATOM      4  O   UNL     1     102.758 108.322 109.110  1.00  0.00    -0.289 OA
ATOM      5  C   UNL     1     103.318 110.564 108.742  1.00  0.00     0.107 A 
ATOM      6  C   UNL     1     104.715 110.461 109.024  1.00  0.00     0.134 A 
ATOM      7  C   UNL     1     105.498 111.621 109.061  1.00  0.00     0.093 A 
ATOM      8  C   UNL     1     104.952 112.870 108.768  1.00  0.00     0.123 A 
ATOM      9  C   UNL     1     103.599 112.976 108.441  1.00  0.00     0.094 A 
ATOM     10  C   UNL     1     102.783 111.842 108.431  1.00  0.00     0.146 A 
ATOM     11  O   UNL     1     101.496 111.989 108.132  1.00  0.00    -0.456 OA
ENDROOT
BRANCH   1  12
ATOM     12  C   UNL     1      99.214 111.266 107.763  1.00  0.00     0.021 A 
ATOM     13  C   UNL     1      98.174 110.387 108.108  1.00  0.00     0.016 A 
ATOM     14  C   UNL     1      96.854 110.683 107.765  1.00  0.00     0.051 A 
ATOM     15  C   UNL     1      96.540 111.862 107.080  1.00  0.00     0.157 A 
ATOM     16  C   UNL     1      98.897 112.457 107.087  1.00  0.00     0.062 A 
ATOM     17  C   UNL     1      97.576 112.762 106.738  1.00  0.00     0.158 A 
BRANCH  15  18
ATOM     18  O   UNL     1      95.200 112.097 106.764  1.00  0.00    -0.504 OA
ATOM     19  H   UNL     1      94.519 112.450 107.421  1.00  0.00     0.293 HD
ENDBRANCH  15  18
BRANCH  17  20
ATOM     20  O   UNL     1      97.341 113.959 106.059  1.00  0.00    -0.504 OA
ATOM     21  H   UNL     1      96.592 114.094 105.394  1.00  0.00     0.293 HD
ENDBRANCH  17  20
ENDBRANCH   1  12
BRANCH   6  22
ATOM     22  O   UNL     1     105.381 109.253 109.254  1.00  0.00    -0.507 OA
ATOM     23  H   UNL     1     105.027 108.493 109.814  1.00  0.00     0.293 HD
ENDBRANCH   6  22
BRANCH   8  24
ATOM     24  O   UNL     1     105.766 114.000 108.797  1.00  0.00    -0.508 OA
ATOM     25  H   UNL     1     106.504 114.139 108.115  1.00  0.00     0.293 HD
ENDBRANCH   8  24
TORSDOF 5
ENDMDL
MODEL 5
REMARK VINA RESULT:    -4.865      7.761     10.375
REMARK INTER + INTRA:          -6.025
REMARK INTER:                  -5.711
REMARK INTRA:                  -0.315
REMARK UNBOUND:                -0.307
REMARK SMILES O=c1cc(-c2ccc(O)c(O)c2)oc2cc(O)cc(O)c12
REMARK SMILES IDX 4 1 3 2 2 3 1 4 21 5 19 6 18 7 16 8 15 9 14 10 13 11 5 12
REMARK SMILES IDX 6 13 7 14 8 15 12 16 10 17 9 18 11 20 20 22 17 24
REMARK H PARENT 9 19 11 21 20 23 17 25
REMARK Flexibility Score: inf
ROOT
ATOM      1  C   UNL     1     106.981 108.026 110.290  1.00  0.00     0.138 A 
ATOM      2  C   UNL     1     107.822 107.239 111.089  1.00  0.00     0.100 A 
ATOM      3  C   UNL     1     109.182 107.545 111.170  1.00  0.00     0.197 A 
ATOM      4  O   UNL     1     109.899 106.853 111.939  1.00  0.00    -0.289 OA
ATOM      5  C   UNL     1     109.707 108.623 110.419  1.00  0.00     0.107 A 
ATOM      6  C   UNL     1     111.083 109.007 110.397  1.00  0.00     0.134 A 
ATOM      7  C   UNL     1     111.467 110.154 109.692  1.00  0.00     0.093 A 
ATOM      8  C   UNL     1     110.540 110.897 108.962  1.00  0.00     0.123 A 
ATOM      9  C   UNL     1     109.202 110.502 108.935  1.00  0.00     0.094 A 
ATOM     10  C   UNL     1     108.780 109.383 109.657  1.00  0.00     0.146 A 
ATOM     11  O   UNL     1     107.494 109.052 109.619  1.00  0.00    -0.456 OA
ENDROOT
BRANCH   1  12
ATOM     12  C   UNL     1     105.529 107.744 110.164  1.00  0.00     0.021 A 
ATOM     13  C   UNL     1     104.850 106.931 111.087  1.00  0.00     0.016 A 
ATOM     14  C   UNL     1     103.482 106.692 110.948  1.00  0.00     0.051 A 
ATOM     15  C   UNL     1     102.759 107.263 109.895  1.00  0.00     0.157 A 
ATOM     16  C   UNL     1     104.799 108.329 109.114  1.00  0.00     0.062 A 
ATOM     17  C   UNL     1     103.427 108.094 108.966  1.00  0.00     0.158 A 
BRANCH  15  18
ATOM     18  O   UNL     1     101.394 106.981 109.812  1.00  0.00    -0.504 OA
ATOM     19  H   UNL     1     100.698 107.375 110.429  1.00  0.00     0.293 HD
ENDBRANCH  15  18
BRANCH  17  20
ATOM     20  O   UNL     1     102.774 108.703 107.893  1.00  0.00    -0.504 OA
ATOM     21  H   UNL     1     103.241 109.251 107.185  1.00  0.00     0.293 HD
ENDBRANCH  17  20
ENDBRANCH   1  12
BRANCH   6  22
ATOM     22  O   UNL     1     112.106 108.291 111.026  1.00  0.00    -0.507 OA
ATOM     23  H   UNL     1     113.044 108.187 110.671  1.00  0.00     0.293 HD
ENDBRANCH   6  22
BRANCH   8  24
ATOM     24  O   UNL     1     110.964 112.023 108.259  1.00  0.00    -0.508 OA
ATOM     25  H   UNL     1     110.383 112.453 107.549  1.00  0.00     0.293 HD
ENDBRANCH   8  24
TORSDOF 5
ENDMDL
MODEL 6
REMARK VINA RESULT:    -4.820     13.189     14.868
REMARK INTER + INTRA:          -5.973
REMARK INTER:                  -5.678
REMARK INTRA:                  -0.295
REMARK UNBOUND:                -0.307
REMARK SMILES O=c1cc(-c2ccc(O)c(O)c2)oc2cc(O)cc(O)c12
REMARK SMILES IDX 4 1 3 2 2 3 1 4 21 5 19 6 18 7 16 8 15 9 14 10 13 11 5 12
REMARK SMILES IDX 6 13 7 14 8 15 12 16 10 17 9 18 11 20 20 22 17 24
REMARK H PARENT 9 19 11 21 20 23 17 25
REMARK Flexibility Score: inf
ROOT
ATOM      1  C   UNL     1     109.647 101.147 102.756  1.00  0.00     0.138 A 
ATOM      2  C   UNL     1     109.775 100.178 101.751  1.00  0.00     0.100 A 
ATOM      3  C   UNL     1     108.675  99.389 101.409  1.00  0.00     0.197 A 
ATOM      4  O   UNL     1     108.808  98.567 100.466  1.00  0.00    -0.289 OA
ATOM      5  C   UNL     1     107.452  99.547 102.103  1.00  0.00     0.107 A 
ATOM      6  C   UNL     1     106.274  98.775 101.863  1.00  0.00     0.134 A 
ATOM      7  C   UNL     1     105.093  99.091 102.545  1.00  0.00     0.093 A 
ATOM      8  C   UNL     1     105.059 100.109 103.498  1.00  0.00     0.123 A 
ATOM      9  C   UNL     1     106.217 100.836 103.777  1.00  0.00     0.094 A 
ATOM     10  C   UNL     1     107.403 100.569 103.088  1.00  0.00     0.146 A 
ATOM     11  O   UNL     1     108.479 101.297 103.371  1.00  0.00    -0.456 OA
ENDROOT
BRANCH   1  12
ATOM     12  C   UNL     1     110.784 102.011 103.163  1.00  0.00     0.021 A 
ATOM     13  C   UNL     1     112.083 101.498 103.319  1.00  0.00     0.016 A 
ATOM     14  C   UNL     1     113.134 102.338 103.694  1.00  0.00     0.051 A 
ATOM     15  C   UNL     1     112.918 103.703 103.910  1.00  0.00     0.157 A 
ATOM     16  C   UNL     1     110.569 103.385 103.367  1.00  0.00     0.062 A 
ATOM     17  C   UNL     1     111.618 104.234 103.743  1.00  0.00     0.158 A 
BRANCH  15  18
ATOM     18  O   UNL     1     114.011 104.485 104.285  1.00  0.00    -0.504 OA
ATOM     19  H   UNL     1     114.964 104.290 104.014  1.00  0.00     0.293 HD
ENDBRANCH  15  18
BRANCH  17  20
ATOM     20  O   UNL     1     111.324 105.585 103.937  1.00  0.00    -0.504 OA
ATOM     21  H   UNL     1     110.409 105.990 103.796  1.00  0.00     0.293 HD
ENDBRANCH  17  20
ENDBRANCH   1  12
BRANCH   6  22
ATOM     22  O   UNL     1     106.216  97.684 100.990  1.00  0.00    -0.507 OA
ATOM     23  H   UNL     1     107.016  97.190 100.626  1.00  0.00     0.293 HD
ENDBRANCH   6  22
BRANCH   8  24
ATOM     24  O   UNL     1     103.869 100.383 104.168  1.00  0.00    -0.508 OA
ATOM     25  H   UNL     1     103.775 101.193 104.771  1.00  0.00     0.293 HD
ENDBRANCH   8  24
TORSDOF 5
ENDMDL
MODEL 7
REMARK VINA RESULT:    -4.784      7.716      9.665
REMARK INTER + INTRA:          -5.931
REMARK INTER:                  -5.615
REMARK INTRA:                  -0.316
REMARK UNBOUND:                -0.307
REMARK SMILES O=c1cc(-c2ccc(O)c(O)c2)oc2cc(O)cc(O)c12
REMARK SMILES IDX 4 1 3 2 2 3 1 4 21 5 19 6 18 7 16 8 15 9 14 10 13 11 5 12
REMARK SMILES IDX 6 13 7 14 8 15 12 16 10 17 9 18 11 20 20 22 17 24
REMARK H PARENT 9 19 11 21 20 23 17 25
REMARK Flexibility Score: inf
ROOT
ATOM      1  C   UNL     1     107.977 108.467 110.011  1.00  0.00     0.138 A 
ATOM      2  C   UNL     1     108.275 107.284 110.701  1.00  0.00     0.100 A 
ATOM      3  C   UNL     1     107.246 106.404 111.040  1.00  0.00     0.197 A 
ATOM      4  O   UNL     1     107.554 105.325 111.610  1.00  0.00    -0.289 OA
ATOM      5  C   UNL     1     105.908 106.728 110.716  1.00  0.00     0.107 A 
ATOM      6  C   UNL     1     104.773 105.923 111.041  1.00  0.00     0.134 A 
ATOM      7  C   UNL     1     103.506 106.299 110.580  1.00  0.00     0.093 A 
ATOM      8  C   UNL     1     103.321 107.478 109.859  1.00  0.00     0.123 A 
ATOM      9  C   UNL     1     104.415 108.298 109.579  1.00  0.00     0.094 A 
ATOM     10  C   UNL     1     105.698 107.933 109.994  1.00  0.00     0.146 A 
ATOM     11  O   UNL     1     106.715 108.733 109.691  1.00  0.00    -0.456 OA
ENDROOT
BRANCH   1  12
ATOM     12  C   UNL     1     109.030 109.441 109.629  1.00  0.00     0.021 A 
ATOM     13  C   UNL     1     110.395 109.104 109.658  1.00  0.00     0.016 A 
ATOM     14  C   UNL     1     111.362 110.038 109.284  1.00  0.00     0.051 A 
ATOM     15  C   UNL     1     110.994 111.320 108.865  1.00  0.00     0.157 A 
ATOM     16  C   UNL     1     108.660 110.725 109.194  1.00  0.00     0.062 A 
ATOM     17  C   UNL     1     109.624 111.668 108.818  1.00  0.00     0.158 A 
BRANCH  15  18
ATOM     18  O   UNL     1     112.012 112.207 108.507  1.00  0.00    -0.504 OA
ATOM     19  H   UNL     1     112.933 112.205 108.920  1.00  0.00     0.293 HD
ENDBRANCH  15  18
BRANCH  17  20
ATOM     20  O   UNL     1     109.179 112.926 108.406  1.00  0.00    -0.504 OA
ATOM     21  H   UNL     1     109.658 113.791 108.617  1.00  0.00     0.293 HD
ENDBRANCH  17  20
ENDBRANCH   1  12
BRANCH   6  22
ATOM     22  O   UNL     1     104.832 104.766 111.825  1.00  0.00    -0.507 OA
ATOM     23  H   UNL     1     104.999 103.836 111.473  1.00  0.00     0.293 HD
ENDBRANCH   6  22
BRANCH   8  24
ATOM     24  O   UNL     1     102.042 107.829 109.431  1.00  0.00    -0.508 OA
ATOM     25  H   UNL     1     101.338 107.126 109.234  1.00  0.00     0.293 HD
ENDBRANCH   8  24
TORSDOF 5
ENDMDL
MODEL 8
REMARK VINA RESULT:    -4.777     13.645     16.037
REMARK INTER + INTRA:          -5.922
REMARK INTER:                  -5.638
REMARK INTRA:                  -0.284
REMARK UNBOUND:                -0.307
REMARK SMILES O=c1cc(-c2ccc(O)c(O)c2)oc2cc(O)cc(O)c12
REMARK SMILES IDX 4 1 3 2 2 3 1 4 21 5 19 6 18 7 16 8 15 9 14 10 13 11 5 12
REMARK SMILES IDX 6 13 7 14 8 15 12 16 10 17 9 18 11 20 20 22 17 24
REMARK H PARENT 9 19 11 21 20 23 17 25
REMARK Flexibility Score: inf
ROOT
ATOM      1  C   UNL     1     110.855 104.758 102.743  1.00  0.00     0.138 A 
ATOM      2  C   UNL     1     109.665 105.340 102.283  1.00  0.00     0.100 A 
ATOM      3  C   UNL     1     109.647 106.690 101.933  1.00  0.00     0.197 A 
ATOM      4  O   UNL     1     108.577 107.168 101.473  1.00  0.00    -0.289 OA
ATOM      5  C   UNL     1     110.818 107.471 102.078  1.00  0.00     0.107 A 
ATOM      6  C   UNL     1     110.908 108.866 101.785  1.00  0.00     0.134 A 
ATOM      7  C   UNL     1     112.148 109.510 101.873  1.00  0.00     0.093 A 
ATOM      8  C   UNL     1     113.287 108.828 102.299  1.00  0.00     0.123 A 
ATOM      9  C   UNL     1     113.200 107.477 102.637  1.00  0.00     0.094 A 
ATOM     10  C   UNL     1     111.985 106.797 102.525  1.00  0.00     0.146 A 
ATOM     11  O   UNL     1     111.949 105.506 102.840  1.00  0.00    -0.456 OA
ENDROOT
BRANCH   1  12
ATOM     12  C   UNL     1     110.931 103.327 103.132  1.00  0.00     0.021 A 
ATOM     13  C   UNL     1     112.109 102.578 102.967  1.00  0.00     0.016 A 
ATOM     14  C   UNL     1     112.152 101.236 103.352  1.00  0.00     0.051 A 
ATOM     15  C   UNL     1     111.033 100.617 103.917  1.00  0.00     0.157 A 
ATOM     16  C   UNL     1     109.811 102.708 103.713  1.00  0.00     0.062 A 
ATOM     17  C   UNL     1     109.846 101.363 104.101  1.00  0.00     0.158 A 
BRANCH  15  18
ATOM     18  O   UNL     1     111.143  99.272 104.277  1.00  0.00    -0.504 OA
ATOM     19  H   UNL     1     110.354  98.657 104.411  1.00  0.00     0.293 HD
ENDBRANCH  15  18
BRANCH  17  20
ATOM     20  O   UNL     1     108.690 100.816 104.661  1.00  0.00    -0.504 OA
ATOM     21  H   UNL     1     107.755 101.017 104.334  1.00  0.00     0.293 HD
ENDBRANCH  17  20
ENDBRANCH   1  12
BRANCH   6  22
ATOM     22  O   UNL     1     109.817 109.664 101.426  1.00  0.00    -0.507 OA
ATOM     23  H   UNL     1     109.717 110.643 101.648  1.00  0.00     0.293 HD
ENDBRANCH   6  22
BRANCH   8  24
ATOM     24  O   UNL     1     114.501 109.507 102.390  1.00  0.00    -0.508 OA
ATOM     25  H   UNL     1     115.118 109.599 101.592  1.00  0.00     0.293 HD
ENDBRANCH   8  24
TORSDOF 5
ENDMDL
MODEL 9
REMARK VINA RESULT:    -4.747     11.246     13.376
REMARK INTER + INTRA:          -5.887
REMARK INTER:                  -5.574
REMARK INTRA:                  -0.314
REMARK UNBOUND:                -0.307
REMARK SMILES O=c1cc(-c2ccc(O)c(O)c2)oc2cc(O)cc(O)c12
REMARK SMILES IDX 4 1 3 2 2 3 1 4 21 5 19 6 18 7 16 8 15 9 14 10 13 11 5 12
REMARK SMILES IDX 6 13 7 14 8 15 12 16 10 17 9 18 11 20 20 22 17 24
REMARK H PARENT 9 19 11 21 20 23 17 25
REMARK Flexibility Score: inf
ROOT
ATOM      1  C   UNL     1     107.309 102.887 102.721  1.00  0.00     0.138 A 
ATOM      2  C   UNL     1     108.694 102.694 102.622  1.00  0.00     0.100 A 
ATOM      3  C   UNL     1     109.530 103.788 102.398  1.00  0.00     0.197 A 
ATOM      4  O   UNL     1     110.772 103.588 102.370  1.00  0.00    -0.289 OA
ATOM      5  C   UNL     1     108.972 105.078 102.236  1.00  0.00     0.107 A 
ATOM      6  C   UNL     1     109.724 106.263 101.969  1.00  0.00     0.134 A 
ATOM      7  C   UNL     1     109.070 107.500 101.928  1.00  0.00     0.093 A 
ATOM      8  C   UNL     1     107.687 107.591 102.083  1.00  0.00     0.123 A 
ATOM      9  C   UNL     1     106.936 106.434 102.294  1.00  0.00     0.094 A 
ATOM     10  C   UNL     1     107.563 105.189 102.376  1.00  0.00     0.146 A 
ATOM     11  O   UNL     1     106.813 104.114 102.596  1.00  0.00    -0.456 OA
ENDROOT
BRANCH   1  12
ATOM     12  C   UNL     1     106.372 101.759 102.955  1.00  0.00     0.021 A 
ATOM     13  C   UNL     1     106.751 100.425 102.727  1.00  0.00     0.016 A 
ATOM     14  C   UNL     1     105.851  99.384 102.965  1.00  0.00     0.051 A 
ATOM     15  C   UNL     1     104.563  99.647 103.443  1.00  0.00     0.157 A 
ATOM     16  C   UNL     1     105.083 102.022 103.448  1.00  0.00     0.062 A 
ATOM     17  C   UNL     1     104.174 100.984 103.689  1.00  0.00     0.158 A 
BRANCH  15  18
ATOM     18  O   UNL     1     103.713  98.561 103.658  1.00  0.00    -0.504 OA
ATOM     19  H   UNL     1     103.953  97.759 104.223  1.00  0.00     0.293 HD
ENDBRANCH  15  18
BRANCH  17  20
ATOM     20  O   UNL     1     102.908 101.325 104.169  1.00  0.00    -0.504 OA
ATOM     21  H   UNL     1     102.084 100.754 104.043  1.00  0.00     0.293 HD
ENDBRANCH  17  20
ENDBRANCH   1  12
BRANCH   6  22
ATOM     22  O   UNL     1     111.100 106.279 101.719  1.00  0.00    -0.507 OA
ATOM     23  H   UNL     1     111.640 107.101 101.496  1.00  0.00     0.293 HD
ENDBRANCH   6  22
BRANCH   8  24
ATOM     24  O   UNL     1     107.069 108.838 102.018  1.00  0.00    -0.508 OA
ATOM     25  H   UNL     1     107.608 109.693 101.944  1.00  0.00     0.293 HD
ENDBRANCH   8  24
TORSDOF 5
ENDMDL
