MODEL 1
REMARK VINA RESULT:    -5.294      0.000      0.000
REMARK INTER + INTRA:         -12.908
REMARK INTER:                 -10.246
REMARK INTRA:                  -2.662
REMARK UNBOUND:                -2.662
REMARK SMILES CCCCCCCCCCCCCCCCCC(=O)[O-]
REMARK SMILES IDX 10 1 11 2 12 3 13 4 14 5 15 6 16 7 17 8 18 9 19 10 20 11
REMARK SMILES IDX 9 12 8 13 7 14 6 15 5 16 4 17 3 18 2 19 1 20
REMARK H PARENT
REMARK Flexibility Score: inf
ROOT
ATOM      1  C   UNL     1     104.452 -82.535  22.997  1.00  0.00     0.000 C 
ENDROOT
BRANCH   1   2
ATOM      2  C   UNL     1     105.024 -83.961  22.962  1.00  0.00     0.000 C 
BRANCH   2   3
ATOM      3  C   UNL     1     106.353 -84.082  23.729  1.00  0.00     0.000 C 
BRANCH   3   4
ATOM      4  C   UNL     1     106.496 -83.029  24.842  1.00  0.00     0.000 C 
BRANCH   4   5
ATOM      5  C   UNL     1     107.853 -82.299  24.875  1.00  0.00     0.000 C 
BRANCH   5   6
ATOM      6  C   UNL     1     108.808 -82.710  23.731  1.00  0.00     0.000 C 
BRANCH   6   7
ATOM      7  C   UNL     1     110.198 -82.056  23.831  1.00  0.00     0.006 C 
BRANCH   7   8
ATOM      8  C   UNL     1     110.837 -81.835  22.454  1.00  0.00     0.053 C 
BRANCH   8   9
ATOM      9  C   UNL     1     110.953 -80.372  22.163  1.00  0.00     0.041 C 
ATOM     10  O   UNL     1     111.314 -79.573  23.068  1.00  0.00    -0.550 OA
ATOM     11  O   UNL     1     110.711 -79.896  20.881  1.00  0.00    -0.550 OA
ENDBRANCH   8   9
ENDBRANCH   7   8
ENDBRANCH   6   7
ENDBRANCH   5   6
ENDBRANCH   4   5
ENDBRANCH   3   4
ENDBRANCH   2   3
ENDBRANCH   1   2
BRANCH   1  12
ATOM     12  C   UNL     1     103.312 -82.326  21.991  1.00  0.00     0.000 C 
BRANCH  12  13
ATOM     13  C   UNL     1     103.179 -83.534  21.054  1.00  0.00    -0.000 C 
BRANCH  13  14
ATOM     14  C   UNL     1     103.548 -83.156  19.612  1.00  0.00    -0.000 C 
BRANCH  14  15
ATOM     15  C   UNL     1     104.941 -83.659  19.205  1.00  0.00    -0.000 C 
BRANCH  15  16
ATOM     16  C   UNL     1     105.906 -82.515  18.853  1.00  0.00    -0.000 C 
BRANCH  16  17
ATOM     17  C   UNL     1     105.179 -81.163  18.865  1.00  0.00    -0.000 C 
BRANCH  17  18
ATOM     18  C   UNL     1     105.650 -80.238  20.003  1.00  0.00    -0.000 C 
BRANCH  18  19
ATOM     19  C   UNL     1     106.791 -80.805  20.866  1.00  0.00    -0.003 C 
ATOM     20  C   UNL     1     107.230 -79.855  21.979  1.00  0.00     0.004 C 
ENDBRANCH  18  19
ENDBRANCH  17  18
ENDBRANCH  16  17
ENDBRANCH  15  16
ENDBRANCH  14  15
ENDBRANCH  13  14
ENDBRANCH  12  13
ENDBRANCH   1  12
TORSDOF 16
ENDMDL
MODEL 2
REMARK VINA RESULT:    -5.145      1.059      1.517
REMARK INTER + INTRA:         -12.619
REMARK INTER:                 -10.082
REMARK INTRA:                  -2.537
REMARK UNBOUND:                -2.662
REMARK SMILES CCCCCCCCCCCCCCCCCC(=O)[O-]
REMARK SMILES IDX 10 1 11 2 12 3 13 4 14 5 15 6 16 7 17 8 18 9 19 10 20 11
REMARK SMILES IDX 9 12 8 13 7 14 6 15 5 16 4 17 3 18 2 19 1 20
REMARK H PARENT
REMARK Flexibility Score: inf
ROOT
ATOM      1  C   UNL     1     103.931 -82.501  23.003  1.00  0.00     0.000 C 
ENDROOT
BRANCH   1   2
ATOM      2  C   UNL     1     104.549 -83.907  23.019  1.00  0.00     0.000 C 
BRANCH   2   3
ATOM      3  C   UNL     1     105.829 -83.979  23.871  1.00  0.00     0.000 C 
BRANCH   3   4
ATOM      4  C   UNL     1     106.355 -82.590  24.273  1.00  0.00     0.000 C 
BRANCH   4   5
ATOM      5  C   UNL     1     107.158 -82.556  25.589  1.00  0.00     0.000 C 
BRANCH   5   6
ATOM      6  C   UNL     1     108.536 -81.870  25.459  1.00  0.00     0.000 C 
BRANCH   6   7
ATOM      7  C   UNL     1     108.929 -81.559  24.004  1.00  0.00     0.006 C 
BRANCH   7   8
ATOM      8  C   UNL     1     110.176 -82.336  23.560  1.00  0.00     0.053 C 
BRANCH   8   9
ATOM      9  C   UNL     1     110.648 -81.845  22.227  1.00  0.00     0.041 C 
ATOM     10  O   UNL     1     110.041 -80.905  21.648  1.00  0.00    -0.550 OA
ATOM     11  O   UNL     1     111.785 -82.392  21.647  1.00  0.00    -0.550 OA
ENDBRANCH   8   9
ENDBRANCH   7   8
ENDBRANCH   6   7
ENDBRANCH   5   6
ENDBRANCH   4   5
ENDBRANCH   3   4
ENDBRANCH   2   3
ENDBRANCH   1   2
BRANCH   1  12
ATOM     12  C   UNL     1     103.150 -82.209  21.714  1.00  0.00     0.000 C 
BRANCH  12  13
ATOM     13  C   UNL     1     103.217 -83.400  20.750  1.00  0.00    -0.000 C 
BRANCH  13  14
ATOM     14  C   UNL     1     103.684 -82.955  19.356  1.00  0.00    -0.000 C 
BRANCH  14  15
ATOM     15  C   UNL     1     105.152 -83.314  19.080  1.00  0.00    -0.000 C 
BRANCH  15  16
ATOM     16  C   UNL     1     106.079 -82.088  19.112  1.00  0.00    -0.000 C 
BRANCH  16  17
ATOM     17  C   UNL     1     106.643 -81.864  20.522  1.00  0.00    -0.000 C 
BRANCH  17  18
ATOM     18  C   UNL     1     106.524 -80.401  20.990  1.00  0.00    -0.000 C 
BRANCH  18  19
ATOM     19  C   UNL     1     105.373 -79.608  20.347  1.00  0.00    -0.003 C 
ATOM     20  C   UNL     1     105.713 -78.136  20.121  1.00  0.00     0.004 C 
ENDBRANCH  18  19
ENDBRANCH  17  18
ENDBRANCH  16  17
ENDBRANCH  15  16
ENDBRANCH  14  15
ENDBRANCH  13  14
ENDBRANCH  12  13
ENDBRANCH   1  12
TORSDOF 16
ENDMDL
MODEL 3
REMARK VINA RESULT:    -5.107      4.819      9.524
REMARK INTER + INTRA:         -12.545
REMARK INTER:                 -10.577
REMARK INTRA:                  -1.968
REMARK UNBOUND:                -2.662
REMARK SMILES CCCCCCCCCCCCCCCCCC(=O)[O-]
REMARK SMILES IDX 10 1 11 2 12 3 13 4 14 5 15 6 16 7 17 8 18 9 19 10 20 11
REMARK SMILES IDX 9 12 8 13 7 14 6 15 5 16 4 17 3 18 2 19 1 20
REMARK H PARENT
REMARK Flexibility Score: inf
ROOT
ATOM      1  C   UNL     1     116.265 -83.544  21.042  1.00  0.00     0.000 C 
ENDROOT
BRANCH   1   2
ATOM      2  C   UNL     1     115.013 -82.700  20.760  1.00  0.00     0.000 C 
BRANCH   2   3
ATOM      3  C   UNL     1     113.742 -83.558  20.620  1.00  0.00     0.000 C 
BRANCH   3   4
ATOM      4  C   UNL     1     112.604 -83.089  21.543  1.00  0.00     0.000 C 
BRANCH   4   5
ATOM      5  C   UNL     1     111.674 -82.020  20.936  1.00  0.00     0.000 C 
BRANCH   5   6
ATOM      6  C   UNL     1     110.711 -81.378  21.961  1.00  0.00     0.000 C 
BRANCH   6   7
ATOM      7  C   UNL     1     110.328 -82.323  23.114  1.00  0.00     0.006 C 
BRANCH   7   8
ATOM      8  C   UNL     1     109.838 -81.561  24.352  1.00  0.00     0.053 C 
BRANCH   8   9
ATOM      9  C   UNL     1     108.574 -82.170  24.871  1.00  0.00     0.041 C 
ATOM     10  O   UNL     1     108.183 -81.916  26.041  1.00  0.00    -0.550 OA
ATOM     11  O   UNL     1     107.802 -82.981  24.049  1.00  0.00    -0.550 OA
ENDBRANCH   8   9
ENDBRANCH   7   8
ENDBRANCH   6   7
ENDBRANCH   5   6
ENDBRANCH   4   5
ENDBRANCH   3   4
ENDBRANCH   2   3
ENDBRANCH   1   2
BRANCH   1  12
ATOM     12  C   UNL     1     117.061 -83.040  22.254  1.00  0.00     0.000 C 
BRANCH  12  13
ATOM     13  C   UNL     1     118.561 -82.978  21.938  1.00  0.00    -0.000 C 
BRANCH  13  14
ATOM     14  C   UNL     1     118.976 -81.561  21.513  1.00  0.00    -0.000 C 
BRANCH  14  15
ATOM     15  C   UNL     1     118.018 -80.481  22.036  1.00  0.00    -0.000 C 
BRANCH  15  16
ATOM     16  C   UNL     1     117.355 -79.676  20.906  1.00  0.00    -0.000 C 
BRANCH  16  17
ATOM     17  C   UNL     1     116.314 -78.698  21.468  1.00  0.00    -0.000 C 
BRANCH  17  18
ATOM     18  C   UNL     1     115.299 -79.376  22.407  1.00  0.00    -0.000 C 
BRANCH  18  19
ATOM     19  C   UNL     1     113.830 -79.267  21.960  1.00  0.00    -0.003 C 
ATOM     20  C   UNL     1     113.679 -78.918  20.481  1.00  0.00     0.004 C 
ENDBRANCH  18  19
ENDBRANCH  17  18
ENDBRANCH  16  17
ENDBRANCH  15  16
ENDBRANCH  14  15
ENDBRANCH  13  14
ENDBRANCH  12  13
ENDBRANCH   1  12
TORSDOF 16
ENDMDL
MODEL 4
REMARK VINA RESULT:    -5.105      4.281      8.850
REMARK INTER + INTRA:         -12.542
REMARK INTER:                 -10.359
REMARK INTRA:                  -2.183
REMARK UNBOUND:                -2.662
REMARK SMILES CCCCCCCCCCCCCCCCCC(=O)[O-]
REMARK SMILES IDX 10 1 11 2 12 3 13 4 14 5 15 6 16 7 17 8 18 9 19 10 20 11
REMARK SMILES IDX 9 12 8 13 7 14 6 15 5 16 4 17 3 18 2 19 1 20
REMARK H PARENT
REMARK Flexibility Score: inf
ROOT
ATOM      1  C   UNL     1     115.549 -82.153  21.764  1.00  0.00     0.000 C 
ENDROOT
BRANCH   1   2
ATOM      2  C   UNL     1     115.131 -82.717  20.397  1.00  0.00     0.000 C 
BRANCH   2   3
ATOM      3  C   UNL     1     114.057 -83.813  20.515  1.00  0.00     0.000 C 
BRANCH   3   4
ATOM      4  C   UNL     1     112.890 -83.406  21.431  1.00  0.00     0.000 C 
BRANCH   4   5
ATOM      5  C   UNL     1     112.037 -82.231  20.913  1.00  0.00     0.000 C 
BRANCH   5   6
ATOM      6  C   UNL     1     111.155 -81.576  22.000  1.00  0.00     0.000 C 
BRANCH   6   7
ATOM      7  C   UNL     1     110.656 -82.570  23.064  1.00  0.00     0.006 C 
BRANCH   7   8
ATOM      8  C   UNL     1     109.752 -81.901  24.107  1.00  0.00     0.053 C 
BRANCH   8   9
ATOM      9  C   UNL     1     108.361 -82.445  24.016  1.00  0.00     0.041 C 
ATOM     10  O   UNL     1     107.381 -81.737  24.368  1.00  0.00    -0.550 OA
ATOM     11  O   UNL     1     108.143 -83.715  23.498  1.00  0.00    -0.550 OA
ENDBRANCH   8   9
ENDBRANCH   7   8
ENDBRANCH   6   7
ENDBRANCH   5   6
ENDBRANCH   4   5
ENDBRANCH   3   4
ENDBRANCH   2   3
ENDBRANCH   1   2
BRANCH   1  12
ATOM     12  C   UNL     1     115.658 -80.622  21.768  1.00  0.00     0.000 C 
BRANCH  12  13
ATOM     13  C   UNL     1     115.362 -80.048  20.376  1.00  0.00    -0.000 C 
BRANCH  13  14
ATOM     14  C   UNL     1     114.039 -79.268  20.372  1.00  0.00    -0.000 C 
BRANCH  14  15
ATOM     15  C   UNL     1     113.692 -78.682  21.749  1.00  0.00    -0.000 C 
BRANCH  15  16
ATOM     16  C   UNL     1     113.769 -77.147  21.778  1.00  0.00    -0.000 C 
BRANCH  16  17
ATOM     17  C   UNL     1     114.296 -76.649  23.131  1.00  0.00    -0.000 C 
BRANCH  17  18
ATOM     18  C   UNL     1     114.870 -77.781  24.004  1.00  0.00    -0.000 C 
BRANCH  18  19
ATOM     19  C   UNL     1     116.390 -77.711  24.236  1.00  0.00    -0.003 C 
ATOM     20  C   UNL     1     117.182 -77.472  22.952  1.00  0.00     0.004 C 
ENDBRANCH  18  19
ENDBRANCH  17  18
ENDBRANCH  16  17
ENDBRANCH  15  16
ENDBRANCH  14  15
ENDBRANCH  13  14
ENDBRANCH  12  13
ENDBRANCH   1  12
TORSDOF 16
ENDMDL
MODEL 5
REMARK VINA RESULT:    -5.089      7.289     10.145
REMARK INTER + INTRA:         -12.511
REMARK INTER:                 -10.006
REMARK INTRA:                  -2.504
REMARK UNBOUND:                -2.662
REMARK SMILES CCCCCCCCCCCCCCCCCC(=O)[O-]
REMARK SMILES IDX 10 1 11 2 12 3 13 4 14 5 15 6 16 7 17 8 18 9 19 10 20 11
REMARK SMILES IDX 9 12 8 13 7 14 6 15 5 16 4 17 3 18 2 19 1 20
REMARK H PARENT
REMARK Flexibility Score: inf
ROOT
ATOM      1  C   UNL     1     114.579 -79.372  20.616  1.00  0.00     0.000 C 
ENDROOT
BRANCH   1   2
ATOM      2  C   UNL     1     113.753 -79.813  21.835  1.00  0.00     0.000 C 
BRANCH   2   3
ATOM      3  C   UNL     1     112.662 -80.835  21.469  1.00  0.00     0.000 C 
BRANCH   3   4
ATOM      4  C   UNL     1     113.215 -82.044  20.695  1.00  0.00     0.000 C 
BRANCH   4   5
ATOM      5  C   UNL     1     114.109 -82.990  21.521  1.00  0.00     0.000 C 
BRANCH   5   6
ATOM      6  C   UNL     1     115.539 -83.145  20.956  1.00  0.00     0.000 C 
BRANCH   6   7
ATOM      7  C   UNL     1     116.639 -82.965  22.017  1.00  0.00     0.006 C 
BRANCH   7   8
ATOM      8  C   UNL     1     118.047 -83.083  21.421  1.00  0.00     0.053 C 
BRANCH   8   9
ATOM      9  C   UNL     1     118.866 -81.882  21.776  1.00  0.00     0.041 C 
ATOM     10  O   UNL     1     119.272 -81.104  20.872  1.00  0.00    -0.550 OA
ATOM     11  O   UNL     1     119.139 -81.594  23.107  1.00  0.00    -0.550 OA
ENDBRANCH   8   9
ENDBRANCH   7   8
ENDBRANCH   6   7
ENDBRANCH   5   6
ENDBRANCH   4   5
ENDBRANCH   3   4
ENDBRANCH   2   3
ENDBRANCH   1   2
BRANCH   1  12
ATOM     12  C   UNL     1     116.092 -79.437  20.868  1.00  0.00     0.000 C 
BRANCH  12  13
ATOM     13  C   UNL     1     116.409 -79.244  22.356  1.00  0.00    -0.000 C 
BRANCH  13  14
ATOM     14  C   UNL     1     117.536 -78.218  22.550  1.00  0.00    -0.000 C 
BRANCH  14  15
ATOM     15  C   UNL     1     117.080 -76.978  23.334  1.00  0.00    -0.000 C 
BRANCH  15  16
ATOM     16  C   UNL     1     115.758 -77.203  24.086  1.00  0.00    -0.000 C 
BRANCH  16  17
ATOM     17  C   UNL     1     114.756 -76.082  23.779  1.00  0.00    -0.000 C 
BRANCH  17  18
ATOM     18  C   UNL     1     114.146 -76.192  22.369  1.00  0.00    -0.000 C 
BRANCH  18  19
ATOM     19  C   UNL     1     113.163 -75.067  21.999  1.00  0.00    -0.003 C 
ATOM     20  C   UNL     1     111.711 -75.537  21.935  1.00  0.00     0.004 C 
ENDBRANCH  18  19
ENDBRANCH  17  18
ENDBRANCH  16  17
ENDBRANCH  15  16
ENDBRANCH  14  15
ENDBRANCH  13  14
ENDBRANCH  12  13
ENDBRANCH   1  12
TORSDOF 16
ENDMDL
MODEL 6
REMARK VINA RESULT:    -5.087      6.948      9.830
REMARK INTER + INTRA:         -12.506
REMARK INTER:                 -10.361
REMARK INTRA:                  -2.145
REMARK UNBOUND:                -2.662
REMARK SMILES CCCCCCCCCCCCCCCCCC(=O)[O-]
REMARK SMILES IDX 10 1 11 2 12 3 13 4 14 5 15 6 16 7 17 8 18 9 19 10 20 11
REMARK SMILES IDX 9 12 8 13 7 14 6 15 5 16 4 17 3 18 2 19 1 20
REMARK H PARENT
REMARK Flexibility Score: inf
ROOT
ATOM      1  C   UNL     1     113.567 -79.317  20.616  1.00  0.00     0.000 C 
ENDROOT
BRANCH   1   2
ATOM      2  C   UNL     1     115.049 -79.646  20.383  1.00  0.00     0.000 C 
BRANCH   2   3
ATOM      3  C   UNL     1     115.820 -79.859  21.698  1.00  0.00     0.000 C 
BRANCH   3   4
ATOM      4  C   UNL     1     117.056 -78.950  21.817  1.00  0.00     0.000 C 
BRANCH   4   5
ATOM      5  C   UNL     1     116.822 -77.632  22.581  1.00  0.00     0.000 C 
BRANCH   5   6
ATOM      6  C   UNL     1     116.212 -77.828  23.987  1.00  0.00     0.000 C 
BRANCH   6   7
ATOM      7  C   UNL     1     114.750 -77.360  24.090  1.00  0.00     0.006 C 
BRANCH   7   8
ATOM      8  C   UNL     1     114.411 -76.279  23.055  1.00  0.00     0.053 C 
BRANCH   8   9
ATOM      9  C   UNL     1     114.259 -74.948  23.723  1.00  0.00     0.041 C 
ATOM     10  O   UNL     1     113.149 -74.354  23.704  1.00  0.00    -0.550 OA
ATOM     11  O   UNL     1     115.329 -74.387  24.408  1.00  0.00    -0.550 OA
ENDBRANCH   8   9
ENDBRANCH   7   8
ENDBRANCH   6   7
ENDBRANCH   5   6
ENDBRANCH   4   5
ENDBRANCH   3   4
ENDBRANCH   2   3
ENDBRANCH   1   2
BRANCH   1  12
ATOM     12  C   UNL     1     112.872 -80.324  21.543  1.00  0.00     0.000 C 
BRANCH  12  13
ATOM     13  C   UNL     1     112.579 -81.637  20.805  1.00  0.00    -0.000 C 
BRANCH  13  14
ATOM     14  C   UNL     1     113.188 -82.835  21.549  1.00  0.00    -0.000 C 
BRANCH  14  15
ATOM     15  C   UNL     1     113.878 -83.830  20.605  1.00  0.00    -0.000 C 
BRANCH  15  16
ATOM     16  C   UNL     1     115.303 -83.397  20.223  1.00  0.00    -0.000 C 
BRANCH  16  17
ATOM     17  C   UNL     1     116.164 -83.181  21.476  1.00  0.00    -0.000 C 
BRANCH  17  18
ATOM     18  C   UNL     1     117.674 -83.184  21.173  1.00  0.00    -0.000 C 
BRANCH  18  19
ATOM     19  C   UNL     1     118.539 -82.411  22.185  1.00  0.00    -0.003 C 
ATOM     20  C   UNL     1     119.429 -83.320  23.030  1.00  0.00     0.004 C 
ENDBRANCH  18  19
ENDBRANCH  17  18
ENDBRANCH  16  17
ENDBRANCH  15  16
ENDBRANCH  14  15
ENDBRANCH  13  14
ENDBRANCH  12  13
ENDBRANCH   1  12
TORSDOF 16
ENDMDL
MODEL 7
REMARK VINA RESULT:    -5.073      6.024      9.572
REMARK INTER + INTRA:         -12.480
REMARK INTER:                 -10.155
REMARK INTRA:                  -2.326
REMARK UNBOUND:                -2.662
REMARK SMILES CCCCCCCCCCCCCCCCCC(=O)[O-]
REMARK SMILES IDX 10 1 11 2 12 3 13 4 14 5 15 6 16 7 17 8 18 9 19 10 20 11
REMARK SMILES IDX 9 12 8 13 7 14 6 15 5 16 4 17 3 18 2 19 1 20
REMARK H PARENT
REMARK Flexibility Score: inf
ROOT
ATOM      1  C   UNL     1     116.783 -83.381  21.830  1.00  0.00     0.000 C 
ENDROOT
BRANCH   1   2
ATOM      2  C   UNL     1     118.162 -83.093  21.217  1.00  0.00     0.000 C 
BRANCH   2   3
ATOM      3  C   UNL     1     118.913 -81.970  21.954  1.00  0.00     0.000 C 
BRANCH   3   4
ATOM      4  C   UNL     1     119.210 -80.760  21.051  1.00  0.00     0.000 C 
BRANCH   4   5
ATOM      5  C   UNL     1     118.063 -79.737  20.937  1.00  0.00     0.000 C 
BRANCH   5   6
ATOM      6  C   UNL     1     117.442 -79.345  22.297  1.00  0.00     0.000 C 
BRANCH   6   7
ATOM      7  C   UNL     1     117.597 -77.850  22.631  1.00  0.00     0.006 C 
BRANCH   7   8
ATOM      8  C   UNL     1     116.245 -77.166  22.875  1.00  0.00     0.053 C 
BRANCH   8   9
ATOM      9  C   UNL     1     115.690 -77.569  24.205  1.00  0.00     0.041 C 
ATOM     10  O   UNL     1     114.473 -77.872  24.317  1.00  0.00    -0.550 OA
ATOM     11  O   UNL     1     116.526 -77.657  25.310  1.00  0.00    -0.550 OA
ENDBRANCH   8   9
ENDBRANCH   7   8
ENDBRANCH   6   7
ENDBRANCH   5   6
ENDBRANCH   4   5
ENDBRANCH   3   4
ENDBRANCH   2   3
ENDBRANCH   1   2
BRANCH   1  12
ATOM     12  C   UNL     1     115.686 -82.454  21.288  1.00  0.00     0.000 C 
BRANCH  12  13
ATOM     13  C   UNL     1     114.901 -83.134  20.159  1.00  0.00    -0.000 C 
BRANCH  13  14
ATOM     14  C   UNL     1     113.655 -83.847  20.706  1.00  0.00    -0.000 C 
BRANCH  14  15
ATOM     15  C   UNL     1     112.993 -83.080  21.861  1.00  0.00    -0.000 C 
BRANCH  15  16
ATOM     16  C   UNL     1     111.683 -82.392  21.443  1.00  0.00    -0.000 C 
BRANCH  16  17
ATOM     17  C   UNL     1     111.964 -81.039  20.774  1.00  0.00    -0.000 C 
BRANCH  17  18
ATOM     18  C   UNL     1     112.487 -79.979  21.762  1.00  0.00    -0.000 C 
BRANCH  18  19
ATOM     19  C   UNL     1     113.347 -78.872  21.128  1.00  0.00    -0.003 C 
ATOM     20  C   UNL     1     114.333 -79.401  20.089  1.00  0.00     0.004 C 
ENDBRANCH  18  19
ENDBRANCH  17  18
ENDBRANCH  16  17
ENDBRANCH  15  16
ENDBRANCH  14  15
ENDBRANCH  13  14
ENDBRANCH  12  13
ENDBRANCH   1  12
TORSDOF 16
ENDMDL
MODEL 8
REMARK VINA RESULT:    -5.044      9.069     11.723
REMARK INTER + INTRA:         -12.424
REMARK INTER:                  -9.887
REMARK INTRA:                  -2.538
REMARK UNBOUND:                -2.662
REMARK SMILES CCCCCCCCCCCCCCCCCC(=O)[O-]
REMARK SMILES IDX 10 1 11 2 12 3 13 4 14 5 15 6 16 7 17 8 18 9 19 10 20 11
REMARK SMILES IDX 9 12 8 13 7 14 6 15 5 16 4 17 3 18 2 19 1 20
REMARK H PARENT
REMARK Flexibility Score: inf
ROOT
ATOM      1  C   UNL     1     114.707 -81.648  20.674  1.00  0.00     0.000 C 
ENDROOT
BRANCH   1   2
ATOM      2  C   UNL     1     115.345 -80.619  21.621  1.00  0.00     0.000 C 
BRANCH   2   3
ATOM      3  C   UNL     1     115.717 -79.309  20.904  1.00  0.00     0.000 C 
BRANCH   3   4
ATOM      4  C   UNL     1     115.850 -78.119  21.870  1.00  0.00     0.000 C 
BRANCH   4   5
ATOM      5  C   UNL     1     115.415 -78.408  23.320  1.00  0.00     0.000 C 
BRANCH   5   6
ATOM      6  C   UNL     1     115.885 -77.341  24.335  1.00  0.00     0.000 C 
BRANCH   6   7
ATOM      7  C   UNL     1     116.882 -76.331  23.741  1.00  0.00     0.006 C 
BRANCH   7   8
ATOM      8  C   UNL     1     117.222 -75.203  24.724  1.00  0.00     0.053 C 
BRANCH   8   9
ATOM      9  C   UNL     1     118.678 -75.232  25.067  1.00  0.00     0.041 C 
ATOM     10  O   UNL     1     119.544 -75.240  24.151  1.00  0.00    -0.550 OA
ATOM     11  O   UNL     1     119.082 -75.201  26.395  1.00  0.00    -0.550 OA
ENDBRANCH   8   9
ENDBRANCH   7   8
ENDBRANCH   6   7
ENDBRANCH   5   6
ENDBRANCH   4   5
ENDBRANCH   3   4
ENDBRANCH   2   3
ENDBRANCH   1   2
BRANCH   1  12
ATOM     12  C   UNL     1     115.264 -83.064  20.872  1.00  0.00     0.000 C 
BRANCH  12  13
ATOM     13  C   UNL     1     116.395 -83.069  21.909  1.00  0.00    -0.000 C 
BRANCH  13  14
ATOM     14  C   UNL     1     117.759 -83.279  21.235  1.00  0.00    -0.000 C 
BRANCH  14  15
ATOM     15  C   UNL     1     118.878 -82.457  21.893  1.00  0.00    -0.000 C 
BRANCH  15  16
ATOM     16  C   UNL     1     119.184 -81.156  21.134  1.00  0.00    -0.000 C 
BRANCH  16  17
ATOM     17  C   UNL     1     119.110 -79.943  22.072  1.00  0.00    -0.000 C 
BRANCH  17  18
ATOM     18  C   UNL     1     118.843 -80.335  23.538  1.00  0.00    -0.000 C 
BRANCH  18  19
ATOM     19  C   UNL     1     119.041 -79.199  24.557  1.00  0.00    -0.003 C 
ATOM     20  C   UNL     1     120.447 -78.603  24.525  1.00  0.00     0.004 C 
ENDBRANCH  18  19
ENDBRANCH  17  18
ENDBRANCH  16  17
ENDBRANCH  15  16
ENDBRANCH  14  15
ENDBRANCH  13  14
ENDBRANCH  12  13
ENDBRANCH   1  12
TORSDOF 16
ENDMDL
MODEL 9
REMARK VINA RESULT:    -5.001      5.562     10.251
REMARK INTER + INTRA:         -12.340
REMARK INTER:                  -9.691
REMARK INTRA:                  -2.649
REMARK UNBOUND:                -2.662
REMARK SMILES CCCCCCCCCCCCCCCCCC(=O)[O-]
REMARK SMILES IDX 10 1 11 2 12 3 13 4 14 5 15 6 16 7 17 8 18 9 19 10 20 11
REMARK SMILES IDX 9 12 8 13 7 14 6 15 5 16 4 17 3 18 2 19 1 20
REMARK H PARENT
REMARK Flexibility Score: inf
ROOT
ATOM      1  C   UNL     1     116.696 -82.827  22.029  1.00  0.00     0.000 C 
ENDROOT
BRANCH   1   2
ATOM      2  C   UNL     1     115.702 -83.532  21.093  1.00  0.00     0.000 C 
BRANCH   2   3
ATOM      3  C   UNL     1     114.681 -82.559  20.476  1.00  0.00     0.000 C 
BRANCH   3   4
ATOM      4  C   UNL     1     114.637 -81.203  21.202  1.00  0.00     0.000 C 
BRANCH   4   5
ATOM      5  C   UNL     1     114.785 -79.972  20.287  1.00  0.00     0.000 C 
BRANCH   5   6
ATOM      6  C   UNL     1     113.676 -78.913  20.484  1.00  0.00     0.000 C 
BRANCH   6   7
ATOM      7  C   UNL     1     112.983 -79.003  21.856  1.00  0.00     0.006 C 
BRANCH   7   8
ATOM      8  C   UNL     1     111.454 -79.036  21.734  1.00  0.00     0.053 C 
BRANCH   8   9
ATOM      9  C   UNL     1     110.935 -80.399  22.067  1.00  0.00     0.041 C 
ATOM     10  O   UNL     1     110.517 -80.651  23.228  1.00  0.00    -0.550 OA
ATOM     11  O   UNL     1     110.866 -81.376  21.082  1.00  0.00    -0.550 OA
ENDBRANCH   8   9
ENDBRANCH   7   8
ENDBRANCH   6   7
ENDBRANCH   5   6
ENDBRANCH   4   5
ENDBRANCH   3   4
ENDBRANCH   2   3
ENDBRANCH   1   2
BRANCH   1  12
ATOM     12  C   UNL     1     118.158 -83.047  21.619  1.00  0.00     0.000 C 
BRANCH  12  13
ATOM     13  C   UNL     1     118.888 -81.708  21.448  1.00  0.00    -0.000 C 
BRANCH  13  14
ATOM     14  C   UNL     1     118.184 -80.593  22.235  1.00  0.00    -0.000 C 
BRANCH  14  15
ATOM     15  C   UNL     1     118.137 -79.264  21.467  1.00  0.00    -0.000 C 
BRANCH  15  16
ATOM     16  C   UNL     1     117.370 -78.167  22.224  1.00  0.00    -0.000 C 
BRANCH  16  17
ATOM     17  C   UNL     1     116.582 -78.762  23.400  1.00  0.00    -0.000 C 
BRANCH  17  18
ATOM     18  C   UNL     1     115.565 -77.773  24.001  1.00  0.00    -0.000 C 
BRANCH  18  19
ATOM     19  C   UNL     1     115.692 -76.326  23.493  1.00  0.00    -0.003 C 
ATOM     20  C   UNL     1     114.412 -75.807  22.839  1.00  0.00     0.004 C 
ENDBRANCH  18  19
ENDBRANCH  17  18
ENDBRANCH  16  17
ENDBRANCH  15  16
ENDBRANCH  14  15
ENDBRANCH  13  14
ENDBRANCH  12  13
ENDBRANCH   1  12
TORSDOF 16
ENDMDL
