MODEL 1
REMARK VINA RESULT:    -3.807      0.000      0.000
REMARK INTER + INTRA:          -5.089
REMARK INTER:                  -4.697
REMARK INTRA:                  -0.392
REMARK UNBOUND:                -0.392
REMARK SMILES C=CC[C@H](C)C(=O)CC
REMARK SMILES IDX 4 1 5 2 6 3 7 4 8 5 9 6 3 7 2 8 1 9
REMARK H PARENT
REMARK Flexibility Score: inf
ROOT
ATOM      1  C   UNL     1      -0.573   0.658  29.134  1.00  0.00     0.057 C 
ATOM      2  C   UNL     1      -0.398   2.051  29.747  1.00  0.00     0.016 C 
ENDROOT
BRANCH   1   3
ATOM      3  C   UNL     1      -1.059   0.778  27.703  1.00  0.00     0.135 C 
ATOM      4  O   UNL     1      -1.391   1.870  27.265  1.00  0.00    -0.299 OA
BRANCH   3   5
ATOM      5  C   UNL     1      -1.157  -0.432  26.811  1.00  0.00     0.072 C 
ATOM      6  C   UNL     1      -2.320  -0.292  25.835  1.00  0.00     0.012 C 
ENDBRANCH   3   5
ENDBRANCH   1   3
BRANCH   1   7
ATOM      7  C   UNL     1      -1.545  -0.189  29.982  1.00  0.00     0.038 C 
BRANCH   7   8
ATOM      8  C   UNL     1      -2.959   0.324  29.906  1.00  0.00    -0.034 C 
ATOM      9  C   UNL     1      -3.976  -0.464  29.546  1.00  0.00     0.004 C 
ENDBRANCH   7   8
ENDBRANCH   1   7
TORSDOF 4
ENDMDL
MODEL 2
REMARK VINA RESULT:    -3.784      1.526      3.353
REMARK INTER + INTRA:          -5.062
REMARK INTER:                  -4.809
REMARK INTRA:                  -0.252
REMARK UNBOUND:                -0.392
REMARK SMILES C=CC[C@H](C)C(=O)CC
REMARK SMILES IDX 4 1 5 2 6 3 7 4 8 5 9 6 3 7 2 8 1 9
REMARK H PARENT
REMARK Flexibility Score: inf
ROOT
ATOM      1  C   UNL     1      -1.487   0.697  28.562  1.00  0.00     0.057 C 
ATOM      2  C   UNL     1      -0.181   1.073  29.271  1.00  0.00     0.016 C 
ENDROOT
BRANCH   1   3
ATOM      3  C   UNL     1      -2.453   0.074  29.551  1.00  0.00     0.135 C 
ATOM      4  O   UNL     1      -2.224   0.146  30.750  1.00  0.00    -0.299 OA
BRANCH   3   5
ATOM      5  C   UNL     1      -3.688  -0.647  29.080  1.00  0.00     0.072 C 
ATOM      6  C   UNL     1      -4.790  -0.575  30.132  1.00  0.00     0.012 C 
ENDBRANCH   3   5
ENDBRANCH   1   3
BRANCH   1   7
ATOM      7  C   UNL     1      -1.208  -0.257  27.382  1.00  0.00     0.038 C 
BRANCH   7   8
ATOM      8  C   UNL     1      -1.681   0.310  26.069  1.00  0.00    -0.034 C 
ATOM      9  C   UNL     1      -2.842  -0.058  25.521  1.00  0.00     0.004 C 
ENDBRANCH   7   8
ENDBRANCH   1   7
TORSDOF 4
ENDMDL
MODEL 3
REMARK VINA RESULT:    -3.783     16.697     17.888
REMARK INTER + INTRA:          -5.060
REMARK INTER:                  -4.827
REMARK INTRA:                  -0.233
REMARK UNBOUND:                -0.392
REMARK SMILES C=CC[C@H](C)C(=O)CC
REMARK SMILES IDX 4 1 5 2 6 3 7 4 8 5 9 6 3 7 2 8 1 9
REMARK H PARENT
REMARK Flexibility Score: inf
ROOT
ATOM      1  C   UNL     1     -12.051  11.708  17.818  1.00  0.00     0.057 C 
ATOM      2  C   UNL     1     -12.602  10.384  17.277  1.00  0.00     0.016 C 
ENDROOT
BRANCH   1   3
ATOM      3  C   UNL     1     -10.622  11.521  18.288  1.00  0.00     0.135 C 
ATOM      4  O   UNL     1     -10.218  10.403  18.574  1.00  0.00    -0.299 OA
BRANCH   3   5
ATOM      5  C   UNL     1      -9.689  12.696  18.424  1.00  0.00     0.072 C 
ATOM      6  C   UNL     1      -8.657  12.443  19.517  1.00  0.00     0.012 C 
ENDBRANCH   3   5
ENDBRANCH   1   3
BRANCH   1   7
ATOM      7  C   UNL     1     -12.945  12.243  18.955  1.00  0.00     0.038 C 
BRANCH   7   8
ATOM      8  C   UNL     1     -13.326  11.163  19.933  1.00  0.00    -0.034 C 
ATOM      9  C   UNL     1     -13.997  11.435  21.056  1.00  0.00     0.004 C 
ENDBRANCH   7   8
ENDBRANCH   1   7
TORSDOF 4
ENDMDL
MODEL 4
REMARK VINA RESULT:    -3.634      1.207      3.591
REMARK INTER + INTRA:          -4.876
REMARK INTER:                  -4.473
REMARK INTRA:                  -0.403
REMARK UNBOUND:                -0.392
REMARK SMILES C=CC[C@H](C)C(=O)CC
REMARK SMILES IDX 4 1 5 2 6 3 7 4 8 5 9 6 3 7 2 8 1 9
REMARK H PARENT
REMARK Flexibility Score: inf
ROOT
ATOM      1  C   UNL     1      -2.169  -0.239  27.280  1.00  0.00     0.057 C 
ATOM      2  C   UNL     1      -2.590  -0.221  25.806  1.00  0.00     0.016 C 
ENDROOT
BRANCH   1   3
ATOM      3  C   UNL     1      -3.339   0.158  28.159  1.00  0.00     0.135 C 
ATOM      4  O   UNL     1      -3.857   1.258  28.020  1.00  0.00    -0.299 OA
BRANCH   3   5
ATOM      5  C   UNL     1      -3.869  -0.775  29.215  1.00  0.00     0.072 C 
ATOM      6  C   UNL     1      -3.531  -0.261  30.610  1.00  0.00     0.012 C 
ENDBRANCH   3   5
ENDBRANCH   1   3
BRANCH   1   7
ATOM      7  C   UNL     1      -0.960   0.692  27.510  1.00  0.00     0.038 C 
BRANCH   7   8
ATOM      8  C   UNL     1      -0.418   0.582  28.911  1.00  0.00    -0.034 C 
ATOM      9  C   UNL     1      -0.213   1.660  29.673  1.00  0.00     0.004 C 
ENDBRANCH   7   8
ENDBRANCH   1   7
TORSDOF 4
ENDMDL
MODEL 5
REMARK VINA RESULT:    -3.599      1.969      3.230
REMARK INTER + INTRA:          -4.833
REMARK INTER:                  -4.359
REMARK INTRA:                  -0.474
REMARK UNBOUND:                -0.392
REMARK SMILES C=CC[C@H](C)C(=O)CC
REMARK SMILES IDX 4 1 5 2 6 3 7 4 8 5 9 6 3 7 2 8 1 9
REMARK H PARENT
REMARK Flexibility Score: inf
ROOT
ATOM      1  C   UNL     1      -2.608  -0.328  27.407  1.00  0.00     0.057 C 
ATOM      2  C   UNL     1      -1.367  -0.749  26.613  1.00  0.00     0.016 C 
ENDROOT
BRANCH   1   3
ATOM      3  C   UNL     1      -3.369   0.743  26.650  1.00  0.00     0.135 C 
ATOM      4  O   UNL     1      -3.921   0.464  25.595  1.00  0.00    -0.299 OA
BRANCH   3   5
ATOM      5  C   UNL     1      -3.445   2.155  27.168  1.00  0.00     0.072 C 
ATOM      6  C   UNL     1      -2.331   3.010  26.573  1.00  0.00     0.012 C 
ENDBRANCH   3   5
ENDBRANCH   1   3
BRANCH   1   7
ATOM      7  C   UNL     1      -2.211   0.162  28.815  1.00  0.00     0.038 C 
BRANCH   7   8
ATOM      8  C   UNL     1      -0.720   0.319  28.962  1.00  0.00    -0.034 C 
ATOM      9  C   UNL     1      -0.169   1.470  29.356  1.00  0.00     0.004 C 
ENDBRANCH   7   8
ENDBRANCH   1   7
TORSDOF 4
ENDMDL
MODEL 6
REMARK VINA RESULT:    -3.500     10.974     12.176
REMARK INTER + INTRA:          -4.711
REMARK INTER:                  -4.388
REMARK INTRA:                  -0.323
REMARK UNBOUND:                -0.392
REMARK SMILES C=CC[C@H](C)C(=O)CC
REMARK SMILES IDX 4 1 5 2 6 3 7 4 8 5 9 6 3 7 2 8 1 9
REMARK H PARENT
REMARK Flexibility Score: inf
ROOT
ATOM      1  C   UNL     1     -12.163   0.736  32.811  1.00  0.00     0.057 C 
ATOM      2  C   UNL     1     -11.348   1.909  32.256  1.00  0.00     0.016 C 
ENDROOT
BRANCH   1   3
ATOM      3  C   UNL     1     -12.976   0.099  31.701  1.00  0.00     0.135 C 
ATOM      4  O   UNL     1     -13.869  -0.690  31.979  1.00  0.00    -0.299 OA
BRANCH   3   5
ATOM      5  C   UNL     1     -12.693   0.408  30.255  1.00  0.00     0.072 C 
ATOM      6  C   UNL     1     -13.988   0.680  29.497  1.00  0.00     0.012 C 
ENDBRANCH   3   5
ENDBRANCH   1   3
BRANCH   1   7
ATOM      7  C   UNL     1     -13.071   1.205  33.966  1.00  0.00     0.038 C 
BRANCH   7   8
ATOM      8  C   UNL     1     -13.339   2.686  33.912  1.00  0.00    -0.034 C 
ATOM      9  C   UNL     1     -14.540   3.173  33.586  1.00  0.00     0.004 C 
ENDBRANCH   7   8
ENDBRANCH   1   7
TORSDOF 4
ENDMDL
MODEL 7
REMARK VINA RESULT:    -3.453      1.564      2.851
REMARK INTER + INTRA:          -4.653
REMARK INTER:                  -4.260
REMARK INTRA:                  -0.393
REMARK UNBOUND:                -0.392
REMARK SMILES C=CC[C@H](C)C(=O)CC
REMARK SMILES IDX 4 1 5 2 6 3 7 4 8 5 9 6 3 7 2 8 1 9
REMARK H PARENT
REMARK Flexibility Score: inf
ROOT
ATOM      1  C   UNL     1      -2.398   0.253  28.403  1.00  0.00     0.057 C 
ATOM      2  C   UNL     1      -3.495  -0.556  29.103  1.00  0.00     0.016 C 
ENDROOT
BRANCH   1   3
ATOM      3  C   UNL     1      -2.252  -0.208  26.966  1.00  0.00     0.135 C 
ATOM      4  O   UNL     1      -1.325  -0.944  26.656  1.00  0.00    -0.299 OA
BRANCH   3   5
ATOM      5  C   UNL     1      -3.222   0.239  25.904  1.00  0.00     0.072 C 
ATOM      6  C   UNL     1      -3.697   1.663  26.171  1.00  0.00     0.012 C 
ENDBRANCH   3   5
ENDBRANCH   1   3
BRANCH   1   7
ATOM      7  C   UNL     1      -1.062   0.130  29.165  1.00  0.00     0.038 C 
BRANCH   7   8
ATOM      8  C   UNL     1      -0.270   1.410  29.133  1.00  0.00    -0.034 C 
ATOM      9  C   UNL     1      -0.832   2.578  28.807  1.00  0.00     0.004 C 
ENDBRANCH   7   8
ENDBRANCH   1   7
TORSDOF 4
ENDMDL
MODEL 8
REMARK VINA RESULT:    -3.430      1.378      1.917
REMARK INTER + INTRA:          -4.624
REMARK INTER:                  -4.293
REMARK INTRA:                  -0.332
REMARK UNBOUND:                -0.392
REMARK SMILES C=CC[C@H](C)C(=O)CC
REMARK SMILES IDX 4 1 5 2 6 3 7 4 8 5 9 6 3 7 2 8 1 9
REMARK H PARENT
REMARK Flexibility Score: inf
ROOT
ATOM      1  C   UNL     1      -2.440   1.207  29.390  1.00  0.00     0.057 C 
ATOM      2  C   UNL     1      -3.581   1.714  28.502  1.00  0.00     0.016 C 
ENDROOT
BRANCH   1   3
ATOM      3  C   UNL     1      -1.273   0.759  28.532  1.00  0.00     0.135 C 
ATOM      4  O   UNL     1      -0.206   0.475  29.058  1.00  0.00    -0.299 OA
BRANCH   3   5
ATOM      5  C   UNL     1      -1.399   0.673  27.033  1.00  0.00     0.072 C 
ATOM      6  C   UNL     1      -1.524  -0.778  26.584  1.00  0.00     0.012 C 
ENDBRANCH   3   5
ENDBRANCH   1   3
BRANCH   1   7
ATOM      7  C   UNL     1      -2.930   0.063  30.302  1.00  0.00     0.038 C 
BRANCH   7   8
ATOM      8  C   UNL     1      -4.227  -0.531  29.821  1.00  0.00    -0.034 C 
ATOM      9  C   UNL     1      -5.215  -0.842  30.664  1.00  0.00     0.004 C 
ENDBRANCH   7   8
ENDBRANCH   1   7
TORSDOF 4
ENDMDL
MODEL 9
REMARK VINA RESULT:    -3.392      1.437      3.046
REMARK INTER + INTRA:          -4.578
REMARK INTER:                  -4.160
REMARK INTRA:                  -0.418
REMARK UNBOUND:                -0.392
REMARK SMILES C=CC[C@H](C)C(=O)CC
REMARK SMILES IDX 4 1 5 2 6 3 7 4 8 5 9 6 3 7 2 8 1 9
REMARK H PARENT
REMARK Flexibility Score: inf
ROOT
ATOM      1  C   UNL     1      -1.958   0.553  27.190  1.00  0.00     0.057 C 
ATOM      2  C   UNL     1      -1.333  -0.741  26.656  1.00  0.00     0.016 C 
ENDROOT
BRANCH   1   3
ATOM      3  C   UNL     1      -1.116   1.105  28.323  1.00  0.00     0.135 C 
ATOM      4  O   UNL     1      -0.238   0.414  28.820  1.00  0.00    -0.299 OA
BRANCH   3   5
ATOM      5  C   UNL     1      -1.354   2.492  28.863  1.00  0.00     0.072 C 
ATOM      6  C   UNL     1      -1.576   2.454  30.371  1.00  0.00     0.012 C 
ENDBRANCH   3   5
ENDBRANCH   1   3
BRANCH   1   7
ATOM      7  C   UNL     1      -3.411   0.306  27.645  1.00  0.00     0.038 C 
BRANCH   7   8
ATOM      8  C   UNL     1      -3.485  -0.623  28.828  1.00  0.00    -0.034 C 
ATOM      9  C   UNL     1      -4.370  -0.441  29.813  1.00  0.00     0.004 C 
ENDBRANCH   7   8
ENDBRANCH   1   7
TORSDOF 4
ENDMDL
