MODEL 1
REMARK VINA RESULT:    -1.969      0.000      0.000
REMARK INTER + INTRA:          -2.027
REMARK INTER:                  -2.027
REMARK INTRA:                   0.000
REMARK UNBOUND:                 0.000
REMARK SMILES Cc1ccccc1O
REMARK SMILES IDX 1 1 2 2 3 3 4 4 5 5 6 6 7 7 8 8
REMARK H PARENT 8 9
REMARK Flexibility Score: inf
ROOT
ATOM      1  C   UNL     1     -11.386   1.716  -5.875  1.00  0.00     0.048 C 
ATOM      2  C   UNL     1     -10.164   0.888  -6.156  1.00  0.00    -0.009 A 
ATOM      3  C   UNL     1     -10.161  -0.489  -5.876  1.00  0.00     0.007 A 
ATOM      4  C   UNL     1      -9.025  -1.260  -6.137  1.00  0.00     0.001 A 
ATOM      5  C   UNL     1      -7.883  -0.665  -6.678  1.00  0.00     0.004 A 
ATOM      6  C   UNL     1      -7.876   0.704  -6.961  1.00  0.00     0.046 A 
ATOM      7  C   UNL     1      -9.012   1.485  -6.702  1.00  0.00     0.118 A 
ENDROOT
BRANCH   7   8
ATOM      8  O   UNL     1      -9.000   2.851  -6.986  1.00  0.00    -0.508 OA
ATOM      9  H   UNL     1      -8.222   3.286  -7.467  1.00  0.00     0.293 HD
ENDBRANCH   7   8
TORSDOF 1
ENDMDL
MODEL 2
REMARK VINA RESULT:    -1.893     27.990     28.682
REMARK INTER + INTRA:          -1.948
REMARK INTER:                  -1.948
REMARK INTRA:                   0.000
REMARK UNBOUND:                 0.000
REMARK SMILES Cc1ccccc1O
REMARK SMILES IDX 1 1 2 2 3 3 4 4 5 5 6 6 7 7 8 8
REMARK H PARENT 8 9
REMARK Flexibility Score: inf
ROOT
ATOM      1  C   UNL     1     -28.115 -14.130 -22.274  1.00  0.00     0.048 C 
ATOM      2  C   UNL     1     -28.092 -14.956 -21.018  1.00  0.00    -0.009 A 
ATOM      3  C   UNL     1     -28.125 -14.332 -19.759  1.00  0.00     0.007 A 
ATOM      4  C   UNL     1     -28.104 -15.099 -18.591  1.00  0.00     0.001 A 
ATOM      5  C   UNL     1     -28.050 -16.492 -18.668  1.00  0.00     0.004 A 
ATOM      6  C   UNL     1     -28.018 -17.123 -19.916  1.00  0.00     0.046 A 
ATOM      7  C   UNL     1     -28.038 -16.360 -21.093  1.00  0.00     0.118 A 
ENDROOT
BRANCH   7   8
ATOM      8  O   UNL     1     -28.005 -16.994 -22.335  1.00  0.00    -0.508 OA
ATOM      9  H   UNL     1     -27.143 -17.096 -22.857  1.00  0.00     0.293 HD
ENDBRANCH   7   8
TORSDOF 1
ENDMDL
MODEL 3
REMARK VINA RESULT:    -1.495     27.599     28.278
REMARK INTER + INTRA:          -1.539
REMARK INTER:                  -1.539
REMARK INTRA:                   0.000
REMARK UNBOUND:                 0.000
REMARK SMILES Cc1ccccc1O
REMARK SMILES IDX 1 1 2 2 3 3 4 4 5 5 6 6 7 7 8 8
REMARK H PARENT 8 9
REMARK Flexibility Score: inf
ROOT
ATOM      1  C   UNL     1     -28.125 -15.899 -17.526  1.00  0.00     0.048 C 
ATOM      2  C   UNL     1     -28.125 -15.841 -19.027  1.00  0.00    -0.009 A 
ATOM      3  C   UNL     1     -28.125 -17.027 -19.782  1.00  0.00     0.007 A 
ATOM      4  C   UNL     1     -28.125 -16.974 -21.178  1.00  0.00     0.001 A 
ATOM      5  C   UNL     1     -28.124 -15.740 -21.833  1.00  0.00     0.004 A 
ATOM      6  C   UNL     1     -28.125 -14.555 -21.092  1.00  0.00     0.046 A 
ATOM      7  C   UNL     1     -28.125 -14.599 -19.690  1.00  0.00     0.118 A 
ENDROOT
BRANCH   7   8
ATOM      8  O   UNL     1     -28.125 -13.413 -18.955  1.00  0.00    -0.508 OA
ATOM      9  H   UNL     1     -27.320 -13.126 -18.411  1.00  0.00     0.293 HD
ENDBRANCH   7   8
TORSDOF 1
ENDMDL
MODEL 4
REMARK VINA RESULT:    -1.381      1.703      2.994
REMARK INTER + INTRA:          -1.421
REMARK INTER:                  -1.421
REMARK INTRA:                   0.000
REMARK UNBOUND:                 0.000
REMARK SMILES Cc1ccccc1O
REMARK SMILES IDX 1 1 2 2 3 3 4 4 5 5 6 6 7 7 8 8
REMARK H PARENT 8 9
REMARK Flexibility Score: inf
ROOT
ATOM      1  C   UNL     1      -9.928  -1.052  -6.158  1.00  0.00     0.048 C 
ATOM      2  C   UNL     1      -9.562   0.404  -6.082  1.00  0.00    -0.009 A 
ATOM      3  C   UNL     1      -8.216   0.801  -6.148  1.00  0.00     0.007 A 
ATOM      4  C   UNL     1      -7.875   2.154  -6.077  1.00  0.00     0.001 A 
ATOM      5  C   UNL     1      -8.873   3.122  -5.941  1.00  0.00     0.004 A 
ATOM      6  C   UNL     1     -10.215   2.738  -5.875  1.00  0.00     0.046 A 
ATOM      7  C   UNL     1     -10.566   1.382  -5.945  1.00  0.00     0.118 A 
ENDROOT
BRANCH   7   8
ATOM      8  O   UNL     1     -11.907   1.003  -5.878  1.00  0.00    -0.508 OA
ATOM      9  H   UNL     1     -12.573   1.507  -5.305  1.00  0.00     0.293 HD
ENDBRANCH   7   8
TORSDOF 1
ENDMDL
MODEL 5
REMARK VINA RESULT:    -1.357      2.027      2.467
REMARK INTER + INTRA:          -1.397
REMARK INTER:                  -1.397
REMARK INTRA:                   0.000
REMARK UNBOUND:                 0.000
REMARK SMILES Cc1ccccc1O
REMARK SMILES IDX 1 1 2 2 3 3 4 4 5 5 6 6 7 7 8 8
REMARK H PARENT 8 9
REMARK Flexibility Score: inf
ROOT
ATOM      1  C   UNL     1     -12.134   1.638  -6.312  1.00  0.00     0.048 C 
ATOM      2  C   UNL     1     -10.653   1.633  -6.570  1.00  0.00    -0.009 A 
ATOM      3  C   UNL     1      -9.809   2.516  -5.875  1.00  0.00     0.007 A 
ATOM      4  C   UNL     1      -8.433   2.511  -6.115  1.00  0.00     0.001 A 
ATOM      5  C   UNL     1      -7.887   1.629  -7.049  1.00  0.00     0.004 A 
ATOM      6  C   UNL     1      -8.717   0.746  -7.746  1.00  0.00     0.046 A 
ATOM      7  C   UNL     1     -10.100   0.744  -7.511  1.00  0.00     0.118 A 
ENDROOT
BRANCH   7   8
ATOM      8  O   UNL     1     -10.925  -0.139  -8.209  1.00  0.00    -0.508 OA
ATOM      9  H   UNL     1     -11.934  -0.074  -8.159  1.00  0.00     0.293 HD
ENDBRANCH   7   8
TORSDOF 1
ENDMDL
MODEL 6
REMARK VINA RESULT:    -0.870      1.821      2.811
REMARK INTER + INTRA:          -0.895
REMARK INTER:                  -0.895
REMARK INTRA:                   0.000
REMARK UNBOUND:                 0.000
REMARK SMILES Cc1ccccc1O
REMARK SMILES IDX 1 1 2 2 3 3 4 4 5 5 6 6 7 7 8 8
REMARK H PARENT 8 9
REMARK Flexibility Score: inf
ROOT
ATOM      1  C   UNL     1     -10.737  -0.184  -7.816  1.00  0.00     0.048 C 
ATOM      2  C   UNL     1     -10.011   0.944  -7.140  1.00  0.00    -0.009 A 
ATOM      3  C   UNL     1     -10.730   1.988  -6.534  1.00  0.00     0.007 A 
ATOM      4  C   UNL     1     -10.054   3.037  -5.904  1.00  0.00     0.001 A 
ATOM      5  C   UNL     1      -8.658   3.054  -5.875  1.00  0.00     0.004 A 
ATOM      6  C   UNL     1      -7.933   2.020  -6.474  1.00  0.00     0.046 A 
ATOM      7  C   UNL     1      -8.603   0.963  -7.108  1.00  0.00     0.118 A 
ENDROOT
BRANCH   7   8
ATOM      8  O   UNL     1      -7.875  -0.066  -7.705  1.00  0.00    -0.508 OA
ATOM      9  H   UNL     1      -8.334  -0.859  -8.137  1.00  0.00     0.293 HD
ENDBRANCH   7   8
TORSDOF 1
ENDMDL
MODEL 7
REMARK VINA RESULT:    -0.453      1.076      2.260
REMARK INTER + INTRA:          -0.466
REMARK INTER:                  -0.466
REMARK INTRA:                   0.000
REMARK UNBOUND:                 0.000
REMARK SMILES Cc1ccccc1O
REMARK SMILES IDX 1 1 2 2 3 3 4 4 5 5 6 6 7 7 8 8
REMARK H PARENT 8 9
REMARK Flexibility Score: inf
ROOT
ATOM      1  C   UNL     1      -8.492   2.725  -7.251  1.00  0.00     0.048 C 
ATOM      2  C   UNL     1      -8.924   1.358  -6.800  1.00  0.00    -0.009 A 
ATOM      3  C   UNL     1      -8.036   0.272  -6.879  1.00  0.00     0.007 A 
ATOM      4  C   UNL     1      -8.438  -1.000  -6.460  1.00  0.00     0.001 A 
ATOM      5  C   UNL     1      -9.726  -1.198  -5.959  1.00  0.00     0.004 A 
ATOM      6  C   UNL     1     -10.617  -0.124  -5.875  1.00  0.00     0.046 A 
ATOM      7  C   UNL     1     -10.223   1.155  -6.294  1.00  0.00     0.118 A 
ENDROOT
BRANCH   7   8
ATOM      8  O   UNL     1     -11.115   2.223  -6.209  1.00  0.00    -0.508 OA
ATOM      9  H   UNL     1     -11.825   2.266  -5.488  1.00  0.00     0.293 HD
ENDBRANCH   7   8
TORSDOF 1
ENDMDL
MODEL 8
REMARK VINA RESULT:     0.205     27.474     28.131
REMARK INTER + INTRA:           0.211
REMARK INTER:                   0.211
REMARK INTRA:                   0.000
REMARK UNBOUND:                 0.000
REMARK SMILES Cc1ccccc1O
REMARK SMILES IDX 1 1 2 2 3 3 4 4 5 5 6 6 7 7 8 8
REMARK H PARENT 8 9
REMARK Flexibility Score: inf
ROOT
ATOM      1  C   UNL     1     -27.934 -12.907 -19.347  1.00  0.00     0.048 C 
ATOM      2  C   UNL     1     -28.001 -14.377 -19.652  1.00  0.00    -0.009 A 
ATOM      3  C   UNL     1     -28.034 -15.317 -18.607  1.00  0.00     0.007 A 
ATOM      4  C   UNL     1     -28.096 -16.684 -18.890  1.00  0.00     0.001 A 
ATOM      5  C   UNL     1     -28.124 -17.125 -20.215  1.00  0.00     0.004 A 
ATOM      6  C   UNL     1     -28.092 -16.198 -21.261  1.00  0.00     0.046 A 
ATOM      7  C   UNL     1     -28.029 -14.824 -20.986  1.00  0.00     0.118 A 
ENDROOT
BRANCH   7   8
ATOM      8  O   UNL     1     -27.997 -13.904 -22.034  1.00  0.00    -0.508 OA
ATOM      9  H   UNL     1     -28.402 -12.980 -21.941  1.00  0.00     0.293 HD
ENDBRANCH   7   8
TORSDOF 1
ENDMDL
