MODEL 1
REMARK VINA RESULT:    -3.789      0.000      0.000
REMARK INTER + INTRA:          -4.659
REMARK INTER:                  -4.453
REMARK INTRA:                  -0.206
REMARK UNBOUND:                -0.206
REMARK SMILES O=c1c(O)c(-c2ccc(O)cc2)oc2cc(O)cc(O)c12
REMARK SMILES IDX 5 1 3 2 2 3 1 4 21 5 19 6 18 7 16 8 15 9 14 10 13 11 6 12
REMARK SMILES IDX 7 13 8 14 9 15 12 16 11 17 10 18 4 20 20 22 17 24
REMARK H PARENT 10 19 4 21 20 23 17 25
REMARK Flexibility Score: inf
ROOT
ATOM      1  C   UNL     1      33.011  24.973  37.672  1.00  0.00     0.180 A 
ATOM      2  C   UNL     1      34.383  24.969  37.349  1.00  0.00     0.208 A 
ATOM      3  C   UNL     1      34.893  26.000  36.545  1.00  0.00     0.238 A 
ATOM      4  O   UNL     1      36.116  26.001  36.241  1.00  0.00    -0.285 OA
ATOM      5  C   UNL     1      34.033  27.024  36.096  1.00  0.00     0.111 A 
ATOM      6  C   UNL     1      34.470  28.101  35.287  1.00  0.00     0.134 A 
ATOM      7  C   UNL     1      33.554  29.086  34.888  1.00  0.00     0.093 A 
ATOM      8  C   UNL     1      32.216  29.017  35.284  1.00  0.00     0.123 A 
ATOM      9  C   UNL     1      31.780  27.956  36.082  1.00  0.00     0.094 A 
ATOM     10  C   UNL     1      32.675  26.963  36.488  1.00  0.00     0.146 A 
ATOM     11  O   UNL     1      32.235  25.963  37.243  1.00  0.00    -0.452 OA
ENDROOT
BRANCH   1  12
ATOM     12  C   UNL     1      32.395  23.911  38.498  1.00  0.00     0.021 A 
ATOM     13  C   UNL     1      32.242  22.599  38.012  1.00  0.00     0.016 A 
ATOM     14  C   UNL     1      31.634  21.619  38.803  1.00  0.00     0.047 A 
ATOM     15  C   UNL     1      31.160  21.939  40.082  1.00  0.00     0.115 A 
ATOM     16  C   UNL     1      31.898  24.228  39.773  1.00  0.00     0.016 A 
ATOM     17  C   UNL     1      31.291  23.245  40.563  1.00  0.00     0.047 A 
BRANCH  15  18
ATOM     18  O   UNL     1      30.554  20.970  40.879  1.00  0.00    -0.508 OA
ATOM     19  H   UNL     1      30.361  20.040  40.526  1.00  0.00     0.293 HD
ENDBRANCH  15  18
ENDBRANCH   1  12
BRANCH   2  20
ATOM     20  O   UNL     1      35.222  23.969  37.847  1.00  0.00    -0.502 OA
ATOM     21  H   UNL     1      36.231  24.054  37.837  1.00  0.00     0.293 HD
ENDBRANCH   2  20
BRANCH   6  22
ATOM     22  O   UNL     1      35.800  28.198  34.877  1.00  0.00    -0.507 OA
ATOM     23  H   UNL     1      36.051  28.564  33.964  1.00  0.00     0.293 HD
ENDBRANCH   6  22
BRANCH   8  24
ATOM     24  O   UNL     1      31.327  30.010  34.875  1.00  0.00    -0.508 OA
ATOM     25  H   UNL     1      31.167  30.840  35.434  1.00  0.00     0.293 HD
ENDBRANCH   8  24
TORSDOF 5
ENDMDL
MODEL 2
REMARK VINA RESULT:    -3.388      1.402      6.456
REMARK INTER + INTRA:          -4.187
REMARK INTER:                  -4.681
REMARK INTRA:                   0.494
REMARK UNBOUND:                -0.206
REMARK SMILES O=c1c(O)c(-c2ccc(O)cc2)oc2cc(O)cc(O)c12
REMARK SMILES IDX 5 1 3 2 2 3 1 4 21 5 19 6 18 7 16 8 15 9 14 10 13 11 6 12
REMARK SMILES IDX 7 13 8 14 9 15 12 16 11 17 10 18 4 20 20 22 17 24
REMARK H PARENT 10 19 4 21 20 23 17 25
REMARK Flexibility Score: inf
ROOT
ATOM      1  C   UNL     1      33.203  25.124  37.338  1.00  0.00     0.180 A 
ATOM      2  C   UNL     1      34.438  24.497  37.079  1.00  0.00     0.208 A 
ATOM      3  C   UNL     1      34.753  23.314  37.765  1.00  0.00     0.238 A 
ATOM      4  O   UNL     1      35.860  22.749  37.550  1.00  0.00    -0.285 OA
ATOM      5  C   UNL     1      33.827  22.769  38.679  1.00  0.00     0.111 A 
ATOM      6  C   UNL     1      34.067  21.578  39.406  1.00  0.00     0.134 A 
ATOM      7  C   UNL     1      33.090  21.095  40.290  1.00  0.00     0.093 A 
ATOM      8  C   UNL     1      31.882  21.776  40.458  1.00  0.00     0.123 A 
ATOM      9  C   UNL     1      31.640  22.952  39.742  1.00  0.00     0.094 A 
ATOM     10  C   UNL     1      32.601  23.452  38.859  1.00  0.00     0.146 A 
ATOM     11  O   UNL     1      32.348  24.573  38.194  1.00  0.00    -0.452 OA
ENDROOT
BRANCH   1  12
ATOM     12  C   UNL     1      32.806  26.384  36.669  1.00  0.00     0.021 A 
ATOM     13  C   UNL     1      33.680  27.059  35.797  1.00  0.00     0.016 A 
ATOM     14  C   UNL     1      33.292  28.261  35.197  1.00  0.00     0.047 A 
ATOM     15  C   UNL     1      32.032  28.809  35.470  1.00  0.00     0.115 A 
ATOM     16  C   UNL     1      31.553  26.952  36.953  1.00  0.00     0.016 A 
ATOM     17  C   UNL     1      31.167  28.154  36.350  1.00  0.00     0.047 A 
BRANCH  15  18
ATOM     18  O   UNL     1      31.634  30.005  34.876  1.00  0.00    -0.508 OA
ATOM     19  H   UNL     1      31.112  30.704  35.391  1.00  0.00     0.293 HD
ENDBRANCH  15  18
ENDBRANCH   1  12
BRANCH   2  20
ATOM     20  O   UNL     1      35.317  25.031  36.134  1.00  0.00    -0.502 OA
ATOM     21  H   UNL     1      35.713  24.474  35.386  1.00  0.00     0.293 HD
ENDBRANCH   2  20
BRANCH   6  22
ATOM     22  O   UNL     1      35.263  20.875  39.259  1.00  0.00    -0.507 OA
ATOM     23  H   UNL     1      35.328  19.885  39.467  1.00  0.00     0.293 HD
ENDBRANCH   6  22
BRANCH   8  24
ATOM     24  O   UNL     1      30.928  21.274  41.341  1.00  0.00    -0.508 OA
ATOM     25  H   UNL     1      30.141  20.726  41.015  1.00  0.00     0.293 HD
ENDBRANCH   8  24
TORSDOF 5
ENDMDL
MODEL 3
REMARK VINA RESULT:    -3.047      2.110      6.697
REMARK INTER + INTRA:          -3.788
REMARK INTER:                  -3.679
REMARK INTRA:                  -0.108
REMARK UNBOUND:                -0.206
REMARK SMILES O=c1c(O)c(-c2ccc(O)cc2)oc2cc(O)cc(O)c12
REMARK SMILES IDX 5 1 3 2 2 3 1 4 21 5 19 6 18 7 16 8 15 9 14 10 13 11 6 12
REMARK SMILES IDX 7 13 8 14 9 15 12 16 11 17 10 18 4 20 20 22 17 24
REMARK H PARENT 10 19 4 21 20 23 17 25
REMARK Flexibility Score: inf
ROOT
ATOM      1  C   UNL     1      33.380  26.077  36.993  1.00  0.00     0.180 A 
ATOM      2  C   UNL     1      33.081  25.950  38.364  1.00  0.00     0.208 A 
ATOM      3  C   UNL     1      32.411  24.799  38.808  1.00  0.00     0.238 A 
ATOM      4  O   UNL     1      32.128  24.679  40.031  1.00  0.00    -0.285 OA
ATOM      5  C   UNL     1      32.069  23.790  37.882  1.00  0.00     0.111 A 
ATOM      6  C   UNL     1      31.398  22.599  38.249  1.00  0.00     0.134 A 
ATOM      7  C   UNL     1      31.102  21.639  37.270  1.00  0.00     0.093 A 
ATOM      8  C   UNL     1      31.465  21.845  35.936  1.00  0.00     0.123 A 
ATOM      9  C   UNL     1      32.128  23.020  35.569  1.00  0.00     0.094 A 
ATOM     10  C   UNL     1      32.430  23.990  36.529  1.00  0.00     0.146 A 
ATOM     11  O   UNL     1      33.057  25.099  36.153  1.00  0.00    -0.452 OA
ENDROOT
BRANCH   1  12
ATOM     12  C   UNL     1      34.068  27.269  36.446  1.00  0.00     0.021 A 
ATOM     13  C   UNL     1      33.449  28.100  35.495  1.00  0.00     0.016 A 
ATOM     14  C   UNL     1      34.129  29.206  34.974  1.00  0.00     0.047 A 
ATOM     15  C   UNL     1      35.438  29.487  35.388  1.00  0.00     0.115 A 
ATOM     16  C   UNL     1      35.388  27.546  36.839  1.00  0.00     0.016 A 
ATOM     17  C   UNL     1      36.064  28.654  36.318  1.00  0.00     0.047 A 
BRANCH  15  18
ATOM     18  O   UNL     1      36.123  30.587  34.877  1.00  0.00    -0.508 OA
ATOM     19  H   UNL     1      36.188  30.754  33.880  1.00  0.00     0.293 HD
ENDBRANCH  15  18
ENDBRANCH   1  12
BRANCH   2  20
ATOM     20  O   UNL     1      33.473  26.940  39.268  1.00  0.00    -0.502 OA
ATOM     21  H   UNL     1      34.438  27.229  39.371  1.00  0.00     0.293 HD
ENDBRANCH   2  20
BRANCH   6  22
ATOM     22  O   UNL     1      31.023  22.364  39.572  1.00  0.00    -0.507 OA
ATOM     23  H   UNL     1      31.365  22.940  40.333  1.00  0.00     0.293 HD
ENDBRANCH   6  22
BRANCH   8  24
ATOM     24  O   UNL     1      31.160  20.875  34.984  1.00  0.00    -0.508 OA
ATOM     25  H   UNL     1      30.654  20.032  35.229  1.00  0.00     0.293 HD
ENDBRANCH   8  24
TORSDOF 5
ENDMDL
MODEL 4
REMARK VINA RESULT:    -2.884      1.271      3.154
REMARK INTER + INTRA:          -3.595
REMARK INTER:                  -3.607
REMARK INTRA:                   0.012
REMARK UNBOUND:                -0.206
REMARK SMILES O=c1c(O)c(-c2ccc(O)cc2)oc2cc(O)cc(O)c12
REMARK SMILES IDX 5 1 3 2 2 3 1 4 21 5 19 6 18 7 16 8 15 9 14 10 13 11 6 12
REMARK SMILES IDX 7 13 8 14 9 15 12 16 11 17 10 18 4 20 20 22 17 24
REMARK H PARENT 10 19 4 21 20 23 17 25
REMARK Flexibility Score: inf
ROOT
ATOM      1  C   UNL     1      32.050  25.489  38.004  1.00  0.00     0.180 A 
ATOM      2  C   UNL     1      30.896  26.236  37.698  1.00  0.00     0.208 A 
ATOM      3  C   UNL     1      31.018  27.365  36.873  1.00  0.00     0.238 A 
ATOM      4  O   UNL     1      29.993  28.047  36.601  1.00  0.00    -0.285 OA
ATOM      5  C   UNL     1      32.282  27.717  36.355  1.00  0.00     0.111 A 
ATOM      6  C   UNL     1      32.489  28.836  35.513  1.00  0.00     0.134 A 
ATOM      7  C   UNL     1      33.776  29.114  35.030  1.00  0.00     0.093 A 
ATOM      8  C   UNL     1      34.857  28.295  35.369  1.00  0.00     0.123 A 
ATOM      9  C   UNL     1      34.657  27.189  36.201  1.00  0.00     0.094 A 
ATOM     10  C   UNL     1      33.384  26.896  36.694  1.00  0.00     0.146 A 
ATOM     11  O   UNL     1      33.222  25.842  37.485  1.00  0.00    -0.452 OA
ENDROOT
BRANCH   1  12
ATOM     12  C   UNL     1      32.006  24.298  38.882  1.00  0.00     0.021 A 
ATOM     13  C   UNL     1      31.374  24.336  40.139  1.00  0.00     0.016 A 
ATOM     14  C   UNL     1      31.368  23.204  40.961  1.00  0.00     0.047 A 
ATOM     15  C   UNL     1      32.001  22.026  40.543  1.00  0.00     0.115 A 
ATOM     16  C   UNL     1      32.657  23.120  38.481  1.00  0.00     0.016 A 
ATOM     17  C   UNL     1      32.647  21.989  39.304  1.00  0.00     0.047 A 
BRANCH  15  18
ATOM     18  O   UNL     1      31.999  20.893  41.353  1.00  0.00    -0.508 OA
ATOM     19  H   UNL     1      31.831  19.969  40.971  1.00  0.00     0.293 HD
ENDBRANCH  15  18
ENDBRANCH   1  12
BRANCH   2  20
ATOM     20  O   UNL     1      29.648  25.839  38.185  1.00  0.00    -0.502 OA
ATOM     21  H   UNL     1      28.802  25.913  37.633  1.00  0.00     0.293 HD
ENDBRANCH   2  20
BRANCH   6  22
ATOM     22  O   UNL     1      31.430  29.671  35.155  1.00  0.00    -0.507 OA
ATOM     23  H   UNL     1      31.579  30.525  34.628  1.00  0.00     0.293 HD
ENDBRANCH   6  22
BRANCH   8  24
ATOM     24  O   UNL     1      36.125  28.593  34.875  1.00  0.00    -0.508 OA
ATOM     25  H   UNL     1      36.359  28.454  33.899  1.00  0.00     0.293 HD
ENDBRANCH   8  24
TORSDOF 5
ENDMDL
MODEL 5
REMARK VINA RESULT:    -2.882      1.791      7.084
REMARK INTER + INTRA:          -3.594
REMARK INTER:                  -4.118
REMARK INTRA:                   0.525
REMARK UNBOUND:                -0.206
REMARK SMILES O=c1c(O)c(-c2ccc(O)cc2)oc2cc(O)cc(O)c12
REMARK SMILES IDX 5 1 3 2 2 3 1 4 21 5 19 6 18 7 16 8 15 9 14 10 13 11 6 12
REMARK SMILES IDX 7 13 8 14 9 15 12 16 11 17 10 18 4 20 20 22 17 24
REMARK H PARENT 10 19 4 21 20 23 17 25
REMARK Flexibility Score: inf
ROOT
ATOM      1  C   UNL     1      33.461  25.932  37.248  1.00  0.00     0.180 A 
ATOM      2  C   UNL     1      32.057  25.817  37.276  1.00  0.00     0.208 A 
ATOM      3  C   UNL     1      31.482  24.683  37.869  1.00  0.00     0.238 A 
ATOM      4  O   UNL     1      30.227  24.564  37.891  1.00  0.00    -0.285 OA
ATOM      5  C   UNL     1      32.313  23.696  38.440  1.00  0.00     0.111 A 
ATOM      6  C   UNL     1      31.812  22.527  39.062  1.00  0.00     0.134 A 
ATOM      7  C   UNL     1      32.705  21.597  39.615  1.00  0.00     0.093 A 
ATOM      8  C   UNL     1      34.084  21.814  39.561  1.00  0.00     0.123 A 
ATOM      9  C   UNL     1      34.584  22.967  38.948  1.00  0.00     0.094 A 
ATOM     10  C   UNL     1      33.712  23.905  38.389  1.00  0.00     0.146 A 
ATOM     11  O   UNL     1      34.212  24.989  37.809  1.00  0.00    -0.452 OA
ENDROOT
BRANCH   1  12
ATOM     12  C   UNL     1      34.143  27.088  36.623  1.00  0.00     0.021 A 
ATOM     13  C   UNL     1      35.499  27.365  36.877  1.00  0.00     0.016 A 
ATOM     14  C   UNL     1      36.114  28.478  36.294  1.00  0.00     0.047 A 
ATOM     15  C   UNL     1      35.380  29.333  35.462  1.00  0.00     0.115 A 
ATOM     16  C   UNL     1      33.409  27.962  35.804  1.00  0.00     0.016 A 
ATOM     17  C   UNL     1      34.028  29.074  35.222  1.00  0.00     0.047 A 
BRANCH  15  18
ATOM     18  O   UNL     1      35.983  30.444  34.875  1.00  0.00    -0.508 OA
ATOM     19  H   UNL     1      35.547  30.938  34.106  1.00  0.00     0.293 HD
ENDBRANCH  15  18
ENDBRANCH   1  12
BRANCH   2  20
ATOM     20  O   UNL     1      31.255  26.831  36.746  1.00  0.00    -0.502 OA
ATOM     21  H   UNL     1      30.842  27.553  37.324  1.00  0.00     0.293 HD
ENDBRANCH   2  20
BRANCH   6  22
ATOM     22  O   UNL     1      30.440  22.283  39.132  1.00  0.00    -0.507 OA
ATOM     23  H   UNL     1      30.029  21.772  39.906  1.00  0.00     0.293 HD
ENDBRANCH   6  22
BRANCH   8  24
ATOM     24  O   UNL     1      34.949  20.875  40.119  1.00  0.00    -0.508 OA
ATOM     25  H   UNL     1      35.953  20.947  40.006  1.00  0.00     0.293 HD
ENDBRANCH   8  24
TORSDOF 5
ENDMDL
MODEL 6
REMARK VINA RESULT:    -2.351      1.970      6.532
REMARK INTER + INTRA:          -2.969
REMARK INTER:                  -2.775
REMARK INTRA:                  -0.193
REMARK UNBOUND:                -0.206
REMARK SMILES O=c1c(O)c(-c2ccc(O)cc2)oc2cc(O)cc(O)c12
REMARK SMILES IDX 5 1 3 2 2 3 1 4 21 5 19 6 18 7 16 8 15 9 14 10 13 11 6 12
REMARK SMILES IDX 7 13 8 14 9 15 12 16 11 17 10 18 4 20 20 22 17 24
REMARK H PARENT 10 19 4 21 20 23 17 25
REMARK Flexibility Score: inf
ROOT
ATOM      1  C   UNL     1      34.023  25.474  37.477  1.00  0.00     0.180 A 
ATOM      2  C   UNL     1      34.788  24.680  38.354  1.00  0.00     0.208 A 
ATOM      3  C   UNL     1      34.193  23.553  38.942  1.00  0.00     0.238 A 
ATOM      4  O   UNL     1      34.865  22.841  39.736  1.00  0.00    -0.285 OA
ATOM      5  C   UNL     1      32.857  23.227  38.629  1.00  0.00     0.111 A 
ATOM      6  C   UNL     1      32.186  22.106  39.174  1.00  0.00     0.134 A 
ATOM      7  C   UNL     1      30.858  21.843  38.806  1.00  0.00     0.093 A 
ATOM      8  C   UNL     1      30.191  22.677  37.905  1.00  0.00     0.123 A 
ATOM      9  C   UNL     1      30.849  23.785  37.364  1.00  0.00     0.094 A 
ATOM     10  C   UNL     1      32.171  24.065  37.719  1.00  0.00     0.146 A 
ATOM     11  O   UNL     1      32.771  25.127  37.194  1.00  0.00    -0.452 OA
ENDROOT
BRANCH   1  12
ATOM     12  C   UNL     1      34.573  26.688  36.833  1.00  0.00     0.021 A 
ATOM     13  C   UNL     1      34.134  27.975  37.197  1.00  0.00     0.016 A 
ATOM     14  C   UNL     1      34.650  29.105  36.557  1.00  0.00     0.047 A 
ATOM     15  C   UNL     1      35.602  28.965  35.538  1.00  0.00     0.115 A 
ATOM     16  C   UNL     1      35.512  26.556  35.797  1.00  0.00     0.016 A 
ATOM     17  C   UNL     1      36.028  27.689  35.159  1.00  0.00     0.047 A 
BRANCH  15  18
ATOM     18  O   UNL     1      36.125  30.085  34.895  1.00  0.00    -0.508 OA
ATOM     19  H   UNL     1      37.123  30.257  34.859  1.00  0.00     0.293 HD
ENDBRANCH  15  18
ENDBRANCH   1  12
BRANCH   2  20
ATOM     20  O   UNL     1      36.125  24.997  38.609  1.00  0.00    -0.502 OA
ATOM     21  H   UNL     1      36.548  24.868  39.520  1.00  0.00     0.293 HD
ENDBRANCH   2  20
BRANCH   6  22
ATOM     22  O   UNL     1      32.826  21.255  40.076  1.00  0.00    -0.507 OA
ATOM     23  H   UNL     1      33.787  20.961  39.942  1.00  0.00     0.293 HD
ENDBRANCH   6  22
BRANCH   8  24
ATOM     24  O   UNL     1      28.872  22.393  37.555  1.00  0.00    -0.508 OA
ATOM     25  H   UNL     1      28.265  21.860  38.165  1.00  0.00     0.293 HD
ENDBRANCH   8  24
TORSDOF 5
ENDMDL
MODEL 7
REMARK VINA RESULT:    -2.065      1.828      6.790
REMARK INTER + INTRA:          -2.633
REMARK INTER:                  -2.420
REMARK INTRA:                  -0.213
REMARK UNBOUND:                -0.206
REMARK SMILES O=c1c(O)c(-c2ccc(O)cc2)oc2cc(O)cc(O)c12
REMARK SMILES IDX 5 1 3 2 2 3 1 4 21 5 19 6 18 7 16 8 15 9 14 10 13 11 6 12
REMARK SMILES IDX 7 13 8 14 9 15 12 16 11 17 10 18 4 20 20 22 17 24
REMARK H PARENT 10 19 4 21 20 23 17 25
REMARK Flexibility Score: inf
ROOT
ATOM      1  C   UNL     1      33.178  25.312  37.215  1.00  0.00     0.180 A 
ATOM      2  C   UNL     1      32.716  24.414  36.232  1.00  0.00     0.208 A 
ATOM      3  C   UNL     1      32.053  23.245  36.638  1.00  0.00     0.238 A 
ATOM      4  O   UNL     1      31.645  22.430  35.767  1.00  0.00    -0.285 OA
ATOM      5  C   UNL     1      31.846  23.003  38.013  1.00  0.00     0.111 A 
ATOM      6  C   UNL     1      31.183  21.853  38.504  1.00  0.00     0.134 A 
ATOM      7  C   UNL     1      31.008  21.689  39.886  1.00  0.00     0.093 A 
ATOM      8  C   UNL     1      31.479  22.651  40.783  1.00  0.00     0.123 A 
ATOM      9  C   UNL     1      32.134  23.789  40.302  1.00  0.00     0.094 A 
ATOM     10  C   UNL     1      32.321  23.970  38.930  1.00  0.00     0.146 A 
ATOM     11  O   UNL     1      32.950  25.057  38.500  1.00  0.00    -0.452 OA
ENDROOT
BRANCH   1  12
ATOM     12  C   UNL     1      33.902  26.555  36.867  1.00  0.00     0.021 A 
ATOM     13  C   UNL     1      33.236  27.658  36.301  1.00  0.00     0.016 A 
ATOM     14  C   UNL     1      33.947  28.812  35.957  1.00  0.00     0.047 A 
ATOM     15  C   UNL     1      35.332  28.874  36.162  1.00  0.00     0.115 A 
ATOM     16  C   UNL     1      35.293  26.618  37.049  1.00  0.00     0.016 A 
ATOM     17  C   UNL     1      36.001  27.775  36.705  1.00  0.00     0.047 A 
BRANCH  15  18
ATOM     18  O   UNL     1      36.049  30.020  35.824  1.00  0.00    -0.508 OA
ATOM     19  H   UNL     1      35.581  30.878  35.557  1.00  0.00     0.293 HD
ENDBRANCH  15  18
ENDBRANCH   1  12
BRANCH   2  20
ATOM     20  O   UNL     1      32.891  24.701  34.876  1.00  0.00    -0.502 OA
ATOM     21  H   UNL     1      33.774  24.557  34.400  1.00  0.00     0.293 HD
ENDBRANCH   2  20
BRANCH   6  22
ATOM     22  O   UNL     1      30.701  20.875  37.633  1.00  0.00    -0.507 OA
ATOM     23  H   UNL     1      31.290  20.119  37.302  1.00  0.00     0.293 HD
ENDBRANCH   6  22
BRANCH   8  24
ATOM     24  O   UNL     1      31.290  22.465  42.151  1.00  0.00    -0.508 OA
ATOM     25  H   UNL     1      31.255  21.539  42.559  1.00  0.00     0.293 HD
ENDBRANCH   8  24
TORSDOF 5
ENDMDL
