MODEL 1
REMARK VINA RESULT:    -6.054      0.000      0.000
REMARK INTER + INTRA:         -12.635
REMARK INTER:                 -11.362
REMARK INTRA:                  -1.273
REMARK UNBOUND:                -1.273
REMARK SMILES O=C([O-])CCCCCCCCCCCCCCC(=O)[O-]
REMARK SMILES IDX 10 1 9 2 8 3 7 4 6 5 5 6 4 7 2 8 1 9 3 10 11 11 12 12 13 13
REMARK SMILES IDX 14 14 15 15 16 16 17 17 18 18 19 19 20 20
REMARK H PARENT
REMARK Flexibility Score: inf
ROOT
ATOM      1  C   UNL     1     -23.131  36.324   6.017  1.00  0.00     0.000 C 
ENDROOT
BRANCH   1   2
ATOM      2  C   UNL     1     -23.832  36.266   7.391  1.00  0.00     0.000 C 
BRANCH   2   3
ATOM      3  C   UNL     1     -23.862  37.594   8.168  1.00  0.00     0.000 C 
BRANCH   3   4
ATOM      4  C   UNL     1     -22.555  37.868   8.932  1.00  0.00     0.000 C 
BRANCH   4   5
ATOM      5  C   UNL     1     -22.175  36.731   9.898  1.00  0.00     0.000 C 
BRANCH   5   6
ATOM      6  C   UNL     1     -21.162  35.711   9.344  1.00  0.00     0.006 C 
BRANCH   6   7
ATOM      7  C   UNL     1     -19.819  36.346   8.961  1.00  0.00     0.053 C 
BRANCH   7   8
ATOM      8  C   UNL     1     -19.532  36.125   7.510  1.00  0.00     0.041 C 
ATOM      9  O   UNL     1     -18.565  36.714   6.959  1.00  0.00    -0.550 OA
ATOM     10  O   UNL     1     -20.300  35.229   6.778  1.00  0.00    -0.550 OA
ENDBRANCH   7   8
ENDBRANCH   6   7
ENDBRANCH   5   6
ENDBRANCH   4   5
ENDBRANCH   3   4
ENDBRANCH   2   3
ENDBRANCH   1   2
BRANCH   1  11
ATOM     11  C   UNL     1     -22.851  37.742   5.483  1.00  0.00     0.000 C 
BRANCH  11  12
ATOM     12  C   UNL     1     -21.386  38.011   5.101  1.00  0.00     0.000 C 
BRANCH  12  13
ATOM     13  C   UNL     1     -20.785  39.207   5.861  1.00  0.00     0.000 C 
BRANCH  13  14
ATOM     14  C   UNL     1     -21.447  40.542   5.489  1.00  0.00     0.000 C 
BRANCH  14  15
ATOM     15  C   UNL     1     -21.542  40.751   3.967  1.00  0.00     0.000 C 
BRANCH  15  16
ATOM     16  C   UNL     1     -20.551  41.809   3.450  1.00  0.00     0.006 C 
BRANCH  16  17
ATOM     17  C   UNL     1     -19.491  42.239   4.478  1.00  0.00     0.053 C 
BRANCH  17  18
ATOM     18  C   UNL     1     -19.041  43.651   4.263  1.00  0.00     0.041 C 
ATOM     19  O   UNL     1     -18.423  44.264   5.173  1.00  0.00    -0.550 OA
ATOM     20  O   UNL     1     -19.335  44.302   3.071  1.00  0.00    -0.550 OA
ENDBRANCH  17  18
ENDBRANCH  16  17
ENDBRANCH  15  16
ENDBRANCH  14  15
ENDBRANCH  13  14
ENDBRANCH  12  13
ENDBRANCH  11  12
ENDBRANCH   1  11
TORSDOF 15
ENDMDL
MODEL 2
REMARK VINA RESULT:    -6.044      1.860      3.037
REMARK INTER + INTRA:         -12.618
REMARK INTER:                 -11.105
REMARK INTRA:                  -1.513
REMARK UNBOUND:                -1.273
REMARK SMILES O=C([O-])CCCCCCCCCCCCCCC(=O)[O-]
REMARK SMILES IDX 10 1 9 2 8 3 7 4 6 5 5 6 4 7 2 8 1 9 3 10 11 11 12 12 13 13
REMARK SMILES IDX 14 14 15 15 16 16 17 17 18 18 19 19 20 20
REMARK H PARENT
REMARK Flexibility Score: inf
ROOT
ATOM      1  C   UNL     1     -19.907  37.993   5.928  1.00  0.00     0.000 C 
ENDROOT
BRANCH   1   2
ATOM      2  C   UNL     1     -19.483  36.669   6.596  1.00  0.00     0.000 C 
BRANCH   2   3
ATOM      3  C   UNL     1     -20.476  35.504   6.432  1.00  0.00     0.000 C 
BRANCH   3   4
ATOM      4  C   UNL     1     -21.291  35.232   7.709  1.00  0.00     0.000 C 
BRANCH   4   5
ATOM      5  C   UNL     1     -20.835  36.086   8.906  1.00  0.00     0.000 C 
BRANCH   5   6
ATOM      6  C   UNL     1     -21.971  36.693   9.751  1.00  0.00     0.006 C 
BRANCH   6   7
ATOM      7  C   UNL     1     -22.747  37.790   9.012  1.00  0.00     0.053 C 
BRANCH   7   8
ATOM      8  C   UNL     1     -24.103  37.295   8.618  1.00  0.00     0.041 C 
ATOM      9  O   UNL     1     -24.231  36.499   7.651  1.00  0.00    -0.550 OA
ATOM     10  O   UNL     1     -25.221  37.674   9.350  1.00  0.00    -0.550 OA
ENDBRANCH   7   8
ENDBRANCH   6   7
ENDBRANCH   5   6
ENDBRANCH   4   5
ENDBRANCH   3   4
ENDBRANCH   2   3
ENDBRANCH   1   2
BRANCH   1  11
ATOM     11  C   UNL     1     -21.159  37.906   5.034  1.00  0.00     0.000 C 
BRANCH  11  12
ATOM     12  C   UNL     1     -22.396  38.640   5.580  1.00  0.00     0.000 C 
BRANCH  12  13
ATOM     13  C   UNL     1     -22.214  40.167   5.609  1.00  0.00     0.000 C 
BRANCH  13  14
ATOM     14  C   UNL     1     -22.377  40.812   4.224  1.00  0.00     0.000 C 
BRANCH  14  15
ATOM     15  C   UNL     1     -21.056  41.388   3.682  1.00  0.00     0.000 C 
BRANCH  15  16
ATOM     16  C   UNL     1     -19.939  41.410   4.741  1.00  0.00     0.006 C 
BRANCH  16  17
ATOM     17  C   UNL     1     -18.660  42.138   4.297  1.00  0.00     0.053 C 
BRANCH  17  18
ATOM     18  C   UNL     1     -18.874  43.614   4.158  1.00  0.00     0.041 C 
ATOM     19  O   UNL     1     -18.658  44.380   5.133  1.00  0.00    -0.550 OA
ATOM     20  O   UNL     1     -19.345  44.139   2.961  1.00  0.00    -0.550 OA
ENDBRANCH  17  18
ENDBRANCH  16  17
ENDBRANCH  15  16
ENDBRANCH  14  15
ENDBRANCH  13  14
ENDBRANCH  12  13
ENDBRANCH  11  12
ENDBRANCH   1  11
TORSDOF 15
ENDMDL
MODEL 3
REMARK VINA RESULT:    -6.029      1.794      7.091
REMARK INTER + INTRA:         -12.589
REMARK INTER:                 -11.217
REMARK INTRA:                  -1.372
REMARK UNBOUND:                -1.273
REMARK SMILES O=C([O-])CCCCCCCCCCCCCCC(=O)[O-]
REMARK SMILES IDX 10 1 9 2 8 3 7 4 6 5 5 6 4 7 2 8 1 9 3 10 11 11 12 12 13 13
REMARK SMILES IDX 14 14 15 15 16 16 17 17 18 18 19 19 20 20
REMARK H PARENT
REMARK Flexibility Score: inf
ROOT
ATOM      1  C   UNL     1     -21.634  37.854   5.121  1.00  0.00     0.000 C 
ENDROOT
BRANCH   1   2
ATOM      2  C   UNL     1     -22.659  38.859   5.683  1.00  0.00     0.000 C 
BRANCH   2   3
ATOM      3  C   UNL     1     -22.264  40.341   5.553  1.00  0.00     0.000 C 
BRANCH   3   4
ATOM      4  C   UNL     1     -22.233  40.825   4.093  1.00  0.00     0.000 C 
BRANCH   4   5
ATOM      5  C   UNL     1     -20.833  41.283   3.642  1.00  0.00     0.000 C 
BRANCH   5   6
ATOM      6  C   UNL     1     -19.822  41.522   4.780  1.00  0.00     0.006 C 
BRANCH   6   7
ATOM      7  C   UNL     1     -18.587  42.312   4.328  1.00  0.00     0.053 C 
BRANCH   7   8
ATOM      8  C   UNL     1     -18.892  43.775   4.283  1.00  0.00     0.041 C 
ATOM      9  O   UNL     1     -18.612  44.512   5.266  1.00  0.00    -0.550 OA
ATOM     10  O   UNL     1     -19.440  44.337   3.136  1.00  0.00    -0.550 OA
ENDBRANCH   7   8
ENDBRANCH   6   7
ENDBRANCH   5   6
ENDBRANCH   4   5
ENDBRANCH   3   4
ENDBRANCH   2   3
ENDBRANCH   1   2
BRANCH   1  11
ATOM     11  C   UNL     1     -20.357  37.677   5.966  1.00  0.00     0.000 C 
BRANCH  11  12
ATOM     12  C   UNL     1     -20.133  36.255   6.509  1.00  0.00     0.000 C 
BRANCH  12  13
ATOM     13  C   UNL     1     -19.021  36.195   7.572  1.00  0.00     0.000 C 
BRANCH  13  14
ATOM     14  C   UNL     1     -19.571  36.165   9.007  1.00  0.00     0.000 C 
BRANCH  14  15
ATOM     15  C   UNL     1     -21.077  35.851   9.056  1.00  0.00     0.000 C 
BRANCH  15  16
ATOM     16  C   UNL     1     -21.884  36.930   9.800  1.00  0.00     0.006 C 
BRANCH  16  17
ATOM     17  C   UNL     1     -22.732  37.829   8.886  1.00  0.00     0.053 C 
BRANCH  17  18
ATOM     18  C   UNL     1     -24.063  37.215   8.575  1.00  0.00     0.041 C 
ATOM     19  O   UNL     1     -24.180  36.412   7.613  1.00  0.00    -0.550 OA
ATOM     20  O   UNL     1     -25.181  37.559   9.326  1.00  0.00    -0.550 OA
ENDBRANCH  17  18
ENDBRANCH  16  17
ENDBRANCH  15  16
ENDBRANCH  14  15
ENDBRANCH  13  14
ENDBRANCH  12  13
ENDBRANCH  11  12
ENDBRANCH   1  11
TORSDOF 15
ENDMDL
MODEL 4
REMARK VINA RESULT:    -5.994      0.399      6.751
REMARK INTER + INTRA:         -12.524
REMARK INTER:                 -11.128
REMARK INTRA:                  -1.396
REMARK UNBOUND:                -1.273
REMARK SMILES O=C([O-])CCCCCCCCCCCCCCC(=O)[O-]
REMARK SMILES IDX 10 1 9 2 8 3 7 4 6 5 5 6 4 7 2 8 1 9 3 10 11 11 12 12 13 13
REMARK SMILES IDX 14 14 15 15 16 16 17 17 18 18 19 19 20 20
REMARK H PARENT
REMARK Flexibility Score: inf
ROOT
ATOM      1  C   UNL     1     -22.939  37.737   5.561  1.00  0.00     0.000 C 
ENDROOT
BRANCH   1   2
ATOM      2  C   UNL     1     -21.515  38.108   5.096  1.00  0.00     0.000 C 
BRANCH   2   3
ATOM      3  C   UNL     1     -20.834  39.231   5.899  1.00  0.00     0.000 C 
BRANCH   3   4
ATOM      4  C   UNL     1     -21.368  40.629   5.541  1.00  0.00     0.000 C 
BRANCH   4   5
ATOM      5  C   UNL     1     -21.479  40.858   4.022  1.00  0.00     0.000 C 
BRANCH   5   6
ATOM      6  C   UNL     1     -20.449  41.838   3.429  1.00  0.00     0.006 C 
BRANCH   6   7
ATOM      7  C   UNL     1     -19.387  42.278   4.444  1.00  0.00     0.053 C 
BRANCH   7   8
ATOM      8  C   UNL     1     -19.018  43.711   4.226  1.00  0.00     0.041 C 
ATOM      9  O   UNL     1     -19.300  44.280   3.138  1.00  0.00    -0.550 OA
ATOM     10  O   UNL     1     -18.407  44.435   5.242  1.00  0.00    -0.550 OA
ENDBRANCH   7   8
ENDBRANCH   6   7
ENDBRANCH   5   6
ENDBRANCH   4   5
ENDBRANCH   3   4
ENDBRANCH   2   3
ENDBRANCH   1   2
BRANCH   1  11
ATOM     11  C   UNL     1     -23.114  36.283   6.040  1.00  0.00     0.000 C 
BRANCH  11  12
ATOM     12  C   UNL     1     -23.911  36.124   7.347  1.00  0.00     0.000 C 
BRANCH  12  13
ATOM     13  C   UNL     1     -24.005  37.435   8.147  1.00  0.00     0.000 C 
BRANCH  13  14
ATOM     14  C   UNL     1     -23.128  37.427   9.408  1.00  0.00     0.000 C 
BRANCH  14  15
ATOM     15  C   UNL     1     -21.625  37.498   9.083  1.00  0.00     0.000 C 
BRANCH  15  16
ATOM     16  C   UNL     1     -20.870  36.217   9.483  1.00  0.00     0.006 C 
BRANCH  16  17
ATOM     17  C   UNL     1     -19.445  36.119   8.915  1.00  0.00     0.053 C 
BRANCH  17  18
ATOM     18  C   UNL     1     -19.437  36.118   7.417  1.00  0.00     0.041 C 
ATOM     19  O   UNL     1     -18.669  36.892   6.787  1.00  0.00    -0.550 OA
ATOM     20  O   UNL     1     -20.302  35.285   6.717  1.00  0.00    -0.550 OA
ENDBRANCH  17  18
ENDBRANCH  16  17
ENDBRANCH  15  16
ENDBRANCH  14  15
ENDBRANCH  13  14
ENDBRANCH  12  13
ENDBRANCH  11  12
ENDBRANCH   1  11
TORSDOF 15
ENDMDL
MODEL 5
REMARK VINA RESULT:    -5.898     12.263     14.598
REMARK INTER + INTRA:         -12.343
REMARK INTER:                 -10.236
REMARK INTRA:                  -2.108
REMARK UNBOUND:                -1.273
REMARK SMILES O=C([O-])CCCCCCCCCCCCCCC(=O)[O-]
REMARK SMILES IDX 10 1 9 2 8 3 7 4 6 5 5 6 4 7 2 8 1 9 3 10 11 11 12 12 13 13
REMARK SMILES IDX 14 14 15 15 16 16 17 17 18 18 19 19 20 20
REMARK H PARENT
REMARK Flexibility Score: inf
ROOT
ATOM      1  C   UNL     1     -17.665  42.978  -4.040  1.00  0.00     0.000 C 
ENDROOT
BRANCH   1   2
ATOM      2  C   UNL     1     -17.497  43.782  -5.346  1.00  0.00     0.000 C 
BRANCH   2   3
ATOM      3  C   UNL     1     -18.807  44.276  -5.985  1.00  0.00     0.000 C 
BRANCH   3   4
ATOM      4  C   UNL     1     -18.996  43.770  -7.426  1.00  0.00     0.000 C 
BRANCH   4   5
ATOM      5  C   UNL     1     -19.885  44.696  -8.276  1.00  0.00     0.000 C 
BRANCH   5   6
ATOM      6  C   UNL     1     -21.373  44.301  -8.340  1.00  0.00     0.006 C 
BRANCH   6   7
ATOM      7  C   UNL     1     -22.269  45.200  -7.479  1.00  0.00     0.053 C 
BRANCH   7   8
ATOM      8  C   UNL     1     -23.191  44.370  -6.642  1.00  0.00     0.041 C 
ATOM      9  O   UNL     1     -23.076  44.365  -5.388  1.00  0.00    -0.550 OA
ATOM     10  O   UNL     1     -24.209  43.641  -7.243  1.00  0.00    -0.550 OA
ENDBRANCH   7   8
ENDBRANCH   6   7
ENDBRANCH   5   6
ENDBRANCH   4   5
ENDBRANCH   3   4
ENDBRANCH   2   3
ENDBRANCH   1   2
BRANCH   1  11
ATOM     11  C   UNL     1     -16.385  42.295  -3.520  1.00  0.00     0.000 C 
BRANCH  11  12
ATOM     12  C   UNL     1     -16.057  40.947  -4.185  1.00  0.00     0.000 C 
BRANCH  12  13
ATOM     13  C   UNL     1     -17.316  40.181  -4.627  1.00  0.00     0.000 C 
BRANCH  13  14
ATOM     14  C   UNL     1     -17.477  40.133  -6.155  1.00  0.00     0.000 C 
BRANCH  14  15
ATOM     15  C   UNL     1     -18.923  40.412  -6.605  1.00  0.00     0.000 C 
BRANCH  15  16
ATOM     16  C   UNL     1     -19.870  40.686  -5.423  1.00  0.00     0.006 C 
BRANCH  16  17
ATOM     17  C   UNL     1     -21.181  41.390  -5.812  1.00  0.00     0.053 C 
BRANCH  17  18
ATOM     18  C   UNL     1     -22.034  40.536  -6.700  1.00  0.00     0.041 C 
ATOM     19  O   UNL     1     -22.254  40.883  -7.890  1.00  0.00    -0.550 OA
ATOM     20  O   UNL     1     -22.614  39.376  -6.201  1.00  0.00    -0.550 OA
ENDBRANCH  17  18
ENDBRANCH  16  17
ENDBRANCH  15  16
ENDBRANCH  14  15
ENDBRANCH  13  14
ENDBRANCH  12  13
ENDBRANCH  11  12
ENDBRANCH   1  11
TORSDOF 15
ENDMDL
MODEL 6
REMARK VINA RESULT:    -5.831      1.369      2.114
REMARK INTER + INTRA:         -12.217
REMARK INTER:                 -11.125
REMARK INTRA:                  -1.092
REMARK UNBOUND:                -1.273
REMARK SMILES O=C([O-])CCCCCCCCCCCCCCC(=O)[O-]
REMARK SMILES IDX 10 1 9 2 8 3 7 4 6 5 5 6 4 7 2 8 1 9 3 10 11 11 12 12 13 13
REMARK SMILES IDX 14 14 15 15 16 16 17 17 18 18 19 19 20 20
REMARK H PARENT
REMARK Flexibility Score: inf
ROOT
ATOM      1  C   UNL     1     -23.436  37.975   8.040  1.00  0.00     0.000 C 
ENDROOT
BRANCH   1   2
ATOM      2  C   UNL     1     -23.635  37.308   9.417  1.00  0.00     0.000 C 
BRANCH   2   3
ATOM      3  C   UNL     1     -22.340  36.883  10.133  1.00  0.00     0.000 C 
BRANCH   3   4
ATOM      4  C   UNL     1     -21.505  35.884   9.313  1.00  0.00     0.000 C 
BRANCH   4   5
ATOM      5  C   UNL     1     -20.047  36.339   9.118  1.00  0.00     0.000 C 
BRANCH   5   6
ATOM      6  C   UNL     1     -19.389  35.888   7.799  1.00  0.00     0.006 C 
BRANCH   6   7
ATOM      7  C   UNL     1     -20.078  36.467   6.557  1.00  0.00     0.053 C 
BRANCH   7   8
ATOM      8  C   UNL     1     -21.052  35.482   5.994  1.00  0.00     0.041 C 
ATOM      9  O   UNL     1     -20.650  34.371   5.557  1.00  0.00    -0.550 OA
ATOM     10  O   UNL     1     -22.412  35.769   5.996  1.00  0.00    -0.550 OA
ENDBRANCH   7   8
ENDBRANCH   6   7
ENDBRANCH   5   6
ENDBRANCH   4   5
ENDBRANCH   3   4
ENDBRANCH   2   3
ENDBRANCH   1   2
BRANCH   1  11
ATOM     11  C   UNL     1     -22.252  38.957   7.952  1.00  0.00     0.000 C 
BRANCH  11  12
ATOM     12  C   UNL     1     -22.248  39.855   6.703  1.00  0.00     0.000 C 
BRANCH  12  13
ATOM     13  C   UNL     1     -22.456  39.062   5.401  1.00  0.00     0.000 C 
BRANCH  13  14
ATOM     14  C   UNL     1     -21.248  39.142   4.455  1.00  0.00     0.000 C 
BRANCH  14  15
ATOM     15  C   UNL     1     -20.118  40.027   5.014  1.00  0.00     0.000 C 
BRANCH  15  16
ATOM     16  C   UNL     1     -20.166  41.465   4.467  1.00  0.00     0.006 C 
BRANCH  16  17
ATOM     17  C   UNL     1     -18.789  42.136   4.332  1.00  0.00     0.053 C 
BRANCH  17  18
ATOM     18  C   UNL     1     -18.904  43.611   4.097  1.00  0.00     0.041 C 
ATOM     19  O   UNL     1     -18.603  44.423   5.010  1.00  0.00    -0.550 OA
ATOM     20  O   UNL     1     -19.377  44.087   2.880  1.00  0.00    -0.550 OA
ENDBRANCH  17  18
ENDBRANCH  16  17
ENDBRANCH  15  16
ENDBRANCH  14  15
ENDBRANCH  13  14
ENDBRANCH  12  13
ENDBRANCH  11  12
ENDBRANCH   1  11
TORSDOF 15
ENDMDL
MODEL 7
REMARK VINA RESULT:    -5.704     12.238     13.893
REMARK INTER + INTRA:         -11.980
REMARK INTER:                  -9.914
REMARK INTRA:                  -2.065
REMARK UNBOUND:                -1.273
REMARK SMILES O=C([O-])CCCCCCCCCCCCCCC(=O)[O-]
REMARK SMILES IDX 10 1 9 2 8 3 7 4 6 5 5 6 4 7 2 8 1 9 3 10 11 11 12 12 13 13
REMARK SMILES IDX 14 14 15 15 16 16 17 17 18 18 19 19 20 20
REMARK H PARENT
REMARK Flexibility Score: inf
ROOT
ATOM      1  C   UNL     1     -16.386  42.159  -3.476  1.00  0.00     0.000 C 
ENDROOT
BRANCH   1   2
ATOM      2  C   UNL     1     -16.022  40.999  -4.426  1.00  0.00     0.000 C 
BRANCH   2   3
ATOM      3  C   UNL     1     -17.164  40.010  -4.721  1.00  0.00     0.000 C 
BRANCH   3   4
ATOM      4  C   UNL     1     -17.499  39.916  -6.220  1.00  0.00     0.000 C 
BRANCH   4   5
ATOM      5  C   UNL     1     -18.813  40.631  -6.587  1.00  0.00     0.000 C 
BRANCH   5   6
ATOM      6  C   UNL     1     -19.898  40.614  -5.493  1.00  0.00     0.006 C 
BRANCH   6   7
ATOM      7  C   UNL     1     -21.161  41.389  -5.888  1.00  0.00     0.053 C 
BRANCH   7   8
ATOM      8  C   UNL     1     -22.084  40.515  -6.677  1.00  0.00     0.041 C 
ATOM      9  O   UNL     1     -22.338  40.785  -7.881  1.00  0.00    -0.550 OA
ATOM     10  O   UNL     1     -22.624  39.373  -6.099  1.00  0.00    -0.550 OA
ENDBRANCH   7   8
ENDBRANCH   6   7
ENDBRANCH   5   6
ENDBRANCH   4   5
ENDBRANCH   3   4
ENDBRANCH   2   3
ENDBRANCH   1   2
BRANCH   1  11
ATOM     11  C   UNL     1     -17.607  42.996  -3.901  1.00  0.00     0.000 C 
BRANCH  11  12
ATOM     12  C   UNL     1     -17.521  43.592  -5.317  1.00  0.00     0.000 C 
BRANCH  12  13
ATOM     13  C   UNL     1     -18.808  44.328  -5.730  1.00  0.00     0.000 C 
BRANCH  13  14
ATOM     14  C   UNL     1     -19.086  44.238  -7.238  1.00  0.00     0.000 C 
BRANCH  14  15
ATOM     15  C   UNL     1     -19.783  45.497  -7.786  1.00  0.00     0.000 C 
BRANCH  15  16
ATOM     16  C   UNL     1     -21.009  45.165  -8.656  1.00  0.00     0.006 C 
BRANCH  16  17
ATOM     17  C   UNL     1     -22.035  44.243  -7.978  1.00  0.00     0.053 C 
BRANCH  17  18
ATOM     18  C   UNL     1     -22.777  44.941  -6.879  1.00  0.00     0.041 C 
ATOM     19  O   UNL     1     -22.746  44.486  -5.706  1.00  0.00    -0.550 OA
ATOM     20  O   UNL     1     -23.530  46.075  -7.158  1.00  0.00    -0.550 OA
ENDBRANCH  17  18
ENDBRANCH  16  17
ENDBRANCH  15  16
ENDBRANCH  14  15
ENDBRANCH  13  14
ENDBRANCH  12  13
ENDBRANCH  11  12
ENDBRANCH   1  11
TORSDOF 15
ENDMDL
MODEL 8
REMARK VINA RESULT:    -5.689     11.790     14.194
REMARK INTER + INTRA:         -11.952
REMARK INTER:                 -10.447
REMARK INTRA:                  -1.505
REMARK UNBOUND:                -1.273
REMARK SMILES O=C([O-])CCCCCCCCCCCCCCC(=O)[O-]
REMARK SMILES IDX 10 1 9 2 8 3 7 4 6 5 5 6 4 7 2 8 1 9 3 10 11 11 12 12 13 13
REMARK SMILES IDX 14 14 15 15 16 16 17 17 18 18 19 19 20 20
REMARK H PARENT
REMARK Flexibility Score: inf
ROOT
ATOM      1  C   UNL     1     -22.029  40.249  -6.132  1.00  0.00     0.000 C 
ENDROOT
BRANCH   1   2
ATOM      2  C   UNL     1     -23.445  40.729  -6.513  1.00  0.00     0.000 C 
BRANCH   2   3
ATOM      3  C   UNL     1     -23.568  42.233  -6.816  1.00  0.00     0.000 C 
BRANCH   3   4
ATOM      4  C   UNL     1     -23.234  43.115  -5.600  1.00  0.00     0.000 C 
BRANCH   4   5
ATOM      5  C   UNL     1     -22.480  44.403  -5.982  1.00  0.00     0.000 C 
BRANCH   5   6
ATOM      6  C   UNL     1     -23.242  45.715  -5.711  1.00  0.00     0.006 C 
BRANCH   6   7
ATOM      7  C   UNL     1     -23.801  46.357  -6.986  1.00  0.00     0.053 C 
BRANCH   7   8
ATOM      8  C   UNL     1     -25.065  45.675  -7.403  1.00  0.00     0.041 C 
ATOM      9  O   UNL     1     -25.123  45.065  -8.503  1.00  0.00    -0.550 OA
ATOM     10  O   UNL     1     -26.165  45.670  -6.554  1.00  0.00    -0.550 OA
ENDBRANCH   7   8
ENDBRANCH   6   7
ENDBRANCH   5   6
ENDBRANCH   4   5
ENDBRANCH   3   4
ENDBRANCH   2   3
ENDBRANCH   1   2
BRANCH   1  11
ATOM     11  C   UNL     1     -20.914  40.645  -7.119  1.00  0.00     0.000 C 
BRANCH  11  12
ATOM     12  C   UNL     1     -19.745  41.426  -6.494  1.00  0.00     0.000 C 
BRANCH  12  13
ATOM     13  C   UNL     1     -18.427  41.240  -7.266  1.00  0.00     0.000 C 
BRANCH  13  14
ATOM     14  C   UNL     1     -17.435  40.320  -6.538  1.00  0.00     0.000 C 
BRANCH  14  15
ATOM     15  C   UNL     1     -17.843  40.048  -5.079  1.00  0.00     0.000 C 
BRANCH  15  16
ATOM     16  C   UNL     1     -16.714  40.355  -4.079  1.00  0.00     0.006 C 
BRANCH  16  17
ATOM     17  C   UNL     1     -16.110  41.763  -4.220  1.00  0.00     0.053 C 
BRANCH  17  18
ATOM     18  C   UNL     1     -17.144  42.835  -4.056  1.00  0.00     0.041 C 
ATOM     19  O   UNL     1     -17.341  43.670  -4.977  1.00  0.00    -0.550 OA
ATOM     20  O   UNL     1     -17.865  42.932  -2.872  1.00  0.00    -0.550 OA
ENDBRANCH  17  18
ENDBRANCH  16  17
ENDBRANCH  15  16
ENDBRANCH  14  15
ENDBRANCH  13  14
ENDBRANCH  12  13
ENDBRANCH  11  12
ENDBRANCH   1  11
TORSDOF 15
ENDMDL
MODEL 9
REMARK VINA RESULT:    -5.567     11.751     14.330
REMARK INTER + INTRA:         -11.723
REMARK INTER:                  -9.717
REMARK INTRA:                  -2.005
REMARK UNBOUND:                -1.273
REMARK SMILES O=C([O-])CCCCCCCCCCCCCCC(=O)[O-]
REMARK SMILES IDX 10 1 9 2 8 3 7 4 6 5 5 6 4 7 2 8 1 9 3 10 11 11 12 12 13 13
REMARK SMILES IDX 14 14 15 15 16 16 17 17 18 18 19 19 20 20
REMARK H PARENT
REMARK Flexibility Score: inf
ROOT
ATOM      1  C   UNL     1     -21.071  39.920  -7.948  1.00  0.00     0.000 C 
ENDROOT
BRANCH   1   2
ATOM      2  C   UNL     1     -21.598  40.374  -6.571  1.00  0.00     0.000 C 
BRANCH   2   3
ATOM      3  C   UNL     1     -23.123  40.559  -6.481  1.00  0.00     0.000 C 
BRANCH   3   4
ATOM      4  C   UNL     1     -23.560  42.020  -6.688  1.00  0.00     0.000 C 
BRANCH   4   5
ATOM      5  C   UNL     1     -22.838  43.002  -5.746  1.00  0.00     0.000 C 
BRANCH   5   6
ATOM      6  C   UNL     1     -22.338  44.300  -6.409  1.00  0.00     0.006 C 
BRANCH   6   7
ATOM      7  C   UNL     1     -23.412  44.991  -7.258  1.00  0.00     0.053 C 
BRANCH   7   8
ATOM      8  C   UNL     1     -24.446  45.621  -6.379  1.00  0.00     0.041 C 
ATOM      9  O   UNL     1     -25.658  45.301  -6.499  1.00  0.00    -0.550 OA
ATOM     10  O   UNL     1     -24.066  46.524  -5.395  1.00  0.00    -0.550 OA
ENDBRANCH   7   8
ENDBRANCH   6   7
ENDBRANCH   5   6
ENDBRANCH   4   5
ENDBRANCH   3   4
ENDBRANCH   2   3
ENDBRANCH   1   2
BRANCH   1  11
ATOM     11  C   UNL     1     -20.766  41.058  -8.941  1.00  0.00     0.000 C 
BRANCH  11  12
ATOM     12  C   UNL     1     -19.358  41.665  -8.816  1.00  0.00     0.000 C 
BRANCH  12  13
ATOM     13  C   UNL     1     -19.361  43.029  -8.104  1.00  0.00     0.000 C 
BRANCH  13  14
ATOM     14  C   UNL     1     -18.573  43.014  -6.785  1.00  0.00     0.000 C 
BRANCH  14  15
ATOM     15  C   UNL     1     -17.912  41.652  -6.508  1.00  0.00     0.000 C 
BRANCH  15  16
ATOM     16  C   UNL     1     -18.411  41.004  -5.204  1.00  0.00     0.006 C 
BRANCH  16  17
ATOM     17  C   UNL     1     -17.930  41.707  -3.923  1.00  0.00     0.053 C 
BRANCH  17  18
ATOM     18  C   UNL     1     -16.447  41.916  -3.922  1.00  0.00     0.041 C 
ATOM     19  O   UNL     1     -15.972  43.082  -3.949  1.00  0.00    -0.550 OA
ATOM     20  O   UNL     1     -15.589  40.823  -3.927  1.00  0.00    -0.550 OA
ENDBRANCH  17  18
ENDBRANCH  16  17
ENDBRANCH  15  16
ENDBRANCH  14  15
ENDBRANCH  13  14
ENDBRANCH  12  13
ENDBRANCH  11  12
ENDBRANCH   1  11
TORSDOF 15
ENDMDL
