MODEL 1
REMARK VINA RESULT:    -3.867      0.000      0.000
REMARK INTER + INTRA:         -13.062
REMARK INTER:                  -8.841
REMARK INTRA:                  -4.220
REMARK UNBOUND:                -4.220
REMARK SMILES CCCCCCCCCCCCCCCCCCCCCCCC(=O)[O-]
REMARK SMILES IDX 13 1 14 2 15 3 16 4 17 5 18 6 19 7 20 8 21 9 22 10 23 11
REMARK SMILES IDX 24 12 25 13 26 14 12 15 11 16 10 17 9 18 8 19 7 20 6 21 5 22
REMARK SMILES IDX 4 23 3 24 2 25 1 26
REMARK H PARENT
REMARK Flexibility Score: inf
ROOT
ATOM      1  C   UNL     1     -10.909   6.096 -21.123  1.00  0.00     0.000 C 
ENDROOT
BRANCH   1   2
ATOM      2  C   UNL     1     -12.384   6.294 -20.735  1.00  0.00     0.000 C 
BRANCH   2   3
ATOM      3  C   UNL     1     -12.925   7.667 -21.173  1.00  0.00     0.000 C 
BRANCH   3   4
ATOM      4  C   UNL     1     -12.933   8.695 -20.031  1.00  0.00     0.000 C 
BRANCH   4   5
ATOM      5  C   UNL     1     -11.601   9.450 -19.900  1.00  0.00     0.000 C 
BRANCH   5   6
ATOM      6  C   UNL     1     -10.787   8.936 -18.702  1.00  0.00     0.000 C 
BRANCH   6   7
ATOM      7  C   UNL     1      -9.734   9.958 -18.225  1.00  0.00     0.000 C 
BRANCH   7   8
ATOM      8  C   UNL     1      -9.028   9.562 -16.916  1.00  0.00     0.000 C 
BRANCH   8   9
ATOM      9  C   UNL     1      -8.336  10.750 -16.228  1.00  0.00     0.000 C 
BRANCH   9  10
ATOM     10  C   UNL     1      -6.965  11.074 -16.848  1.00  0.00     0.006 C 
BRANCH  10  11
ATOM     11  C   UNL     1      -5.913  11.435 -15.793  1.00  0.00     0.053 C 
BRANCH  11  12
ATOM     12  C   UNL     1      -5.257  10.197 -15.266  1.00  0.00     0.041 C 
ATOM     13  O   UNL     1      -5.225   9.974 -14.027  1.00  0.00    -0.550 OA
ATOM     14  O   UNL     1      -4.650   9.305 -16.142  1.00  0.00    -0.550 OA
ENDBRANCH  11  12
ENDBRANCH  10  11
ENDBRANCH   9  10
ENDBRANCH   8   9
ENDBRANCH   7   8
ENDBRANCH   6   7
ENDBRANCH   5   6
ENDBRANCH   4   5
ENDBRANCH   3   4
ENDBRANCH   2   3
ENDBRANCH   1   2
BRANCH   1  15
ATOM     15  C   UNL     1     -10.646   6.398 -22.609  1.00  0.00     0.000 C 
BRANCH  15  16
ATOM     16  C   UNL     1      -9.290   7.098 -22.841  1.00  0.00     0.000 C 
BRANCH  16  17
ATOM     17  C   UNL     1      -9.324   8.623 -22.612  1.00  0.00     0.000 C 
BRANCH  17  18
ATOM     18  C   UNL     1      -8.309   9.158 -21.584  1.00  0.00    -0.000 C 
BRANCH  18  19
ATOM     19  C   UNL     1      -7.210   8.159 -21.176  1.00  0.00    -0.000 C 
BRANCH  19  20
ATOM     20  C   UNL     1      -6.577   8.489 -19.813  1.00  0.00    -0.000 C 
BRANCH  20  21
ATOM     21  C   UNL     1      -6.812   7.379 -18.775  1.00  0.00    -0.000 C 
BRANCH  21  22
ATOM     22  C   UNL     1      -7.978   6.452 -19.163  1.00  0.00    -0.000 C 
BRANCH  22  23
ATOM     23  C   UNL     1      -7.546   4.984 -19.298  1.00  0.00    -0.000 C 
BRANCH  23  24
ATOM     24  C   UNL     1      -7.728   4.445 -20.725  1.00  0.00    -0.000 C 
BRANCH  24  25
ATOM     25  C   UNL     1      -6.423   4.554 -21.523  1.00  0.00    -0.003 C 
ATOM     26  C   UNL     1      -6.687   4.464 -23.023  1.00  0.00     0.004 C 
ENDBRANCH  24  25
ENDBRANCH  23  24
ENDBRANCH  22  23
ENDBRANCH  21  22
ENDBRANCH  20  21
ENDBRANCH  19  20
ENDBRANCH  18  19
ENDBRANCH  17  18
ENDBRANCH  16  17
ENDBRANCH  15  16
ENDBRANCH   1  15
TORSDOF 22
ENDMDL
MODEL 2
REMARK VINA RESULT:    -3.809      2.527      4.612
REMARK INTER + INTRA:         -12.927
REMARK INTER:                  -8.036
REMARK INTRA:                  -4.891
REMARK UNBOUND:                -4.220
REMARK SMILES CCCCCCCCCCCCCCCCCCCCCCCC(=O)[O-]
REMARK SMILES IDX 13 1 14 2 15 3 16 4 17 5 18 6 19 7 20 8 21 9 22 10 23 11
REMARK SMILES IDX 24 12 25 13 26 14 12 15 11 16 10 17 9 18 8 19 7 20 6 21 5 22
REMARK SMILES IDX 4 23 3 24 2 25 1 26
REMARK H PARENT
REMARK Flexibility Score: inf
ROOT
ATOM      1  C   UNL     1     -12.731   8.464 -20.120  1.00  0.00     0.000 C 
ENDROOT
BRANCH   1   2
ATOM      2  C   UNL     1     -12.857   7.396 -21.220  1.00  0.00     0.000 C 
BRANCH   2   3
ATOM      3  C   UNL     1     -12.174   6.073 -20.830  1.00  0.00     0.000 C 
BRANCH   3   4
ATOM      4  C   UNL     1     -11.621   5.309 -22.044  1.00  0.00     0.000 C 
BRANCH   4   5
ATOM      5  C   UNL     1     -11.505   6.189 -23.299  1.00  0.00     0.000 C 
BRANCH   5   6
ATOM      6  C   UNL     1     -10.056   6.239 -23.809  1.00  0.00     0.000 C 
BRANCH   6   7
ATOM      7  C   UNL     1      -9.452   7.657 -23.724  1.00  0.00     0.000 C 
BRANCH   7   8
ATOM      8  C   UNL     1      -9.170   8.130 -22.287  1.00  0.00     0.000 C 
BRANCH   8   9
ATOM      9  C   UNL     1      -9.528   9.609 -22.065  1.00  0.00     0.000 C 
BRANCH   9  10
ATOM     10  C   UNL     1      -8.312  10.454 -21.647  1.00  0.00     0.006 C 
BRANCH  10  11
ATOM     11  C   UNL     1      -7.391  10.785 -22.828  1.00  0.00     0.053 C 
BRANCH  11  12
ATOM     12  C   UNL     1      -5.965  10.506 -22.470  1.00  0.00     0.041 C 
ATOM     13  O   UNL     1      -5.039  10.808 -23.269  1.00  0.00    -0.550 OA
ATOM     14  O   UNL     1      -5.659   9.879 -21.268  1.00  0.00    -0.550 OA
ENDBRANCH  11  12
ENDBRANCH  10  11
ENDBRANCH   9  10
ENDBRANCH   8   9
ENDBRANCH   7   8
ENDBRANCH   6   7
ENDBRANCH   5   6
ENDBRANCH   4   5
ENDBRANCH   3   4
ENDBRANCH   2   3
ENDBRANCH   1   2
BRANCH   1  15
ATOM     15  C   UNL     1     -11.479   8.265 -19.247  1.00  0.00     0.000 C 
BRANCH  15  16
ATOM     16  C   UNL     1     -10.933   9.595 -18.683  1.00  0.00     0.000 C 
BRANCH  16  17
ATOM     17  C   UNL     1      -9.555   9.468 -18.004  1.00  0.00     0.000 C 
BRANCH  17  18
ATOM     18  C   UNL     1      -8.930   8.060 -18.038  1.00  0.00    -0.000 C 
BRANCH  18  19
ATOM     19  C   UNL     1      -7.653   7.938 -18.891  1.00  0.00    -0.000 C 
BRANCH  19  20
ATOM     20  C   UNL     1      -7.299   6.479 -19.231  1.00  0.00    -0.000 C 
BRANCH  20  21
ATOM     21  C   UNL     1      -8.533   5.657 -19.636  1.00  0.00    -0.000 C 
BRANCH  21  22
ATOM     22  C   UNL     1      -8.260   4.748 -20.847  1.00  0.00    -0.000 C 
BRANCH  22  23
ATOM     23  C   UNL     1      -6.827   4.195 -20.859  1.00  0.00    -0.000 C 
BRANCH  23  24
ATOM     24  C   UNL     1      -6.205   4.199 -22.264  1.00  0.00    -0.000 C 
BRANCH  24  25
ATOM     25  C   UNL     1      -6.594   5.467 -23.033  1.00  0.00    -0.003 C 
ATOM     26  C   UNL     1      -5.703   6.642 -22.644  1.00  0.00     0.004 C 
ENDBRANCH  24  25
ENDBRANCH  23  24
ENDBRANCH  22  23
ENDBRANCH  21  22
ENDBRANCH  20  21
ENDBRANCH  19  20
ENDBRANCH  18  19
ENDBRANCH  17  18
ENDBRANCH  16  17
ENDBRANCH  15  16
ENDBRANCH   1  15
TORSDOF 22
ENDMDL
MODEL 3
REMARK VINA RESULT:    -3.771      1.456      2.791
REMARK INTER + INTRA:         -12.841
REMARK INTER:                  -8.675
REMARK INTRA:                  -4.166
REMARK UNBOUND:                -4.220
REMARK SMILES CCCCCCCCCCCCCCCCCCCCCCCC(=O)[O-]
REMARK SMILES IDX 13 1 14 2 15 3 16 4 17 5 18 6 19 7 20 8 21 9 22 10 23 11
REMARK SMILES IDX 24 12 25 13 26 14 12 15 11 16 10 17 9 18 8 19 7 20 6 21 5 22
REMARK SMILES IDX 4 23 3 24 2 25 1 26
REMARK H PARENT
REMARK Flexibility Score: inf
ROOT
ATOM      1  C   UNL     1     -12.009   6.884 -19.290  1.00  0.00     0.000 C 
ENDROOT
BRANCH   1   2
ATOM      2  C   UNL     1     -12.578   8.283 -19.584  1.00  0.00     0.000 C 
BRANCH   2   3
ATOM      3  C   UNL     1     -11.525   9.391 -19.408  1.00  0.00     0.000 C 
BRANCH   3   4
ATOM      4  C   UNL     1     -10.219   8.876 -18.781  1.00  0.00     0.000 C 
BRANCH   4   5
ATOM      5  C   UNL     1      -9.558   9.907 -17.853  1.00  0.00     0.000 C 
BRANCH   5   6
ATOM      6  C   UNL     1      -9.114   9.260 -16.532  1.00  0.00     0.000 C 
BRANCH   6   7
ATOM      7  C   UNL     1      -8.601  10.299 -15.511  1.00  0.00     0.000 C 
BRANCH   7   8
ATOM      8  C   UNL     1      -7.875  11.496 -16.150  1.00  0.00     0.000 C 
BRANCH   8   9
ATOM      9  C   UNL     1      -6.362  11.491 -15.875  1.00  0.00     0.000 C 
BRANCH   9  10
ATOM     10  C   UNL     1      -5.597  10.528 -16.798  1.00  0.00     0.006 C 
BRANCH  10  11
ATOM     11  C   UNL     1      -4.650   9.601 -16.027  1.00  0.00     0.053 C 
BRANCH  11  12
ATOM     12  C   UNL     1      -3.224   9.944 -16.328  1.00  0.00     0.041 C 
ATOM     13  O   UNL     1      -2.354   9.898 -15.419  1.00  0.00    -0.550 OA
ATOM     14  O   UNL     1      -2.862  10.349 -17.607  1.00  0.00    -0.550 OA
ENDBRANCH  11  12
ENDBRANCH  10  11
ENDBRANCH   9  10
ENDBRANCH   8   9
ENDBRANCH   7   8
ENDBRANCH   6   7
ENDBRANCH   5   6
ENDBRANCH   4   5
ENDBRANCH   3   4
ENDBRANCH   2   3
ENDBRANCH   1   2
BRANCH   1  15
ATOM     15  C   UNL     1     -12.134   5.933 -20.493  1.00  0.00     0.000 C 
BRANCH  15  16
ATOM     16  C   UNL     1     -12.275   6.686 -21.833  1.00  0.00     0.000 C 
BRANCH  16  17
ATOM     17  C   UNL     1     -10.945   6.872 -22.590  1.00  0.00     0.000 C 
BRANCH  17  18
ATOM     18  C   UNL     1     -10.462   8.329 -22.725  1.00  0.00    -0.000 C 
BRANCH  18  19
ATOM     19  C   UNL     1      -8.962   8.543 -22.448  1.00  0.00    -0.000 C 
BRANCH  19  20
ATOM     20  C   UNL     1      -8.652   9.940 -21.881  1.00  0.00    -0.000 C 
BRANCH  20  21
ATOM     21  C   UNL     1      -7.381   9.950 -21.015  1.00  0.00    -0.000 C 
BRANCH  21  22
ATOM     22  C   UNL     1      -6.827   8.535 -20.773  1.00  0.00    -0.000 C 
BRANCH  22  23
ATOM     23  C   UNL     1      -6.525   8.264 -19.291  1.00  0.00    -0.000 C 
BRANCH  23  24
ATOM     24  C   UNL     1      -7.089   6.919 -18.810  1.00  0.00    -0.000 C 
BRANCH  24  25
ATOM     25  C   UNL     1      -7.690   6.127 -19.978  1.00  0.00    -0.003 C 
ATOM     26  C   UNL     1      -8.733   5.128 -19.486  1.00  0.00     0.004 C 
ENDBRANCH  24  25
ENDBRANCH  23  24
ENDBRANCH  22  23
ENDBRANCH  21  22
ENDBRANCH  20  21
ENDBRANCH  19  20
ENDBRANCH  18  19
ENDBRANCH  17  18
ENDBRANCH  16  17
ENDBRANCH  15  16
ENDBRANCH   1  15
TORSDOF 22
ENDMDL
MODEL 4
REMARK VINA RESULT:    -3.767      1.434      3.806
REMARK INTER + INTRA:         -12.832
REMARK INTER:                  -8.492
REMARK INTRA:                  -4.341
REMARK UNBOUND:                -4.220
REMARK SMILES CCCCCCCCCCCCCCCCCCCCCCCC(=O)[O-]
REMARK SMILES IDX 13 1 14 2 15 3 16 4 17 5 18 6 19 7 20 8 21 9 22 10 23 11
REMARK SMILES IDX 24 12 25 13 26 14 12 15 11 16 10 17 9 18 8 19 7 20 6 21 5 22
REMARK SMILES IDX 4 23 3 24 2 25 1 26
REMARK H PARENT
REMARK Flexibility Score: inf
ROOT
ATOM      1  C   UNL     1      -9.064   5.797 -19.675  1.00  0.00     0.000 C 
ENDROOT
BRANCH   1   2
ATOM      2  C   UNL     1     -10.084   5.013 -20.518  1.00  0.00     0.000 C 
BRANCH   2   3
ATOM      3  C   UNL     1     -10.894   5.927 -21.455  1.00  0.00     0.000 C 
BRANCH   3   4
ATOM      4  C   UNL     1     -12.356   6.087 -21.011  1.00  0.00     0.000 C 
BRANCH   4   5
ATOM      5  C   UNL     1     -12.954   7.446 -21.411  1.00  0.00     0.000 C 
BRANCH   5   6
ATOM      6  C   UNL     1     -13.090   8.372 -20.192  1.00  0.00     0.000 C 
BRANCH   6   7
ATOM      7  C   UNL     1     -11.855   9.279 -20.002  1.00  0.00     0.000 C 
BRANCH   7   8
ATOM      8  C   UNL     1     -10.898   8.805 -18.893  1.00  0.00     0.000 C 
BRANCH   8   9
ATOM      9  C   UNL     1     -10.016   9.937 -18.343  1.00  0.00     0.000 C 
BRANCH   9  10
ATOM     10  C   UNL     1      -8.982   9.436 -17.319  1.00  0.00     0.006 C 
BRANCH  10  11
ATOM     11  C   UNL     1      -7.820  10.418 -17.128  1.00  0.00     0.053 C 
BRANCH  11  12
ATOM     12  C   UNL     1      -7.890  11.050 -15.773  1.00  0.00     0.041 C 
ATOM     13  O   UNL     1      -7.439  12.212 -15.590  1.00  0.00    -0.550 OA
ATOM     14  O   UNL     1      -8.422  10.342 -14.701  1.00  0.00    -0.550 OA
ENDBRANCH  11  12
ENDBRANCH  10  11
ENDBRANCH   9  10
ENDBRANCH   8   9
ENDBRANCH   7   8
ENDBRANCH   6   7
ENDBRANCH   5   6
ENDBRANCH   4   5
ENDBRANCH   3   4
ENDBRANCH   2   3
ENDBRANCH   1   2
BRANCH   1  15
ATOM     15  C   UNL     1      -7.662   5.162 -19.705  1.00  0.00     0.000 C 
BRANCH  15  16
ATOM     16  C   UNL     1      -7.492   4.157 -20.865  1.00  0.00     0.000 C 
BRANCH  16  17
ATOM     17  C   UNL     1      -6.225   4.387 -21.713  1.00  0.00     0.000 C 
BRANCH  17  18
ATOM     18  C   UNL     1      -6.420   5.263 -22.965  1.00  0.00    -0.000 C 
BRANCH  18  19
ATOM     19  C   UNL     1      -7.796   5.128 -23.643  1.00  0.00    -0.000 C 
BRANCH  19  20
ATOM     20  C   UNL     1      -8.448   6.488 -23.950  1.00  0.00    -0.000 C 
BRANCH  20  21
ATOM     21  C   UNL     1      -7.660   7.663 -23.348  1.00  0.00    -0.000 C 
BRANCH  21  22
ATOM     22  C   UNL     1      -8.542   8.573 -22.474  1.00  0.00    -0.000 C 
BRANCH  22  23
ATOM     23  C   UNL     1      -7.902   8.883 -21.112  1.00  0.00    -0.000 C 
BRANCH  23  24
ATOM     24  C   UNL     1      -6.496   8.279 -20.969  1.00  0.00    -0.000 C 
BRANCH  24  25
ATOM     25  C   UNL     1      -5.979   8.428 -19.534  1.00  0.00    -0.003 C 
ATOM     26  C   UNL     1      -5.002   9.594 -19.419  1.00  0.00     0.004 C 
ENDBRANCH  24  25
ENDBRANCH  23  24
ENDBRANCH  22  23
ENDBRANCH  21  22
ENDBRANCH  20  21
ENDBRANCH  19  20
ENDBRANCH  18  19
ENDBRANCH  17  18
ENDBRANCH  16  17
ENDBRANCH  15  16
ENDBRANCH   1  15
TORSDOF 22
ENDMDL
MODEL 5
REMARK VINA RESULT:    -3.762      2.293      5.921
REMARK INTER + INTRA:         -12.821
REMARK INTER:                  -9.232
REMARK INTRA:                  -3.589
REMARK UNBOUND:                -4.220
REMARK SMILES CCCCCCCCCCCCCCCCCCCCCCCC(=O)[O-]
REMARK SMILES IDX 13 1 14 2 15 3 16 4 17 5 18 6 19 7 20 8 21 9 22 10 23 11
REMARK SMILES IDX 24 12 25 13 26 14 12 15 11 16 10 17 9 18 8 19 7 20 6 21 5 22
REMARK SMILES IDX 4 23 3 24 2 25 1 26
REMARK H PARENT
REMARK Flexibility Score: inf
ROOT
ATOM      1  C   UNL     1     -10.585   7.800 -18.587  1.00  0.00     0.000 C 
ENDROOT
BRANCH   1   2
ATOM      2  C   UNL     1     -11.813   7.171 -19.266  1.00  0.00     0.000 C 
BRANCH   2   3
ATOM      3  C   UNL     1     -12.670   8.213 -20.006  1.00  0.00     0.000 C 
BRANCH   3   4
ATOM      4  C   UNL     1     -12.928   7.837 -21.473  1.00  0.00     0.000 C 
BRANCH   4   5
ATOM      5  C   UNL     1     -12.304   6.486 -21.860  1.00  0.00     0.000 C 
BRANCH   5   6
ATOM      6  C   UNL     1     -11.410   6.624 -23.102  1.00  0.00     0.000 C 
BRANCH   6   7
ATOM      7  C   UNL     1     -10.788   8.032 -23.226  1.00  0.00     0.000 C 
BRANCH   7   8
ATOM      8  C   UNL     1      -9.260   8.057 -23.042  1.00  0.00     0.000 C 
BRANCH   8   9
ATOM      9  C   UNL     1      -8.837   8.444 -21.616  1.00  0.00     0.000 C 
BRANCH   9  10
ATOM     10  C   UNL     1      -7.597   7.668 -21.137  1.00  0.00     0.006 C 
BRANCH  10  11
ATOM     11  C   UNL     1      -7.660   6.179 -21.498  1.00  0.00     0.053 C 
BRANCH  11  12
ATOM     12  C   UNL     1      -8.359   5.410 -20.420  1.00  0.00     0.041 C 
ATOM     13  O   UNL     1      -9.464   4.852 -20.653  1.00  0.00    -0.550 OA
ATOM     14  O   UNL     1      -7.806   5.337 -19.147  1.00  0.00    -0.550 OA
ENDBRANCH  11  12
ENDBRANCH  10  11
ENDBRANCH   9  10
ENDBRANCH   8   9
ENDBRANCH   7   8
ENDBRANCH   6   7
ENDBRANCH   5   6
ENDBRANCH   4   5
ENDBRANCH   3   4
ENDBRANCH   2   3
ENDBRANCH   1   2
BRANCH   1  15
ATOM     15  C   UNL     1     -10.603   9.338 -18.647  1.00  0.00     0.000 C 
BRANCH  15  16
ATOM     16  C   UNL     1      -9.369   9.972 -17.969  1.00  0.00     0.000 C 
BRANCH  16  17
ATOM     17  C   UNL     1      -9.016   9.352 -16.603  1.00  0.00     0.000 C 
BRANCH  17  18
ATOM     18  C   UNL     1      -8.455  10.335 -15.558  1.00  0.00    -0.000 C 
BRANCH  18  19
ATOM     19  C   UNL     1      -7.608  11.484 -16.136  1.00  0.00    -0.000 C 
BRANCH  19  20
ATOM     20  C   UNL     1      -6.475  11.925 -15.193  1.00  0.00    -0.000 C 
BRANCH  20  21
ATOM     21  C   UNL     1      -5.814  10.736 -14.476  1.00  0.00    -0.000 C 
BRANCH  21  22
ATOM     22  C   UNL     1      -4.283  10.874 -14.402  1.00  0.00    -0.000 C 
BRANCH  22  23
ATOM     23  C   UNL     1      -3.555   9.835 -15.268  1.00  0.00    -0.000 C 
BRANCH  23  24
ATOM     24  C   UNL     1      -4.517   8.831 -15.919  1.00  0.00    -0.000 C 
BRANCH  24  25
ATOM     25  C   UNL     1      -4.503   8.968 -17.446  1.00  0.00    -0.003 C 
ATOM     26  C   UNL     1      -5.782   8.409 -18.061  1.00  0.00     0.004 C 
ENDBRANCH  24  25
ENDBRANCH  23  24
ENDBRANCH  22  23
ENDBRANCH  21  22
ENDBRANCH  20  21
ENDBRANCH  19  20
ENDBRANCH  18  19
ENDBRANCH  17  18
ENDBRANCH  16  17
ENDBRANCH  15  16
ENDBRANCH   1  15
TORSDOF 22
ENDMDL
MODEL 6
REMARK VINA RESULT:    -3.753      1.704      4.312
REMARK INTER + INTRA:         -12.799
REMARK INTER:                  -8.893
REMARK INTRA:                  -3.907
REMARK UNBOUND:                -4.220
REMARK SMILES CCCCCCCCCCCCCCCCCCCCCCCC(=O)[O-]
REMARK SMILES IDX 13 1 14 2 15 3 16 4 17 5 18 6 19 7 20 8 21 9 22 10 23 11
REMARK SMILES IDX 24 12 25 13 26 14 12 15 11 16 10 17 9 18 8 19 7 20 6 21 5 22
REMARK SMILES IDX 4 23 3 24 2 25 1 26
REMARK H PARENT
REMARK Flexibility Score: inf
ROOT
ATOM      1  C   UNL     1     -11.604   9.489 -19.110  1.00  0.00     0.000 C 
ENDROOT
BRANCH   1   2
ATOM      2  C   UNL     1     -10.369   8.940 -18.374  1.00  0.00     0.000 C 
BRANCH   2   3
ATOM      3  C   UNL     1      -9.305  10.025 -18.129  1.00  0.00     0.000 C 
BRANCH   3   4
ATOM      4  C   UNL     1      -8.314   9.646 -17.018  1.00  0.00     0.000 C 
BRANCH   4   5
ATOM      5  C   UNL     1      -8.477  10.509 -15.756  1.00  0.00     0.000 C 
BRANCH   5   6
ATOM      6  C   UNL     1      -7.226  11.366 -15.505  1.00  0.00     0.000 C 
BRANCH   6   7
ATOM      7  C   UNL     1      -6.255  10.709 -14.501  1.00  0.00     0.000 C 
BRANCH   7   8
ATOM      8  C   UNL     1      -4.769  10.952 -14.818  1.00  0.00     0.000 C 
BRANCH   8   9
ATOM      9  C   UNL     1      -3.989   9.649 -15.054  1.00  0.00     0.000 C 
BRANCH   9  10
ATOM     10  C   UNL     1      -4.501   8.868 -16.277  1.00  0.00     0.006 C 
BRANCH  10  11
ATOM     11  C   UNL     1      -4.514   9.717 -17.555  1.00  0.00     0.053 C 
BRANCH  11  12
ATOM     12  C   UNL     1      -3.116   9.977 -18.022  1.00  0.00     0.041 C 
ATOM     13  O   UNL     1      -2.468   9.077 -18.616  1.00  0.00    -0.550 OA
ATOM     14  O   UNL     1      -2.517  11.206 -17.770  1.00  0.00    -0.550 OA
ENDBRANCH  11  12
ENDBRANCH  10  11
ENDBRANCH   9  10
ENDBRANCH   8   9
ENDBRANCH   7   8
ENDBRANCH   6   7
ENDBRANCH   5   6
ENDBRANCH   4   5
ENDBRANCH   3   4
ENDBRANCH   2   3
ENDBRANCH   1   2
BRANCH   1  15
ATOM     15  C   UNL     1     -12.568   8.375 -19.554  1.00  0.00     0.000 C 
BRANCH  15  16
ATOM     16  C   UNL     1     -12.004   6.962 -19.289  1.00  0.00     0.000 C 
BRANCH  16  17
ATOM     17  C   UNL     1     -11.947   6.065 -20.542  1.00  0.00     0.000 C 
BRANCH  17  18
ATOM     18  C   UNL     1     -12.199   6.786 -21.880  1.00  0.00    -0.000 C 
BRANCH  18  19
ATOM     19  C   UNL     1     -10.930   7.106 -22.693  1.00  0.00    -0.000 C 
BRANCH  19  20
ATOM     20  C   UNL     1     -10.616   8.612 -22.743  1.00  0.00    -0.000 C 
BRANCH  20  21
ATOM     21  C   UNL     1      -9.352   8.971 -21.944  1.00  0.00    -0.000 C 
BRANCH  21  22
ATOM     22  C   UNL     1      -8.581   7.725 -21.475  1.00  0.00    -0.000 C 
BRANCH  22  23
ATOM     23  C   UNL     1      -7.336   8.078 -20.647  1.00  0.00    -0.000 C 
BRANCH  23  24
ATOM     24  C   UNL     1      -7.145   7.143 -19.442  1.00  0.00    -0.000 C 
BRANCH  24  25
ATOM     25  C   UNL     1      -8.299   6.139 -19.338  1.00  0.00    -0.003 C 
ATOM     26  C   UNL     1      -7.783   4.704 -19.349  1.00  0.00     0.004 C 
ENDBRANCH  24  25
ENDBRANCH  23  24
ENDBRANCH  22  23
ENDBRANCH  21  22
ENDBRANCH  20  21
ENDBRANCH  19  20
ENDBRANCH  18  19
ENDBRANCH  17  18
ENDBRANCH  16  17
ENDBRANCH  15  16
ENDBRANCH   1  15
TORSDOF 22
ENDMDL
MODEL 7
REMARK VINA RESULT:    -3.730      3.260      5.172
REMARK INTER + INTRA:         -12.748
REMARK INTER:                  -8.978
REMARK INTRA:                  -3.770
REMARK UNBOUND:                -4.220
REMARK SMILES CCCCCCCCCCCCCCCCCCCCCCCC(=O)[O-]
REMARK SMILES IDX 13 1 14 2 15 3 16 4 17 5 18 6 19 7 20 8 21 9 22 10 23 11
REMARK SMILES IDX 24 12 25 13 26 14 12 15 11 16 10 17 9 18 8 19 7 20 6 21 5 22
REMARK SMILES IDX 4 23 3 24 2 25 1 26
REMARK H PARENT
REMARK Flexibility Score: inf
ROOT
ATOM      1  C   UNL     1     -11.950   8.221 -19.350  1.00  0.00     0.000 C 
ENDROOT
BRANCH   1   2
ATOM      2  C   UNL     1     -12.999   8.463 -20.448  1.00  0.00     0.000 C 
BRANCH   2   3
ATOM      3  C   UNL     1     -13.014   7.339 -21.499  1.00  0.00     0.000 C 
BRANCH   3   4
ATOM      4  C   UNL     1     -12.244   6.089 -21.044  1.00  0.00     0.000 C 
BRANCH   4   5
ATOM      5  C   UNL     1     -10.990   5.821 -21.892  1.00  0.00     0.000 C 
BRANCH   5   6
ATOM      6  C   UNL     1     -10.948   6.738 -23.125  1.00  0.00     0.000 C 
BRANCH   6   7
ATOM      7  C   UNL     1      -9.868   7.834 -23.006  1.00  0.00     0.000 C 
BRANCH   7   8
ATOM      8  C   UNL     1     -10.363   9.242 -23.383  1.00  0.00     0.000 C 
BRANCH   8   9
ATOM      9  C   UNL     1      -9.532  10.360 -22.732  1.00  0.00     0.000 C 
BRANCH   9  10
ATOM     10  C   UNL     1     -10.113  11.759 -23.002  1.00  0.00     0.006 C 
BRANCH  10  11
ATOM     11  C   UNL     1     -10.284  12.583 -21.719  1.00  0.00     0.053 C 
BRANCH  11  12
ATOM     12  C   UNL     1     -10.341  14.044 -22.041  1.00  0.00     0.041 C 
ATOM     13  O   UNL     1     -10.901  14.847 -21.249  1.00  0.00    -0.550 OA
ATOM     14  O   UNL     1      -9.806  14.514 -23.235  1.00  0.00    -0.550 OA
ENDBRANCH  11  12
ENDBRANCH  10  11
ENDBRANCH   9  10
ENDBRANCH   8   9
ENDBRANCH   7   8
ENDBRANCH   6   7
ENDBRANCH   5   6
ENDBRANCH   4   5
ENDBRANCH   3   4
ENDBRANCH   2   3
ENDBRANCH   1   2
BRANCH   1  15
ATOM     15  C   UNL     1     -10.660   9.028 -19.580  1.00  0.00     0.000 C 
BRANCH  15  16
ATOM     16  C   UNL     1     -10.353   9.999 -18.419  1.00  0.00     0.000 C 
BRANCH  16  17
ATOM     17  C   UNL     1      -9.320   9.461 -17.409  1.00  0.00     0.000 C 
BRANCH  17  18
ATOM     18  C   UNL     1      -7.895  10.028 -17.560  1.00  0.00    -0.000 C 
BRANCH  18  19
ATOM     19  C   UNL     1      -7.545  10.539 -18.970  1.00  0.00    -0.000 C 
BRANCH  19  20
ATOM     20  C   UNL     1      -6.334   9.816 -19.585  1.00  0.00    -0.000 C 
BRANCH  20  21
ATOM     21  C   UNL     1      -6.310   8.318 -19.237  1.00  0.00    -0.000 C 
BRANCH  21  22
ATOM     22  C   UNL     1      -7.276   7.498 -20.110  1.00  0.00    -0.000 C 
BRANCH  22  23
ATOM     23  C   UNL     1      -8.050   6.445 -19.303  1.00  0.00    -0.000 C 
BRANCH  23  24
ATOM     24  C   UNL     1      -7.882   5.027 -19.870  1.00  0.00    -0.000 C 
BRANCH  24  25
ATOM     25  C   UNL     1      -7.336   5.070 -21.303  1.00  0.00    -0.003 C 
ATOM     26  C   UNL     1      -6.292   3.981 -21.526  1.00  0.00     0.004 C 
ENDBRANCH  24  25
ENDBRANCH  23  24
ENDBRANCH  22  23
ENDBRANCH  21  22
ENDBRANCH  20  21
ENDBRANCH  19  20
ENDBRANCH  18  19
ENDBRANCH  17  18
ENDBRANCH  16  17
ENDBRANCH  15  16
ENDBRANCH   1  15
TORSDOF 22
ENDMDL
MODEL 8
REMARK VINA RESULT:    -3.723      2.035      4.612
REMARK INTER + INTRA:         -12.732
REMARK INTER:                  -8.668
REMARK INTRA:                  -4.064
REMARK UNBOUND:                -4.220
REMARK SMILES CCCCCCCCCCCCCCCCCCCCCCCC(=O)[O-]
REMARK SMILES IDX 13 1 14 2 15 3 16 4 17 5 18 6 19 7 20 8 21 9 22 10 23 11
REMARK SMILES IDX 24 12 25 13 26 14 12 15 11 16 10 17 9 18 8 19 7 20 6 21 5 22
REMARK SMILES IDX 4 23 3 24 2 25 1 26
REMARK H PARENT
REMARK Flexibility Score: inf
ROOT
ATOM      1  C   UNL     1      -8.452   5.153 -19.471  1.00  0.00     0.000 C 
ENDROOT
BRANCH   1   2
ATOM      2  C   UNL     1      -7.551   6.256 -20.053  1.00  0.00     0.000 C 
BRANCH   2   3
ATOM      3  C   UNL     1      -7.138   7.292 -18.992  1.00  0.00     0.000 C 
BRANCH   3   4
ATOM      4  C   UNL     1      -6.866   8.680 -19.592  1.00  0.00     0.000 C 
BRANCH   4   5
ATOM      5  C   UNL     1      -6.965   9.808 -18.552  1.00  0.00     0.000 C 
BRANCH   5   6
ATOM      6  C   UNL     1      -7.689   9.330 -17.284  1.00  0.00     0.000 C 
BRANCH   6   7
ATOM      7  C   UNL     1      -8.681  10.381 -16.742  1.00  0.00     0.000 C 
BRANCH   7   8
ATOM      8  C   UNL     1      -8.052  11.386 -15.761  1.00  0.00     0.000 C 
BRANCH   8   9
ATOM      9  C   UNL     1      -6.960  10.757 -14.881  1.00  0.00     0.000 C 
BRANCH   9  10
ATOM     10  C   UNL     1      -5.767  11.702 -14.654  1.00  0.00     0.006 C 
BRANCH  10  11
ATOM     11  C   UNL     1      -5.833  12.954 -15.537  1.00  0.00     0.053 C 
BRANCH  11  12
ATOM     12  C   UNL     1      -5.838  14.189 -14.690  1.00  0.00     0.041 C 
ATOM     13  O   UNL     1      -6.839  14.466 -13.978  1.00  0.00    -0.550 OA
ATOM     14  O   UNL     1      -4.750  15.054 -14.715  1.00  0.00    -0.550 OA
ENDBRANCH  11  12
ENDBRANCH  10  11
ENDBRANCH   9  10
ENDBRANCH   8   9
ENDBRANCH   7   8
ENDBRANCH   6   7
ENDBRANCH   5   6
ENDBRANCH   4   5
ENDBRANCH   3   4
ENDBRANCH   2   3
ENDBRANCH   1   2
BRANCH   1  15
ATOM     15  C   UNL     1      -9.822   5.082 -20.168  1.00  0.00     0.000 C 
BRANCH  15  16
ATOM     16  C   UNL     1      -9.742   5.432 -21.670  1.00  0.00     0.000 C 
BRANCH  16  17
ATOM     17  C   UNL     1     -11.090   5.850 -22.289  1.00  0.00     0.000 C 
BRANCH  17  18
ATOM     18  C   UNL     1     -12.229   6.099 -21.282  1.00  0.00    -0.000 C 
BRANCH  18  19
ATOM     19  C   UNL     1     -13.070   7.361 -21.552  1.00  0.00    -0.000 C 
BRANCH  19  20
ATOM     20  C   UNL     1     -13.017   8.374 -20.395  1.00  0.00    -0.000 C 
BRANCH  20  21
ATOM     21  C   UNL     1     -12.042   7.945 -19.287  1.00  0.00    -0.000 C 
BRANCH  21  22
ATOM     22  C   UNL     1     -10.637   8.543 -19.478  1.00  0.00    -0.000 C 
BRANCH  22  23
ATOM     23  C   UNL     1     -10.669  10.059 -19.722  1.00  0.00    -0.000 C 
BRANCH  23  24
ATOM     24  C   UNL     1     -10.000  10.458 -21.046  1.00  0.00    -0.000 C 
BRANCH  24  25
ATOM     25  C   UNL     1      -9.730   9.225 -21.918  1.00  0.00    -0.003 C 
ATOM     26  C   UNL     1     -10.377   9.370 -23.292  1.00  0.00     0.004 C 
ENDBRANCH  24  25
ENDBRANCH  23  24
ENDBRANCH  22  23
ENDBRANCH  21  22
ENDBRANCH  20  21
ENDBRANCH  19  20
ENDBRANCH  18  19
ENDBRANCH  17  18
ENDBRANCH  16  17
ENDBRANCH  15  16
ENDBRANCH   1  15
TORSDOF 22
ENDMDL
MODEL 9
REMARK VINA RESULT:    -3.708      2.283      5.807
REMARK INTER + INTRA:         -12.698
REMARK INTER:                  -8.285
REMARK INTRA:                  -4.412
REMARK UNBOUND:                -4.220
REMARK SMILES CCCCCCCCCCCCCCCCCCCCCCCC(=O)[O-]
REMARK SMILES IDX 13 1 14 2 15 3 16 4 17 5 18 6 19 7 20 8 21 9 22 10 23 11
REMARK SMILES IDX 24 12 25 13 26 14 12 15 11 16 10 17 9 18 8 19 7 20 6 21 5 22
REMARK SMILES IDX 4 23 3 24 2 25 1 26
REMARK H PARENT
REMARK Flexibility Score: inf
ROOT
ATOM      1  C   UNL     1      -7.435   6.477 -19.654  1.00  0.00     0.000 C 
ENDROOT
BRANCH   1   2
ATOM      2  C   UNL     1      -7.818   5.041 -19.256  1.00  0.00     0.000 C 
BRANCH   2   3
ATOM      3  C   UNL     1      -7.104   3.986 -20.119  1.00  0.00     0.000 C 
BRANCH   3   4
ATOM      4  C   UNL     1      -7.023   4.386 -21.601  1.00  0.00     0.000 C 
BRANCH   4   5
ATOM      5  C   UNL     1      -5.652   4.078 -22.226  1.00  0.00     0.000 C 
BRANCH   5   6
ATOM      6  C   UNL     1      -5.225   5.188 -23.200  1.00  0.00     0.000 C 
BRANCH   6   7
ATOM      7  C   UNL     1      -5.612   6.594 -22.695  1.00  0.00     0.000 C 
BRANCH   7   8
ATOM      8  C   UNL     1      -4.772   7.730 -23.306  1.00  0.00     0.000 C 
BRANCH   8   9
ATOM      9  C   UNL     1      -4.613   8.930 -22.359  1.00  0.00     0.000 C 
BRANCH   9  10
ATOM     10  C   UNL     1      -5.893   9.220 -21.555  1.00  0.00     0.006 C 
BRANCH  10  11
ATOM     11  C   UNL     1      -6.046  10.707 -21.210  1.00  0.00     0.053 C 
BRANCH  11  12
ATOM     12  C   UNL     1      -7.169  10.904 -20.240  1.00  0.00     0.041 C 
ATOM     13  O   UNL     1      -8.339  11.111 -20.657  1.00  0.00    -0.550 OA
ATOM     14  O   UNL     1      -6.918  10.892 -18.873  1.00  0.00    -0.550 OA
ENDBRANCH  11  12
ENDBRANCH  10  11
ENDBRANCH   9  10
ENDBRANCH   8   9
ENDBRANCH   7   8
ENDBRANCH   6   7
ENDBRANCH   5   6
ENDBRANCH   4   5
ENDBRANCH   3   4
ENDBRANCH   2   3
ENDBRANCH   1   2
BRANCH   1  15
ATOM     15  C   UNL     1      -7.951   7.524 -18.651  1.00  0.00     0.000 C 
BRANCH  15  16
ATOM     16  C   UNL     1      -9.493   7.571 -18.584  1.00  0.00     0.000 C 
BRANCH  16  17
ATOM     17  C   UNL     1     -10.069   8.988 -18.397  1.00  0.00     0.000 C 
BRANCH  17  18
ATOM     18  C   UNL     1     -11.304   9.317 -19.258  1.00  0.00    -0.000 C 
BRANCH  18  19
ATOM     19  C   UNL     1     -12.304   8.158 -19.427  1.00  0.00    -0.000 C 
BRANCH  19  20
ATOM     20  C   UNL     1     -13.013   8.174 -20.793  1.00  0.00    -0.000 C 
BRANCH  20  21
ATOM     21  C   UNL     1     -12.795   6.870 -21.579  1.00  0.00    -0.000 C 
BRANCH  21  22
ATOM     22  C   UNL     1     -12.006   5.824 -20.771  1.00  0.00    -0.000 C 
BRANCH  22  23
ATOM     23  C   UNL     1     -10.701   5.406 -21.464  1.00  0.00    -0.000 C 
BRANCH  23  24
ATOM     24  C   UNL     1     -10.529   6.061 -22.844  1.00  0.00    -0.000 C 
BRANCH  24  25
ATOM     25  C   UNL     1      -9.237   6.884 -22.903  1.00  0.00    -0.003 C 
ATOM     26  C   UNL     1      -9.433   8.262 -22.277  1.00  0.00     0.004 C 
ENDBRANCH  24  25
ENDBRANCH  23  24
ENDBRANCH  22  23
ENDBRANCH  21  22
ENDBRANCH  20  21
ENDBRANCH  19  20
ENDBRANCH  18  19
ENDBRANCH  17  18
ENDBRANCH  16  17
ENDBRANCH  15  16
ENDBRANCH   1  15
TORSDOF 22
ENDMDL
