MODEL 1
REMARK VINA RESULT:    -3.986      0.000      0.000
REMARK INTER + INTRA:          -5.353
REMARK INTER:                  -5.618
REMARK INTRA:                   0.265
REMARK UNBOUND:                 0.265
REMARK SMILES CC1=CCC(=C(C)C)C(=O)CC(C)=CCC1
REMARK SMILES IDX 12 1 14 2 13 3 15 4 16 5 2 6 1 7 3 8 11 10 9 11 10 12 5 13
REMARK SMILES IDX 6 14 7 15 8 16 4 17
REMARK H PARENT
REMARK Flexibility Score: 60.00
ROOT
ATOM      1  C   UNL     1     100.106 135.438 125.076  1.00  0.00    -0.070 C 
ATOM      2  C   UNL     1     100.720 136.367 124.311  1.00  0.00    -0.027 C 
ATOM      3  C   UNL     1      98.638 135.623 125.368  1.00  0.00     0.039 C 
ENDROOT
BRANCH   2   4
ATOM      4  C   UNL     1     102.155 136.307 123.831  1.00  0.00     0.032 C 
BRANCH   4   5
ATOM      5  C   UNL     1     102.341 135.721 122.417  1.00  0.00     0.034 C 
BRANCH   5   6
ATOM      6  C   UNL     1     103.529 134.781 122.311  1.00  0.00    -0.077 C 
ATOM      7  C   UNL     1     104.896 135.395 122.140  1.00  0.00     0.039 C 
ATOM      8  C   UNL     1     103.449 133.434 122.431  1.00  0.00    -0.023 CG0
ATOM      9  G   UNL     1     102.193 132.601 122.588  1.00  0.00     0.000 G0
ENDBRANCH   5   6
ENDBRANCH   4   5
ENDBRANCH   2   4
BRANCH   1  10
ATOM     10  C   UNL     1     100.793 134.183 125.573  1.00  0.00     0.111 C 
BRANCH  10  11
ATOM     11  C   UNL     1     100.661 133.050 124.589  1.00  0.00     0.163 C 
ATOM     12  O   UNL     1      99.504 132.742 124.190  1.00  0.00    -0.294 OA
BRANCH  11  13
ATOM     13  C   UNL     1     101.843 132.331 124.031  1.00  0.00    -0.002 C 
ATOM     14  C   UNL     1     102.523 131.413 124.782  1.00  0.00    -0.069 C 
ATOM     15  C   UNL     1     102.205 131.209 126.247  1.00  0.00     0.039 C 
ATOM     16  C   UNL     1     103.623 130.555 124.196  1.00  0.00     0.039 C 
BRANCH  13  17
ATOM     17  C   UNL     1     102.193 132.592 122.574  1.00  0.00     0.066 CG0
ATOM     18  G   UNL     1     103.442 133.438 122.424  1.00  0.00     0.000 G0
ENDBRANCH  13  17
ENDBRANCH  11  13
ENDBRANCH  10  11
ENDBRANCH   1  10
TORSDOF 0
ENDMDL
MODEL 2
REMARK VINA RESULT:    -3.408     14.037     16.850
REMARK INTER + INTRA:          -4.538
REMARK INTER:                  -4.704
REMARK INTRA:                   0.166
REMARK UNBOUND:                 0.265
REMARK SMILES CC1=CCC(=C(C)C)C(=O)CC(C)=CCC1
REMARK SMILES IDX 12 1 14 2 13 3 15 4 16 5 2 6 1 7 3 8 11 10 9 11 10 12 5 13
REMARK SMILES IDX 6 14 7 15 8 16 4 17
REMARK H PARENT
REMARK Flexibility Score: 60.00
ROOT
ATOM      1  C   UNL     1      97.711 140.920 134.763  1.00  0.00    -0.070 C 
ATOM      2  C   UNL     1      97.483 139.589 134.774  1.00  0.00    -0.027 C 
ATOM      3  C   UNL     1      98.159 141.549 133.467  1.00  0.00     0.039 C 
ENDROOT
BRANCH   2   4
ATOM      4  C   UNL     1      96.940 138.795 135.943  1.00  0.00     0.032 C 
BRANCH   4   5
ATOM      5  C   UNL     1      95.418 138.913 136.155  1.00  0.00     0.034 C 
BRANCH   5   6
ATOM      6  C   UNL     1      95.039 139.273 137.581  1.00  0.00    -0.077 C 
ATOM      7  C   UNL     1      95.340 138.264 138.662  1.00  0.00     0.039 C 
ATOM      8  C   UNL     1      94.515 140.465 137.955  1.00  0.00    -0.023 CG0
ATOM      9  G   UNL     1      94.115 141.613 137.049  1.00  0.00     0.000 G0
ENDBRANCH   5   6
ENDBRANCH   4   5
ENDBRANCH   2   4
BRANCH   1  10
ATOM     10  C   UNL     1      97.453 141.818 135.955  1.00  0.00     0.111 C 
BRANCH  10  11
ATOM     11  C   UNL     1      96.151 142.562 135.819  1.00  0.00     0.163 C 
ATOM     12  O   UNL     1      95.859 143.047 134.692  1.00  0.00    -0.294 OA
BRANCH  11  13
ATOM     13  C   UNL     1      95.178 142.688 136.945  1.00  0.00    -0.002 C 
ATOM     14  C   UNL     1      95.211 143.769 137.781  1.00  0.00    -0.069 C 
ATOM     15  C   UNL     1      96.325 144.790 137.698  1.00  0.00     0.039 C 
ATOM     16  C   UNL     1      94.146 144.006 138.828  1.00  0.00     0.039 C 
BRANCH  13  17
ATOM     17  C   UNL     1      94.101 141.621 137.056  1.00  0.00     0.066 CG0
ATOM     18  G   UNL     1      94.522 140.468 137.946  1.00  0.00     0.000 G0
ENDBRANCH  13  17
ENDBRANCH  11  13
ENDBRANCH  10  11
ENDBRANCH   1  10
TORSDOF 0
ENDMDL
MODEL 3
REMARK VINA RESULT:    -3.173     14.590     16.917
REMARK INTER + INTRA:          -4.206
REMARK INTER:                  -4.439
REMARK INTRA:                   0.234
REMARK UNBOUND:                 0.265
REMARK SMILES CC1=CCC(=C(C)C)C(=O)CC(C)=CCC1
REMARK SMILES IDX 12 1 14 2 13 3 15 4 16 5 2 6 1 7 3 8 11 10 9 11 10 12 5 13
REMARK SMILES IDX 6 14 7 15 8 16 4 17
REMARK H PARENT
REMARK Flexibility Score: 60.00
ROOT
ATOM      1  C   UNL     1      96.244 143.954 134.577  1.00  0.00    -0.070 C 
ATOM      2  C   UNL     1      97.330 143.192 134.326  1.00  0.00    -0.027 C 
ATOM      3  C   UNL     1      96.351 145.439 134.337  1.00  0.00     0.039 C 
ENDROOT
BRANCH   2   4
ATOM      4  C   UNL     1      97.389 141.682 134.413  1.00  0.00     0.032 C 
BRANCH   4   5
ATOM      5  C   UNL     1      97.575 141.121 135.838  1.00  0.00     0.034 C 
BRANCH   5   6
ATOM      6  C   UNL     1      96.516 140.104 136.223  1.00  0.00    -0.077 C 
ATOM      7  C   UNL     1      96.558 138.757 135.544  1.00  0.00     0.039 C 
ATOM      8  C   UNL     1      95.582 140.301 137.184  1.00  0.00    -0.023 CG0
ATOM      9  G   UNL     1      95.339 141.568 137.979  1.00  0.00     0.000 G0
ENDBRANCH   5   6
ENDBRANCH   4   5
ENDBRANCH   2   4
BRANCH   1  10
ATOM     10  C   UNL     1      94.905 143.382 134.999  1.00  0.00     0.111 C 
BRANCH  10  11
ATOM     11  C   UNL     1      94.668 143.552 136.476  1.00  0.00     0.163 C 
ATOM     12  O   UNL     1      94.801 144.706 136.969  1.00  0.00    -0.294 OA
BRANCH  11  13
ATOM     13  C   UNL     1      94.226 142.427 137.352  1.00  0.00    -0.002 C 
ATOM     14  C   UNL     1      92.899 142.139 137.507  1.00  0.00    -0.069 C 
ATOM     15  C   UNL     1      91.829 143.040 136.927  1.00  0.00     0.039 C 
ATOM     16  C   UNL     1      92.427 140.914 138.257  1.00  0.00     0.039 C 
BRANCH  13  17
ATOM     17  C   UNL     1      95.312 141.568 137.980  1.00  0.00     0.066 CG0
ATOM     18  G   UNL     1      95.581 140.306 137.184  1.00  0.00     0.000 G0
ENDBRANCH  13  17
ENDBRANCH  11  13
ENDBRANCH  10  11
ENDBRANCH   1  10
TORSDOF 0
ENDMDL
MODEL 4
REMARK VINA RESULT:    -3.155     13.867     16.167
REMARK INTER + INTRA:          -4.181
REMARK INTER:                  -4.411
REMARK INTRA:                   0.229
REMARK UNBOUND:                 0.265
REMARK SMILES CC1=CCC(=C(C)C)C(=O)CC(C)=CCC1
REMARK SMILES IDX 12 1 14 2 13 3 15 4 16 5 2 6 1 7 3 8 11 10 9 11 10 12 5 13
REMARK SMILES IDX 6 14 7 15 8 16 4 17
REMARK H PARENT
REMARK Flexibility Score: 60.00
ROOT
ATOM      1  C   UNL     1      97.404 142.374 134.476  1.00  0.00    -0.070 C 
ATOM      2  C   UNL     1      98.031 141.288 133.976  1.00  0.00    -0.027 C 
ATOM      3  C   UNL     1      96.953 143.438 133.507  1.00  0.00     0.039 C 
ENDROOT
BRANCH   2   4
ATOM      4  C   UNL     1      98.469 140.076 134.771  1.00  0.00     0.032 C 
BRANCH   4   5
ATOM      5  C   UNL     1      97.326 139.136 135.202  1.00  0.00     0.034 C 
BRANCH   5   6
ATOM      6  C   UNL     1      97.321 138.844 136.692  1.00  0.00    -0.077 C 
ATOM      7  C   UNL     1      98.526 138.145 137.273  1.00  0.00     0.039 C 
ATOM      8  C   UNL     1      96.341 139.230 137.544  1.00  0.00    -0.023 CG0
ATOM      9  G   UNL     1      95.040 139.922 137.188  1.00  0.00     0.000 G0
ENDBRANCH   5   6
ENDBRANCH   4   5
ENDBRANCH   2   4
BRANCH   1  10
ATOM     10  C   UNL     1      97.052 142.531 135.942  1.00  0.00     0.111 C 
BRANCH  10  11
ATOM     11  C   UNL     1      95.596 142.243 136.198  1.00  0.00     0.163 C 
ATOM     12  O   UNL     1      94.753 142.652 135.353  1.00  0.00    -0.294 OA
BRANCH  11  13
ATOM     13  C   UNL     1      95.131 141.447 137.371  1.00  0.00    -0.002 C 
ATOM     14  C   UNL     1      94.720 142.066 138.519  1.00  0.00    -0.069 C 
ATOM     15  C   UNL     1      94.871 143.561 138.700  1.00  0.00     0.039 C 
ATOM     16  C   UNL     1      94.096 141.300 139.664  1.00  0.00     0.039 C 
BRANCH  13  17
ATOM     17  C   UNL     1      95.043 139.939 137.199  1.00  0.00     0.066 CG0
ATOM     18  G   UNL     1      96.349 139.244 137.531  1.00  0.00     0.000 G0
ENDBRANCH  13  17
ENDBRANCH  11  13
ENDBRANCH  10  11
ENDBRANCH   1  10
TORSDOF 0
ENDMDL
MODEL 5
REMARK VINA RESULT:    -3.019     14.260     16.864
REMARK INTER + INTRA:          -3.989
REMARK INTER:                  -4.458
REMARK INTRA:                   0.469
REMARK UNBOUND:                 0.265
REMARK SMILES CC1=CCC(=C(C)C)C(=O)CC(C)=CCC1
REMARK SMILES IDX 12 1 14 2 13 3 15 4 16 5 2 6 1 7 3 8 11 10 9 11 10 12 5 13
REMARK SMILES IDX 6 14 7 15 8 16 4 17
REMARK H PARENT
REMARK Flexibility Score: 60.00
ROOT
ATOM      1  C   UNL     1      95.501 144.949 134.968  1.00  0.00    -0.070 C 
ATOM      2  C   UNL     1      94.541 145.393 135.807  1.00  0.00    -0.027 C 
ATOM      3  C   UNL     1      96.416 145.969 134.338  1.00  0.00     0.039 C 
ENDROOT
BRANCH   2   4
ATOM      4  C   UNL     1      93.594 144.522 136.605  1.00  0.00     0.032 C 
BRANCH   4   5
ATOM      5  C   UNL     1      94.268 143.649 137.682  1.00  0.00     0.034 C 
BRANCH   5   6
ATOM      6  C   UNL     1      93.839 142.193 137.627  1.00  0.00    -0.077 C 
ATOM      7  C   UNL     1      92.359 141.898 137.630  1.00  0.00     0.039 C 
ATOM      8  C   UNL     1      94.693 141.149 137.504  1.00  0.00    -0.023 CG0
ATOM      9  G   UNL     1      96.208 141.201 137.498  1.00  0.00     0.000 G0
ENDBRANCH   5   6
ENDBRANCH   4   5
ENDBRANCH   2   4
BRANCH   1  10
ATOM     10  C   UNL     1      95.760 143.480 134.702  1.00  0.00     0.111 C 
BRANCH  10  11
ATOM     11  C   UNL     1      96.790 142.917 135.645  1.00  0.00     0.163 C 
ATOM     12  O   UNL     1      97.664 143.701 136.106  1.00  0.00    -0.294 OA
BRANCH  11  13
ATOM     13  C   UNL     1      96.773 141.494 136.095  1.00  0.00    -0.002 C 
ATOM     14  C   UNL     1      97.313 140.507 135.318  1.00  0.00    -0.069 C 
ATOM     15  C   UNL     1      97.803 140.794 133.915  1.00  0.00     0.039 C 
ATOM     16  C   UNL     1      97.454 139.084 135.812  1.00  0.00     0.039 C 
BRANCH  13  17
ATOM     17  C   UNL     1      96.220 141.209 137.483  1.00  0.00     0.066 CG0
ATOM     18  G   UNL     1      94.705 141.140 137.497  1.00  0.00     0.000 G0
ENDBRANCH  13  17
ENDBRANCH  11  13
ENDBRANCH  10  11
ENDBRANCH   1  10
TORSDOF 0
ENDMDL
MODEL 6
REMARK VINA RESULT:    -3.012     13.994     16.225
REMARK INTER + INTRA:          -3.979
REMARK INTER:                  -4.415
REMARK INTRA:                   0.436
REMARK UNBOUND:                 0.265
REMARK SMILES CC1=CCC(=C(C)C)C(=O)CC(C)=CCC1
REMARK SMILES IDX 12 1 14 2 13 3 15 4 16 5 2 6 1 7 3 8 11 10 9 11 10 12 5 13
REMARK SMILES IDX 6 14 7 15 8 16 4 17
REMARK H PARENT
REMARK Flexibility Score: 60.00
ROOT
ATOM      1  C   UNL     1      96.249 139.655 135.857  1.00  0.00    -0.070 C 
ATOM      2  C   UNL     1      97.340 139.571 135.065  1.00  0.00    -0.027 C 
ATOM      3  C   UNL     1      95.857 138.434 136.651  1.00  0.00     0.039 C 
ENDROOT
BRANCH   2   4
ATOM      4  C   UNL     1      97.945 140.709 134.271  1.00  0.00     0.032 C 
BRANCH   4   5
ATOM      5  C   UNL     1      99.409 141.040 134.626  1.00  0.00     0.034 C 
BRANCH   5   6
ATOM      6  C   UNL     1      99.607 141.375 136.094  1.00  0.00    -0.077 C 
ATOM      7  C   UNL     1     100.646 140.591 136.857  1.00  0.00     0.039 C 
ATOM      8  C   UNL     1      98.964 142.375 136.743  1.00  0.00    -0.023 CG0
ATOM      9  G   UNL     1      97.876 143.274 136.190  1.00  0.00     0.000 G0
ENDBRANCH   5   6
ENDBRANCH   4   5
ENDBRANCH   2   4
BRANCH   1  10
ATOM     10  C   UNL     1      95.461 140.934 136.054  1.00  0.00     0.111 C 
BRANCH  10  11
ATOM     11  C   UNL     1      96.037 141.777 137.162  1.00  0.00     0.163 C 
ATOM     12  O   UNL     1      96.125 141.266 138.312  1.00  0.00    -0.294 OA
BRANCH  11  13
ATOM     13  C   UNL     1      96.558 143.157 136.932  1.00  0.00    -0.002 C 
ATOM     14  C   UNL     1      95.909 144.244 137.447  1.00  0.00    -0.069 C 
ATOM     15  C   UNL     1      94.565 144.105 138.129  1.00  0.00     0.039 C 
ATOM     16  C   UNL     1      96.493 145.638 137.368  1.00  0.00     0.039 C 
BRANCH  13  17
ATOM     17  C   UNL     1      97.878 143.288 136.189  1.00  0.00     0.066 CG0
ATOM     18  G   UNL     1      98.946 142.368 136.747  1.00  0.00     0.000 G0
ENDBRANCH  13  17
ENDBRANCH  11  13
ENDBRANCH  10  11
ENDBRANCH   1  10
TORSDOF 0
ENDMDL
MODEL 7
REMARK VINA RESULT:    -2.990      1.764      4.881
REMARK INTER + INTRA:          -3.948
REMARK INTER:                  -4.760
REMARK INTRA:                   0.812
REMARK UNBOUND:                 0.265
REMARK SMILES CC1=CCC(=C(C)C)C(=O)CC(C)=CCC1
REMARK SMILES IDX 12 1 14 2 13 3 15 4 16 5 2 6 1 7 3 8 11 10 9 11 10 12 5 13
REMARK SMILES IDX 6 14 7 15 8 16 4 17
REMARK H PARENT
REMARK Flexibility Score: 60.00
ROOT
ATOM      1  C   UNL     1     104.528 133.156 123.818  1.00  0.00    -0.070 C 
ATOM      2  C   UNL     1     104.967 132.053 124.462  1.00  0.00    -0.027 C 
ATOM      3  C   UNL     1     105.181 134.475 124.149  1.00  0.00     0.039 C 
ENDROOT
BRANCH   2   4
ATOM      4  C   UNL     1     104.508 130.635 124.199  1.00  0.00     0.032 C 
BRANCH   4   5
ATOM      5  C   UNL     1     102.989 130.409 124.343  1.00  0.00     0.034 C 
BRANCH   5   6
ATOM      6  C   UNL     1     102.399 131.075 125.573  1.00  0.00    -0.077 C 
ATOM      7  C   UNL     1     102.903 130.627 126.923  1.00  0.00     0.039 C 
ATOM      8  C   UNL     1     101.504 132.091 125.537  1.00  0.00    -0.023 CG0
ATOM      9  G   UNL     1     100.848 132.690 124.308  1.00  0.00     0.000 G0
ENDBRANCH   5   6
ENDBRANCH   4   5
ENDBRANCH   2   4
BRANCH   1  10
ATOM     10  C   UNL     1     103.483 133.118 122.722  1.00  0.00     0.111 C 
BRANCH  10  11
ATOM     11  C   UNL     1     102.435 134.183 122.916  1.00  0.00     0.163 C 
ATOM     12  O   UNL     1     102.431 135.164 122.122  1.00  0.00    -0.294 OA
BRANCH  11  13
ATOM     13  C   UNL     1     101.377 134.085 123.964  1.00  0.00    -0.002 C 
ATOM     14  C   UNL     1     100.853 135.210 124.537  1.00  0.00    -0.069 C 
ATOM     15  C   UNL     1     101.432 136.579 124.249  1.00  0.00     0.039 C 
ATOM     16  C   UNL     1      99.674 135.153 125.484  1.00  0.00     0.039 C 
BRANCH  13  17
ATOM     17  C   UNL     1     100.848 132.697 124.291  1.00  0.00     0.066 CG0
ATOM     18  G   UNL     1     101.501 132.108 125.526  1.00  0.00     0.000 G0
ENDBRANCH  13  17
ENDBRANCH  11  13
ENDBRANCH  10  11
ENDBRANCH   1  10
TORSDOF 0
ENDMDL
MODEL 8
REMARK VINA RESULT:    -2.968     13.646     16.084
REMARK INTER + INTRA:          -3.918
REMARK INTER:                  -4.201
REMARK INTRA:                   0.283
REMARK UNBOUND:                 0.265
REMARK SMILES CC1=CCC(=C(C)C)C(=O)CC(C)=CCC1
REMARK SMILES IDX 12 1 14 2 13 3 15 4 16 5 2 6 1 7 3 8 11 10 9 11 10 12 5 13
REMARK SMILES IDX 6 14 7 15 8 16 4 17
REMARK H PARENT
REMARK Flexibility Score: 60.00
ROOT
ATOM      1  C   UNL     1      97.519 142.109 134.557  1.00  0.00    -0.070 C 
ATOM      2  C   UNL     1      96.641 143.131 134.659  1.00  0.00    -0.027 C 
ATOM      3  C   UNL     1      98.167 141.866 133.217  1.00  0.00     0.039 C 
ENDROOT
BRANCH   2   4
ATOM      4  C   UNL     1      95.964 143.590 135.933  1.00  0.00     0.032 C 
BRANCH   4   5
ATOM      5  C   UNL     1      94.686 142.812 136.305  1.00  0.00     0.034 C 
BRANCH   5   6
ATOM      6  C   UNL     1      94.726 142.233 137.709  1.00  0.00    -0.077 C 
ATOM      7  C   UNL     1      94.552 143.186 138.865  1.00  0.00     0.039 C 
ATOM      8  C   UNL     1      94.837 140.912 137.986  1.00  0.00    -0.023 CG0
ATOM      9  G   UNL     1      95.038 139.782 136.996  1.00  0.00     0.000 G0
ENDBRANCH   5   6
ENDBRANCH   4   5
ENDBRANCH   2   4
BRANCH   1  10
ATOM     10  C   UNL     1      97.949 141.261 135.737  1.00  0.00     0.111 C 
BRANCH  10  11
ATOM     11  C   UNL     1      97.283 139.911 135.722  1.00  0.00     0.163 C 
ATOM     12  O   UNL     1      97.427 139.189 134.698  1.00  0.00    -0.294 OA
BRANCH  11  13
ATOM     13  C   UNL     1      96.520 139.380 136.890  1.00  0.00    -0.002 C 
ATOM     14  C   UNL     1      97.145 138.646 137.860  1.00  0.00    -0.069 C 
ATOM     15  C   UNL     1      98.587 138.212 137.708  1.00  0.00     0.039 C 
ATOM     16  C   UNL     1      96.438 138.230 139.131  1.00  0.00     0.039 C 
BRANCH  13  17
ATOM     17  C   UNL     1      95.055 139.771 136.999  1.00  0.00     0.066 CG0
ATOM     18  G   UNL     1      94.833 140.907 137.978  1.00  0.00     0.000 G0
ENDBRANCH  13  17
ENDBRANCH  11  13
ENDBRANCH  10  11
ENDBRANCH   1  10
TORSDOF 0
ENDMDL
MODEL 9
REMARK VINA RESULT:    -2.948     14.318     16.836
REMARK INTER + INTRA:          -3.890
REMARK INTER:                  -4.033
REMARK INTRA:                   0.143
REMARK UNBOUND:                 0.265
REMARK SMILES CC1=CCC(=C(C)C)C(=O)CC(C)=CCC1
REMARK SMILES IDX 12 1 14 2 13 3 15 4 16 5 2 6 1 7 3 8 11 10 9 11 10 12 5 13
REMARK SMILES IDX 6 14 7 15 8 16 4 17
REMARK H PARENT
REMARK Flexibility Score: 60.00
ROOT
ATOM      1  C   UNL     1      97.650 141.516 134.605  1.00  0.00    -0.070 C 
ATOM      2  C   UNL     1      97.297 142.763 134.223  1.00  0.00    -0.027 C 
ATOM      3  C   UNL     1      99.051 141.053 134.294  1.00  0.00     0.039 C 
ENDROOT
BRANCH   2   4
ATOM      4  C   UNL     1      95.977 143.439 134.528  1.00  0.00     0.032 C 
BRANCH   4   5
ATOM      5  C   UNL     1      95.919 144.164 135.888  1.00  0.00     0.034 C 
BRANCH   5   6
ATOM      6  C   UNL     1      94.695 143.796 136.709  1.00  0.00    -0.077 C 
ATOM      7  C   UNL     1      93.363 144.347 136.265  1.00  0.00     0.039 C 
ATOM      8  C   UNL     1      94.712 142.953 137.769  1.00  0.00    -0.023 CG0
ATOM      9  G   UNL     1      95.925 142.299 138.401  1.00  0.00     0.000 G0
ENDBRANCH   5   6
ENDBRANCH   4   5
ENDBRANCH   2   4
BRANCH   1  10
ATOM     10  C   UNL     1      96.744 140.603 135.404  1.00  0.00     0.111 C 
BRANCH  10  11
ATOM     11  C   UNL     1      97.109 140.596 136.865  1.00  0.00     0.163 C 
ATOM     12  O   UNL     1      98.320 140.422 137.173  1.00  0.00    -0.294 OA
BRANCH  11  13
ATOM     13  C   UNL     1      96.108 140.848 137.943  1.00  0.00    -0.002 C 
ATOM     14  C   UNL     1      95.450 139.811 138.543  1.00  0.00    -0.069 C 
ATOM     15  C   UNL     1      95.592 138.393 138.034  1.00  0.00     0.039 C 
ATOM     16  C   UNL     1      94.551 140.018 139.742  1.00  0.00     0.039 C 
BRANCH  13  17
ATOM     17  C   UNL     1      95.928 142.286 138.404  1.00  0.00     0.066 CG0
ATOM     18  G   UNL     1      94.719 142.946 137.772  1.00  0.00     0.000 G0
ENDBRANCH  13  17
ENDBRANCH  11  13
ENDBRANCH  10  11
ENDBRANCH   1  10
TORSDOF 0
ENDMDL
