MODEL 1
REMARK VINA RESULT:    -2.515      0.000      0.000
REMARK INTER + INTRA:          -3.316
REMARK INTER:                  -3.104
REMARK INTRA:                  -0.213
REMARK UNBOUND:                -0.213
REMARK SMILES CCCCCC(=O)[O-]
REMARK SMILES IDX 4 1 5 2 6 3 7 4 8 5 3 6 2 7 1 8
REMARK H PARENT
REMARK Flexibility Score: inf
ROOT
ATOM      1  C   UNL     1       7.116  49.413   8.875  1.00  0.00     0.006 C 
ENDROOT
BRANCH   1   2
ATOM      2  C   UNL     1       7.929  49.282  10.169  1.00  0.00     0.053 C 
BRANCH   2   3
ATOM      3  C   UNL     1       7.958  47.857  10.626  1.00  0.00     0.041 C 
ATOM      4  O   UNL     1       8.420  47.565  11.760  1.00  0.00    -0.550 OA
ATOM      5  O   UNL     1       7.429  46.858   9.819  1.00  0.00    -0.550 OA
ENDBRANCH   2   3
ENDBRANCH   1   2
BRANCH   1   6
ATOM      6  C   UNL     1       5.707  49.977   9.117  1.00  0.00     0.000 C 
BRANCH   6   7
ATOM      7  C   UNL     1       4.635  48.879   9.188  1.00  0.00    -0.003 C 
ATOM      8  C   UNL     1       4.368  48.466  10.632  1.00  0.00     0.004 C 
ENDBRANCH   6   7
ENDBRANCH   1   6
TORSDOF 4
ENDMDL
MODEL 2
REMARK VINA RESULT:    -2.220      7.795      8.455
REMARK INTER + INTRA:          -2.952
REMARK INTER:                  -3.010
REMARK INTRA:                   0.059
REMARK UNBOUND:                -0.213
REMARK SMILES CCCCCC(=O)[O-]
REMARK SMILES IDX 4 1 5 2 6 3 7 4 8 5 3 6 2 7 1 8
REMARK H PARENT
REMARK Flexibility Score: inf
ROOT
ATOM      1  C   UNL     1      15.122  44.779   9.237  1.00  0.00     0.006 C 
ENDROOT
BRANCH   1   2
ATOM      2  C   UNL     1      15.447  46.275   9.143  1.00  0.00     0.053 C 
BRANCH   2   3
ATOM      3  C   UNL     1      14.451  47.075   9.922  1.00  0.00     0.041 C 
ATOM      4  O   UNL     1      13.462  47.596   9.341  1.00  0.00    -0.550 OA
ATOM      5  O   UNL     1      14.587  47.206  11.298  1.00  0.00    -0.550 OA
ENDBRANCH   2   3
ENDBRANCH   1   2
BRANCH   1   6
ATOM      6  C   UNL     1      13.662  44.467   8.875  1.00  0.00     0.000 C 
BRANCH   6   7
ATOM      7  C   UNL     1      13.183  43.126   9.450  1.00  0.00    -0.003 C 
ATOM      8  C   UNL     1      11.824  42.736   8.875  1.00  0.00     0.004 C 
ENDBRANCH   6   7
ENDBRANCH   1   6
TORSDOF 4
ENDMDL
MODEL 3
REMARK VINA RESULT:    -2.020      1.282      1.545
REMARK INTER + INTRA:          -2.705
REMARK INTER:                  -2.824
REMARK INTRA:                   0.119
REMARK UNBOUND:                -0.213
REMARK SMILES CCCCCC(=O)[O-]
REMARK SMILES IDX 4 1 5 2 6 3 7 4 8 5 3 6 2 7 1 8
REMARK H PARENT
REMARK Flexibility Score: inf
ROOT
ATOM      1  C   UNL     1       6.382  47.526   9.208  1.00  0.00     0.006 C 
ENDROOT
BRANCH   1   2
ATOM      2  C   UNL     1       7.874  47.464   9.559  1.00  0.00     0.053 C 
BRANCH   2   3
ATOM      3  C   UNL     1       8.158  48.284  10.778  1.00  0.00     0.041 C 
ATOM      4  O   UNL     1       8.474  47.723  11.860  1.00  0.00    -0.550 OA
ATOM      5  O   UNL     1       8.120  49.671  10.707  1.00  0.00    -0.550 OA
ENDBRANCH   2   3
ENDBRANCH   1   2
BRANCH   1   6
ATOM      6  C   UNL     1       5.912  48.951   8.876  1.00  0.00     0.000 C 
BRANCH   6   7
ATOM      7  C   UNL     1       4.700  49.385   9.714  1.00  0.00    -0.003 C 
ATOM      8  C   UNL     1       4.394  48.364  10.806  1.00  0.00     0.004 C 
ENDBRANCH   6   7
ENDBRANCH   1   6
TORSDOF 4
ENDMDL
MODEL 4
REMARK VINA RESULT:    -1.975      7.871      8.425
REMARK INTER + INTRA:          -2.649
REMARK INTER:                  -2.600
REMARK INTRA:                  -0.049
REMARK UNBOUND:                -0.213
REMARK SMILES CCCCCC(=O)[O-]
REMARK SMILES IDX 4 1 5 2 6 3 7 4 8 5 3 6 2 7 1 8
REMARK H PARENT
REMARK Flexibility Score: inf
ROOT
ATOM      1  C   UNL     1      15.261  45.044   8.984  1.00  0.00     0.006 C 
ENDROOT
BRANCH   1   2
ATOM      2  C   UNL     1      15.515  46.555   8.910  1.00  0.00     0.053 C 
BRANCH   2   3
ATOM      3  C   UNL     1      14.503  47.295   9.727  1.00  0.00     0.041 C 
ATOM      4  O   UNL     1      14.578  47.292  10.984  1.00  0.00    -0.550 OA
ATOM      5  O   UNL     1      13.504  48.028   9.099  1.00  0.00    -0.550 OA
ENDBRANCH   2   3
ENDBRANCH   1   2
BRANCH   1   6
ATOM      6  C   UNL     1      13.768  44.690   8.891  1.00  0.00     0.000 C 
BRANCH   6   7
ATOM      7  C   UNL     1      13.410  43.423   9.682  1.00  0.00    -0.003 C 
ATOM      8  C   UNL     1      12.124  42.793   9.155  1.00  0.00     0.004 C 
ENDBRANCH   6   7
ENDBRANCH   1   6
TORSDOF 4
ENDMDL
MODEL 5
REMARK VINA RESULT:    -1.618      1.875      3.338
REMARK INTER + INTRA:          -2.209
REMARK INTER:                  -2.209
REMARK INTRA:                  -0.000
REMARK UNBOUND:                -0.213
REMARK SMILES CCCCCC(=O)[O-]
REMARK SMILES IDX 4 1 5 2 6 3 7 4 8 5 3 6 2 7 1 8
REMARK H PARENT
REMARK Flexibility Score: inf
ROOT
ATOM      1  C   UNL     1       6.985  49.587   8.927  1.00  0.00     0.006 C 
ENDROOT
BRANCH   1   2
ATOM      2  C   UNL     1       5.519  49.947   9.199  1.00  0.00     0.053 C 
BRANCH   2   3
ATOM      3  C   UNL     1       4.786  48.767   9.756  1.00  0.00     0.041 C 
ATOM      4  O   UNL     1       3.938  48.924  10.674  1.00  0.00    -0.550 OA
ATOM      5  O   UNL     1       5.003  47.501   9.228  1.00  0.00    -0.550 OA
ENDBRANCH   2   3
ENDBRANCH   1   2
BRANCH   1   6
ATOM      6  C   UNL     1       7.754  49.232  10.209  1.00  0.00     0.000 C 
BRANCH   6   7
ATOM      7  C   UNL     1       8.143  47.747  10.273  1.00  0.00    -0.003 C 
ATOM      8  C   UNL     1       8.235  47.143   8.875  1.00  0.00     0.004 C 
ENDBRANCH   6   7
ENDBRANCH   1   6
TORSDOF 4
ENDMDL
MODEL 6
REMARK VINA RESULT:    -0.762      2.268      3.583
REMARK INTER + INTRA:          -1.152
REMARK INTER:                  -1.060
REMARK INTRA:                  -0.093
REMARK UNBOUND:                -0.213
REMARK SMILES CCCCCC(=O)[O-]
REMARK SMILES IDX 4 1 5 2 6 3 7 4 8 5 3 6 2 7 1 8
REMARK H PARENT
REMARK Flexibility Score: inf
ROOT
ATOM      1  C   UNL     1       7.182  47.721   8.875  1.00  0.00     0.006 C 
ENDROOT
BRANCH   1   2
ATOM      2  C   UNL     1       6.833  49.208   9.024  1.00  0.00     0.053 C 
BRANCH   2   3
ATOM      3  C   UNL     1       5.356  49.383   9.191  1.00  0.00     0.041 C 
ATOM      4  O   UNL     1       4.655  48.445   9.655  1.00  0.00    -0.550 OA
ATOM      5  O   UNL     1       4.760  50.598   8.880  1.00  0.00    -0.550 OA
ENDBRANCH   2   3
ENDBRANCH   1   2
BRANCH   1   6
ATOM      6  C   UNL     1       7.593  47.074  10.207  1.00  0.00     0.000 C 
BRANCH   6   7
ATOM      7  C   UNL     1       8.150  48.093  11.212  1.00  0.00    -0.003 C 
ATOM      8  C   UNL     1       7.575  47.860  12.606  1.00  0.00     0.004 C 
ENDBRANCH   6   7
ENDBRANCH   1   6
TORSDOF 4
ENDMDL
MODEL 7
REMARK VINA RESULT:    -0.684      7.559      8.718
REMARK INTER + INTRA:          -1.057
REMARK INTER:                  -0.957
REMARK INTRA:                  -0.100
REMARK UNBOUND:                -0.213
REMARK SMILES CCCCCC(=O)[O-]
REMARK SMILES IDX 4 1 5 2 6 3 7 4 8 5 3 6 2 7 1 8
REMARK H PARENT
REMARK Flexibility Score: inf
ROOT
ATOM      1  C   UNL     1      13.500  45.898   9.038  1.00  0.00     0.006 C 
ENDROOT
BRANCH   1   2
ATOM      2  C   UNL     1      14.897  45.267   8.955  1.00  0.00     0.053 C 
BRANCH   2   3
ATOM      3  C   UNL     1      14.825  43.801   9.245  1.00  0.00     0.041 C 
ATOM      4  O   UNL     1      15.878  43.148   9.474  1.00  0.00    -0.550 OA
ATOM      5  O   UNL     1      13.593  43.164   9.311  1.00  0.00    -0.550 OA
ENDBRANCH   2   3
ENDBRANCH   1   2
BRANCH   1   6
ATOM      6  C   UNL     1      13.532  47.426   8.884  1.00  0.00     0.000 C 
BRANCH   6   7
ATOM      7  C   UNL     1      14.954  48.000   8.965  1.00  0.00    -0.003 C 
ATOM      8  C   UNL     1      14.937  49.523   8.876  1.00  0.00     0.004 C 
ENDBRANCH   6   7
ENDBRANCH   1   6
TORSDOF 4
ENDMDL
MODEL 8
REMARK VINA RESULT:    -0.228      8.026      8.811
REMARK INTER + INTRA:          -0.493
REMARK INTER:                  -0.440
REMARK INTRA:                  -0.053
REMARK UNBOUND:                -0.213
REMARK SMILES CCCCCC(=O)[O-]
REMARK SMILES IDX 4 1 5 2 6 3 7 4 8 5 3 6 2 7 1 8
REMARK H PARENT
REMARK Flexibility Score: inf
ROOT
ATOM      1  C   UNL     1      15.129  45.407   8.875  1.00  0.00     0.006 C 
ENDROOT
BRANCH   1   2
ATOM      2  C   UNL     1      13.708  44.884   9.122  1.00  0.00     0.053 C 
BRANCH   2   3
ATOM      3  C   UNL     1      13.727  43.402   9.330  1.00  0.00     0.041 C 
ATOM      4  O   UNL     1      12.663  42.735   9.234  1.00  0.00    -0.550 OA
ATOM      5  O   UNL     1      14.927  42.750   9.582  1.00  0.00    -0.550 OA
ENDBRANCH   2   3
ENDBRANCH   1   2
BRANCH   1   6
ATOM      6  C   UNL     1      15.202  46.942   8.877  1.00  0.00     0.000 C 
BRANCH   6   7
ATOM      7  C   UNL     1      14.366  47.573  10.000  1.00  0.00    -0.003 C 
ATOM      8  C   UNL     1      14.998  47.317  11.365  1.00  0.00     0.004 C 
ENDBRANCH   6   7
ENDBRANCH   1   6
TORSDOF 4
ENDMDL
