MODEL 1
REMARK VINA RESULT:    -4.497      0.000      0.000
REMARK INTER + INTRA:          -4.760
REMARK INTER:                  -4.760
REMARK INTRA:                   0.000
REMARK UNBOUND:                 0.000
REMARK SMILES Cc1cc(O)c(C)c(C)c1O
REMARK SMILES IDX 1 1 2 2 3 3 4 4 6 5 8 6 10 7 9 8 7 9 11 10 5 12
REMARK H PARENT 11 11 5 13
REMARK Flexibility Score: inf
ROOT
ATOM      1  C   UNL     1       9.072 -17.912  21.187  1.00  0.00     0.048 C 
ATOM      2  C   UNL     1       9.640 -17.000  22.239  1.00  0.00    -0.005 A 
ATOM      3  C   UNL     1      10.578 -17.489  23.153  1.00  0.00     0.053 A 
ATOM      4  C   UNL     1      11.146 -16.655  24.115  1.00  0.00     0.119 A 
ATOM      5  C   UNL     1      10.788 -15.287  24.167  1.00  0.00    -0.003 A 
ATOM      6  C   UNL     1       9.743 -14.811  23.324  1.00  0.00    -0.002 A 
ATOM      7  C   UNL     1       9.227 -15.660  22.312  1.00  0.00     0.121 A 
ATOM      8  C   UNL     1       9.190 -13.412  23.483  1.00  0.00     0.049 C 
ATOM      9  C   UNL     1      11.504 -14.360  25.124  1.00  0.00     0.049 C 
ENDROOT
BRANCH   7  10
ATOM     10  O   UNL     1       8.311 -15.199  21.360  1.00  0.00    -0.507 OA
ATOM     11  H   UNL     1       8.528 -15.091  20.378  1.00  0.00     0.293 HD
ENDBRANCH   7  10
BRANCH   4  12
ATOM     12  O   UNL     1      12.053 -17.226  25.011  1.00  0.00    -0.508 OA
ATOM     13  H   UNL     1      11.924 -18.136  25.435  1.00  0.00     0.293 HD
ENDBRANCH   4  12
TORSDOF 2
ENDMDL
MODEL 2
REMARK VINA RESULT:    -4.400     11.055     12.701
REMARK INTER + INTRA:          -4.658
REMARK INTER:                  -4.658
REMARK INTRA:                   0.000
REMARK UNBOUND:                 0.000
REMARK SMILES Cc1cc(O)c(C)c(C)c1O
REMARK SMILES IDX 1 1 2 2 3 3 4 4 6 5 8 6 10 7 9 8 7 9 11 10 5 12
REMARK H PARENT 11 11 5 13
REMARK Flexibility Score: inf
ROOT
ATOM      1  C   UNL     1       6.481 -23.513  16.699  1.00  0.00     0.048 C 
ATOM      2  C   UNL     1       7.494 -24.562  16.335  1.00  0.00    -0.005 A 
ATOM      3  C   UNL     1       8.411 -25.008  17.291  1.00  0.00     0.053 A 
ATOM      4  C   UNL     1       9.337 -26.005  16.988  1.00  0.00     0.119 A 
ATOM      5  C   UNL     1       9.347 -26.595  15.701  1.00  0.00    -0.003 A 
ATOM      6  C   UNL     1       8.503 -26.062  14.687  1.00  0.00    -0.002 A 
ATOM      7  C   UNL     1       7.527 -25.092  15.035  1.00  0.00     0.121 A 
ATOM      8  C   UNL     1       8.621 -26.524  13.251  1.00  0.00     0.049 C 
ATOM      9  C   UNL     1      10.262 -27.766  15.420  1.00  0.00     0.049 C 
ENDROOT
BRANCH   7  10
ATOM     10  O   UNL     1       6.572 -24.645  14.116  1.00  0.00    -0.507 OA
ATOM     11  H   UNL     1       6.648 -24.780  13.116  1.00  0.00     0.293 HD
ENDBRANCH   7  10
BRANCH   4  12
ATOM     12  O   UNL     1      10.239 -26.375  17.988  1.00  0.00    -0.508 OA
ATOM     13  H   UNL     1      10.108 -26.160  18.969  1.00  0.00     0.293 HD
ENDBRANCH   4  12
TORSDOF 2
ENDMDL
MODEL 3
REMARK VINA RESULT:    -4.358      1.999      4.665
REMARK INTER + INTRA:          -4.612
REMARK INTER:                  -4.612
REMARK INTRA:                   0.000
REMARK UNBOUND:                 0.000
REMARK SMILES Cc1cc(O)c(C)c(C)c1O
REMARK SMILES IDX 1 1 2 2 3 3 4 4 6 5 8 6 10 7 9 8 7 9 11 10 5 12
REMARK H PARENT 11 11 5 13
REMARK Flexibility Score: inf
ROOT
ATOM      1  C   UNL     1      11.371 -15.836  22.943  1.00  0.00     0.048 C 
ATOM      2  C   UNL     1      10.313 -16.879  22.711  1.00  0.00    -0.005 A 
ATOM      3  C   UNL     1       9.769 -17.050  21.435  1.00  0.00     0.053 A 
ATOM      4  C   UNL     1       8.813 -18.034  21.187  1.00  0.00     0.119 A 
ATOM      5  C   UNL     1       8.390 -18.890  22.232  1.00  0.00    -0.003 A 
ATOM      6  C   UNL     1       8.844 -18.642  23.558  1.00  0.00    -0.002 A 
ATOM      7  C   UNL     1       9.863 -17.679  23.775  1.00  0.00     0.121 A 
ATOM      8  C   UNL     1       8.268 -19.400  24.734  1.00  0.00     0.049 C 
ATOM      9  C   UNL     1       7.454 -20.039  21.928  1.00  0.00     0.049 C 
ENDROOT
BRANCH   7  10
ATOM     10  O   UNL     1      10.454 -17.501  25.030  1.00  0.00    -0.507 OA
ATOM     11  H   UNL     1      10.731 -16.600  25.398  1.00  0.00     0.293 HD
ENDBRANCH   7  10
BRANCH   4  12
ATOM     12  O   UNL     1       8.297 -18.121  19.892  1.00  0.00    -0.508 OA
ATOM     13  H   UNL     1       7.691 -18.869  19.579  1.00  0.00     0.293 HD
ENDBRANCH   4  12
TORSDOF 2
ENDMDL
MODEL 4
REMARK VINA RESULT:    -4.327     11.577     13.492
REMARK INTER + INTRA:          -4.579
REMARK INTER:                  -4.579
REMARK INTRA:                   0.000
REMARK UNBOUND:                 0.000
REMARK SMILES Cc1cc(O)c(C)c(C)c1O
REMARK SMILES IDX 1 1 2 2 3 3 4 4 6 5 8 6 10 7 9 8 7 9 11 10 5 12
REMARK H PARENT 11 11 5 13
REMARK Flexibility Score: inf
ROOT
ATOM      1  C   UNL     1       9.710 -28.022  12.986  1.00  0.00     0.048 C 
ATOM      2  C   UNL     1       9.134 -26.998  13.925  1.00  0.00    -0.005 A 
ATOM      3  C   UNL     1       8.165 -26.100  13.468  1.00  0.00     0.053 A 
ATOM      4  C   UNL     1       7.590 -25.165  14.328  1.00  0.00     0.119 A 
ATOM      5  C   UNL     1       7.973 -25.126  15.691  1.00  0.00    -0.003 A 
ATOM      6  C   UNL     1       9.046 -25.951  16.133  1.00  0.00    -0.002 A 
ATOM      7  C   UNL     1       9.571 -26.936  15.258  1.00  0.00     0.121 A 
ATOM      8  C   UNL     1       9.622 -25.801  17.524  1.00  0.00     0.049 C 
ATOM      9  C   UNL     1       7.251 -24.202  16.646  1.00  0.00     0.049 C 
ENDROOT
BRANCH   7  10
ATOM     10  O   UNL     1      10.518 -27.873  15.686  1.00  0.00    -0.507 OA
ATOM     11  H   UNL     1      11.372 -27.628  16.171  1.00  0.00     0.293 HD
ENDBRANCH   7  10
BRANCH   4  12
ATOM     12  O   UNL     1       6.651 -24.283  13.789  1.00  0.00    -0.508 OA
ATOM     13  H   UNL     1       6.377 -23.415  14.232  1.00  0.00     0.293 HD
ENDBRANCH   4  12
TORSDOF 2
ENDMDL
MODEL 5
REMARK VINA RESULT:    -4.291     11.232     12.982
REMARK INTER + INTRA:          -4.542
REMARK INTER:                  -4.542
REMARK INTRA:                   0.000
REMARK UNBOUND:                 0.000
REMARK SMILES Cc1cc(O)c(C)c(C)c1O
REMARK SMILES IDX 1 1 2 2 3 3 4 4 6 5 8 6 10 7 9 8 7 9 11 10 5 12
REMARK H PARENT 11 11 5 13
REMARK Flexibility Score: inf
ROOT
ATOM      1  C   UNL     1      10.895 -27.239  17.644  1.00  0.00     0.048 C 
ATOM      2  C   UNL     1       9.903 -26.495  16.792  1.00  0.00    -0.005 A 
ATOM      3  C   UNL     1       9.133 -25.471  17.351  1.00  0.00     0.053 A 
ATOM      4  C   UNL     1       8.234 -24.743  16.573  1.00  0.00     0.119 A 
ATOM      5  C   UNL     1       8.102 -25.025  15.192  1.00  0.00    -0.003 A 
ATOM      6  C   UNL     1       8.788 -26.145  14.644  1.00  0.00    -0.002 A 
ATOM      7  C   UNL     1       9.744 -26.830  15.437  1.00  0.00     0.121 A 
ATOM      8  C   UNL     1       8.524 -26.604  13.227  1.00  0.00     0.049 C 
ATOM      9  C   UNL     1       7.225 -24.146  14.328  1.00  0.00     0.049 C 
ENDROOT
BRANCH   7  10
ATOM     10  O   UNL     1      10.556 -27.838  14.907  1.00  0.00    -0.507 OA
ATOM     11  H   UNL     1      10.609 -28.056  13.920  1.00  0.00     0.293 HD
ENDBRANCH   7  10
BRANCH   4  12
ATOM     12  O   UNL     1       7.479 -23.756  17.212  1.00  0.00    -0.508 OA
ATOM     13  H   UNL     1       7.316 -22.836  16.823  1.00  0.00     0.293 HD
ENDBRANCH   4  12
TORSDOF 2
ENDMDL
MODEL 6
REMARK VINA RESULT:    -4.265     12.343     13.303
REMARK INTER + INTRA:          -4.514
REMARK INTER:                  -4.514
REMARK INTRA:                   0.000
REMARK UNBOUND:                 0.000
REMARK SMILES Cc1cc(O)c(C)c(C)c1O
REMARK SMILES IDX 1 1 2 2 3 3 4 4 6 5 8 6 10 7 9 8 7 9 11 10 5 12
REMARK H PARENT 11 11 5 13
REMARK Flexibility Score: inf
ROOT
ATOM      1  C   UNL     1       5.662 -26.418  18.362  1.00  0.00     0.048 C 
ATOM      2  C   UNL     1       6.600 -26.220  17.203  1.00  0.00    -0.005 A 
ATOM      3  C   UNL     1       6.405 -25.151  16.323  1.00  0.00     0.053 A 
ATOM      4  C   UNL     1       7.282 -24.926  15.262  1.00  0.00     0.119 A 
ATOM      5  C   UNL     1       8.399 -25.774  15.073  1.00  0.00    -0.003 A 
ATOM      6  C   UNL     1       8.534 -26.935  15.887  1.00  0.00    -0.002 A 
ATOM      7  C   UNL     1       7.668 -27.108  16.998  1.00  0.00     0.121 A 
ATOM      8  C   UNL     1       9.594 -27.974  15.594  1.00  0.00     0.049 C 
ATOM      9  C   UNL     1       9.417 -25.446  14.004  1.00  0.00     0.049 C 
ENDROOT
BRANCH   7  10
ATOM     10  O   UNL     1       7.850 -28.146  17.918  1.00  0.00    -0.507 OA
ATOM     11  H   UNL     1       8.152 -28.003  18.874  1.00  0.00     0.293 HD
ENDBRANCH   7  10
BRANCH   4  12
ATOM     12  O   UNL     1       7.002 -23.855  14.410  1.00  0.00    -0.508 OA
ATOM     13  H   UNL     1       7.546 -23.002  14.384  1.00  0.00     0.293 HD
ENDBRANCH   4  12
TORSDOF 2
ENDMDL
MODEL 7
REMARK VINA RESULT:    -4.225     12.867     13.242
REMARK INTER + INTRA:          -4.472
REMARK INTER:                  -4.472
REMARK INTRA:                   0.000
REMARK UNBOUND:                 0.000
REMARK SMILES Cc1cc(O)c(C)c(C)c1O
REMARK SMILES IDX 1 1 2 2 3 3 4 4 6 5 8 6 10 7 9 8 7 9 11 10 5 12
REMARK H PARENT 11 11 5 13
REMARK Flexibility Score: inf
ROOT
ATOM      1  C   UNL     1      11.473 -27.219  15.343  1.00  0.00     0.048 C 
ATOM      2  C   UNL     1      10.033 -26.893  15.626  1.00  0.00    -0.005 A 
ATOM      3  C   UNL     1       9.357 -27.553  16.656  1.00  0.00     0.053 A 
ATOM      4  C   UNL     1       8.032 -27.243  16.960  1.00  0.00     0.119 A 
ATOM      5  C   UNL     1       7.356 -26.235  16.233  1.00  0.00    -0.003 A 
ATOM      6  C   UNL     1       7.994 -25.647  15.104  1.00  0.00    -0.002 A 
ATOM      7  C   UNL     1       9.361 -25.932  14.853  1.00  0.00     0.121 A 
ATOM      8  C   UNL     1       7.241 -24.715  14.180  1.00  0.00     0.049 C 
ATOM      9  C   UNL     1       5.966 -25.811  16.654  1.00  0.00     0.049 C 
ENDROOT
BRANCH   7  10
ATOM     10  O   UNL     1      10.080 -25.269  13.852  1.00  0.00    -0.507 OA
ATOM     11  H   UNL     1       9.652 -24.681  13.149  1.00  0.00     0.293 HD
ENDBRANCH   7  10
BRANCH   4  12
ATOM     12  O   UNL     1       7.418 -27.968  17.985  1.00  0.00    -0.508 OA
ATOM     13  H   UNL     1       7.117 -27.557  18.859  1.00  0.00     0.293 HD
ENDBRANCH   4  12
TORSDOF 2
ENDMDL
MODEL 8
REMARK VINA RESULT:    -4.211      2.372      4.206
REMARK INTER + INTRA:          -4.458
REMARK INTER:                  -4.458
REMARK INTRA:                   0.000
REMARK UNBOUND:                 0.000
REMARK SMILES Cc1cc(O)c(C)c(C)c1O
REMARK SMILES IDX 1 1 2 2 3 3 4 4 6 5 8 6 10 7 9 8 7 9 11 10 5 12
REMARK H PARENT 11 11 5 13
REMARK Flexibility Score: inf
ROOT
ATOM      1  C   UNL     1       9.899 -14.311  22.878  1.00  0.00     0.048 C 
ATOM      2  C   UNL     1       9.035 -15.462  22.441  1.00  0.00    -0.005 A 
ATOM      3  C   UNL     1       9.587 -16.504  21.691  1.00  0.00     0.053 A 
ATOM      4  C   UNL     1       8.815 -17.599  21.304  1.00  0.00     0.119 A 
ATOM      5  C   UNL     1       7.454 -17.676  21.686  1.00  0.00    -0.003 A 
ATOM      6  C   UNL     1       6.853 -16.564  22.340  1.00  0.00    -0.002 A 
ATOM      7  C   UNL     1       7.671 -15.491  22.779  1.00  0.00     0.121 A 
ATOM      8  C   UNL     1       5.361 -16.517  22.588  1.00  0.00     0.049 C 
ATOM      9  C   UNL     1       6.659 -18.925  21.379  1.00  0.00     0.049 C 
ENDROOT
BRANCH   7  10
ATOM     10  O   UNL     1       7.163 -14.446  23.558  1.00  0.00    -0.507 OA
ATOM     11  H   UNL     1       7.628 -13.556  23.677  1.00  0.00     0.293 HD
ENDBRANCH   7  10
BRANCH   4  12
ATOM     12  O   UNL     1       9.433 -18.584  20.531  1.00  0.00    -0.508 OA
ATOM     13  H   UNL     1       9.062 -18.922  19.652  1.00  0.00     0.293 HD
ENDBRANCH   4  12
TORSDOF 2
ENDMDL
MODEL 9
REMARK VINA RESULT:    -4.165     12.925     13.354
REMARK INTER + INTRA:          -4.408
REMARK INTER:                  -4.408
REMARK INTRA:                   0.000
REMARK UNBOUND:                 0.000
REMARK SMILES Cc1cc(O)c(C)c(C)c1O
REMARK SMILES IDX 1 1 2 2 3 3 4 4 6 5 8 6 10 7 9 8 7 9 11 10 5 12
REMARK H PARENT 11 11 5 13
REMARK Flexibility Score: inf
ROOT
ATOM      1  C   UNL     1      10.120 -28.591  17.521  1.00  0.00     0.048 C 
ATOM      2  C   UNL     1       9.374 -27.556  16.725  1.00  0.00    -0.005 A 
ATOM      3  C   UNL     1      10.026 -26.857  15.705  1.00  0.00     0.053 A 
ATOM      4  C   UNL     1       9.346 -25.918  14.930  1.00  0.00     0.119 A 
ATOM      5  C   UNL     1       7.971 -25.673  15.158  1.00  0.00    -0.003 A 
ATOM      6  C   UNL     1       7.333 -26.287  16.273  1.00  0.00    -0.002 A 
ATOM      7  C   UNL     1       8.025 -27.284  17.007  1.00  0.00     0.121 A 
ATOM      8  C   UNL     1       5.926 -25.903  16.674  1.00  0.00     0.049 C 
ATOM      9  C   UNL     1       7.209 -24.754  14.229  1.00  0.00     0.049 C 
ENDROOT
BRANCH   7  10
ATOM     10  O   UNL     1       7.399 -28.027  18.013  1.00  0.00    -0.507 OA
ATOM     11  H   UNL     1       7.899 -28.567  18.707  1.00  0.00     0.293 HD
ENDBRANCH   7  10
BRANCH   4  12
ATOM     12  O   UNL     1      10.076 -25.240  13.950  1.00  0.00    -0.508 OA
ATOM     13  H   UNL     1      10.797 -24.562  14.157  1.00  0.00     0.293 HD
ENDBRANCH   4  12
TORSDOF 2
ENDMDL
