MODEL 1
REMARK VINA RESULT:    -3.649      0.000      0.000
REMARK INTER + INTRA:          -3.999
REMARK INTER:                  -3.969
REMARK INTRA:                  -0.029
REMARK UNBOUND:                -0.029
REMARK SMILES O=C([O-])c1ccc(O)cc1
REMARK SMILES IDX 4 1 5 2 10 3 6 4 9 5 7 6 2 7 1 8 3 9 8 10
REMARK H PARENT 8 11
REMARK Flexibility Score: inf
ROOT
ATOM      1  C   UNL     1       7.274  12.263   7.776  1.00  0.00    -0.003 A 
ATOM      2  C   UNL     1       6.681  13.538   7.742  1.00  0.00     0.014 A 
ATOM      3  C   UNL     1       6.447  11.126   7.754  1.00  0.00     0.014 A 
ATOM      4  C   UNL     1       5.289  13.671   7.688  1.00  0.00     0.047 A 
ATOM      5  C   UNL     1       5.056  11.263   7.701  1.00  0.00     0.047 A 
ATOM      6  C   UNL     1       4.474  12.533   7.667  1.00  0.00     0.115 A 
ENDROOT
BRANCH   1   7
ATOM      7  C   UNL     1       8.745  12.116   7.833  1.00  0.00     0.071 C 
ATOM      8  O   UNL     1       9.474  12.619   6.938  1.00  0.00    -0.545 OA
ATOM      9  O   UNL     1       9.343  11.419   8.877  1.00  0.00    -0.545 OA
ENDBRANCH   1   7
BRANCH   6  10
ATOM     10  O   UNL     1       3.086  12.653   7.614  1.00  0.00    -0.508 OA
ATOM     11  H   UNL     1       2.641  13.449   7.172  1.00  0.00     0.293 HD
ENDBRANCH   6  10
TORSDOF 2
ENDMDL
MODEL 2
REMARK VINA RESULT:    -3.649      0.035      1.532
REMARK INTER + INTRA:          -3.998
REMARK INTER:                  -3.969
REMARK INTRA:                  -0.029
REMARK UNBOUND:                -0.029
REMARK SMILES O=C([O-])c1ccc(O)cc1
REMARK SMILES IDX 4 1 5 2 10 3 6 4 9 5 7 6 2 7 1 8 3 9 8 10
REMARK H PARENT 8 11
REMARK Flexibility Score: inf
ROOT
ATOM      1  C   UNL     1       7.296  12.236   7.772  1.00  0.00    -0.003 A 
ATOM      2  C   UNL     1       6.461  11.105   7.750  1.00  0.00     0.014 A 
ATOM      3  C   UNL     1       6.712  13.515   7.740  1.00  0.00     0.014 A 
ATOM      4  C   UNL     1       5.071  11.251   7.697  1.00  0.00     0.047 A 
ATOM      5  C   UNL     1       5.322  13.658   7.687  1.00  0.00     0.047 A 
ATOM      6  C   UNL     1       4.499  12.529   7.665  1.00  0.00     0.115 A 
ENDROOT
BRANCH   1   7
ATOM      7  C   UNL     1       8.767  12.087   7.829  1.00  0.00     0.071 C 
ATOM      8  O   UNL     1       9.497  12.600   6.940  1.00  0.00    -0.545 OA
ATOM      9  O   UNL     1       9.363  11.378   8.865  1.00  0.00    -0.545 OA
ENDBRANCH   1   7
BRANCH   6  10
ATOM     10  O   UNL     1       3.115  12.687   7.612  1.00  0.00    -0.508 OA
ATOM     11  H   UNL     1       2.542  12.622   8.445  1.00  0.00     0.293 HD
ENDBRANCH   6  10
TORSDOF 2
ENDMDL
MODEL 3
REMARK VINA RESULT:    -3.589      1.753      4.214
REMARK INTER + INTRA:          -3.933
REMARK INTER:                  -3.905
REMARK INTRA:                  -0.028
REMARK UNBOUND:                -0.029
REMARK SMILES O=C([O-])c1ccc(O)cc1
REMARK SMILES IDX 4 1 5 2 10 3 6 4 9 5 7 6 2 7 1 8 3 9 8 10
REMARK H PARENT 8 11
REMARK Flexibility Score: inf
ROOT
ATOM      1  C   UNL     1       6.512  11.375   7.868  1.00  0.00    -0.003 A 
ATOM      2  C   UNL     1       7.785  10.828   7.622  1.00  0.00     0.014 A 
ATOM      3  C   UNL     1       6.329  12.762   7.731  1.00  0.00     0.014 A 
ATOM      4  C   UNL     1       8.850  11.654   7.246  1.00  0.00     0.047 A 
ATOM      5  C   UNL     1       7.396  13.584   7.356  1.00  0.00     0.047 A 
ATOM      6  C   UNL     1       8.657  13.034   7.113  1.00  0.00     0.115 A 
ENDROOT
BRANCH   1   7
ATOM      7  C   UNL     1       5.382  10.506   8.266  1.00  0.00     0.071 C 
ATOM      8  O   UNL     1       5.404   9.888   9.362  1.00  0.00    -0.545 OA
ATOM      9  O   UNL     1       4.279  10.362   7.432  1.00  0.00    -0.545 OA
ENDBRANCH   1   7
BRANCH   6  10
ATOM     10  O   UNL     1       9.711  13.866   6.739  1.00  0.00    -0.508 OA
ATOM     11  H   UNL     1      10.209  13.731   5.868  1.00  0.00     0.293 HD
ENDBRANCH   6  10
TORSDOF 2
ENDMDL
MODEL 4
REMARK VINA RESULT:    -3.488      1.891      3.840
REMARK INTER + INTRA:          -3.824
REMARK INTER:                  -3.796
REMARK INTRA:                  -0.027
REMARK UNBOUND:                -0.029
REMARK SMILES O=C([O-])c1ccc(O)cc1
REMARK SMILES IDX 4 1 5 2 10 3 6 4 9 5 7 6 2 7 1 8 3 9 8 10
REMARK H PARENT 8 11
REMARK Flexibility Score: inf
ROOT
ATOM      1  C   UNL     1       6.513  11.270   7.882  1.00  0.00    -0.003 A 
ATOM      2  C   UNL     1       6.249  12.652   7.875  1.00  0.00     0.014 A 
ATOM      3  C   UNL     1       7.791  10.819   7.505  1.00  0.00     0.014 A 
ATOM      4  C   UNL     1       7.243  13.561   7.500  1.00  0.00     0.047 A 
ATOM      5  C   UNL     1       8.782  11.731   7.130  1.00  0.00     0.047 A 
ATOM      6  C   UNL     1       8.512  13.102   7.126  1.00  0.00     0.115 A 
ENDROOT
BRANCH   1   7
ATOM      7  C   UNL     1       5.466  10.303   8.278  1.00  0.00     0.071 C 
ATOM      8  O   UNL     1       4.506  10.046   7.505  1.00  0.00    -0.545 OA
ATOM      9  O   UNL     1       5.528   9.664   9.511  1.00  0.00    -0.545 OA
ENDBRANCH   1   7
BRANCH   6  10
ATOM     10  O   UNL     1       9.510  14.000   6.750  1.00  0.00    -0.508 OA
ATOM     11  H   UNL     1       9.468  14.500   5.870  1.00  0.00     0.293 HD
ENDBRANCH   6  10
TORSDOF 2
ENDMDL
MODEL 5
REMARK VINA RESULT:    -3.407      3.301      4.679
REMARK INTER + INTRA:          -3.735
REMARK INTER:                  -3.704
REMARK INTRA:                  -0.031
REMARK UNBOUND:                -0.029
REMARK SMILES O=C([O-])c1ccc(O)cc1
REMARK SMILES IDX 4 1 5 2 10 3 6 4 9 5 7 6 2 7 1 8 3 9 8 10
REMARK H PARENT 8 11
REMARK Flexibility Score: inf
ROOT
ATOM      1  C   UNL     1       8.881  10.358   6.900  1.00  0.00    -0.003 A 
ATOM      2  C   UNL     1       9.698   9.987   5.817  1.00  0.00     0.014 A 
ATOM      3  C   UNL     1       7.797   9.534   7.250  1.00  0.00     0.014 A 
ATOM      4  C   UNL     1       9.435   8.814   5.101  1.00  0.00     0.047 A 
ATOM      5  C   UNL     1       7.537   8.363   6.531  1.00  0.00     0.047 A 
ATOM      6  C   UNL     1       8.353   8.000   5.457  1.00  0.00     0.115 A 
ENDROOT
BRANCH   1   7
ATOM      7  C   UNL     1       9.155  11.597   7.662  1.00  0.00     0.071 C 
ATOM      8  O   UNL     1       9.163  11.586   8.921  1.00  0.00    -0.545 OA
ATOM      9  O   UNL     1       9.406  12.791   6.996  1.00  0.00    -0.545 OA
ENDBRANCH   1   7
BRANCH   6  10
ATOM     10  O   UNL     1       8.081   6.830   4.750  1.00  0.00    -0.508 OA
ATOM     11  H   UNL     1       7.414   6.815   3.988  1.00  0.00     0.293 HD
ENDBRANCH   6  10
TORSDOF 2
ENDMDL
MODEL 6
REMARK VINA RESULT:    -3.406      3.236      4.703
REMARK INTER + INTRA:          -3.734
REMARK INTER:                  -3.703
REMARK INTRA:                  -0.031
REMARK UNBOUND:                -0.029
REMARK SMILES O=C([O-])c1ccc(O)cc1
REMARK SMILES IDX 4 1 5 2 10 3 6 4 9 5 7 6 2 7 1 8 3 9 8 10
REMARK H PARENT 8 11
REMARK Flexibility Score: inf
ROOT
ATOM      1  C   UNL     1       8.846  10.433   6.936  1.00  0.00    -0.003 A 
ATOM      2  C   UNL     1       7.780   9.590   7.300  1.00  0.00     0.014 A 
ATOM      3  C   UNL     1       9.663  10.068   5.852  1.00  0.00     0.014 A 
ATOM      4  C   UNL     1       7.539   8.408   6.593  1.00  0.00     0.047 A 
ATOM      5  C   UNL     1       9.419   8.886   5.147  1.00  0.00     0.047 A 
ATOM      6  C   UNL     1       8.358   8.054   5.514  1.00  0.00     0.115 A 
ENDROOT
BRANCH   1   7
ATOM      7  C   UNL     1       9.106  11.685   7.681  1.00  0.00     0.071 C 
ATOM      8  O   UNL     1       9.049  11.706   8.939  1.00  0.00    -0.545 OA
ATOM      9  O   UNL     1       9.417  12.857   7.001  1.00  0.00    -0.545 OA
ENDBRANCH   1   7
BRANCH   6  10
ATOM     10  O   UNL     1       8.127   6.877   4.802  1.00  0.00    -0.508 OA
ATOM     11  H   UNL     1       7.918   6.006   5.274  1.00  0.00     0.293 HD
ENDBRANCH   6  10
TORSDOF 2
ENDMDL
MODEL 7
REMARK VINA RESULT:    -3.263      0.859      4.588
REMARK INTER + INTRA:          -3.579
REMARK INTER:                  -3.547
REMARK INTRA:                  -0.032
REMARK UNBOUND:                -0.029
REMARK SMILES O=C([O-])c1ccc(O)cc1
REMARK SMILES IDX 4 1 5 2 10 3 6 4 9 5 7 6 2 7 1 8 3 9 8 10
REMARK H PARENT 8 11
REMARK Flexibility Score: inf
ROOT
ATOM      1  C   UNL     1       5.055  12.715   7.751  1.00  0.00    -0.003 A 
ATOM      2  C   UNL     1       5.551  11.399   7.750  1.00  0.00     0.014 A 
ATOM      3  C   UNL     1       5.966  13.787   7.770  1.00  0.00     0.014 A 
ATOM      4  C   UNL     1       6.930  11.162   7.767  1.00  0.00     0.047 A 
ATOM      5  C   UNL     1       7.343  13.545   7.788  1.00  0.00     0.047 A 
ATOM      6  C   UNL     1       7.829  12.235   7.787  1.00  0.00     0.115 A 
ENDROOT
BRANCH   1   7
ATOM      7  C   UNL     1       3.598  12.972   7.732  1.00  0.00     0.071 C 
ATOM      8  O   UNL     1       2.813  12.259   8.410  1.00  0.00    -0.545 OA
ATOM      9  O   UNL     1       3.076  14.006   6.963  1.00  0.00    -0.545 OA
ENDBRANCH   1   7
BRANCH   6  10
ATOM     10  O   UNL     1       9.204  12.010   7.805  1.00  0.00    -0.508 OA
ATOM     11  H   UNL     1       9.589  11.105   8.047  1.00  0.00     0.293 HD
ENDBRANCH   6  10
TORSDOF 2
ENDMDL
MODEL 8
REMARK VINA RESULT:    -3.234      3.567      5.665
REMARK INTER + INTRA:          -3.547
REMARK INTER:                  -3.520
REMARK INTRA:                  -0.027
REMARK UNBOUND:                -0.029
REMARK SMILES O=C([O-])c1ccc(O)cc1
REMARK SMILES IDX 4 1 5 2 10 3 6 4 9 5 7 6 2 7 1 8 3 9 8 10
REMARK H PARENT 8 11
REMARK Flexibility Score: inf
ROOT
ATOM      1  C   UNL     1       9.132  10.097   7.208  1.00  0.00    -0.003 A 
ATOM      2  C   UNL     1       9.692  10.155   5.919  1.00  0.00     0.014 A 
ATOM      3  C   UNL     1       9.460   9.016   8.046  1.00  0.00     0.014 A 
ATOM      4  C   UNL     1      10.563   9.152   5.480  1.00  0.00     0.047 A 
ATOM      5  C   UNL     1      10.330   8.016   7.603  1.00  0.00     0.047 A 
ATOM      6  C   UNL     1      10.883   8.080   6.321  1.00  0.00     0.115 A 
ENDROOT
BRANCH   1   7
ATOM      7  C   UNL     1       8.210  11.155   7.678  1.00  0.00     0.071 C 
ATOM      8  O   UNL     1       6.969  11.052   7.494  1.00  0.00    -0.545 OA
ATOM      9  O   UNL     1       8.705  12.279   8.331  1.00  0.00    -0.545 OA
ENDBRANCH   1   7
BRANCH   6  10
ATOM     10  O   UNL     1      11.749   7.074   5.894  1.00  0.00    -0.508 OA
ATOM     11  H   UNL     1      11.827   6.824   4.915  1.00  0.00     0.293 HD
ENDBRANCH   6  10
TORSDOF 2
ENDMDL
MODEL 9
REMARK VINA RESULT:    -3.156      3.691      4.967
REMARK INTER + INTRA:          -3.462
REMARK INTER:                  -3.428
REMARK INTRA:                  -0.034
REMARK UNBOUND:                -0.029
REMARK SMILES O=C([O-])c1ccc(O)cc1
REMARK SMILES IDX 4 1 5 2 10 3 6 4 9 5 7 6 2 7 1 8 3 9 8 10
REMARK H PARENT 8 11
REMARK Flexibility Score: inf
ROOT
ATOM      1  C   UNL     1       9.043  10.561   8.677  1.00  0.00    -0.003 A 
ATOM      2  C   UNL     1       9.368   9.209   8.467  1.00  0.00     0.014 A 
ATOM      3  C   UNL     1       9.098  11.452   7.589  1.00  0.00     0.014 A 
ATOM      4  C   UNL     1       9.739   8.759   7.195  1.00  0.00     0.047 A 
ATOM      5  C   UNL     1       9.469  10.998   6.320  1.00  0.00     0.047 A 
ATOM      6  C   UNL     1       9.790   9.653   6.119  1.00  0.00     0.115 A 
ENDROOT
BRANCH   1   7
ATOM      7  C   UNL     1       8.650  11.044  10.019  1.00  0.00     0.071 C 
ATOM      8  O   UNL     1       8.175  10.248  10.872  1.00  0.00    -0.545 OA
ATOM      9  O   UNL     1       8.799  12.384  10.357  1.00  0.00    -0.545 OA
ENDBRANCH   1   7
BRANCH   6  10
ATOM     10  O   UNL     1      10.159   9.215   4.848  1.00  0.00    -0.508 OA
ATOM     11  H   UNL     1       9.676   8.452   4.390  1.00  0.00     0.293 HD
ENDBRANCH   6  10
TORSDOF 2
ENDMDL
