MODEL 1
REMARK VINA RESULT:    -1.850      0.000      0.000
REMARK INTER + INTRA:          -2.813
REMARK INTER:                  -2.498
REMARK INTRA:                  -0.315
REMARK UNBOUND:                -0.315
REMARK SMILES C=C1C(=O)O[C@H]2[C@H]1CCC(C)=CCC[C@@]1(C)O[C@@H]21
REMARK SMILES IDX 6 1 7 2 2 3 1 4 3 5 4 6 5 7 8 8 9 9 10 10 11 11 12 12 18 14
REMARK SMILES IDX 15 15 17 16 16 17 14 18 13 19
REMARK H PARENT
REMARK Flexibility Score: 70.00
ROOT
ATOM      1  C   UNL     1      89.105 181.884 175.080  1.00  0.00     0.216 C 
ATOM      2  C   UNL     1      89.992 183.070 175.626  1.00  0.00     0.070 C 
ATOM      3  C   UNL     1      89.088 183.733 176.625  1.00  0.00     0.037 C 
ATOM      4  C   UNL     1      89.439 184.695 177.478  1.00  0.00     0.021 C 
ATOM      5  C   UNL     1      87.794 183.111 176.547  1.00  0.00     0.334 C 
ATOM      6  O   UNL     1      86.776 183.445 177.210  1.00  0.00    -0.247 OA
ATOM      7  O   UNL     1      87.808 182.077 175.640  1.00  0.00    -0.455 OA
ENDROOT
BRANCH   2   8
ATOM      8  C   UNL     1      90.391 184.073 174.501  1.00  0.00     0.017 C 
BRANCH   8   9
ATOM      9  C   UNL     1      91.523 183.635 173.532  1.00  0.00     0.031 C 
BRANCH   9  10
ATOM     10  C   UNL     1      91.130 183.234 172.117  1.00  0.00    -0.077 C 
ATOM     11  C   UNL     1      90.717 184.309 171.143  1.00  0.00     0.039 C 
ATOM     12  C   UNL     1      91.037 181.949 171.707  1.00  0.00    -0.028 CG0
ATOM     13  G   UNL     1      91.512 180.759 172.495  1.00  0.00     0.000 G0
ENDBRANCH   9  10
ENDBRANCH   8   9
ENDBRANCH   2   8
BRANCH   1  14
ATOM     14  C   UNL     1      89.599 180.491 175.515  1.00  0.00     0.192 C 
ATOM     15  C   UNL     1      90.196 179.546 174.516  1.00  0.00     0.096 C 
ATOM     16  O   UNL     1      90.994 180.330 175.367  1.00  0.00    -0.362 OA
ATOM     17  C   UNL     1      90.215 178.071 174.923  1.00  0.00     0.045 C 
BRANCH  15  18
ATOM     18  C   UNL     1      90.353 179.860 172.995  1.00  0.00     0.042 C 
BRANCH  18  19
ATOM     19  C   UNL     1      91.510 180.760 172.491  1.00  0.00     0.030 CG0
ATOM     20  G   UNL     1      91.040 181.958 171.713  1.00  0.00     0.000 G0
ENDBRANCH  18  19
ENDBRANCH  15  18
ENDBRANCH   1  14
TORSDOF 0
ENDMDL
MODEL 2
REMARK VINA RESULT:    -1.837      1.767      3.840
REMARK INTER + INTRA:          -2.796
REMARK INTER:                  -2.497
REMARK INTRA:                  -0.300
REMARK UNBOUND:                -0.315
REMARK SMILES C=C1C(=O)O[C@H]2[C@H]1CCC(C)=CCC[C@@]1(C)O[C@@H]21
REMARK SMILES IDX 6 1 7 2 2 3 1 4 3 5 4 6 5 7 8 8 9 9 10 10 11 11 12 12 18 14
REMARK SMILES IDX 15 15 17 16 16 17 14 18 13 19
REMARK H PARENT
REMARK Flexibility Score: 70.00
ROOT
ATOM      1  C   UNL     1      89.678 183.291 175.825  1.00  0.00     0.216 C 
ATOM      2  C   UNL     1      88.144 182.949 175.673  1.00  0.00     0.070 C 
ATOM      3  C   UNL     1      87.507 183.774 176.754  1.00  0.00     0.037 C 
ATOM      4  C   UNL     1      86.199 183.956 176.930  1.00  0.00     0.021 C 
ATOM      5  C   UNL     1      88.552 184.385 177.532  1.00  0.00     0.334 C 
ATOM      6  O   UNL     1      88.384 185.109 178.549  1.00  0.00    -0.247 OA
ATOM      7  O   UNL     1      89.787 184.078 177.010  1.00  0.00    -0.455 OA
ENDROOT
BRANCH   2   8
ATOM      8  C   UNL     1      87.853 181.434 175.900  1.00  0.00     0.017 C 
BRANCH   8   9
ATOM      9  C   UNL     1      88.375 180.446 174.822  1.00  0.00     0.031 C 
BRANCH   9  10
ATOM     10  C   UNL     1      89.630 179.644 175.142  1.00  0.00    -0.077 C 
ATOM     11  C   UNL     1      89.553 178.557 176.184  1.00  0.00     0.039 C 
ATOM     12  C   UNL     1      90.842 179.917 174.609  1.00  0.00    -0.028 CG0
ATOM     13  G   UNL     1      91.088 180.882 173.482  1.00  0.00     0.000 G0
ENDBRANCH   9  10
ENDBRANCH   8   9
ENDBRANCH   2   8
BRANCH   1  14
ATOM     14  C   UNL     1      90.245 184.123 174.659  1.00  0.00     0.192 C 
ATOM     15  C   UNL     1      91.296 183.553 173.754  1.00  0.00     0.096 C 
ATOM     16  O   UNL     1      89.937 183.578 173.393  1.00  0.00    -0.362 OA
ATOM     17  C   UNL     1      92.113 184.572 172.957  1.00  0.00     0.045 C 
BRANCH  15  18
ATOM     18  C   UNL     1      91.907 182.125 173.909  1.00  0.00     0.042 C 
BRANCH  18  19
ATOM     19  C   UNL     1      91.101 180.872 173.482  1.00  0.00     0.030 CG0
ATOM     20  G   UNL     1      90.842 179.913 174.611  1.00  0.00     0.000 G0
ENDBRANCH  18  19
ENDBRANCH  15  18
ENDBRANCH   1  14
TORSDOF 0
ENDMDL
MODEL 3
REMARK VINA RESULT:    -1.789      2.295      3.553
REMARK INTER + INTRA:          -2.731
REMARK INTER:                  -2.419
REMARK INTRA:                  -0.312
REMARK UNBOUND:                -0.315
REMARK SMILES C=C1C(=O)O[C@H]2[C@H]1CCC(C)=CCC[C@@]1(C)O[C@@H]21
REMARK SMILES IDX 6 1 7 2 2 3 1 4 3 5 4 6 5 7 8 8 9 9 10 10 11 11 12 12 18 14
REMARK SMILES IDX 15 15 17 16 16 17 14 18 13 19
REMARK H PARENT
REMARK Flexibility Score: 70.00
ROOT
ATOM      1  C   UNL     1      89.076 179.923 173.582  1.00  0.00     0.216 C 
ATOM      2  C   UNL     1      90.124 179.563 174.707  1.00  0.00     0.070 C 
ATOM      3  C   UNL     1      89.279 178.887 175.749  1.00  0.00     0.037 C 
ATOM      4  C   UNL     1      89.731 178.252 176.829  1.00  0.00     0.021 C 
ATOM      5  C   UNL     1      87.901 178.990 175.351  1.00  0.00     0.334 C 
ATOM      6  O   UNL     1      86.912 178.573 176.009  1.00  0.00    -0.247 OA
ATOM      7  O   UNL     1      87.795 179.609 174.127  1.00  0.00    -0.455 OA
ENDROOT
BRANCH   2   8
ATOM      8  C   UNL     1      90.810 180.831 175.300  1.00  0.00     0.017 C 
BRANCH   8   9
ATOM      9  C   UNL     1      91.804 181.591 174.380  1.00  0.00     0.031 C 
BRANCH   9  10
ATOM     10  C   UNL     1      91.331 182.890 173.742  1.00  0.00    -0.077 C 
ATOM     11  C   UNL     1      91.138 184.103 174.618  1.00  0.00     0.039 C 
ATOM     12  C   UNL     1      90.978 182.994 172.441  1.00  0.00    -0.028 CG0
ATOM     13  G   UNL     1      91.207 181.931 171.401  1.00  0.00     0.000 G0
ENDBRANCH   9  10
ENDBRANCH   8   9
ENDBRANCH   2   8
BRANCH   1  14
ATOM     14  C   UNL     1      89.248 179.101 172.290  1.00  0.00     0.192 C 
ATOM     15  C   UNL     1      89.644 179.768 171.008  1.00  0.00     0.096 C 
ATOM     16  O   UNL     1      90.578 179.094 171.815  1.00  0.00    -0.362 OA
ATOM     17  C   UNL     1      89.336 178.988 169.728  1.00  0.00     0.045 C 
BRANCH  15  18
ATOM     18  C   UNL     1      89.894 181.301 170.857  1.00  0.00     0.042 C 
BRANCH  18  19
ATOM     19  C   UNL     1      91.202 181.943 171.385  1.00  0.00     0.030 CG0
ATOM     20  G   UNL     1      90.970 183.001 172.429  1.00  0.00     0.000 G0
ENDBRANCH  18  19
ENDBRANCH  15  18
ENDBRANCH   1  14
TORSDOF 0
ENDMDL
MODEL 4
REMARK VINA RESULT:    -1.779      2.882      5.769
REMARK INTER + INTRA:          -2.718
REMARK INTER:                  -2.420
REMARK INTRA:                  -0.297
REMARK UNBOUND:                -0.315
REMARK SMILES C=C1C(=O)O[C@H]2[C@H]1CCC(C)=CCC[C@@]1(C)O[C@@H]21
REMARK SMILES IDX 6 1 7 2 2 3 1 4 3 5 4 6 5 7 8 8 9 9 10 10 11 11 12 12 18 14
REMARK SMILES IDX 15 15 17 16 16 17 14 18 13 19
REMARK H PARENT
REMARK Flexibility Score: 70.00
ROOT
ATOM      1  C   UNL     1      89.220 181.032 174.416  1.00  0.00     0.216 C 
ATOM      2  C   UNL     1      88.763 180.182 175.666  1.00  0.00     0.070 C 
ATOM      3  C   UNL     1      89.562 178.919 175.524  1.00  0.00     0.037 C 
ATOM      4  C   UNL     1      89.651 177.945 176.428  1.00  0.00     0.021 C 
ATOM      5  C   UNL     1      90.265 178.967 174.270  1.00  0.00     0.334 C 
ATOM      6  O   UNL     1      90.996 178.055 173.801  1.00  0.00    -0.247 OA
ATOM      7  O   UNL     1      90.038 180.165 173.633  1.00  0.00    -0.455 OA
ENDROOT
BRANCH   2   8
ATOM      8  C   UNL     1      87.236 179.868 175.638  1.00  0.00     0.017 C 
BRANCH   8   9
ATOM      9  C   UNL     1      86.344 180.602 176.675  1.00  0.00     0.031 C 
BRANCH   9  10
ATOM     10  C   UNL     1      85.337 181.618 176.154  1.00  0.00    -0.077 C 
ATOM     11  C   UNL     1      83.929 181.163 175.862  1.00  0.00     0.039 C 
ATOM     12  C   UNL     1      85.660 182.894 175.845  1.00  0.00    -0.028 CG0
ATOM     13  G   UNL     1      86.974 183.551 176.170  1.00  0.00     0.000 G0
ENDBRANCH   9  10
ENDBRANCH   8   9
ENDBRANCH   2   8
BRANCH   1  14
ATOM     14  C   UNL     1      90.065 182.266 174.782  1.00  0.00     0.192 C 
ATOM     15  C   UNL     1      89.412 183.590 175.045  1.00  0.00     0.096 C 
ATOM     16  O   UNL     1      89.813 182.738 176.089  1.00  0.00    -0.362 OA
ATOM     17  C   UNL     1      90.321 184.816 174.933  1.00  0.00     0.045 C 
BRANCH  15  18
ATOM     18  C   UNL     1      87.874 183.841 174.957  1.00  0.00     0.042 C 
BRANCH  18  19
ATOM     19  C   UNL     1      86.960 183.572 176.180  1.00  0.00     0.030 CG0
ATOM     20  G   UNL     1      85.659 182.908 175.820  1.00  0.00     0.000 G0
ENDBRANCH  18  19
ENDBRANCH  15  18
ENDBRANCH   1  14
TORSDOF 0
ENDMDL
MODEL 5
REMARK VINA RESULT:    -1.661      1.809      2.741
REMARK INTER + INTRA:          -2.558
REMARK INTER:                  -2.210
REMARK INTRA:                  -0.348
REMARK UNBOUND:                -0.315
REMARK SMILES C=C1C(=O)O[C@H]2[C@H]1CCC(C)=CCC[C@@]1(C)O[C@@H]21
REMARK SMILES IDX 6 1 7 2 2 3 1 4 3 5 4 6 5 7 8 8 9 9 10 10 11 11 12 12 18 14
REMARK SMILES IDX 15 15 17 16 16 17 14 18 13 19
REMARK H PARENT
REMARK Flexibility Score: 70.00
ROOT
ATOM      1  C   UNL     1      89.457 181.501 174.394  1.00  0.00     0.216 C 
ATOM      2  C   UNL     1      90.777 182.154 173.825  1.00  0.00     0.070 C 
ATOM      3  C   UNL     1      90.660 183.585 174.265  1.00  0.00     0.037 C 
ATOM      4  C   UNL     1      91.611 184.513 174.166  1.00  0.00     0.021 C 
ATOM      5  C   UNL     1      89.366 183.770 174.866  1.00  0.00     0.334 C 
ATOM      6  O   UNL     1      88.908 184.857 175.306  1.00  0.00    -0.247 OA
ATOM      7  O   UNL     1      88.677 182.580 174.907  1.00  0.00    -0.455 OA
ENDROOT
BRANCH   2   8
ATOM      8  C   UNL     1      90.855 182.065 172.270  1.00  0.00     0.017 C 
BRANCH   8   9
ATOM      9  C   UNL     1      91.451 180.765 171.666  1.00  0.00     0.031 C 
BRANCH   9  10
ATOM     10  C   UNL     1      90.503 179.822 170.936  1.00  0.00    -0.077 C 
ATOM     11  C   UNL     1      90.075 180.165 169.531  1.00  0.00     0.039 C 
ATOM     12  C   UNL     1      89.944 178.735 171.514  1.00  0.00    -0.028 CG0
ATOM     13  G   UNL     1      90.335 178.179 172.855  1.00  0.00     0.000 G0
ENDBRANCH   9  10
ENDBRANCH   8   9
ENDBRANCH   2   8
BRANCH   1  14
ATOM     14  C   UNL     1      89.704 180.513 175.549  1.00  0.00     0.192 C 
ATOM     15  C   UNL     1      89.605 179.034 175.324  1.00  0.00     0.096 C 
ATOM     16  O   UNL     1      90.842 179.701 175.347  1.00  0.00    -0.362 OA
ATOM     17  C   UNL     1      89.400 178.181 176.579  1.00  0.00     0.045 C 
BRANCH  15  18
ATOM     18  C   UNL     1      89.239 178.377 173.957  1.00  0.00     0.042 C 
BRANCH  18  19
ATOM     19  C   UNL     1      90.323 178.161 172.870  1.00  0.00     0.030 CG0
ATOM     20  G   UNL     1      89.954 178.742 171.533  1.00  0.00     0.000 G0
ENDBRANCH  18  19
ENDBRANCH  15  18
ENDBRANCH   1  14
TORSDOF 0
ENDMDL
MODEL 6
REMARK VINA RESULT:    -1.596      2.036      4.049
REMARK INTER + INTRA:          -2.471
REMARK INTER:                  -2.132
REMARK INTRA:                  -0.339
REMARK UNBOUND:                -0.315
REMARK SMILES C=C1C(=O)O[C@H]2[C@H]1CCC(C)=CCC[C@@]1(C)O[C@@H]21
REMARK SMILES IDX 6 1 7 2 2 3 1 4 3 5 4 6 5 7 8 8 9 9 10 10 11 11 12 12 18 14
REMARK SMILES IDX 15 15 17 16 16 17 14 18 13 19
REMARK H PARENT
REMARK Flexibility Score: 70.00
ROOT
ATOM      1  C   UNL     1      89.497 183.494 176.303  1.00  0.00     0.216 C 
ATOM      2  C   UNL     1      87.923 183.562 176.188  1.00  0.00     0.070 C 
ATOM      3  C   UNL     1      87.554 184.581 177.227  1.00  0.00     0.037 C 
ATOM      4  C   UNL     1      86.344 185.110 177.407  1.00  0.00     0.021 C 
ATOM      5  C   UNL     1      88.741 184.934 177.958  1.00  0.00     0.334 C 
ATOM      6  O   UNL     1      88.796 185.727 178.933  1.00  0.00    -0.247 OA
ATOM      7  O   UNL     1      89.839 184.285 177.440  1.00  0.00    -0.455 OA
ENDROOT
BRANCH   2   8
ATOM      8  C   UNL     1      87.250 182.191 176.503  1.00  0.00     0.017 C 
BRANCH   8   9
ATOM      9  C   UNL     1      87.141 181.173 175.337  1.00  0.00     0.031 C 
BRANCH   9  10
ATOM     10  C   UNL     1      88.022 179.932 175.391  1.00  0.00    -0.077 C 
ATOM     11  C   UNL     1      87.627 178.798 176.304  1.00  0.00     0.039 C 
ATOM     12  C   UNL     1      89.199 179.827 174.735  1.00  0.00    -0.028 CG0
ATOM     13  G   UNL     1      89.697 180.799 173.701  1.00  0.00     0.000 G0
ENDBRANCH   9  10
ENDBRANCH   8   9
ENDBRANCH   2   8
BRANCH   1  14
ATOM     14  C   UNL     1      90.232 184.086 175.085  1.00  0.00     0.192 C 
ATOM     15  C   UNL     1      90.898 183.189 174.085  1.00  0.00     0.096 C 
ATOM     16  O   UNL     1      89.626 183.743 173.856  1.00  0.00    -0.362 OA
ATOM     17  C   UNL     1      91.967 183.845 173.210  1.00  0.00     0.045 C 
BRANCH  15  18
ATOM     18  C   UNL     1      90.925 181.631 174.186  1.00  0.00     0.042 C 
BRANCH  18  19
ATOM     19  C   UNL     1      89.717 180.789 173.705  1.00  0.00     0.030 CG0
ATOM     20  G   UNL     1      89.196 179.840 174.750  1.00  0.00     0.000 G0
ENDBRANCH  18  19
ENDBRANCH  15  18
ENDBRANCH   1  14
TORSDOF 0
ENDMDL
MODEL 7
REMARK VINA RESULT:    -1.520      2.739      5.306
REMARK INTER + INTRA:          -2.368
REMARK INTER:                  -2.052
REMARK INTRA:                  -0.316
REMARK UNBOUND:                -0.315
REMARK SMILES C=C1C(=O)O[C@H]2[C@H]1CCC(C)=CCC[C@@]1(C)O[C@@H]21
REMARK SMILES IDX 6 1 7 2 2 3 1 4 3 5 4 6 5 7 8 8 9 9 10 10 11 11 12 12 18 14
REMARK SMILES IDX 15 15 17 16 16 17 14 18 13 19
REMARK H PARENT
REMARK Flexibility Score: 70.00
ROOT
ATOM      1  C   UNL     1      89.875 182.121 173.662  1.00  0.00     0.216 C 
ATOM      2  C   UNL     1      89.619 181.545 175.111  1.00  0.00     0.070 C 
ATOM      3  C   UNL     1      90.104 180.128 174.999  1.00  0.00     0.037 C 
ATOM      4  C   UNL     1      90.249 179.271 176.008  1.00  0.00     0.021 C 
ATOM      5  C   UNL     1      90.443 179.873 173.624  1.00  0.00     0.334 C 
ATOM      6  O   UNL     1      90.841 178.774 173.157  1.00  0.00    -0.247 OA
ATOM      7  O   UNL     1      90.279 181.009 172.866  1.00  0.00    -0.455 OA
ENDROOT
BRANCH   2   8
ATOM      8  C   UNL     1      88.109 181.577 175.498  1.00  0.00     0.017 C 
BRANCH   8   9
ATOM      9  C   UNL     1      87.631 182.761 176.381  1.00  0.00     0.031 C 
BRANCH   9  10
ATOM     10  C   UNL     1      86.685 183.776 175.754  1.00  0.00    -0.077 C 
ATOM     11  C   UNL     1      85.204 183.487 175.752  1.00  0.00     0.039 C 
ATOM     12  C   UNL     1      87.107 184.887 175.109  1.00  0.00    -0.028 CG0
ATOM     13  G   UNL     1      88.523 185.393 175.107  1.00  0.00     0.000 G0
ENDBRANCH   9  10
ENDBRANCH   8   9
ENDBRANCH   2   8
BRANCH   1  14
ATOM     14  C   UNL     1      91.000 183.171 173.604  1.00  0.00     0.192 C 
ATOM     15  C   UNL     1      90.682 184.636 173.643  1.00  0.00     0.096 C 
ATOM     16  O   UNL     1      91.102 183.936 174.787  1.00  0.00    -0.362 OA
ATOM     17  C   UNL     1      91.774 185.569 173.117  1.00  0.00     0.045 C 
BRANCH  15  18
ATOM     18  C   UNL     1      89.235 185.217 173.724  1.00  0.00     0.042 C 
BRANCH  18  19
ATOM     19  C   UNL     1      88.534 185.397 175.094  1.00  0.00     0.030 CG0
ATOM     20  G   UNL     1      87.117 184.892 175.111  1.00  0.00     0.000 G0
ENDBRANCH  18  19
ENDBRANCH  15  18
ENDBRANCH   1  14
TORSDOF 0
ENDMDL
MODEL 8
REMARK VINA RESULT:    -1.517      3.769      6.192
REMARK INTER + INTRA:          -2.365
REMARK INTER:                  -2.082
REMARK INTRA:                  -0.283
REMARK UNBOUND:                -0.315
REMARK SMILES C=C1C(=O)O[C@H]2[C@H]1CCC(C)=CCC[C@@]1(C)O[C@@H]21
REMARK SMILES IDX 6 1 7 2 2 3 1 4 3 5 4 6 5 7 8 8 9 9 10 10 11 11 12 12 18 14
REMARK SMILES IDX 15 15 17 16 16 17 14 18 13 19
REMARK H PARENT
REMARK Flexibility Score: 70.00
ROOT
ATOM      1  C   UNL     1      87.238 183.553 177.873  1.00  0.00     0.216 C 
ATOM      2  C   UNL     1      85.746 183.274 178.308  1.00  0.00     0.070 C 
ATOM      3  C   UNL     1      85.385 184.510 179.080  1.00  0.00     0.037 C 
ATOM      4  C   UNL     1      84.168 184.829 179.521  1.00  0.00     0.021 C 
ATOM      5  C   UNL     1      86.565 185.322 179.212  1.00  0.00     0.334 C 
ATOM      6  O   UNL     1      86.642 186.411 179.841  1.00  0.00    -0.247 OA
ATOM      7  O   UNL     1      87.623 184.751 178.545  1.00  0.00    -0.455 OA
ENDROOT
BRANCH   2   8
ATOM      8  C   UNL     1      85.623 182.010 179.212  1.00  0.00     0.017 C 
BRANCH   8   9
ATOM      9  C   UNL     1      84.944 180.760 178.591  1.00  0.00     0.031 C 
BRANCH   9  10
ATOM     10  C   UNL     1      85.808 179.531 178.343  1.00  0.00    -0.077 C 
ATOM     11  C   UNL     1      85.902 178.478 179.418  1.00  0.00     0.039 C 
ATOM     12  C   UNL     1      86.579 179.374 177.243  1.00  0.00    -0.028 CG0
ATOM     13  G   UNL     1      86.531 180.257 176.027  1.00  0.00     0.000 G0
ENDBRANCH   9  10
ENDBRANCH   8   9
ENDBRANCH   2   8
BRANCH   1  14
ATOM     14  C   UNL     1      87.407 183.791 176.360  1.00  0.00     0.192 C 
ATOM     15  C   UNL     1      87.665 182.643 175.431  1.00  0.00     0.096 C 
ATOM     16  O   UNL     1      86.382 183.197 175.591  1.00  0.00    -0.362 OA
ATOM     17  C   UNL     1      88.273 183.008 174.074  1.00  0.00     0.045 C 
BRANCH  15  18
ATOM     18  C   UNL     1      87.800 181.157 175.888  1.00  0.00     0.042 C 
BRANCH  18  19
ATOM     19  C   UNL     1      86.546 180.257 176.026  1.00  0.00     0.030 CG0
ATOM     20  G   UNL     1      86.581 179.363 177.235  1.00  0.00     0.000 G0
ENDBRANCH  18  19
ENDBRANCH  15  18
ENDBRANCH   1  14
TORSDOF 0
ENDMDL
MODEL 9
REMARK VINA RESULT:    -1.423      2.137      3.382
REMARK INTER + INTRA:          -2.238
REMARK INTER:                  -1.920
REMARK INTRA:                  -0.318
REMARK UNBOUND:                -0.315
REMARK SMILES C=C1C(=O)O[C@H]2[C@H]1CCC(C)=CCC[C@@]1(C)O[C@@H]21
REMARK SMILES IDX 6 1 7 2 2 3 1 4 3 5 4 6 5 7 8 8 9 9 10 10 11 11 12 12 18 14
REMARK SMILES IDX 15 15 17 16 16 17 14 18 13 19
REMARK H PARENT
REMARK Flexibility Score: 70.00
ROOT
ATOM      1  C   UNL     1      88.134 181.181 174.152  1.00  0.00     0.216 C 
ATOM      2  C   UNL     1      87.944 181.240 175.718  1.00  0.00     0.070 C 
ATOM      3  C   UNL     1      86.590 180.622 175.916  1.00  0.00     0.037 C 
ATOM      4  C   UNL     1      86.043 180.295 177.087  1.00  0.00     0.021 C 
ATOM      5  C   UNL     1      86.006 180.387 174.623  1.00  0.00     0.334 C 
ATOM      6  O   UNL     1      84.857 179.920 174.408  1.00  0.00    -0.247 OA
ATOM      7  O   UNL     1      86.885 180.737 173.624  1.00  0.00    -0.455 OA
ENDROOT
BRANCH   2   8
ATOM      8  C   UNL     1      87.960 182.703 176.258  1.00  0.00     0.017 C 
BRANCH   8   9
ATOM      9  C   UNL     1      89.343 183.399 176.371  1.00  0.00     0.031 C 
BRANCH   9  10
ATOM     10  C   UNL     1      89.677 184.484 175.356  1.00  0.00    -0.077 C 
ATOM     11  C   UNL     1      88.995 185.824 175.471  1.00  0.00     0.039 C 
ATOM     12  C   UNL     1      90.486 184.282 174.291  1.00  0.00    -0.028 CG0
ATOM     13  G   UNL     1      91.333 183.059 174.075  1.00  0.00     0.000 G0
ENDBRANCH   9  10
ENDBRANCH   8   9
ENDBRANCH   2   8
BRANCH   1  14
ATOM     14  C   UNL     1      89.214 180.182 173.697  1.00  0.00     0.192 C 
ATOM     15  C   UNL     1      90.503 180.667 173.105  1.00  0.00     0.096 C 
ATOM     16  O   UNL     1      90.404 180.276 174.452  1.00  0.00    -0.362 OA
ATOM     17  C   UNL     1      91.282 179.644 172.274  1.00  0.00     0.045 C 
BRANCH  15  18
ATOM     18  C   UNL     1      90.855 182.171 172.883  1.00  0.00     0.042 C 
BRANCH  18  19
ATOM     19  C   UNL     1      91.334 183.052 174.065  1.00  0.00     0.030 CG0
ATOM     20  G   UNL     1      90.484 184.274 174.283  1.00  0.00     0.000 G0
ENDBRANCH  18  19
ENDBRANCH  15  18
ENDBRANCH   1  14
TORSDOF 0
ENDMDL
