MODEL 1
REMARK VINA RESULT:     3.338      0.000      0.000
REMARK INTER + INTRA:           3.777
REMARK INTER:                   3.533
REMARK INTRA:                   0.244
REMARK UNBOUND:                 0.244
REMARK SMILES C=C1CC[C@@]2(C(C)C)C[C@@H]12
REMARK SMILES IDX 5 1 4 2 3 3 2 4 1 5 10 6 9 7 6 8 7 9 8 10
REMARK H PARENT
REMARK Flexibility Score: inf
ROOT
ATOM      1  C   UNL     1      -0.178   5.992  -9.293  1.00  0.00    -0.020 C 
ATOM      2  C   UNL     1      -1.641   5.667  -9.651  1.00  0.00     0.012 C 
ATOM      3  C   UNL     1      -1.761   5.700 -11.175  1.00  0.00     0.031 C 
ATOM      4  C   UNL     1      -0.373   5.917 -11.666  1.00  0.00    -0.074 C 
ATOM      5  C   UNL     1      -0.046   5.934 -12.962  1.00  0.00     0.008 C 
ATOM      6  C   UNL     1       0.625   6.109 -10.581  1.00  0.00     0.021 C 
ATOM      7  C   UNL     1       0.853   4.918  -9.658  1.00  0.00     0.016 C 
ENDROOT
BRANCH   1   8
ATOM      8  C   UNL     1       0.101   7.053  -8.185  1.00  0.00    -0.011 C 
ATOM      9  C   UNL     1      -1.146   7.765  -7.637  1.00  0.00     0.008 C 
ATOM     10  C   UNL     1       0.920   6.457  -7.030  1.00  0.00     0.008 C 
ENDBRANCH   1   8
TORSDOF 1
ENDMDL
MODEL 2
REMARK VINA RESULT:     3.693      1.346      2.635
REMARK INTER + INTRA:           4.153
REMARK INTER:                   3.943
REMARK INTRA:                   0.209
REMARK UNBOUND:                 0.244
REMARK SMILES C=C1CC[C@@]2(C(C)C)C[C@@H]12
REMARK SMILES IDX 5 1 4 2 3 3 2 4 1 5 10 6 9 7 6 8 7 9 8 10
REMARK H PARENT
REMARK Flexibility Score: inf
ROOT
ATOM      1  C   UNL     1       0.116   5.927 -10.601  1.00  0.00    -0.020 C 
ATOM      2  C   UNL     1       0.602   6.527 -11.934  1.00  0.00     0.012 C 
ATOM      3  C   UNL     1      -0.305   5.991 -13.041  1.00  0.00     0.031 C 
ATOM      4  C   UNL     1      -1.353   5.204 -12.333  1.00  0.00    -0.074 C 
ATOM      5  C   UNL     1      -2.385   4.628 -12.956  1.00  0.00     0.008 C 
ATOM      6  C   UNL     1      -1.150   5.121 -10.863  1.00  0.00     0.021 C 
ATOM      7  C   UNL     1      -1.239   6.435 -10.096  1.00  0.00     0.016 C 
ENDROOT
BRANCH   1   8
ATOM      8  C   UNL     1       1.168   5.301  -9.636  1.00  0.00    -0.011 C 
ATOM      9  C   UNL     1       0.955   5.618  -8.148  1.00  0.00     0.008 C 
ATOM     10  C   UNL     1       1.285   3.782  -9.842  1.00  0.00     0.008 C 
ENDBRANCH   1   8
TORSDOF 1
ENDMDL
MODEL 3
REMARK VINA RESULT:     3.863      1.317      4.006
REMARK INTER + INTRA:           4.332
REMARK INTER:                   3.933
REMARK INTRA:                   0.399
REMARK UNBOUND:                 0.244
REMARK SMILES C=C1CC[C@@]2(C(C)C)C[C@@H]12
REMARK SMILES IDX 5 1 4 2 3 3 2 4 1 5 10 6 9 7 6 8 7 9 8 10
REMARK H PARENT
REMARK Flexibility Score: inf
ROOT
ATOM      1  C   UNL     1      -0.730   5.804 -11.430  1.00  0.00    -0.020 C 
ATOM      2  C   UNL     1      -1.597   6.304 -10.258  1.00  0.00     0.012 C 
ATOM      3  C   UNL     1      -0.818   6.048  -8.968  1.00  0.00     0.031 C 
ATOM      4  C   UNL     1       0.505   5.530  -9.411  1.00  0.00    -0.074 C 
ATOM      5  C   UNL     1       1.504   5.252  -8.570  1.00  0.00     0.008 C 
ATOM      6  C   UNL     1       0.617   5.352 -10.883  1.00  0.00     0.021 C 
ATOM      7  C   UNL     1       0.533   6.621 -11.722  1.00  0.00     0.016 C 
ENDROOT
BRANCH   1   8
ATOM      8  C   UNL     1      -1.393   4.902 -12.517  1.00  0.00    -0.011 C 
ATOM      9  C   UNL     1      -2.923   5.012 -12.608  1.00  0.00     0.008 C 
ATOM     10  C   UNL     1      -0.762   5.133 -13.899  1.00  0.00     0.008 C 
ENDBRANCH   1   8
TORSDOF 1
ENDMDL
MODEL 4
REMARK VINA RESULT:     4.313      0.998      4.161
REMARK INTER + INTRA:           4.809
REMARK INTER:                   4.444
REMARK INTRA:                   0.364
REMARK UNBOUND:                 0.244
REMARK SMILES C=C1CC[C@@]2(C(C)C)C[C@@H]12
REMARK SMILES IDX 5 1 4 2 3 3 2 4 1 5 10 6 9 7 6 8 7 9 8 10
REMARK H PARENT
REMARK Flexibility Score: inf
ROOT
ATOM      1  C   UNL     1      -0.081   5.977  -8.781  1.00  0.00    -0.020 C 
ATOM      2  C   UNL     1       0.761   5.861  -7.496  1.00  0.00     0.012 C 
ATOM      3  C   UNL     1       0.515   7.122  -6.668  1.00  0.00     0.031 C 
ATOM      4  C   UNL     1      -0.534   7.873  -7.411  1.00  0.00    -0.074 C 
ATOM      5  C   UNL     1      -1.078   9.009  -6.966  1.00  0.00     0.008 C 
ATOM      6  C   UNL     1      -0.929   7.239  -8.697  1.00  0.00     0.021 C 
ATOM      7  C   UNL     1      -1.599   5.874  -8.597  1.00  0.00     0.016 C 
ENDROOT
BRANCH   1   8
ATOM      8  C   UNL     1       0.601   5.672 -10.151  1.00  0.00    -0.011 C 
ATOM      9  C   UNL     1       1.312   4.312 -10.234  1.00  0.00     0.008 C 
ATOM     10  C   UNL     1      -0.388   5.824 -11.316  1.00  0.00     0.008 C 
ENDBRANCH   1   8
TORSDOF 1
ENDMDL
MODEL 5
REMARK VINA RESULT:     4.427      0.980      4.114
REMARK INTER + INTRA:           4.930
REMARK INTER:                   4.580
REMARK INTRA:                   0.350
REMARK UNBOUND:                 0.244
REMARK SMILES C=C1CC[C@@]2(C(C)C)C[C@@H]12
REMARK SMILES IDX 5 1 4 2 3 3 2 4 1 5 10 6 9 7 6 8 7 9 8 10
REMARK H PARENT
REMARK Flexibility Score: inf
ROOT
ATOM      1  C   UNL     1      -0.597   5.634 -10.608  1.00  0.00    -0.020 C 
ATOM      2  C   UNL     1       0.742   4.914 -10.355  1.00  0.00     0.012 C 
ATOM      3  C   UNL     1       1.350   5.505  -9.083  1.00  0.00     0.031 C 
ATOM      4  C   UNL     1       0.321   6.449  -8.565  1.00  0.00    -0.074 C 
ATOM      5  C   UNL     1       0.449   7.117  -7.416  1.00  0.00     0.008 C 
ATOM      6  C   UNL     1      -0.871   6.577  -9.444  1.00  0.00     0.021 C 
ATOM      7  C   UNL     1      -1.721   5.323  -9.613  1.00  0.00     0.016 C 
ENDROOT
BRANCH   1   8
ATOM      8  C   UNL     1      -0.896   6.172 -12.041  1.00  0.00    -0.011 C 
ATOM      9  C   UNL     1       0.089   5.710 -13.127  1.00  0.00     0.008 C 
ATOM     10  C   UNL     1      -2.338   5.860 -12.468  1.00  0.00     0.008 C 
ENDBRANCH   1   8
TORSDOF 1
ENDMDL
MODEL 6
REMARK VINA RESULT:     6.064      8.831     10.655
REMARK INTER + INTRA:           6.662
REMARK INTER:                   6.288
REMARK INTRA:                   0.374
REMARK UNBOUND:                 0.244
REMARK SMILES C=C1CC[C@@]2(C(C)C)C[C@@H]12
REMARK SMILES IDX 5 1 4 2 3 3 2 4 1 5 10 6 9 7 6 8 7 9 8 10
REMARK H PARENT
REMARK Flexibility Score: inf
ROOT
ATOM      1  C   UNL     1       9.665   7.875  -7.139  1.00  0.00    -0.020 C 
ATOM      2  C   UNL     1       8.844   6.895  -6.280  1.00  0.00     0.012 C 
ATOM      3  C   UNL     1       7.553   7.606  -5.875  1.00  0.00     0.031 C 
ATOM      4  C   UNL     1       7.591   8.912  -6.590  1.00  0.00    -0.074 C 
ATOM      5  C   UNL     1       6.595   9.801  -6.550  1.00  0.00     0.008 C 
ATOM      6  C   UNL     1       8.842   9.137  -7.361  1.00  0.00     0.021 C 
ATOM      7  C   UNL     1       9.094   8.188  -8.526  1.00  0.00     0.016 C 
ENDROOT
BRANCH   1   8
ATOM      8  C   UNL     1      11.179   8.065  -6.814  1.00  0.00    -0.011 C 
ATOM      9  C   UNL     1      11.780   7.004  -5.879  1.00  0.00     0.008 C 
ATOM     10  C   UNL     1      12.018   8.178  -8.095  1.00  0.00     0.008 C 
ENDBRANCH   1   8
TORSDOF 1
ENDMDL
