MODEL 1
REMARK VINA RESULT:    -4.642      0.000      0.000
REMARK INTER + INTRA:          -4.930
REMARK INTER:                  -4.914
REMARK INTRA:                  -0.016
REMARK UNBOUND:                -0.016
REMARK SMILES O=C([O-])c1cccnc1
REMARK SMILES IDX 4 1 5 2 9 3 6 4 8 5 7 6 2 7 1 8 3 9
REMARK H PARENT
REMARK Flexibility Score: inf
ROOT
ATOM      1  C   UNL     1      11.246  22.001  -8.303  1.00  0.00     0.016 A 
ATOM      2  C   UNL     1      10.672  22.422  -9.515  1.00  0.00     0.013 A 
ATOM      3  C   UNL     1      12.184  22.843  -7.681  1.00  0.00     0.120 A 
ATOM      4  C   UNL     1      11.035  23.647 -10.075  1.00  0.00     0.021 A 
ATOM      5  N   UNL     1      12.521  24.032  -8.249  1.00  0.00    -0.264 NA
ATOM      6  C   UNL     1      11.971  24.448  -9.420  1.00  0.00     0.111 A 
ENDROOT
BRANCH   1   7
ATOM      7  C   UNL     1      10.875  20.706  -7.694  1.00  0.00     0.073 C 
ATOM      8  O   UNL     1       9.880  20.622  -6.926  1.00  0.00    -0.545 OA
ATOM      9  O   UNL     1      11.619  19.562  -7.961  1.00  0.00    -0.545 OA
ENDBRANCH   1   7
TORSDOF 1
ENDMDL
MODEL 2
REMARK VINA RESULT:    -4.422      3.643      4.154
REMARK INTER + INTRA:          -4.697
REMARK INTER:                  -4.681
REMARK INTRA:                  -0.016
REMARK UNBOUND:                -0.016
REMARK SMILES O=C([O-])c1cccnc1
REMARK SMILES IDX 4 1 5 2 9 3 6 4 8 5 7 6 2 7 1 8 3 9
REMARK H PARENT
REMARK Flexibility Score: inf
ROOT
ATOM      1  C   UNL     1       8.679  22.880  -9.391  1.00  0.00     0.016 A 
ATOM      2  C   UNL     1       7.709  22.251 -10.190  1.00  0.00     0.013 A 
ATOM      3  C   UNL     1       8.264  23.897  -8.515  1.00  0.00     0.120 A 
ATOM      4  C   UNL     1       6.371  22.637 -10.104  1.00  0.00     0.021 A 
ATOM      5  N   UNL     1       6.953  24.255  -8.451  1.00  0.00    -0.264 NA
ATOM      6  C   UNL     1       6.008  23.653  -9.219  1.00  0.00     0.111 A 
ENDROOT
BRANCH   1   7
ATOM      7  C   UNL     1      10.101  22.484  -9.467  1.00  0.00     0.073 C 
ATOM      8  O   UNL     1      10.562  21.597  -8.700  1.00  0.00    -0.545 OA
ATOM      9  O   UNL     1      10.952  23.087 -10.388  1.00  0.00    -0.545 OA
ENDBRANCH   1   7
TORSDOF 1
ENDMDL
MODEL 3
REMARK VINA RESULT:    -4.412      4.325      4.986
REMARK INTER + INTRA:          -4.686
REMARK INTER:                  -4.668
REMARK INTRA:                  -0.018
REMARK UNBOUND:                -0.016
REMARK SMILES O=C([O-])c1cccnc1
REMARK SMILES IDX 4 1 5 2 9 3 6 4 8 5 7 6 2 7 1 8 3 9
REMARK H PARENT
REMARK Flexibility Score: inf
ROOT
ATOM      1  C   UNL     1       7.233  23.457  -7.588  1.00  0.00     0.016 A 
ATOM      2  C   UNL     1       6.202  23.427  -8.542  1.00  0.00     0.013 A 
ATOM      3  C   UNL     1       8.497  22.965  -7.956  1.00  0.00     0.120 A 
ATOM      4  C   UNL     1       6.442  22.919  -9.819  1.00  0.00     0.021 A 
ATOM      5  N   UNL     1       8.705  22.475  -9.208  1.00  0.00    -0.264 NA
ATOM      6  C   UNL     1       7.715  22.443 -10.138  1.00  0.00     0.111 A 
ENDROOT
BRANCH   1   7
ATOM      7  C   UNL     1       6.999  23.991  -6.230  1.00  0.00     0.073 C 
ATOM      8  O   UNL     1       7.150  23.257  -5.218  1.00  0.00    -0.545 OA
ATOM      9  O   UNL     1       6.609  25.314  -6.051  1.00  0.00    -0.545 OA
ENDBRANCH   1   7
TORSDOF 1
ENDMDL
MODEL 4
REMARK VINA RESULT:    -4.331      5.677      6.328
REMARK INTER + INTRA:          -4.600
REMARK INTER:                  -4.584
REMARK INTRA:                  -0.016
REMARK UNBOUND:                -0.016
REMARK SMILES O=C([O-])c1cccnc1
REMARK SMILES IDX 4 1 5 2 9 3 6 4 8 5 7 6 2 7 1 8 3 9
REMARK H PARENT
REMARK Flexibility Score: inf
ROOT
ATOM      1  C   UNL     1       6.081  23.522  -7.261  1.00  0.00     0.016 A 
ATOM      2  C   UNL     1       6.749  23.713  -8.483  1.00  0.00     0.013 A 
ATOM      3  C   UNL     1       4.813  22.917  -7.282  1.00  0.00     0.120 A 
ATOM      4  C   UNL     1       6.155  23.306  -9.678  1.00  0.00     0.021 A 
ATOM      5  N   UNL     1       4.256  22.530  -8.461  1.00  0.00    -0.264 NA
ATOM      6  C   UNL     1       4.894  22.710  -9.647  1.00  0.00     0.111 A 
ENDROOT
BRANCH   1   7
ATOM      7  C   UNL     1       6.693  23.946  -5.984  1.00  0.00     0.073 C 
ATOM      8  O   UNL     1       7.279  23.110  -5.246  1.00  0.00    -0.545 OA
ATOM      9  O   UNL     1       6.632  25.275  -5.581  1.00  0.00    -0.545 OA
ENDBRANCH   1   7
TORSDOF 1
ENDMDL
MODEL 5
REMARK VINA RESULT:    -4.278      3.449      3.744
REMARK INTER + INTRA:          -4.544
REMARK INTER:                  -4.521
REMARK INTRA:                  -0.024
REMARK UNBOUND:                -0.016
REMARK SMILES O=C([O-])c1cccnc1
REMARK SMILES IDX 4 1 5 2 9 3 6 4 8 5 7 6 2 7 1 8 3 9
REMARK H PARENT
REMARK Flexibility Score: inf
ROOT
ATOM      1  C   UNL     1       9.055  22.736  -8.177  1.00  0.00     0.016 A 
ATOM      2  C   UNL     1       8.187  23.601  -8.865  1.00  0.00     0.013 A 
ATOM      3  C   UNL     1       8.794  22.470  -6.821  1.00  0.00     0.120 A 
ATOM      4  C   UNL     1       7.098  24.173  -8.206  1.00  0.00     0.021 A 
ATOM      5  N   UNL     1       7.726  23.041  -6.203  1.00  0.00    -0.264 NA
ATOM      6  C   UNL     1       6.881  23.877  -6.859  1.00  0.00     0.111 A 
ENDROOT
BRANCH   1   7
ATOM      7  C   UNL     1      10.213  22.120  -8.857  1.00  0.00     0.073 C 
ATOM      8  O   UNL     1      10.589  22.535  -9.985  1.00  0.00    -0.545 OA
ATOM      9  O   UNL     1      10.907  21.074  -8.258  1.00  0.00    -0.545 OA
ENDBRANCH   1   7
TORSDOF 1
ENDMDL
MODEL 6
REMARK VINA RESULT:    -4.269      2.477      2.977
REMARK INTER + INTRA:          -4.534
REMARK INTER:                  -4.517
REMARK INTRA:                  -0.017
REMARK UNBOUND:                -0.016
REMARK SMILES O=C([O-])c1cccnc1
REMARK SMILES IDX 4 1 5 2 9 3 6 4 8 5 7 6 2 7 1 8 3 9
REMARK H PARENT
REMARK Flexibility Score: inf
ROOT
ATOM      1  C   UNL     1      12.797  22.959  -7.533  1.00  0.00     0.016 A 
ATOM      2  C   UNL     1      12.809  24.181  -8.227  1.00  0.00     0.013 A 
ATOM      3  C   UNL     1      11.834  21.999  -7.889  1.00  0.00     0.120 A 
ATOM      4  C   UNL     1      11.881  24.420  -9.241  1.00  0.00     0.021 A 
ATOM      5  N   UNL     1      10.942  22.258  -8.881  1.00  0.00    -0.264 NA
ATOM      6  C   UNL     1      10.944  23.435  -9.558  1.00  0.00     0.111 A 
ENDROOT
BRANCH   1   7
ATOM      7  C   UNL     1      13.771  22.686  -6.455  1.00  0.00     0.073 C 
ATOM      8  O   UNL     1      13.387  22.547  -5.264  1.00  0.00    -0.545 OA
ATOM      9  O   UNL     1      15.128  22.577  -6.743  1.00  0.00    -0.545 OA
ENDBRANCH   1   7
TORSDOF 1
ENDMDL
MODEL 7
REMARK VINA RESULT:    -4.269      2.261      2.700
REMARK INTER + INTRA:          -4.534
REMARK INTER:                  -4.518
REMARK INTRA:                  -0.016
REMARK UNBOUND:                -0.016
REMARK SMILES O=C([O-])c1cccnc1
REMARK SMILES IDX 4 1 5 2 9 3 6 4 8 5 7 6 2 7 1 8 3 9
REMARK H PARENT
REMARK Flexibility Score: inf
ROOT
ATOM      1  C   UNL     1      10.270  21.714  -7.956  1.00  0.00     0.016 A 
ATOM      2  C   UNL     1       9.880  22.209  -9.212  1.00  0.00     0.013 A 
ATOM      3  C   UNL     1       9.480  22.034  -6.838  1.00  0.00     0.120 A 
ATOM      4  C   UNL     1       8.735  22.997  -9.331  1.00  0.00     0.021 A 
ATOM      5  N   UNL     1       8.368  22.804  -6.982  1.00  0.00    -0.264 NA
ATOM      6  C   UNL     1       7.982  23.287  -8.192  1.00  0.00     0.111 A 
ENDROOT
BRANCH   1   7
ATOM      7  C   UNL     1      11.480  20.878  -7.809  1.00  0.00     0.073 C 
ATOM      8  O   UNL     1      11.406  19.623  -7.894  1.00  0.00    -0.545 OA
ATOM      9  O   UNL     1      12.719  21.466  -7.576  1.00  0.00    -0.545 OA
ENDBRANCH   1   7
TORSDOF 1
ENDMDL
MODEL 8
REMARK VINA RESULT:    -4.246      1.184      2.073
REMARK INTER + INTRA:          -4.511
REMARK INTER:                  -4.495
REMARK INTRA:                  -0.016
REMARK UNBOUND:                -0.016
REMARK SMILES O=C([O-])c1cccnc1
REMARK SMILES IDX 4 1 5 2 9 3 6 4 8 5 7 6 2 7 1 8 3 9
REMARK H PARENT
REMARK Flexibility Score: inf
ROOT
ATOM      1  C   UNL     1      10.780  22.287  -7.847  1.00  0.00     0.016 A 
ATOM      2  C   UNL     1      11.996  22.882  -7.470  1.00  0.00     0.013 A 
ATOM      3  C   UNL     1      10.142  22.754  -9.010  1.00  0.00     0.120 A 
ATOM      4  C   UNL     1      12.544  23.909  -8.239  1.00  0.00     0.021 A 
ATOM      5  N   UNL     1      10.697  23.757  -9.741  1.00  0.00    -0.264 NA
ATOM      6  C   UNL     1      11.873  24.338  -9.385  1.00  0.00     0.111 A 
ENDROOT
BRANCH   1   7
ATOM      7  C   UNL     1      10.183  21.198  -7.046  1.00  0.00     0.073 C 
ATOM      8  O   UNL     1      10.368  19.994  -7.364  1.00  0.00    -0.545 OA
ATOM      9  O   UNL     1       9.409  21.489  -5.928  1.00  0.00    -0.545 OA
ENDBRANCH   1   7
TORSDOF 1
ENDMDL
MODEL 9
REMARK VINA RESULT:    -4.132      2.628      3.118
REMARK INTER + INTRA:          -4.390
REMARK INTER:                  -4.368
REMARK INTRA:                  -0.022
REMARK UNBOUND:                -0.016
REMARK SMILES O=C([O-])c1cccnc1
REMARK SMILES IDX 4 1 5 2 9 3 6 4 8 5 7 6 2 7 1 8 3 9
REMARK H PARENT
REMARK Flexibility Score: inf
ROOT
ATOM      1  C   UNL     1      11.626  22.913  -7.986  1.00  0.00     0.016 A 
ATOM      2  C   UNL     1      11.191  23.343  -9.252  1.00  0.00     0.013 A 
ATOM      3  C   UNL     1      10.750  22.136  -7.209  1.00  0.00     0.120 A 
ATOM      4  C   UNL     1       9.919  22.998  -9.711  1.00  0.00     0.021 A 
ATOM      5  N   UNL     1       9.515  21.815  -7.680  1.00  0.00    -0.264 NA
ATOM      6  C   UNL     1       9.086  22.225  -8.902  1.00  0.00     0.111 A 
ENDROOT
BRANCH   1   7
ATOM      7  C   UNL     1      12.969  23.267  -7.482  1.00  0.00     0.073 C 
ATOM      8  O   UNL     1      13.509  24.358  -7.807  1.00  0.00    -0.545 OA
ATOM      9  O   UNL     1      13.656  22.399  -6.640  1.00  0.00    -0.545 OA
ENDBRANCH   1   7
TORSDOF 1
ENDMDL
