MODEL 1
REMARK VINA RESULT:     8.637      0.000      0.000
REMARK INTER + INTRA:          15.541
REMARK INTER:                  16.717
REMARK INTRA:                  -1.176
REMARK UNBOUND:                -1.176
REMARK SMILES CCCCCCCCCCCCCCCCCC(=O)[O-]
REMARK SMILES IDX 10 1 11 2 12 3 13 4 14 5 15 6 16 7 17 8 18 9 19 10 20 11
REMARK SMILES IDX 9 12 8 13 7 14 6 15 5 16 4 17 3 18 2 19 1 20
REMARK H PARENT
REMARK Flexibility Score: inf
ROOT
ATOM      1  C   UNL     1      -9.243  30.362 -15.412  1.00  0.00     0.000 C 
ENDROOT
BRANCH   1   2
ATOM      2  C   UNL     1      -8.135  29.296 -15.498  1.00  0.00     0.000 C 
BRANCH   2   3
ATOM      3  C   UNL     1      -7.905  28.706 -16.905  1.00  0.00     0.000 C 
BRANCH   3   4
ATOM      4  C   UNL     1      -6.443  28.348 -17.232  1.00  0.00     0.000 C 
BRANCH   4   5
ATOM      5  C   UNL     1      -6.168  28.284 -18.744  1.00  0.00     0.000 C 
BRANCH   5   6
ATOM      6  C   UNL     1      -7.279  28.945 -19.575  1.00  0.00     0.000 C 
BRANCH   6   7
ATOM      7  C   UNL     1      -6.787  29.423 -20.949  1.00  0.00     0.006 C 
BRANCH   7   8
ATOM      8  C   UNL     1      -5.516  28.678 -21.365  1.00  0.00     0.053 C 
BRANCH   8   9
ATOM      9  C   UNL     1      -5.816  27.689 -22.447  1.00  0.00     0.041 C 
ATOM     10  O   UNL     1      -4.877  27.112 -23.057  1.00  0.00    -0.550 OA
ATOM     11  O   UNL     1      -7.133  27.367 -22.748  1.00  0.00    -0.550 OA
ENDBRANCH   8   9
ENDBRANCH   7   8
ENDBRANCH   6   7
ENDBRANCH   5   6
ENDBRANCH   4   5
ENDBRANCH   3   4
ENDBRANCH   2   3
ENDBRANCH   1   2
BRANCH   1  12
ATOM     12  C   UNL     1      -9.340  31.305 -16.629  1.00  0.00     0.000 C 
BRANCH  12  13
ATOM     13  C   UNL     1      -9.030  32.785 -16.336  1.00  0.00    -0.000 C 
BRANCH  13  14
ATOM     14  C   UNL     1      -8.643  33.035 -14.869  1.00  0.00    -0.000 C 
BRANCH  14  15
ATOM     15  C   UNL     1      -7.453  33.997 -14.730  1.00  0.00    -0.000 C 
BRANCH  15  16
ATOM     16  C   UNL     1      -6.791  34.324 -16.079  1.00  0.00    -0.000 C 
BRANCH  16  17
ATOM     17  C   UNL     1      -5.556  35.230 -15.934  1.00  0.00    -0.000 C 
BRANCH  17  18
ATOM     18  C   UNL     1      -5.564  36.443 -16.889  1.00  0.00    -0.000 C 
BRANCH  18  19
ATOM     19  C   UNL     1      -5.330  36.035 -18.350  1.00  0.00    -0.003 C 
ATOM     20  C   UNL     1      -6.379  36.654 -19.270  1.00  0.00     0.004 C 
ENDBRANCH  18  19
ENDBRANCH  17  18
ENDBRANCH  16  17
ENDBRANCH  15  16
ENDBRANCH  14  15
ENDBRANCH  13  14
ENDBRANCH  12  13
ENDBRANCH   1  12
TORSDOF 16
ENDMDL
MODEL 2
REMARK VINA RESULT:     9.133      0.607      1.093
REMARK INTER + INTRA:          16.500
REMARK INTER:                  16.794
REMARK INTRA:                  -0.294
REMARK UNBOUND:                -1.176
REMARK SMILES CCCCCCCCCCCCCCCCCC(=O)[O-]
REMARK SMILES IDX 10 1 11 2 12 3 13 4 14 5 15 6 16 7 17 8 18 9 19 10 20 11
REMARK SMILES IDX 9 12 8 13 7 14 6 15 5 16 4 17 3 18 2 19 1 20
REMARK H PARENT
REMARK Flexibility Score: inf
ROOT
ATOM      1  C   UNL     1      -8.965  30.078 -14.542  1.00  0.00     0.000 C 
ENDROOT
BRANCH   1   2
ATOM      2  C   UNL     1      -7.831  29.139 -14.995  1.00  0.00     0.000 C 
BRANCH   2   3
ATOM      3  C   UNL     1      -7.812  28.818 -16.503  1.00  0.00     0.000 C 
BRANCH   3   4
ATOM      4  C   UNL     1      -6.528  28.137 -17.011  1.00  0.00     0.000 C 
BRANCH   4   5
ATOM      5  C   UNL     1      -6.255  28.409 -18.499  1.00  0.00     0.000 C 
BRANCH   5   6
ATOM      6  C   UNL     1      -7.492  28.942 -19.239  1.00  0.00     0.000 C 
BRANCH   6   7
ATOM      7  C   UNL     1      -7.183  29.370 -20.681  1.00  0.00     0.006 C 
BRANCH   7   8
ATOM      8  C   UNL     1      -5.784  28.908 -21.100  1.00  0.00     0.053 C 
BRANCH   8   9
ATOM      9  C   UNL     1      -5.862  28.022 -22.303  1.00  0.00     0.041 C 
ATOM     10  O   UNL     1      -4.881  27.930 -23.088  1.00  0.00    -0.550 OA
ATOM     11  O   UNL     1      -7.000  27.258 -22.531  1.00  0.00    -0.550 OA
ENDBRANCH   8   9
ENDBRANCH   7   8
ENDBRANCH   6   7
ENDBRANCH   5   6
ENDBRANCH   4   5
ENDBRANCH   3   4
ENDBRANCH   2   3
ENDBRANCH   1   2
BRANCH   1  12
ATOM     12  C   UNL     1      -9.826  30.660 -15.681  1.00  0.00     0.000 C 
BRANCH  12  13
ATOM     13  C   UNL     1      -9.037  31.172 -16.901  1.00  0.00    -0.000 C 
BRANCH  13  14
ATOM     14  C   UNL     1      -8.728  32.676 -16.824  1.00  0.00    -0.000 C 
BRANCH  14  15
ATOM     15  C   UNL     1      -9.018  33.266 -15.434  1.00  0.00    -0.000 C 
BRANCH  15  16
ATOM     16  C   UNL     1      -7.818  34.029 -14.849  1.00  0.00    -0.000 C 
BRANCH  16  17
ATOM     17  C   UNL     1      -6.631  34.113 -15.825  1.00  0.00    -0.000 C 
BRANCH  17  18
ATOM     18  C   UNL     1      -6.342  35.544 -16.326  1.00  0.00    -0.000 C 
BRANCH  18  19
ATOM     19  C   UNL     1      -5.267  35.571 -17.421  1.00  0.00    -0.003 C 
ATOM     20  C   UNL     1      -5.693  36.457 -18.589  1.00  0.00     0.004 C 
ENDBRANCH  18  19
ENDBRANCH  17  18
ENDBRANCH  16  17
ENDBRANCH  15  16
ENDBRANCH  14  15
ENDBRANCH  13  14
ENDBRANCH  12  13
ENDBRANCH   1  12
TORSDOF 16
ENDMDL
MODEL 3
REMARK VINA RESULT:    10.292      2.715      4.060
REMARK INTER + INTRA:          18.743
REMARK INTER:                  19.291
REMARK INTRA:                  -0.549
REMARK UNBOUND:                -1.176
REMARK SMILES CCCCCCCCCCCCCCCCCC(=O)[O-]
REMARK SMILES IDX 10 1 11 2 12 3 13 4 14 5 15 6 16 7 17 8 18 9 19 10 20 11
REMARK SMILES IDX 9 12 8 13 7 14 6 15 5 16 4 17 3 18 2 19 1 20
REMARK H PARENT
REMARK Flexibility Score: inf
ROOT
ATOM      1  C   UNL     1      -9.140  30.623 -15.107  1.00  0.00     0.000 C 
ENDROOT
BRANCH   1   2
ATOM      2  C   UNL     1      -8.042  29.548 -15.212  1.00  0.00     0.000 C 
BRANCH   2   3
ATOM      3  C   UNL     1      -7.849  28.947 -16.619  1.00  0.00     0.000 C 
BRANCH   3   4
ATOM      4  C   UNL     1      -8.786  29.510 -17.705  1.00  0.00     0.000 C 
BRANCH   4   5
ATOM      5  C   UNL     1      -8.251  29.287 -19.129  1.00  0.00     0.000 C 
BRANCH   5   6
ATOM      6  C   UNL     1      -6.919  28.520 -19.147  1.00  0.00     0.000 C 
BRANCH   6   7
ATOM      7  C   UNL     1      -5.789  29.311 -19.823  1.00  0.00     0.006 C 
BRANCH   7   8
ATOM      8  C   UNL     1      -5.953  29.306 -21.345  1.00  0.00     0.053 C 
BRANCH   8   9
ATOM      9  C   UNL     1      -6.121  27.909 -21.852  1.00  0.00     0.041 C 
ATOM     10  O   UNL     1      -7.254  27.358 -21.827  1.00  0.00    -0.550 OA
ATOM     11  O   UNL     1      -5.038  27.232 -22.398  1.00  0.00    -0.550 OA
ENDBRANCH   8   9
ENDBRANCH   7   8
ENDBRANCH   6   7
ENDBRANCH   5   6
ENDBRANCH   4   5
ENDBRANCH   3   4
ENDBRANCH   2   3
ENDBRANCH   1   2
BRANCH   1  12
ATOM     12  C   UNL     1      -8.628  32.058 -14.866  1.00  0.00     0.000 C 
BRANCH  12  13
ATOM     13  C   UNL     1      -8.825  33.029 -16.045  1.00  0.00    -0.000 C 
BRANCH  13  14
ATOM     14  C   UNL     1      -9.327  32.328 -17.318  1.00  0.00    -0.000 C 
BRANCH  14  15
ATOM     15  C   UNL     1      -9.366  33.271 -18.532  1.00  0.00    -0.000 C 
BRANCH  15  16
ATOM     16  C   UNL     1      -9.661  32.533 -19.849  1.00  0.00    -0.000 C 
BRANCH  16  17
ATOM     17  C   UNL     1      -9.501  33.433 -21.087  1.00  0.00    -0.000 C 
BRANCH  17  18
ATOM     18  C   UNL     1      -9.853  32.727 -22.414  1.00  0.00    -0.000 C 
BRANCH  18  19
ATOM     19  C   UNL     1     -11.319  32.942 -22.816  1.00  0.00    -0.003 C 
ATOM     20  C   UNL     1     -12.005  31.615 -23.125  1.00  0.00     0.004 C 
ENDBRANCH  18  19
ENDBRANCH  17  18
ENDBRANCH  16  17
ENDBRANCH  15  16
ENDBRANCH  14  15
ENDBRANCH  13  14
ENDBRANCH  12  13
ENDBRANCH   1  12
TORSDOF 16
ENDMDL
MODEL 4
REMARK VINA RESULT:    10.783      3.376      6.445
REMARK INTER + INTRA:          19.694
REMARK INTER:                  18.684
REMARK INTRA:                   1.010
REMARK UNBOUND:                -1.176
REMARK SMILES CCCCCCCCCCCCCCCCCC(=O)[O-]
REMARK SMILES IDX 10 1 11 2 12 3 13 4 14 5 15 6 16 7 17 8 18 9 19 10 20 11
REMARK SMILES IDX 9 12 8 13 7 14 6 15 5 16 4 17 3 18 2 19 1 20
REMARK H PARENT
REMARK Flexibility Score: inf
ROOT
ATOM      1  C   UNL     1      -9.520  30.614 -16.225  1.00  0.00     0.000 C 
ENDROOT
BRANCH   1   2
ATOM      2  C   UNL     1      -8.986  32.000 -15.818  1.00  0.00     0.000 C 
BRANCH   2   3
ATOM      3  C   UNL     1      -8.928  33.039 -16.957  1.00  0.00     0.000 C 
BRANCH   3   4
ATOM      4  C   UNL     1      -9.494  32.560 -18.307  1.00  0.00     0.000 C 
BRANCH   4   5
ATOM      5  C   UNL     1      -9.124  33.491 -19.474  1.00  0.00     0.000 C 
BRANCH   5   6
ATOM      6  C   UNL     1     -10.113  33.392 -20.646  1.00  0.00     0.000 C 
BRANCH   6   7
ATOM      7  C   UNL     1      -9.506  32.706 -21.878  1.00  0.00     0.006 C 
BRANCH   7   8
ATOM      8  C   UNL     1     -10.356  32.968 -23.125  1.00  0.00     0.053 C 
BRANCH   8   9
ATOM      9  C   UNL     1     -11.679  32.278 -23.013  1.00  0.00     0.041 C 
ATOM     10  O   UNL     1     -12.747  32.942 -23.071  1.00  0.00    -0.550 OA
ATOM     11  O   UNL     1     -11.734  30.895 -22.894  1.00  0.00    -0.550 OA
ENDBRANCH   8   9
ENDBRANCH   7   8
ENDBRANCH   6   7
ENDBRANCH   5   6
ENDBRANCH   4   5
ENDBRANCH   3   4
ENDBRANCH   2   3
ENDBRANCH   1   2
BRANCH   1  12
ATOM     12  C   UNL     1      -9.591  30.362 -17.745  1.00  0.00     0.000 C 
BRANCH  12  13
ATOM     13  C   UNL     1      -8.572  29.341 -18.286  1.00  0.00    -0.000 C 
BRANCH  13  14
ATOM     14  C   UNL     1      -7.779  28.640 -17.171  1.00  0.00    -0.000 C 
BRANCH  14  15
ATOM     15  C   UNL     1      -6.314  28.386 -17.561  1.00  0.00    -0.000 C 
BRANCH  15  16
ATOM     16  C   UNL     1      -5.934  29.037 -18.902  1.00  0.00    -0.000 C 
BRANCH  16  17
ATOM     17  C   UNL     1      -6.207  28.121 -20.108  1.00  0.00    -0.000 C 
BRANCH  17  18
ATOM     18  C   UNL     1      -6.077  28.837 -21.469  1.00  0.00    -0.000 C 
BRANCH  18  19
ATOM     19  C   UNL     1      -5.271  28.016 -22.484  1.00  0.00    -0.003 C 
ATOM     20  C   UNL     1      -6.133  26.931 -23.124  1.00  0.00     0.004 C 
ENDBRANCH  18  19
ENDBRANCH  17  18
ENDBRANCH  16  17
ENDBRANCH  15  16
ENDBRANCH  14  15
ENDBRANCH  13  14
ENDBRANCH  12  13
ENDBRANCH   1  12
TORSDOF 16
ENDMDL
MODEL 5
REMARK VINA RESULT:    11.251      3.533      7.692
REMARK INTER + INTRA:          20.600
REMARK INTER:                  21.012
REMARK INTRA:                  -0.413
REMARK UNBOUND:                -1.176
REMARK SMILES CCCCCCCCCCCCCCCCCC(=O)[O-]
REMARK SMILES IDX 10 1 11 2 12 3 13 4 14 5 15 6 16 7 17 8 18 9 19 10 20 11
REMARK SMILES IDX 9 12 8 13 7 14 6 15 5 16 4 17 3 18 2 19 1 20
REMARK H PARENT
REMARK Flexibility Score: inf
ROOT
ATOM      1  C   UNL     1      -8.187  29.581 -15.067  1.00  0.00     0.000 C 
ENDROOT
BRANCH   1   2
ATOM      2  C   UNL     1      -9.391  30.314 -15.687  1.00  0.00     0.000 C 
BRANCH   2   3
ATOM      3  C   UNL     1      -9.043  31.298 -16.822  1.00  0.00     0.000 C 
BRANCH   3   4
ATOM      4  C   UNL     1      -9.144  32.789 -16.448  1.00  0.00     0.000 C 
BRANCH   4   5
ATOM      5  C   UNL     1      -8.563  33.097 -15.058  1.00  0.00     0.000 C 
BRANCH   5   6
ATOM      6  C   UNL     1      -7.487  34.194 -15.097  1.00  0.00     0.000 C 
BRANCH   6   7
ATOM      7  C   UNL     1      -6.628  34.137 -16.369  1.00  0.00     0.006 C 
BRANCH   7   8
ATOM      8  C   UNL     1      -5.518  35.192 -16.327  1.00  0.00     0.053 C 
BRANCH   8   9
ATOM      9  C   UNL     1      -5.876  36.365 -17.184  1.00  0.00     0.041 C 
ATOM     10  O   UNL     1      -6.522  37.331 -16.697  1.00  0.00    -0.550 OA
ATOM     11  O   UNL     1      -5.454  36.416 -18.506  1.00  0.00    -0.550 OA
ENDBRANCH   8   9
ENDBRANCH   7   8
ENDBRANCH   6   7
ENDBRANCH   5   6
ENDBRANCH   4   5
ENDBRANCH   3   4
ENDBRANCH   2   3
ENDBRANCH   1   2
BRANCH   1  12
ATOM     12  C   UNL     1      -7.508  28.544 -15.987  1.00  0.00     0.000 C 
BRANCH  12  13
ATOM     13  C   UNL     1      -7.766  28.738 -17.492  1.00  0.00    -0.000 C 
BRANCH  13  14
ATOM     14  C   UNL     1      -6.481  28.660 -18.333  1.00  0.00    -0.000 C 
BRANCH  14  15
ATOM     15  C   UNL     1      -6.752  28.808 -19.839  1.00  0.00    -0.000 C 
BRANCH  15  16
ATOM     16  C   UNL     1      -5.467  29.012 -20.658  1.00  0.00    -0.000 C 
BRANCH  16  17
ATOM     17  C   UNL     1      -5.697  28.875 -22.173  1.00  0.00    -0.000 C 
BRANCH  17  18
ATOM     18  C   UNL     1      -6.874  27.944 -22.537  1.00  0.00    -0.000 C 
BRANCH  18  19
ATOM     19  C   UNL     1      -6.399  26.608 -23.125  1.00  0.00    -0.003 C 
ATOM     20  C   UNL     1      -4.875  26.516 -23.124  1.00  0.00     0.004 C 
ENDBRANCH  18  19
ENDBRANCH  17  18
ENDBRANCH  16  17
ENDBRANCH  15  16
ENDBRANCH  14  15
ENDBRANCH  13  14
ENDBRANCH  12  13
ENDBRANCH   1  12
TORSDOF 16
ENDMDL
