MODEL 1
REMARK VINA RESULT:    -4.252      0.000      0.000
REMARK INTER + INTRA:          -6.715
REMARK INTER:                  -6.490
REMARK INTRA:                  -0.225
REMARK UNBOUND:                -0.225
REMARK SMILES CCCCCCCCCCC(=O)[O-]
REMARK SMILES IDX 7 1 8 2 9 3 10 4 11 5 12 6 13 7 6 8 5 9 4 10 3 11 2 12 1 13
REMARK H PARENT
REMARK Flexibility Score: inf
ROOT
ATOM      1  C   UNL     1      42.532  11.962 -35.294  1.00  0.00     0.000 C 
ENDROOT
BRANCH   1   2
ATOM      2  C   UNL     1      42.111  13.211 -36.091  1.00  0.00     0.000 C 
BRANCH   2   3
ATOM      3  C   UNL     1      40.613  13.222 -36.442  1.00  0.00     0.006 C 
BRANCH   3   4
ATOM      4  C   UNL     1      39.846  14.306 -35.671  1.00  0.00     0.053 C 
BRANCH   4   5
ATOM      5  C   UNL     1      38.369  14.061 -35.694  1.00  0.00     0.041 C 
ATOM      6  O   UNL     1      37.676  14.266 -34.662  1.00  0.00    -0.550 OA
ATOM      7  O   UNL     1      37.750  13.640 -36.864  1.00  0.00    -0.550 OA
ENDBRANCH   4   5
ENDBRANCH   3   4
ENDBRANCH   2   3
ENDBRANCH   1   2
BRANCH   1   8
ATOM      8  C   UNL     1      43.975  11.988 -34.760  1.00  0.00     0.000 C 
BRANCH   8   9
ATOM      9  C   UNL     1      44.058  12.381 -33.277  1.00  0.00    -0.000 C 
BRANCH   9  10
ATOM     10  C   UNL     1      45.507  12.663 -32.863  1.00  0.00    -0.000 C 
BRANCH  10  11
ATOM     11  C   UNL     1      45.662  12.625 -31.337  1.00  0.00    -0.000 C 
BRANCH  11  12
ATOM     12  C   UNL     1      46.550  11.454 -30.905  1.00  0.00    -0.003 C 
ATOM     13  C   UNL     1      46.311  11.092 -29.441  1.00  0.00     0.004 C 
ENDBRANCH  11  12
ENDBRANCH  10  11
ENDBRANCH   9  10
ENDBRANCH   8   9
ENDBRANCH   1   8
TORSDOF 9
ENDMDL
MODEL 2
REMARK VINA RESULT:    -3.785      4.196      7.659
REMARK INTER + INTRA:          -6.001
REMARK INTER:                  -5.710
REMARK INTRA:                  -0.291
REMARK UNBOUND:                -0.225
REMARK SMILES CCCCCCCCCCC(=O)[O-]
REMARK SMILES IDX 7 1 8 2 9 3 10 4 11 5 12 6 13 7 6 8 5 9 4 10 3 11 2 12 1 13
REMARK H PARENT
REMARK Flexibility Score: inf
ROOT
ATOM      1  C   UNL     1      43.689  11.990 -35.055  1.00  0.00     0.000 C 
ENDROOT
BRANCH   1   2
ATOM      2  C   UNL     1      43.714  12.343 -33.556  1.00  0.00     0.000 C 
BRANCH   2   3
ATOM      3  C   UNL     1      45.140  12.526 -33.008  1.00  0.00     0.006 C 
BRANCH   3   4
ATOM      4  C   UNL     1      45.155  12.708 -31.484  1.00  0.00     0.053 C 
BRANCH   4   5
ATOM      5  C   UNL     1      46.100  11.754 -30.821  1.00  0.00     0.041 C 
ATOM      6  O   UNL     1      47.026  11.215 -31.483  1.00  0.00    -0.550 OA
ATOM      7  O   UNL     1      45.982  11.487 -29.463  1.00  0.00    -0.550 OA
ENDBRANCH   4   5
ENDBRANCH   3   4
ENDBRANCH   2   3
ENDBRANCH   1   2
BRANCH   1   8
ATOM      8  C   UNL     1      42.287  11.955 -35.690  1.00  0.00     0.000 C 
BRANCH   8   9
ATOM      9  C   UNL     1      41.798  13.340 -36.140  1.00  0.00    -0.000 C 
BRANCH   9  10
ATOM     10  C   UNL     1      40.278  13.347 -36.343  1.00  0.00    -0.000 C 
BRANCH  10  11
ATOM     11  C   UNL     1      39.606  14.388 -35.439  1.00  0.00    -0.000 C 
BRANCH  11  12
ATOM     12  C   UNL     1      38.082  14.229 -35.456  1.00  0.00    -0.003 C 
ATOM     13  C   UNL     1      37.627  13.407 -36.659  1.00  0.00     0.004 C 
ENDBRANCH  11  12
ENDBRANCH  10  11
ENDBRANCH   9  10
ENDBRANCH   8   9
ENDBRANCH   1   8
TORSDOF 9
ENDMDL
MODEL 3
REMARK VINA RESULT:    -3.756      1.529      1.993
REMARK INTER + INTRA:          -5.958
REMARK INTER:                  -5.400
REMARK INTRA:                  -0.558
REMARK UNBOUND:                -0.225
REMARK SMILES CCCCCCCCCCC(=O)[O-]
REMARK SMILES IDX 7 1 8 2 9 3 10 4 11 5 12 6 13 7 6 8 5 9 4 10 3 11 2 12 1 13
REMARK H PARENT
REMARK Flexibility Score: inf
ROOT
ATOM      1  C   UNL     1      44.028  12.013 -35.450  1.00  0.00     0.000 C 
ENDROOT
BRANCH   1   2
ATOM      2  C   UNL     1      42.602  11.645 -35.000  1.00  0.00     0.000 C 
BRANCH   2   3
ATOM      3  C   UNL     1      41.524  12.088 -36.003  1.00  0.00     0.006 C 
BRANCH   3   4
ATOM      4  C   UNL     1      41.767  13.511 -36.523  1.00  0.00     0.053 C 
BRANCH   4   5
ATOM      5  C   UNL     1      40.962  14.523 -35.767  1.00  0.00     0.041 C 
ATOM      6  O   UNL     1      39.733  14.334 -35.568  1.00  0.00    -0.550 OA
ATOM      7  O   UNL     1      41.575  15.657 -35.251  1.00  0.00    -0.550 OA
ENDBRANCH   4   5
ENDBRANCH   3   4
ENDBRANCH   2   3
ENDBRANCH   1   2
BRANCH   1   8
ATOM      8  C   UNL     1      44.995  12.379 -34.309  1.00  0.00     0.000 C 
BRANCH   8   9
ATOM      9  C   UNL     1      44.307  12.439 -32.936  1.00  0.00    -0.000 C 
BRANCH   9  10
ATOM     10  C   UNL     1      45.306  12.821 -31.838  1.00  0.00    -0.000 C 
BRANCH  10  11
ATOM     11  C   UNL     1      46.602  12.010 -31.964  1.00  0.00    -0.000 C 
BRANCH  11  12
ATOM     12  C   UNL     1      46.738  11.010 -30.811  1.00  0.00    -0.003 C 
ATOM     13  C   UNL     1      46.168  11.581 -29.515  1.00  0.00     0.004 C 
ENDBRANCH  11  12
ENDBRANCH  10  11
ENDBRANCH   9  10
ENDBRANCH   8   9
ENDBRANCH   1   8
TORSDOF 9
ENDMDL
MODEL 4
REMARK VINA RESULT:    -3.531     20.378     21.975
REMARK INTER + INTRA:          -5.614
REMARK INTER:                  -4.834
REMARK INTRA:                  -0.779
REMARK UNBOUND:                -0.225
REMARK SMILES CCCCCCCCCCC(=O)[O-]
REMARK SMILES IDX 7 1 8 2 9 3 10 4 11 5 12 6 13 7 6 8 5 9 4 10 3 11 2 12 1 13
REMARK H PARENT
REMARK Flexibility Score: inf
ROOT
ATOM      1  C   UNL     1      55.893  27.805 -34.757  1.00  0.00     0.000 C 
ENDROOT
BRANCH   1   2
ATOM      2  C   UNL     1      56.172  27.017 -33.464  1.00  0.00     0.000 C 
BRANCH   2   3
ATOM      3  C   UNL     1      56.950  27.836 -32.419  1.00  0.00     0.006 C 
BRANCH   3   4
ATOM      4  C   UNL     1      56.018  28.525 -31.413  1.00  0.00     0.053 C 
BRANCH   4   5
ATOM      5  C   UNL     1      56.129  30.016 -31.487  1.00  0.00     0.041 C 
ATOM      6  O   UNL     1      55.757  30.729 -30.519  1.00  0.00    -0.550 OA
ATOM      7  O   UNL     1      56.679  30.619 -32.612  1.00  0.00    -0.550 OA
ENDBRANCH   4   5
ENDBRANCH   3   4
ENDBRANCH   2   3
ENDBRANCH   1   2
BRANCH   1   8
ATOM      8  C   UNL     1      57.125  28.482 -35.384  1.00  0.00     0.000 C 
BRANCH   8   9
ATOM      9  C   UNL     1      56.767  29.424 -36.543  1.00  0.00    -0.000 C 
BRANCH   9  10
ATOM     10  C   UNL     1      55.327  29.934 -36.412  1.00  0.00    -0.000 C 
BRANCH  10  11
ATOM     11  C   UNL     1      54.639  30.000 -37.782  1.00  0.00    -0.000 C 
BRANCH  11  12
ATOM     12  C   UNL     1      55.149  28.890 -38.707  1.00  0.00    -0.003 C 
ATOM     13  C   UNL     1      54.105  27.788 -38.873  1.00  0.00     0.004 C 
ENDBRANCH  11  12
ENDBRANCH  10  11
ENDBRANCH   9  10
ENDBRANCH   8   9
ENDBRANCH   1   8
TORSDOF 9
ENDMDL
MODEL 5
REMARK VINA RESULT:    -3.467     20.288     21.475
REMARK INTER + INTRA:          -5.516
REMARK INTER:                  -5.051
REMARK INTRA:                  -0.466
REMARK UNBOUND:                -0.225
REMARK SMILES CCCCCCCCCCC(=O)[O-]
REMARK SMILES IDX 7 1 8 2 9 3 10 4 11 5 12 6 13 7 6 8 5 9 4 10 3 11 2 12 1 13
REMARK H PARENT
REMARK Flexibility Score: inf
ROOT
ATOM      1  C   UNL     1      56.214  27.128 -33.600  1.00  0.00     0.000 C 
ENDROOT
BRANCH   1   2
ATOM      2  C   UNL     1      56.762  27.708 -34.917  1.00  0.00     0.000 C 
BRANCH   2   3
ATOM      3  C   UNL     1      55.665  27.943 -35.971  1.00  0.00     0.006 C 
BRANCH   3   4
ATOM      4  C   UNL     1      55.899  29.230 -36.772  1.00  0.00     0.053 C 
BRANCH   4   5
ATOM      5  C   UNL     1      54.779  29.498 -37.729  1.00  0.00     0.041 C 
ATOM      6  O   UNL     1      54.248  28.551 -38.367  1.00  0.00    -0.550 OA
ATOM      7  O   UNL     1      54.294  30.791 -37.890  1.00  0.00    -0.550 OA
ENDBRANCH   4   5
ENDBRANCH   3   4
ENDBRANCH   2   3
ENDBRANCH   1   2
BRANCH   1   8
ATOM      8  C   UNL     1      56.617  27.904 -32.333  1.00  0.00     0.000 C 
BRANCH   8   9
ATOM      9  C   UNL     1      56.422  29.422 -32.472  1.00  0.00    -0.000 C 
BRANCH   9  10
ATOM     10  C   UNL     1      55.679  29.994 -31.259  1.00  0.00    -0.000 C 
BRANCH  10  11
ATOM     11  C   UNL     1      56.482  31.124 -30.603  1.00  0.00    -0.000 C 
BRANCH  11  12
ATOM     12  C   UNL     1      56.820  30.785 -29.147  1.00  0.00    -0.003 C 
ATOM     13  C   UNL     1      56.697  29.285 -28.888  1.00  0.00     0.004 C 
ENDBRANCH  11  12
ENDBRANCH  10  11
ENDBRANCH   9  10
ENDBRANCH   8   9
ENDBRANCH   1   8
TORSDOF 9
ENDMDL
MODEL 6
REMARK VINA RESULT:    -3.394     20.192     21.404
REMARK INTER + INTRA:          -5.405
REMARK INTER:                  -4.497
REMARK INTRA:                  -0.908
REMARK UNBOUND:                -0.225
REMARK SMILES CCCCCCCCCCC(=O)[O-]
REMARK SMILES IDX 7 1 8 2 9 3 10 4 11 5 12 6 13 7 6 8 5 9 4 10 3 11 2 12 1 13
REMARK H PARENT
REMARK Flexibility Score: inf
ROOT
ATOM      1  C   UNL     1      56.013  27.381 -33.529  1.00  0.00     0.000 C 
ENDROOT
BRANCH   1   2
ATOM      2  C   UNL     1      56.645  27.765 -34.880  1.00  0.00     0.000 C 
BRANCH   2   3
ATOM      3  C   UNL     1      55.630  27.775 -36.036  1.00  0.00     0.006 C 
BRANCH   3   4
ATOM      4  C   UNL     1      55.979  28.821 -37.103  1.00  0.00     0.053 C 
BRANCH   4   5
ATOM      5  C   UNL     1      54.771  29.242 -37.882  1.00  0.00     0.041 C 
ATOM      6  O   UNL     1      54.189  30.326 -37.614  1.00  0.00    -0.550 OA
ATOM      7  O   UNL     1      54.307  28.454 -38.929  1.00  0.00    -0.550 OA
ENDBRANCH   4   5
ENDBRANCH   3   4
ENDBRANCH   2   3
ENDBRANCH   1   2
BRANCH   1   8
ATOM      8  C   UNL     1      56.988  27.365 -32.338  1.00  0.00     0.000 C 
BRANCH   8   9
ATOM      9  C   UNL     1      57.121  28.733 -31.653  1.00  0.00    -0.000 C 
BRANCH   9  10
ATOM     10  C   UNL     1      55.763  29.224 -31.136  1.00  0.00    -0.000 C 
BRANCH  10  11
ATOM     11  C   UNL     1      55.516  30.684 -31.536  1.00  0.00    -0.000 C 
BRANCH  11  12
ATOM     12  C   UNL     1      56.455  31.109 -32.670  1.00  0.00    -0.003 C 
ATOM     13  C   UNL     1      55.727  31.125 -34.012  1.00  0.00     0.004 C 
ENDBRANCH  11  12
ENDBRANCH  10  11
ENDBRANCH   9  10
ENDBRANCH   8   9
ENDBRANCH   1   8
TORSDOF 9
ENDMDL
MODEL 7
REMARK VINA RESULT:    -3.381     20.169     21.758
REMARK INTER + INTRA:          -5.385
REMARK INTER:                  -4.865
REMARK INTRA:                  -0.520
REMARK UNBOUND:                -0.225
REMARK SMILES CCCCCCCCCCC(=O)[O-]
REMARK SMILES IDX 7 1 8 2 9 3 10 4 11 5 12 6 13 7 6 8 5 9 4 10 3 11 2 12 1 13
REMARK H PARENT
REMARK Flexibility Score: inf
ROOT
ATOM      1  C   UNL     1      56.144  30.024 -33.392  1.00  0.00     0.000 C 
ENDROOT
BRANCH   1   2
ATOM      2  C   UNL     1      56.785  28.995 -32.442  1.00  0.00     0.000 C 
BRANCH   2   3
ATOM      3  C   UNL     1      56.285  27.560 -32.688  1.00  0.00     0.006 C 
BRANCH   3   4
ATOM      4  C   UNL     1      56.970  26.908 -33.897  1.00  0.00     0.053 C 
BRANCH   4   5
ATOM      5  C   UNL     1      55.975  26.460 -34.922  1.00  0.00     0.041 C 
ATOM      6  O   UNL     1      55.707  25.237 -35.055  1.00  0.00    -0.550 OA
ATOM      7  O   UNL     1      55.314  27.397 -35.708  1.00  0.00    -0.550 OA
ENDBRANCH   4   5
ENDBRANCH   3   4
ENDBRANCH   2   3
ENDBRANCH   1   2
BRANCH   1   8
ATOM      8  C   UNL     1      57.081  30.569 -34.485  1.00  0.00     0.000 C 
BRANCH   8   9
ATOM      9  C   UNL     1      56.657  30.151 -35.901  1.00  0.00    -0.000 C 
BRANCH   9  10
ATOM     10  C   UNL     1      55.617  31.122 -36.473  1.00  0.00    -0.000 C 
BRANCH  10  11
ATOM     11  C   UNL     1      54.572  30.378 -37.313  1.00  0.00    -0.000 C 
BRANCH  11  12
ATOM     12  C   UNL     1      55.138  30.000 -38.686  1.00  0.00    -0.003 C 
ATOM     13  C   UNL     1      54.850  28.539 -39.019  1.00  0.00     0.004 C 
ENDBRANCH  11  12
ENDBRANCH  10  11
ENDBRANCH   9  10
ENDBRANCH   8   9
ENDBRANCH   1   8
TORSDOF 9
ENDMDL
MODEL 8
REMARK VINA RESULT:    -3.215     19.941     20.986
REMARK INTER + INTRA:          -5.132
REMARK INTER:                  -4.843
REMARK INTRA:                  -0.289
REMARK UNBOUND:                -0.225
REMARK SMILES CCCCCCCCCCC(=O)[O-]
REMARK SMILES IDX 7 1 8 2 9 3 10 4 11 5 12 6 13 7 6 8 5 9 4 10 3 11 2 12 1 13
REMARK H PARENT
REMARK Flexibility Score: inf
ROOT
ATOM      1  C   UNL     1      55.108  26.622 -36.021  1.00  0.00     0.000 C 
ENDROOT
BRANCH   1   2
ATOM      2  C   UNL     1      55.584  27.892 -36.750  1.00  0.00     0.000 C 
BRANCH   2   3
ATOM      3  C   UNL     1      54.738  28.224 -37.992  1.00  0.00     0.006 C 
BRANCH   3   4
ATOM      4  C   UNL     1      54.994  29.648 -38.503  1.00  0.00     0.053 C 
BRANCH   4   5
ATOM      5  C   UNL     1      54.559  30.680 -37.508  1.00  0.00     0.041 C 
ATOM      6  O   UNL     1      53.381  31.125 -37.530  1.00  0.00    -0.550 OA
ATOM      7  O   UNL     1      55.443  31.124 -36.534  1.00  0.00    -0.550 OA
ENDBRANCH   4   5
ENDBRANCH   3   4
ENDBRANCH   2   3
ENDBRANCH   1   2
BRANCH   1   8
ATOM      8  C   UNL     1      55.976  26.197 -34.823  1.00  0.00     0.000 C 
BRANCH   8   9
ATOM      9  C   UNL     1      56.758  27.366 -34.204  1.00  0.00    -0.000 C 
BRANCH   9  10
ATOM     10  C   UNL     1      56.310  27.624 -32.761  1.00  0.00    -0.000 C 
BRANCH  10  11
ATOM     11  C   UNL     1      56.624  29.063 -32.335  1.00  0.00    -0.000 C 
BRANCH  11  12
ATOM     12  C   UNL     1      55.695  29.517 -31.204  1.00  0.00    -0.003 C 
ATOM     13  C   UNL     1      55.314  30.987 -31.360  1.00  0.00     0.004 C 
ENDBRANCH  11  12
ENDBRANCH  10  11
ENDBRANCH   9  10
ENDBRANCH   8   9
ENDBRANCH   1   8
TORSDOF 9
ENDMDL
MODEL 9
REMARK VINA RESULT:    -3.147      4.016      6.733
REMARK INTER + INTRA:          -5.028
REMARK INTER:                  -4.612
REMARK INTRA:                  -0.416
REMARK UNBOUND:                -0.225
REMARK SMILES CCCCCCCCCCC(=O)[O-]
REMARK SMILES IDX 7 1 8 2 9 3 10 4 11 5 12 6 13 7 6 8 5 9 4 10 3 11 2 12 1 13
REMARK H PARENT
REMARK Flexibility Score: inf
ROOT
ATOM      1  C   UNL     1      38.948  13.870 -36.032  1.00  0.00     0.000 C 
ENDROOT
BRANCH   1   2
ATOM      2  C   UNL     1      40.390  14.317 -35.731  1.00  0.00     0.000 C 
BRANCH   2   3
ATOM      3  C   UNL     1      41.445  13.489 -36.486  1.00  0.00     0.006 C 
BRANCH   3   4
ATOM      4  C   UNL     1      41.772  12.174 -35.766  1.00  0.00     0.053 C 
BRANCH   4   5
ATOM      5  C   UNL     1      43.240  12.033 -35.509  1.00  0.00     0.041 C 
ATOM      6  O   UNL     1      44.017  11.692 -36.440  1.00  0.00    -0.550 OA
ATOM      7  O   UNL     1      43.758  12.314 -34.251  1.00  0.00    -0.550 OA
ENDBRANCH   4   5
ENDBRANCH   3   4
ENDBRANCH   2   3
ENDBRANCH   1   2
BRANCH   1   8
ATOM      8  C   UNL     1      37.887  14.392 -35.046  1.00  0.00     0.000 C 
BRANCH   8   9
ATOM      9  C   UNL     1      36.926  13.295 -34.562  1.00  0.00    -0.000 C 
BRANCH   9  10
ATOM     10  C   UNL     1      37.039  13.095 -33.047  1.00  0.00    -0.000 C 
BRANCH  10  11
ATOM     11  C   UNL     1      36.947  14.435 -32.306  1.00  0.00    -0.000 C 
BRANCH  11  12
ATOM     12  C   UNL     1      36.876  14.221 -30.790  1.00  0.00    -0.003 C 
ATOM     13  C   UNL     1      37.203  12.776 -30.421  1.00  0.00     0.004 C 
ENDBRANCH  11  12
ENDBRANCH  10  11
ENDBRANCH   9  10
ENDBRANCH   8   9
ENDBRANCH   1   8
TORSDOF 9
ENDMDL
