MODEL 1
REMARK VINA RESULT:    -5.717      0.000      0.000
REMARK INTER + INTRA:          -7.640
REMARK INTER:                  -8.056
REMARK INTRA:                   0.416
REMARK UNBOUND:                 0.416
REMARK SMILES CC1=CCC(=C(C)C)C(=O)CC(C)=CCC1
REMARK SMILES IDX 12 1 14 2 13 3 15 4 16 5 2 6 1 7 3 8 11 10 9 11 10 12 5 13
REMARK SMILES IDX 6 14 7 15 8 16 4 17
REMARK H PARENT
REMARK Flexibility Score: 60.00
ROOT
ATOM      1  C   UNL     1      -3.359 -11.199  28.205  1.00  0.00    -0.070 C 
ATOM      2  C   UNL     1      -2.676 -10.404  29.059  1.00  0.00    -0.027 C 
ATOM      3  C   UNL     1      -2.850 -11.316  26.791  1.00  0.00     0.039 C 
ENDROOT
BRANCH   2   4
ATOM      4  C   UNL     1      -2.972 -10.234  30.534  1.00  0.00     0.032 C 
BRANCH   4   5
ATOM      5  C   UNL     1      -1.816 -10.630  31.476  1.00  0.00     0.034 C 
BRANCH   5   6
ATOM      6  C   UNL     1      -1.360 -12.066  31.293  1.00  0.00    -0.077 C 
ATOM      7  C   UNL     1       0.097 -12.304  30.984  1.00  0.00     0.039 C 
ATOM      8  C   UNL     1      -2.159 -13.149  31.457  1.00  0.00    -0.023 CG0
ATOM      9  G   UNL     1      -3.647 -13.152  31.748  1.00  0.00     0.000 G0
ENDBRANCH   5   6
ENDBRANCH   4   5
ENDBRANCH   2   4
BRANCH   1  10
ATOM     10  C   UNL     1      -4.545 -12.044  28.623  1.00  0.00     0.111 C 
BRANCH  10  11
ATOM     11  C   UNL     1      -4.108 -13.352  29.227  1.00  0.00     0.163 C 
ATOM     12  O   UNL     1      -3.357 -14.100  28.545  1.00  0.00    -0.294 OA
BRANCH  11  13
ATOM     13  C   UNL     1      -4.479 -13.759  30.616  1.00  0.00    -0.002 C 
ATOM     14  C   UNL     1      -5.460 -14.685  30.835  1.00  0.00    -0.069 C 
ATOM     15  C   UNL     1      -5.751 -15.233  32.214  1.00  0.00     0.039 C 
ATOM     16  C   UNL     1      -6.308 -15.213  29.698  1.00  0.00     0.039 C 
BRANCH  13  17
ATOM     17  C   UNL     1      -3.659 -13.173  31.754  1.00  0.00     0.066 CG0
ATOM     18  G   UNL     1      -2.174 -13.164  31.448  1.00  0.00     0.000 G0
ENDBRANCH  13  17
ENDBRANCH  11  13
ENDBRANCH  10  11
ENDBRANCH   1  10
TORSDOF 0
ENDMDL
MODEL 2
REMARK VINA RESULT:    -5.251      2.106      3.583
REMARK INTER + INTRA:          -6.984
REMARK INTER:                  -7.516
REMARK INTRA:                   0.532
REMARK UNBOUND:                 0.416
REMARK SMILES CC1=CCC(=C(C)C)C(=O)CC(C)=CCC1
REMARK SMILES IDX 12 1 14 2 13 3 15 4 16 5 2 6 1 7 3 8 11 10 9 11 10 12 5 13
REMARK SMILES IDX 6 14 7 15 8 16 4 17
REMARK H PARENT
REMARK Flexibility Score: 60.00
ROOT
ATOM      1  C   UNL     1      -3.439 -13.049  31.407  1.00  0.00    -0.070 C 
ATOM      2  C   UNL     1      -2.193 -13.501  31.670  1.00  0.00    -0.027 C 
ATOM      3  C   UNL     1      -4.582 -14.026  31.520  1.00  0.00     0.039 C 
ENDROOT
BRANCH   2   4
ATOM      4  C   UNL     1      -0.936 -12.658  31.704  1.00  0.00     0.032 C 
BRANCH   4   5
ATOM      5  C   UNL     1      -0.585 -11.963  30.372  1.00  0.00     0.034 C 
BRANCH   5   6
ATOM      6  C   UNL     1      -0.547 -12.918  29.192  1.00  0.00    -0.077 C 
ATOM      7  C   UNL     1       0.483 -14.019  29.214  1.00  0.00     0.039 C 
ATOM      8  C   UNL     1      -1.421 -12.889  28.157  1.00  0.00    -0.023 CG0
ATOM      9  G   UNL     1      -2.518 -11.870  27.915  1.00  0.00     0.000 G0
ENDBRANCH   5   6
ENDBRANCH   4   5
ENDBRANCH   2   4
BRANCH   1  10
ATOM     10  C   UNL     1      -3.749 -11.598  31.099  1.00  0.00     0.111 C 
BRANCH  10  11
ATOM     11  C   UNL     1      -4.303 -11.433  29.708  1.00  0.00     0.163 C 
ATOM     12  O   UNL     1      -5.154 -10.525  29.512  1.00  0.00    -0.294 OA
BRANCH  11  13
ATOM     13  C   UNL     1      -3.835 -12.258  28.555  1.00  0.00    -0.002 C 
ATOM     14  C   UNL     1      -4.611 -13.266  28.055  1.00  0.00    -0.069 C 
ATOM     15  C   UNL     1      -4.239 -14.015  26.794  1.00  0.00     0.039 C 
ATOM     16  C   UNL     1      -5.892 -13.684  28.743  1.00  0.00     0.039 C 
BRANCH  13  17
ATOM     17  C   UNL     1      -2.514 -11.867  27.911  1.00  0.00     0.066 CG0
ATOM     18  G   UNL     1      -1.427 -12.894  28.159  1.00  0.00     0.000 G0
ENDBRANCH  13  17
ENDBRANCH  11  13
ENDBRANCH  10  11
ENDBRANCH   1  10
TORSDOF 0
ENDMDL
MODEL 3
REMARK VINA RESULT:    -5.100      2.259      4.391
REMARK INTER + INTRA:          -6.772
REMARK INTER:                  -7.220
REMARK INTRA:                   0.448
REMARK UNBOUND:                 0.416
REMARK SMILES CC1=CCC(=C(C)C)C(=O)CC(C)=CCC1
REMARK SMILES IDX 12 1 14 2 13 3 15 4 16 5 2 6 1 7 3 8 11 10 9 11 10 12 5 13
REMARK SMILES IDX 6 14 7 15 8 16 4 17
REMARK H PARENT
REMARK Flexibility Score: 60.00
ROOT
ATOM      1  C   UNL     1      -3.896 -10.353  31.656  1.00  0.00    -0.070 C 
ATOM      2  C   UNL     1      -4.426  -9.912  30.494  1.00  0.00    -0.027 C 
ATOM      3  C   UNL     1      -4.734 -10.235  32.903  1.00  0.00     0.039 C 
ENDROOT
BRANCH   2   4
ATOM      4  C   UNL     1      -3.783 -10.032  29.128  1.00  0.00     0.032 C 
BRANCH   4   5
ATOM      5  C   UNL     1      -4.311 -11.195  28.262  1.00  0.00     0.034 C 
BRANCH   5   6
ATOM      6  C   UNL     1      -3.233 -11.850  27.418  1.00  0.00    -0.077 C 
ATOM      7  C   UNL     1      -2.913 -11.227  26.083  1.00  0.00     0.039 C 
ATOM      8  C   UNL     1      -2.491 -12.912  27.816  1.00  0.00    -0.023 CG0
ATOM      9  G   UNL     1      -2.645 -13.707  29.098  1.00  0.00     0.000 G0
ENDBRANCH   5   6
ENDBRANCH   4   5
ENDBRANCH   2   4
BRANCH   1  10
ATOM     10  C   UNL     1      -2.548 -11.040  31.748  1.00  0.00     0.111 C 
BRANCH  10  11
ATOM     11  C   UNL     1      -2.642 -12.497  31.378  1.00  0.00     0.163 C 
ATOM     12  O   UNL     1      -3.457 -13.219  32.013  1.00  0.00    -0.294 OA
BRANCH  11  13
ATOM     13  C   UNL     1      -1.857 -13.092  30.256  1.00  0.00    -0.002 C 
ATOM     14  C   UNL     1      -0.493 -13.159  30.314  1.00  0.00    -0.069 C 
ATOM     15  C   UNL     1       0.319 -13.894  29.271  1.00  0.00     0.039 C 
ATOM     16  C   UNL     1       0.277 -12.496  31.436  1.00  0.00     0.039 C 
BRANCH  13  17
ATOM     17  C   UNL     1      -2.642 -13.699  29.104  1.00  0.00     0.066 CG0
ATOM     18  G   UNL     1      -2.491 -12.903  27.822  1.00  0.00     0.000 G0
ENDBRANCH  13  17
ENDBRANCH  11  13
ENDBRANCH  10  11
ENDBRANCH   1  10
TORSDOF 0
ENDMDL
MODEL 4
REMARK VINA RESULT:    -4.891      1.714      3.506
REMARK INTER + INTRA:          -6.476
REMARK INTER:                  -7.124
REMARK INTRA:                   0.648
REMARK UNBOUND:                 0.416
REMARK SMILES CC1=CCC(=C(C)C)C(=O)CC(C)=CCC1
REMARK SMILES IDX 12 1 14 2 13 3 15 4 16 5 2 6 1 7 3 8 11 10 9 11 10 12 5 13
REMARK SMILES IDX 6 14 7 15 8 16 4 17
REMARK H PARENT
REMARK Flexibility Score: 60.00
ROOT
ATOM      1  C   UNL     1      -1.140 -12.697  31.155  1.00  0.00    -0.070 C 
ATOM      2  C   UNL     1      -0.736 -12.568  29.872  1.00  0.00    -0.027 C 
ATOM      3  C   UNL     1      -0.542 -11.768  32.179  1.00  0.00     0.039 C 
ENDROOT
BRANCH   2   4
ATOM      4  C   UNL     1      -1.288 -13.338  28.691  1.00  0.00     0.032 C 
BRANCH   4   5
ATOM      5  C   UNL     1      -1.995 -12.473  27.626  1.00  0.00     0.034 C 
BRANCH   5   6
ATOM      6  C   UNL     1      -3.043 -11.544  28.211  1.00  0.00    -0.077 C 
ATOM      7  C   UNL     1      -2.802 -10.059  28.100  1.00  0.00     0.039 C 
ATOM      8  C   UNL     1      -4.210 -11.957  28.762  1.00  0.00    -0.023 CG0
ATOM      9  G   UNL     1      -4.655 -13.388  28.994  1.00  0.00     0.000 G0
ENDBRANCH   5   6
ENDBRANCH   4   5
ENDBRANCH   2   4
BRANCH   1  10
ATOM     10  C   UNL     1      -2.227 -13.659  31.592  1.00  0.00     0.111 C 
BRANCH  10  11
ATOM     11  C   UNL     1      -3.600 -13.102  31.326  1.00  0.00     0.163 C 
ATOM     12  O   UNL     1      -3.891 -11.979  31.819  1.00  0.00    -0.294 OA
BRANCH  11  13
ATOM     13  C   UNL     1      -4.594 -13.799  30.455  1.00  0.00    -0.002 C 
ATOM     14  C   UNL     1      -5.473 -14.703  30.982  1.00  0.00    -0.069 C 
ATOM     15  C   UNL     1      -6.591 -15.306  30.161  1.00  0.00     0.039 C 
ATOM     16  C   UNL     1      -5.371 -15.147  32.425  1.00  0.00     0.039 C 
BRANCH  13  17
ATOM     17  C   UNL     1      -4.644 -13.388  28.992  1.00  0.00     0.066 CG0
ATOM     18  G   UNL     1      -4.205 -11.953  28.782  1.00  0.00     0.000 G0
ENDBRANCH  13  17
ENDBRANCH  11  13
ENDBRANCH  10  11
ENDBRANCH   1  10
TORSDOF 0
ENDMDL
MODEL 5
REMARK VINA RESULT:    -4.869      1.777      3.889
REMARK INTER + INTRA:          -6.445
REMARK INTER:                  -7.266
REMARK INTRA:                   0.821
REMARK UNBOUND:                 0.416
REMARK SMILES CC1=CCC(=C(C)C)C(=O)CC(C)=CCC1
REMARK SMILES IDX 12 1 14 2 13 3 15 4 16 5 2 6 1 7 3 8 11 10 9 11 10 12 5 13
REMARK SMILES IDX 6 14 7 15 8 16 4 17
REMARK H PARENT
REMARK Flexibility Score: 60.00
ROOT
ATOM      1  C   UNL     1      -1.276 -12.991  28.619  1.00  0.00    -0.070 C 
ATOM      2  C   UNL     1      -2.275 -12.615  27.791  1.00  0.00    -0.027 C 
ATOM      3  C   UNL     1      -0.416 -14.158  28.204  1.00  0.00     0.039 C 
ENDROOT
BRANCH   2   4
ATOM      4  C   UNL     1      -3.179 -11.416  27.984  1.00  0.00     0.032 C 
BRANCH   4   5
ATOM      5  C   UNL     1      -4.520 -11.722  28.682  1.00  0.00     0.034 C 
BRANCH   5   6
ATOM      6  C   UNL     1      -4.726 -13.200  28.961  1.00  0.00    -0.077 C 
ATOM      7  C   UNL     1      -5.070 -14.092  27.794  1.00  0.00     0.039 C 
ATOM      8  C   UNL     1      -4.553 -13.781  30.173  1.00  0.00    -0.023 CG0
ATOM      9  G   UNL     1      -4.229 -13.086  31.482  1.00  0.00     0.000 G0
ENDBRANCH   5   6
ENDBRANCH   4   5
ENDBRANCH   2   4
BRANCH   1  10
ATOM     10  C   UNL     1      -0.923 -12.243  29.889  1.00  0.00     0.111 C 
BRANCH  10  11
ATOM     11  C   UNL     1      -1.725 -12.736  31.064  1.00  0.00     0.163 C 
ATOM     12  O   UNL     1      -1.225 -13.638  31.788  1.00  0.00    -0.294 OA
BRANCH  11  13
ATOM     13  C   UNL     1      -3.050 -12.153  31.432  1.00  0.00    -0.002 C 
ATOM     14  C   UNL     1      -3.197 -10.806  31.608  1.00  0.00    -0.069 C 
ATOM     15  C   UNL     1      -4.552 -10.169  31.825  1.00  0.00     0.039 C 
ATOM     16  C   UNL     1      -2.002  -9.878  31.593  1.00  0.00     0.039 C 
BRANCH  13  17
ATOM     17  C   UNL     1      -4.232 -13.106  31.506  1.00  0.00     0.066 CG0
ATOM     18  G   UNL     1      -4.522 -13.768  30.173  1.00  0.00     0.000 G0
ENDBRANCH  13  17
ENDBRANCH  11  13
ENDBRANCH  10  11
ENDBRANCH   1  10
TORSDOF 0
ENDMDL
MODEL 6
REMARK VINA RESULT:    -4.766      1.599      4.040
REMARK INTER + INTRA:          -6.301
REMARK INTER:                  -6.584
REMARK INTRA:                   0.283
REMARK UNBOUND:                 0.416
REMARK SMILES CC1=CCC(=C(C)C)C(=O)CC(C)=CCC1
REMARK SMILES IDX 12 1 14 2 13 3 15 4 16 5 2 6 1 7 3 8 11 10 9 11 10 12 5 13
REMARK SMILES IDX 6 14 7 15 8 16 4 17
REMARK H PARENT
REMARK Flexibility Score: 60.00
ROOT
ATOM      1  C   UNL     1      -3.895 -13.849  27.259  1.00  0.00    -0.070 C 
ATOM      2  C   UNL     1      -5.114 -14.151  27.758  1.00  0.00    -0.027 C 
ATOM      3  C   UNL     1      -3.820 -13.332  25.845  1.00  0.00     0.039 C 
ENDROOT
BRANCH   2   4
ATOM      4  C   UNL     1      -5.403 -14.589  29.178  1.00  0.00     0.032 C 
BRANCH   4   5
ATOM      5  C   UNL     1      -5.314 -13.467  30.233  1.00  0.00     0.034 C 
BRANCH   5   6
ATOM      6  C   UNL     1      -4.553 -13.879  31.481  1.00  0.00    -0.077 C 
ATOM      7  C   UNL     1      -5.092 -15.040  32.279  1.00  0.00     0.039 C 
ATOM      8  C   UNL     1      -3.387 -13.320  31.885  1.00  0.00    -0.023 CG0
ATOM      9  G   UNL     1      -2.673 -12.139  31.256  1.00  0.00     0.000 G0
ENDBRANCH   5   6
ENDBRANCH   4   5
ENDBRANCH   2   4
BRANCH   1  10
ATOM     10  C   UNL     1      -2.621 -13.916  28.078  1.00  0.00     0.111 C 
BRANCH  10  11
ATOM     11  C   UNL     1      -2.331 -12.605  28.760  1.00  0.00     0.163 C 
ATOM     12  O   UNL     1      -2.652 -11.542  28.164  1.00  0.00    -0.294 OA
BRANCH  11  13
ATOM     13  C   UNL     1      -1.741 -12.526  30.130  1.00  0.00    -0.002 C 
ATOM     14  C   UNL     1      -0.404 -12.730  30.328  1.00  0.00    -0.069 C 
ATOM     15  C   UNL     1       0.250 -12.504  31.673  1.00  0.00     0.039 C 
ATOM     16  C   UNL     1       0.494 -13.195  29.202  1.00  0.00     0.039 C 
BRANCH  13  17
ATOM     17  C   UNL     1      -2.669 -12.119  31.264  1.00  0.00     0.066 CG0
ATOM     18  G   UNL     1      -3.382 -13.308  31.878  1.00  0.00     0.000 G0
ENDBRANCH  13  17
ENDBRANCH  11  13
ENDBRANCH  10  11
ENDBRANCH   1  10
TORSDOF 0
ENDMDL
MODEL 7
REMARK VINA RESULT:    -4.639      2.212      4.840
REMARK INTER + INTRA:          -6.122
REMARK INTER:                  -7.084
REMARK INTRA:                   0.961
REMARK UNBOUND:                 0.416
REMARK SMILES CC1=CCC(=C(C)C)C(=O)CC(C)=CCC1
REMARK SMILES IDX 12 1 14 2 13 3 15 4 16 5 2 6 1 7 3 8 11 10 9 11 10 12 5 13
REMARK SMILES IDX 6 14 7 15 8 16 4 17
REMARK H PARENT
REMARK Flexibility Score: 60.00
ROOT
ATOM      1  C   UNL     1      -4.304 -13.503  31.227  1.00  0.00    -0.070 C 
ATOM      2  C   UNL     1      -4.983 -14.368  30.441  1.00  0.00    -0.027 C 
ATOM      3  C   UNL     1      -3.528 -14.068  32.389  1.00  0.00     0.039 C 
ENDROOT
BRANCH   2   4
ATOM      4  C   UNL     1      -5.737 -14.007  29.179  1.00  0.00     0.032 C 
BRANCH   4   5
ATOM      5  C   UNL     1      -5.137 -12.833  28.378  1.00  0.00     0.034 C 
BRANCH   5   6
ATOM      6  C   UNL     1      -4.000 -13.252  27.463  1.00  0.00    -0.077 C 
ATOM      7  C   UNL     1      -4.262 -14.374  26.489  1.00  0.00     0.039 C 
ATOM      8  C   UNL     1      -2.792 -12.641  27.416  1.00  0.00    -0.023 CG0
ATOM      9  G   UNL     1      -2.302 -11.515  28.305  1.00  0.00     0.000 G0
ENDBRANCH   5   6
ENDBRANCH   4   5
ENDBRANCH   2   4
BRANCH   1  10
ATOM     10  C   UNL     1      -4.210 -12.018  30.943  1.00  0.00     0.111 C 
BRANCH  10  11
ATOM     11  C   UNL     1      -2.779 -11.563  30.833  1.00  0.00     0.163 C 
ATOM     12  O   UNL     1      -2.306 -10.860  31.766  1.00  0.00    -0.294 OA
BRANCH  11  13
ATOM     13  C   UNL     1      -1.893 -11.967  29.700  1.00  0.00    -0.002 C 
ATOM     14  C   UNL     1      -0.823 -12.792  29.908  1.00  0.00    -0.069 C 
ATOM     15  C   UNL     1      -0.003 -13.345  28.764  1.00  0.00     0.039 C 
ATOM     16  C   UNL     1      -0.405 -13.197  31.305  1.00  0.00     0.039 C 
BRANCH  13  17
ATOM     17  C   UNL     1      -2.290 -11.502  28.308  1.00  0.00     0.066 CG0
ATOM     18  G   UNL     1      -2.784 -12.641  27.439  1.00  0.00     0.000 G0
ENDBRANCH  13  17
ENDBRANCH  11  13
ENDBRANCH  10  11
ENDBRANCH   1  10
TORSDOF 0
ENDMDL
MODEL 8
REMARK VINA RESULT:    -4.636      1.887      3.784
REMARK INTER + INTRA:          -6.117
REMARK INTER:                  -7.256
REMARK INTRA:                   1.140
REMARK UNBOUND:                 0.416
REMARK SMILES CC1=CCC(=C(C)C)C(=O)CC(C)=CCC1
REMARK SMILES IDX 12 1 14 2 13 3 15 4 16 5 2 6 1 7 3 8 11 10 9 11 10 12 5 13
REMARK SMILES IDX 6 14 7 15 8 16 4 17
REMARK H PARENT
REMARK Flexibility Score: 60.00
ROOT
ATOM      1  C   UNL     1      -4.862 -13.396  28.940  1.00  0.00    -0.070 C 
ATOM      2  C   UNL     1      -4.946 -14.110  30.084  1.00  0.00    -0.027 C 
ATOM      3  C   UNL     1      -5.168 -14.102  27.643  1.00  0.00     0.039 C 
ENDROOT
BRANCH   2   4
ATOM      4  C   UNL     1      -4.772 -13.559  31.483  1.00  0.00     0.032 C 
BRANCH   4   5
ATOM      5  C   UNL     1      -3.424 -12.855  31.740  1.00  0.00     0.034 C 
BRANCH   5   6
ATOM      6  C   UNL     1      -3.547 -11.346  31.840  1.00  0.00    -0.077 C 
ATOM      7  C   UNL     1      -4.624 -10.788  32.736  1.00  0.00     0.039 C 
ATOM      8  C   UNL     1      -2.711 -10.468  31.232  1.00  0.00    -0.023 CG0
ATOM      9  G   UNL     1      -1.579 -10.796  30.278  1.00  0.00     0.000 G0
ENDBRANCH   5   6
ENDBRANCH   4   5
ENDBRANCH   2   4
BRANCH   1  10
ATOM     10  C   UNL     1      -4.571 -11.909  28.907  1.00  0.00     0.111 C 
BRANCH  10  11
ATOM     11  C   UNL     1      -3.174 -11.628  28.420  1.00  0.00     0.163 C 
ATOM     12  O   UNL     1      -3.036 -11.110  27.280  1.00  0.00    -0.294 OA
BRANCH  11  13
ATOM     13  C   UNL     1      -1.965 -11.881  29.261  1.00  0.00    -0.002 C 
ATOM     14  C   UNL     1      -1.201 -12.997  29.068  1.00  0.00    -0.069 C 
ATOM     15  C   UNL     1       0.112 -13.204  29.791  1.00  0.00     0.039 C 
ATOM     16  C   UNL     1      -1.632 -14.088  28.113  1.00  0.00     0.039 C 
BRANCH  13  17
ATOM     17  C   UNL     1      -1.578 -10.804  30.262  1.00  0.00     0.066 CG0
ATOM     18  G   UNL     1      -2.704 -10.480  31.224  1.00  0.00     0.000 G0
ENDBRANCH  13  17
ENDBRANCH  11  13
ENDBRANCH  10  11
ENDBRANCH   1  10
TORSDOF 0
ENDMDL
MODEL 9
REMARK VINA RESULT:    -4.543      1.886      4.722
REMARK INTER + INTRA:          -5.987
REMARK INTER:                  -6.633
REMARK INTRA:                   0.646
REMARK UNBOUND:                 0.416
REMARK SMILES CC1=CCC(=C(C)C)C(=O)CC(C)=CCC1
REMARK SMILES IDX 12 1 14 2 13 3 15 4 16 5 2 6 1 7 3 8 11 10 9 11 10 12 5 13
REMARK SMILES IDX 6 14 7 15 8 16 4 17
REMARK H PARENT
REMARK Flexibility Score: 60.00
ROOT
ATOM      1  C   UNL     1      -4.360 -13.302  30.993  1.00  0.00    -0.070 C 
ATOM      2  C   UNL     1      -4.667 -13.975  29.862  1.00  0.00    -0.027 C 
ATOM      3  C   UNL     1      -3.977 -14.106  32.210  1.00  0.00     0.039 C 
ENDROOT
BRANCH   2   4
ATOM      4  C   UNL     1      -4.980 -13.349  28.520  1.00  0.00     0.032 C 
BRANCH   4   5
ATOM      5  C   UNL     1      -4.005 -13.726  27.385  1.00  0.00     0.034 C 
BRANCH   5   6
ATOM      6  C   UNL     1      -3.093 -12.584  26.977  1.00  0.00    -0.077 C 
ATOM      7  C   UNL     1      -3.435 -11.830  25.716  1.00  0.00     0.039 C 
ATOM      8  C   UNL     1      -2.034 -12.152  27.705  1.00  0.00    -0.023 CG0
ATOM      9  G   UNL     1      -1.495 -12.763  28.984  1.00  0.00     0.000 G0
ENDBRANCH   5   6
ENDBRANCH   4   5
ENDBRANCH   2   4
BRANCH   1  10
ATOM     10  C   UNL     1      -4.292 -11.790  31.069  1.00  0.00     0.111 C 
BRANCH  10  11
ATOM     11  C   UNL     1      -3.156 -11.244  30.245  1.00  0.00     0.163 C 
ATOM     12  O   UNL     1      -3.345 -10.172  29.611  1.00  0.00    -0.294 OA
BRANCH  11  13
ATOM     13  C   UNL     1      -1.810 -11.890  30.207  1.00  0.00    -0.002 C 
ATOM     14  C   UNL     1      -0.947 -11.773  31.260  1.00  0.00    -0.069 C 
ATOM     15  C   UNL     1       0.354 -12.541  31.320  1.00  0.00     0.039 C 
ATOM     16  C   UNL     1      -1.256 -10.862  32.429  1.00  0.00     0.039 C 
BRANCH  13  17
ATOM     17  C   UNL     1      -1.487 -12.753  28.997  1.00  0.00     0.066 CG0
ATOM     18  G   UNL     1      -2.031 -12.165  27.709  1.00  0.00     0.000 G0
ENDBRANCH  13  17
ENDBRANCH  11  13
ENDBRANCH  10  11
ENDBRANCH   1  10
TORSDOF 0
ENDMDL
