MODEL 1
REMARK VINA RESULT:    21.616      0.000      0.000
REMARK INTER + INTRA:          30.778
REMARK INTER:                  30.461
REMARK INTRA:                   0.317
REMARK UNBOUND:                 0.317
REMARK SMILES CC1=CCC(=C(C)C)C(=O)CC(C)=CCC1
REMARK SMILES IDX 12 1 14 2 13 3 15 4 16 5 2 6 1 7 3 8 11 10 9 11 10 12 5 13
REMARK SMILES IDX 6 14 7 15 8 16 4 17
REMARK H PARENT
REMARK Flexibility Score: 60.00
ROOT
ATOM      1  C   UNL     1      33.840  13.723  39.647  1.00  0.00    -0.070 C 
ATOM      2  C   UNL     1      33.810  14.934  40.259  1.00  0.00    -0.027 C 
ATOM      3  C   UNL     1      32.614  13.310  38.869  1.00  0.00     0.039 C 
ENDROOT
BRANCH   2   4
ATOM      4  C   UNL     1      34.876  15.502  41.166  1.00  0.00     0.032 C 
BRANCH   4   5
ATOM      5  C   UNL     1      34.700  15.095  42.636  1.00  0.00     0.034 C 
BRANCH   5   6
ATOM      6  C   UNL     1      35.628  13.944  42.974  1.00  0.00    -0.077 C 
ATOM      7  C   UNL     1      37.060  14.260  43.323  1.00  0.00     0.039 C 
ATOM      8  C   UNL     1      35.220  12.655  43.055  1.00  0.00    -0.023 CG0
ATOM      9  G   UNL     1      33.836  12.148  42.729  1.00  0.00     0.000 G0
ENDBRANCH   5   6
ENDBRANCH   4   5
ENDBRANCH   2   4
BRANCH   1  10
ATOM     10  C   UNL     1      35.052  12.795  39.627  1.00  0.00     0.111 C 
BRANCH  10  11
ATOM     11  C   UNL     1      34.861  11.521  40.410  1.00  0.00     0.163 C 
ATOM     12  O   UNL     1      35.707  10.600  40.242  1.00  0.00    -0.294 OA
BRANCH  11  13
ATOM     13  C   UNL     1      33.756  11.339  41.409  1.00  0.00    -0.002 C 
ATOM     14  C   UNL     1      32.672  10.553  41.118  1.00  0.00    -0.069 C 
ATOM     15  C   UNL     1      31.500  10.431  42.068  1.00  0.00     0.039 C 
ATOM     16  C   UNL     1      32.608   9.720  39.856  1.00  0.00     0.039 C 
BRANCH  13  17
ATOM     17  C   UNL     1      33.833  12.095  42.734  1.00  0.00     0.066 CG0
ATOM     18  G   UNL     1      35.225  12.607  43.018  1.00  0.00     0.000 G0
ENDBRANCH  13  17
ENDBRANCH  11  13
ENDBRANCH  10  11
ENDBRANCH   1  10
TORSDOF 0
ENDMDL
MODEL 2
REMARK VINA RESULT:    21.648      1.536      4.241
REMARK INTER + INTRA:          30.823
REMARK INTER:                  29.115
REMARK INTRA:                   1.709
REMARK UNBOUND:                 0.317
REMARK SMILES CC1=CCC(=C(C)C)C(=O)CC(C)=CCC1
REMARK SMILES IDX 12 1 14 2 13 3 15 4 16 5 2 6 1 7 3 8 11 10 9 11 10 12 5 13
REMARK SMILES IDX 6 14 7 15 8 16 4 17
REMARK H PARENT
REMARK Flexibility Score: 60.00
ROOT
ATOM      1  C   UNL     1      33.331  12.706  39.493  1.00  0.00    -0.070 C 
ATOM      2  C   UNL     1      32.813  11.451  39.494  1.00  0.00    -0.027 C 
ATOM      3  C   UNL     1      32.404  13.836  39.119  1.00  0.00     0.039 C 
ENDROOT
BRANCH   2   4
ATOM      4  C   UNL     1      33.577  10.171  39.735  1.00  0.00     0.032 C 
BRANCH   4   5
ATOM      5  C   UNL     1      33.582   9.736  41.207  1.00  0.00     0.034 C 
BRANCH   5   6
ATOM      6  C   UNL     1      32.814  10.735  42.050  1.00  0.00    -0.077 C 
ATOM      7  C   UNL     1      31.314  10.607  42.121  1.00  0.00     0.039 C 
ATOM      8  C   UNL     1      33.411  11.689  42.805  1.00  0.00    -0.023 CG0
ATOM      9  G   UNL     1      34.892  11.977  42.852  1.00  0.00     0.000 G0
ENDBRANCH   5   6
ENDBRANCH   4   5
ENDBRANCH   2   4
BRANCH   1  10
ATOM     10  C   UNL     1      34.755  13.052  39.919  1.00  0.00     0.111 C 
BRANCH  10  11
ATOM     11  C   UNL     1      34.831  13.946  41.132  1.00  0.00     0.163 C 
ATOM     12  O   UNL     1      34.500  15.155  40.987  1.00  0.00    -0.294 OA
BRANCH  11  13
ATOM     13  C   UNL     1      35.219  13.440  42.490  1.00  0.00    -0.002 C 
ATOM     14  C   UNL     1      35.888  14.247  43.372  1.00  0.00    -0.069 C 
ATOM     15  C   UNL     1      36.375  13.732  44.709  1.00  0.00     0.039 C 
ATOM     16  C   UNL     1      36.131  15.713  43.085  1.00  0.00     0.039 C 
BRANCH  13  17
ATOM     17  C   UNL     1      34.907  11.989  42.850  1.00  0.00     0.066 CG0
ATOM     18  G   UNL     1      33.427  11.693  42.794  1.00  0.00     0.000 G0
ENDBRANCH  13  17
ENDBRANCH  11  13
ENDBRANCH  10  11
ENDBRANCH   1  10
TORSDOF 0
ENDMDL
MODEL 3
REMARK VINA RESULT:    22.343      2.121      4.723
REMARK INTER + INTRA:          31.803
REMARK INTER:                  31.564
REMARK INTRA:                   0.239
REMARK UNBOUND:                 0.317
REMARK SMILES CC1=CCC(=C(C)C)C(=O)CC(C)=CCC1
REMARK SMILES IDX 12 1 14 2 13 3 15 4 16 5 2 6 1 7 3 8 11 10 9 11 10 12 5 13
REMARK SMILES IDX 6 14 7 15 8 16 4 17
REMARK H PARENT
REMARK Flexibility Score: 60.00
ROOT
ATOM      1  C   UNL     1      32.588  12.058  39.690  1.00  0.00    -0.070 C 
ATOM      2  C   UNL     1      32.527  11.023  38.814  1.00  0.00    -0.027 C 
ATOM      3  C   UNL     1      32.760  13.443  39.114  1.00  0.00     0.039 C 
ENDROOT
BRANCH   2   4
ATOM      4  C   UNL     1      32.460   9.557  39.168  1.00  0.00     0.032 C 
BRANCH   4   5
ATOM      5  C   UNL     1      33.734   8.785  38.797  1.00  0.00     0.034 C 
BRANCH   5   6
ATOM      6  C   UNL     1      34.514   8.430  40.048  1.00  0.00    -0.077 C 
ATOM      7  C   UNL     1      34.409   7.025  40.581  1.00  0.00     0.039 C 
ATOM      8  C   UNL     1      35.361   9.288  40.667  1.00  0.00    -0.023 CG0
ATOM      9  G   UNL     1      35.584  10.732  40.289  1.00  0.00     0.000 G0
ENDBRANCH   5   6
ENDBRANCH   4   5
ENDBRANCH   2   4
BRANCH   1  10
ATOM     10  C   UNL     1      32.416  11.922  41.200  1.00  0.00     0.111 C 
BRANCH  10  11
ATOM     11  C   UNL     1      33.664  11.479  41.922  1.00  0.00     0.163 C 
ATOM     12  O   UNL     1      33.519  10.839  43.000  1.00  0.00    -0.294 OA
BRANCH  11  13
ATOM     13  C   UNL     1      35.043  11.716  41.379  1.00  0.00    -0.002 C 
ATOM     14  C   UNL     1      35.773  12.805  41.775  1.00  0.00    -0.069 C 
ATOM     15  C   UNL     1      37.125  13.118  41.171  1.00  0.00     0.039 C 
ATOM     16  C   UNL     1      35.296  13.727  42.876  1.00  0.00     0.039 C 
BRANCH  13  17
ATOM     17  C   UNL     1      35.595  10.750  40.331  1.00  0.00     0.066 CG0
ATOM     18  G   UNL     1      35.349   9.307  40.700  1.00  0.00     0.000 G0
ENDBRANCH  13  17
ENDBRANCH  11  13
ENDBRANCH  10  11
ENDBRANCH   1  10
TORSDOF 0
ENDMDL
MODEL 4
REMARK VINA RESULT:    22.541      1.542      2.334
REMARK INTER + INTRA:          32.082
REMARK INTER:                  29.626
REMARK INTRA:                   2.456
REMARK UNBOUND:                 0.317
REMARK SMILES CC1=CCC(=C(C)C)C(=O)CC(C)=CCC1
REMARK SMILES IDX 12 1 14 2 13 3 15 4 16 5 2 6 1 7 3 8 11 10 9 11 10 12 5 13
REMARK SMILES IDX 6 14 7 15 8 16 4 17
REMARK H PARENT
REMARK Flexibility Score: 60.00
ROOT
ATOM      1  C   UNL     1      36.386  12.076  40.333  1.00  0.00    -0.070 C 
ATOM      2  C   UNL     1      37.121  12.660  41.314  1.00  0.00    -0.027 C 
ATOM      3  C   UNL     1      36.637  10.614  40.058  1.00  0.00     0.039 C 
ENDROOT
BRANCH   2   4
ATOM      4  C   UNL     1      37.108  14.124  41.686  1.00  0.00     0.032 C 
BRANCH   4   5
ATOM      5  C   UNL     1      36.782  14.370  43.166  1.00  0.00     0.034 C 
BRANCH   5   6
ATOM      6  C   UNL     1      35.307  14.677  43.332  1.00  0.00    -0.077 C 
ATOM      7  C   UNL     1      34.913  16.047  43.822  1.00  0.00     0.039 C 
ATOM      8  C   UNL     1      34.321  13.813  42.990  1.00  0.00    -0.023 CG0
ATOM      9  G   UNL     1      34.521  12.400  42.498  1.00  0.00     0.000 G0
ENDBRANCH   5   6
ENDBRANCH   4   5
ENDBRANCH   2   4
BRANCH   1  10
ATOM     10  C   UNL     1      35.276  12.776  39.553  1.00  0.00     0.111 C 
BRANCH  10  11
ATOM     11  C   UNL     1      33.885  12.423  40.016  1.00  0.00     0.163 C 
ATOM     12  O   UNL     1      32.955  12.477  39.165  1.00  0.00    -0.294 OA
BRANCH  11  13
ATOM     13  C   UNL     1      33.587  11.960  41.412  1.00  0.00    -0.002 C 
ATOM     14  C   UNL     1      32.474  11.207  41.677  1.00  0.00    -0.069 C 
ATOM     15  C   UNL     1      32.101  10.809  43.089  1.00  0.00     0.039 C 
ATOM     16  C   UNL     1      31.584  10.684  40.571  1.00  0.00     0.039 C 
BRANCH  13  17
ATOM     17  C   UNL     1      34.518  12.394  42.543  1.00  0.00     0.066 CG0
ATOM     18  G   UNL     1      34.253  13.812  42.988  1.00  0.00     0.000 G0
ENDBRANCH  13  17
ENDBRANCH  11  13
ENDBRANCH  10  11
ENDBRANCH   1  10
TORSDOF 0
ENDMDL
MODEL 5
REMARK VINA RESULT:    22.773      2.343      4.300
REMARK INTER + INTRA:          32.409
REMARK INTER:                  31.425
REMARK INTRA:                   0.984
REMARK UNBOUND:                 0.317
REMARK SMILES CC1=CCC(=C(C)C)C(=O)CC(C)=CCC1
REMARK SMILES IDX 12 1 14 2 13 3 15 4 16 5 2 6 1 7 3 8 11 10 9 11 10 12 5 13
REMARK SMILES IDX 6 14 7 15 8 16 4 17
REMARK H PARENT
REMARK Flexibility Score: 60.00
ROOT
ATOM      1  C   UNL     1      35.215  12.488  41.727  1.00  0.00    -0.070 C 
ATOM      2  C   UNL     1      36.185  12.270  40.802  1.00  0.00    -0.027 C 
ATOM      3  C   UNL     1      34.984  13.914  42.164  1.00  0.00     0.039 C 
ENDROOT
BRANCH   2   4
ATOM      4  C   UNL     1      36.652  10.925  40.300  1.00  0.00     0.032 C 
BRANCH   4   5
ATOM      5  C   UNL     1      35.586  10.178  39.485  1.00  0.00     0.034 C 
BRANCH   5   6
ATOM      6  C   UNL     1      35.090   8.971  40.257  1.00  0.00    -0.077 C 
ATOM      7  C   UNL     1      36.107   8.079  40.921  1.00  0.00     0.039 C 
ATOM      8  C   UNL     1      33.777   8.694  40.446  1.00  0.00    -0.023 CG0
ATOM      9  G   UNL     1      32.621   9.460  39.849  1.00  0.00     0.000 G0
ENDBRANCH   5   6
ENDBRANCH   4   5
ENDBRANCH   2   4
BRANCH   1  10
ATOM     10  C   UNL     1      34.298  11.404  42.288  1.00  0.00     0.111 C 
BRANCH  10  11
ATOM     11  C   UNL     1      32.938  11.356  41.639  1.00  0.00     0.163 C 
ATOM     12  O   UNL     1      31.948  11.727  42.330  1.00  0.00    -0.294 OA
BRANCH  11  13
ATOM     13  C   UNL     1      32.734  10.949  40.209  1.00  0.00    -0.002 C 
ATOM     14  C   UNL     1      32.578  11.893  39.229  1.00  0.00    -0.069 C 
ATOM     15  C   UNL     1      32.275  11.509  37.796  1.00  0.00     0.039 C 
ATOM     16  C   UNL     1      32.752  13.370  39.509  1.00  0.00     0.039 C 
BRANCH  13  17
ATOM     17  C   UNL     1      32.645   9.461  39.875  1.00  0.00     0.066 CG0
ATOM     18  G   UNL     1      33.792   8.675  40.464  1.00  0.00     0.000 G0
ENDBRANCH  13  17
ENDBRANCH  11  13
ENDBRANCH  10  11
ENDBRANCH   1  10
TORSDOF 0
ENDMDL
MODEL 6
REMARK VINA RESULT:    22.847      1.660      3.826
REMARK INTER + INTRA:          32.513
REMARK INTER:                  29.302
REMARK INTRA:                   3.210
REMARK UNBOUND:                 0.317
REMARK SMILES CC1=CCC(=C(C)C)C(=O)CC(C)=CCC1
REMARK SMILES IDX 12 1 14 2 13 3 15 4 16 5 2 6 1 7 3 8 11 10 9 11 10 12 5 13
REMARK SMILES IDX 6 14 7 15 8 16 4 17
REMARK H PARENT
REMARK Flexibility Score: 60.00
ROOT
ATOM      1  C   UNL     1      35.819  13.839  42.662  1.00  0.00    -0.070 C 
ATOM      2  C   UNL     1      34.939  13.289  43.536  1.00  0.00    -0.027 C 
ATOM      3  C   UNL     1      37.119  14.361  43.225  1.00  0.00     0.039 C 
ENDROOT
BRANCH   2   4
ATOM      4  C   UNL     1      33.547  12.800  43.212  1.00  0.00     0.032 C 
BRANCH   4   5
ATOM      5  C   UNL     1      33.520  11.359  42.681  1.00  0.00     0.034 C 
BRANCH   5   6
ATOM      6  C   UNL     1      32.312  11.154  41.788  1.00  0.00    -0.077 C 
ATOM      7  C   UNL     1      31.095  10.484  42.373  1.00  0.00     0.039 C 
ATOM      8  C   UNL     1      32.240  11.610  40.514  1.00  0.00    -0.023 CG0
ATOM      9  G   UNL     1      33.356  12.288  39.757  1.00  0.00     0.000 G0
ENDBRANCH   5   6
ENDBRANCH   4   5
ENDBRANCH   2   4
BRANCH   1  10
ATOM     10  C   UNL     1      35.617  13.890  41.150  1.00  0.00     0.111 C 
BRANCH  10  11
ATOM     11  C   UNL     1      35.820  12.565  40.459  1.00  0.00     0.163 C 
ATOM     12  O   UNL     1      37.007  12.194  40.247  1.00  0.00    -0.294 OA
BRANCH  11  13
ATOM     13  C   UNL     1      34.681  11.664  40.080  1.00  0.00    -0.002 C 
ATOM     14  C   UNL     1      34.867  10.312  39.965  1.00  0.00    -0.069 C 
ATOM     15  C   UNL     1      33.761   9.395  39.491  1.00  0.00     0.039 C 
ATOM     16  C   UNL     1      36.171   9.651  40.356  1.00  0.00     0.039 C 
BRANCH  13  17
ATOM     17  C   UNL     1      33.323  12.290  39.766  1.00  0.00     0.066 CG0
ATOM     18  G   UNL     1      32.198  11.617  40.515  1.00  0.00     0.000 G0
ENDBRANCH  13  17
ENDBRANCH  11  13
ENDBRANCH  10  11
ENDBRANCH   1  10
TORSDOF 0
ENDMDL
MODEL 7
REMARK VINA RESULT:    22.895      2.299      4.520
REMARK INTER + INTRA:          32.580
REMARK INTER:                  29.857
REMARK INTRA:                   2.724
REMARK UNBOUND:                 0.317
REMARK SMILES CC1=CCC(=C(C)C)C(=O)CC(C)=CCC1
REMARK SMILES IDX 12 1 14 2 13 3 15 4 16 5 2 6 1 7 3 8 11 10 9 11 10 12 5 13
REMARK SMILES IDX 6 14 7 15 8 16 4 17
REMARK H PARENT
REMARK Flexibility Score: 60.00
ROOT
ATOM      1  C   UNL     1      34.767  12.996  41.695  1.00  0.00    -0.070 C 
ATOM      2  C   UNL     1      34.381  13.503  40.496  1.00  0.00    -0.027 C 
ATOM      3  C   UNL     1      35.330  13.963  42.707  1.00  0.00     0.039 C 
ENDROOT
BRANCH   2   4
ATOM      4  C   UNL     1      33.890  12.711  39.308  1.00  0.00     0.032 C 
BRANCH   4   5
ATOM      5  C   UNL     1      32.362  12.732  39.155  1.00  0.00     0.034 C 
BRANCH   5   6
ATOM      6  C   UNL     1      31.924  11.694  38.141  1.00  0.00    -0.077 C 
ATOM      7  C   UNL     1      31.717  12.132  36.714  1.00  0.00     0.039 C 
ATOM      8  C   UNL     1      31.783  10.379  38.432  1.00  0.00    -0.023 CG0
ATOM      9  G   UNL     1      31.933   9.759  39.801  1.00  0.00     0.000 G0
ENDBRANCH   5   6
ENDBRANCH   4   5
ENDBRANCH   2   4
BRANCH   1  10
ATOM     10  C   UNL     1      34.594  11.537  42.110  1.00  0.00     0.111 C 
BRANCH  10  11
ATOM     11  C   UNL     1      33.314  10.908  41.619  1.00  0.00     0.163 C 
ATOM     12  O   UNL     1      32.244  11.227  42.208  1.00  0.00    -0.294 OA
BRANCH  11  13
ATOM     13  C   UNL     1      33.264   9.982  40.439  1.00  0.00    -0.002 C 
ATOM     14  C   UNL     1      34.413   9.435  39.931  1.00  0.00    -0.069 C 
ATOM     15  C   UNL     1      34.400   8.577  38.685  1.00  0.00     0.039 C 
ATOM     16  C   UNL     1      35.751   9.612  40.615  1.00  0.00     0.039 C 
BRANCH  13  17
ATOM     17  C   UNL     1      31.915   9.708  39.778  1.00  0.00     0.066 CG0
ATOM     18  G   UNL     1      31.785  10.394  38.440  1.00  0.00     0.000 G0
ENDBRANCH  13  17
ENDBRANCH  11  13
ENDBRANCH  10  11
ENDBRANCH   1  10
TORSDOF 0
ENDMDL
MODEL 8
REMARK VINA RESULT:    23.047      2.194      4.320
REMARK INTER + INTRA:          32.795
REMARK INTER:                  28.775
REMARK INTRA:                   4.020
REMARK UNBOUND:                 0.317
REMARK SMILES CC1=CCC(=C(C)C)C(=O)CC(C)=CCC1
REMARK SMILES IDX 12 1 14 2 13 3 15 4 16 5 2 6 1 7 3 8 11 10 9 11 10 12 5 13
REMARK SMILES IDX 6 14 7 15 8 16 4 17
REMARK H PARENT
REMARK Flexibility Score: 60.00
ROOT
ATOM      1  C   UNL     1      36.139  12.872  41.675  1.00  0.00    -0.070 C 
ATOM      2  C   UNL     1      36.647  11.923  40.848  1.00  0.00    -0.027 C 
ATOM      3  C   UNL     1      37.124  13.715  42.448  1.00  0.00     0.039 C 
ENDROOT
BRANCH   2   4
ATOM      4  C   UNL     1      35.852  10.907  40.062  1.00  0.00     0.032 C 
BRANCH   4   5
ATOM      5  C   UNL     1      35.239   9.806  40.940  1.00  0.00     0.034 C 
BRANCH   5   6
ATOM      6  C   UNL     1      34.321   8.929  40.113  1.00  0.00    -0.077 C 
ATOM      7  C   UNL     1      34.539   7.438  40.141  1.00  0.00     0.039 C 
ATOM      8  C   UNL     1      33.266   9.407  39.410  1.00  0.00    -0.023 CG0
ATOM      9  G   UNL     1      32.899  10.863  39.252  1.00  0.00     0.000 G0
ENDBRANCH   5   6
ENDBRANCH   4   5
ENDBRANCH   2   4
BRANCH   1  10
ATOM     10  C   UNL     1      34.653  13.193  41.811  1.00  0.00     0.111 C 
BRANCH  10  11
ATOM     11  C   UNL     1      33.839  12.860  40.586  1.00  0.00     0.163 C 
ATOM     12  O   UNL     1      33.966  13.611  39.579  1.00  0.00    -0.294 OA
BRANCH  11  13
ATOM     13  C   UNL     1      32.950  11.654  40.504  1.00  0.00    -0.002 C 
ATOM     14  C   UNL     1      32.224  11.246  41.592  1.00  0.00    -0.069 C 
ATOM     15  C   UNL     1      31.395   9.980  41.565  1.00  0.00     0.039 C 
ATOM     16  C   UNL     1      32.165  12.065  42.864  1.00  0.00     0.039 C 
BRANCH  13  17
ATOM     17  C   UNL     1      32.914  10.855  39.203  1.00  0.00     0.066 CG0
ATOM     18  G   UNL     1      33.232   9.395  39.421  1.00  0.00     0.000 G0
ENDBRANCH  13  17
ENDBRANCH  11  13
ENDBRANCH  10  11
ENDBRANCH   1  10
TORSDOF 0
ENDMDL
MODEL 9
REMARK VINA RESULT:    23.847      2.057      4.493
REMARK INTER + INTRA:          33.922
REMARK INTER:                  33.175
REMARK INTRA:                   0.747
REMARK UNBOUND:                 0.317
REMARK SMILES CC1=CCC(=C(C)C)C(=O)CC(C)=CCC1
REMARK SMILES IDX 12 1 14 2 13 3 15 4 16 5 2 6 1 7 3 8 11 10 9 11 10 12 5 13
REMARK SMILES IDX 6 14 7 15 8 16 4 17
REMARK H PARENT
REMARK Flexibility Score: 60.00
ROOT
ATOM      1  C   UNL     1      36.791  11.901  40.112  1.00  0.00    -0.070 C 
ATOM      2  C   UNL     1      36.822  10.699  39.481  1.00  0.00    -0.027 C 
ATOM      3  C   UNL     1      37.080  13.127  39.281  1.00  0.00     0.039 C 
ENDROOT
BRANCH   2   4
ATOM      4  C   UNL     1      36.666   9.346  40.131  1.00  0.00     0.032 C 
BRANCH   4   5
ATOM      5  C   UNL     1      35.323   9.173  40.856  1.00  0.00     0.034 C 
BRANCH   5   6
ATOM      6  C   UNL     1      34.176   9.337  39.878  1.00  0.00    -0.077 C 
ATOM      7  C   UNL     1      34.124   8.428  38.678  1.00  0.00     0.039 C 
ATOM      8  C   UNL     1      33.154  10.206  40.067  1.00  0.00    -0.023 CG0
ATOM      9  G   UNL     1      33.042  11.202  41.196  1.00  0.00     0.000 G0
ENDBRANCH   5   6
ENDBRANCH   4   5
ENDBRANCH   2   4
BRANCH   1  10
ATOM     10  C   UNL     1      36.407  12.096  41.577  1.00  0.00     0.111 C 
BRANCH  10  11
ATOM     11  C   UNL     1      35.069  12.762  41.775  1.00  0.00     0.163 C 
ATOM     12  O   UNL     1      34.979  13.632  42.685  1.00  0.00    -0.294 OA
BRANCH  11  13
ATOM     13  C   UNL     1      33.881  12.474  40.904  1.00  0.00    -0.002 C 
ATOM     14  C   UNL     1      33.514  13.344  39.911  1.00  0.00    -0.069 C 
ATOM     15  C   UNL     1      32.267  13.126  39.083  1.00  0.00     0.039 C 
ATOM     16  C   UNL     1      34.363  14.544  39.550  1.00  0.00     0.039 C 
BRANCH  13  17
ATOM     17  C   UNL     1      33.053  11.221  41.183  1.00  0.00     0.066 CG0
ATOM     18  G   UNL     1      33.192  10.191  40.087  1.00  0.00     0.000 G0
ENDBRANCH  13  17
ENDBRANCH  11  13
ENDBRANCH  10  11
ENDBRANCH   1  10
TORSDOF 0
ENDMDL
