MODEL 1
REMARK VINA RESULT:    26.085      0.000      0.000
REMARK INTER + INTRA:          31.096
REMARK INTER:                  31.422
REMARK INTRA:                  -0.326
REMARK UNBOUND:                -0.326
REMARK SMILES O=c1c(O)c(-c2ccc(O)cc2O)oc2cc(O)cc(O)c12
REMARK SMILES IDX 5 1 3 2 2 3 1 4 22 5 20 6 19 7 17 8 16 9 15 10 14 11 6 12
REMARK SMILES IDX 8 13 7 14 9 15 11 16 12 17 10 18 13 20 4 22 21 24 18 26
REMARK H PARENT 10 19 13 21 4 23 21 25 18 27
REMARK Flexibility Score: inf
ROOT
ATOM      1  C   UNL     1      12.496   0.901 -16.365  1.00  0.00     0.184 A 
ATOM      2  C   UNL     1      11.830  -0.270 -15.976  1.00  0.00     0.208 A 
ATOM      3  C   UNL     1      10.874  -0.202 -14.950  1.00  0.00     0.238 A 
ATOM      4  O   UNL     1      10.327  -1.266 -14.563  1.00  0.00    -0.285 OA
ATOM      5  C   UNL     1      10.578   1.045 -14.348  1.00  0.00     0.111 A 
ATOM      6  C   UNL     1       9.599   1.239 -13.327  1.00  0.00     0.134 A 
ATOM      7  C   UNL     1       9.476   2.495 -12.719  1.00  0.00     0.093 A 
ATOM      8  C   UNL     1      10.248   3.578 -13.138  1.00  0.00     0.123 A 
ATOM      9  C   UNL     1      11.167   3.413 -14.175  1.00  0.00     0.094 A 
ATOM     10  C   UNL     1      11.340   2.165 -14.776  1.00  0.00     0.146 A 
ATOM     11  O   UNL     1      12.234   2.048 -15.749  1.00  0.00    -0.451 OA
ENDROOT
BRANCH   1  12
ATOM     12  C   UNL     1      13.495   0.893 -17.455  1.00  0.00     0.063 A 
ATOM     13  C   UNL     1      14.164   1.636 -19.675  1.00  0.00     0.047 A 
ATOM     14  C   UNL     1      13.217   1.579 -18.651  1.00  0.00     0.020 A 
ATOM     15  C   UNL     1      15.405   1.015 -19.518  1.00  0.00     0.119 A 
ATOM     16  C   UNL     1      15.696   0.331 -18.331  1.00  0.00     0.093 A 
ATOM     17  C   UNL     1      14.750   0.258 -17.301  1.00  0.00     0.130 A 
BRANCH  15  18
ATOM     18  O   UNL     1      16.343   1.083 -20.546  1.00  0.00    -0.508 OA
ATOM     19  H   UNL     1      16.820   0.255 -20.885  1.00  0.00     0.293 HD
ENDBRANCH  15  18
BRANCH  17  20
ATOM     20  O   UNL     1      15.078  -0.468 -16.154  1.00  0.00    -0.507 OA
ATOM     21  H   UNL     1      15.939  -0.991 -16.058  1.00  0.00     0.293 HD
ENDBRANCH  17  20
ENDBRANCH   1  12
BRANCH   2  22
ATOM     22  O   UNL     1      12.142  -1.487 -16.590  1.00  0.00    -0.502 OA
ATOM     23  H   UNL     1      12.277  -2.341 -16.065  1.00  0.00     0.293 HD
ENDBRANCH   2  22
BRANCH   6  24
ATOM     24  O   UNL     1       8.712   0.249 -12.895  1.00  0.00    -0.507 OA
ATOM     25  H   UNL     1       8.554  -0.002 -11.932  1.00  0.00     0.293 HD
ENDBRANCH   6  24
BRANCH   8  26
ATOM     26  O   UNL     1      10.087   4.817 -12.521  1.00  0.00    -0.508 OA
ATOM     27  H   UNL     1      10.870   5.308 -12.106  1.00  0.00     0.293 HD
ENDBRANCH   8  26
TORSDOF 6
ENDMDL
MODEL 2
REMARK VINA RESULT:    26.552      0.708      1.465
REMARK INTER + INTRA:          31.658
REMARK INTER:                  32.021
REMARK INTRA:                  -0.363
REMARK UNBOUND:                -0.326
REMARK SMILES O=c1c(O)c(-c2ccc(O)cc2O)oc2cc(O)cc(O)c12
REMARK SMILES IDX 5 1 3 2 2 3 1 4 22 5 20 6 19 7 17 8 16 9 15 10 14 11 6 12
REMARK SMILES IDX 8 13 7 14 9 15 11 16 12 17 10 18 13 20 4 22 21 24 18 26
REMARK H PARENT 10 19 13 21 4 23 21 25 18 27
REMARK Flexibility Score: inf
ROOT
ATOM      1  C   UNL     1      12.576   0.934 -16.330  1.00  0.00     0.184 A 
ATOM      2  C   UNL     1      11.897  -0.239 -15.970  1.00  0.00     0.208 A 
ATOM      3  C   UNL     1      10.907  -0.177 -14.977  1.00  0.00     0.238 A 
ATOM      4  O   UNL     1      10.346  -1.243 -14.616  1.00  0.00    -0.285 OA
ATOM      5  C   UNL     1      10.592   1.067 -14.376  1.00  0.00     0.111 A 
ATOM      6  C   UNL     1       9.580   1.255 -13.386  1.00  0.00     0.134 A 
ATOM      7  C   UNL     1       9.439   2.507 -12.774  1.00  0.00     0.093 A 
ATOM      8  C   UNL     1      10.226   3.591 -13.160  1.00  0.00     0.123 A 
ATOM      9  C   UNL     1      11.179   3.432 -14.167  1.00  0.00     0.094 A 
ATOM     10  C   UNL     1      11.369   2.188 -14.770  1.00  0.00     0.146 A 
ATOM     11  O   UNL     1      12.296   2.077 -15.715  1.00  0.00    -0.451 OA
ENDROOT
BRANCH   1  12
ATOM     12  C   UNL     1      13.611   0.932 -17.386  1.00  0.00     0.063 A 
ATOM     13  C   UNL     1      15.828   0.257 -18.130  1.00  0.00     0.047 A 
ATOM     14  C   UNL     1      14.853   0.323 -17.133  1.00  0.00     0.020 A 
ATOM     15  C   UNL     1      15.576   0.791 -19.395  1.00  0.00     0.119 A 
ATOM     16  C   UNL     1      14.342   1.398 -19.661  1.00  0.00     0.093 A 
ATOM     17  C   UNL     1      13.360   1.479 -18.666  1.00  0.00     0.130 A 
BRANCH  15  18
ATOM     18  O   UNL     1      16.556   0.714 -20.382  1.00  0.00    -0.508 OA
ATOM     19  H   UNL     1      17.440   0.245 -20.217  1.00  0.00     0.293 HD
ENDBRANCH  15  18
BRANCH  17  20
ATOM     20  O   UNL     1      12.162   2.128 -18.973  1.00  0.00    -0.507 OA
ATOM     21  H   UNL     1      11.486   1.759 -19.630  1.00  0.00     0.293 HD
ENDBRANCH  17  20
ENDBRANCH   1  12
BRANCH   2  22
ATOM     22  O   UNL     1      12.227  -1.452 -16.582  1.00  0.00    -0.502 OA
ATOM     23  H   UNL     1      11.553  -1.997 -17.105  1.00  0.00     0.293 HD
ENDBRANCH   2  22
BRANCH   6  24
ATOM     24  O   UNL     1       8.678   0.263 -12.992  1.00  0.00    -0.507 OA
ATOM     25  H   UNL     1       7.675   0.338 -13.059  1.00  0.00     0.293 HD
ENDBRANCH   6  24
BRANCH   8  26
ATOM     26  O   UNL     1      10.046   4.826 -12.541  1.00  0.00    -0.508 OA
ATOM     27  H   UNL     1       9.489   5.557 -12.968  1.00  0.00     0.293 HD
ENDBRANCH   8  26
TORSDOF 6
ENDMDL
