MODEL 1
REMARK VINA RESULT:    -3.496      0.000      0.000
REMARK INTER + INTRA:          -4.756
REMARK INTER:                  -4.518
REMARK INTRA:                  -0.238
REMARK UNBOUND:                -0.238
REMARK SMILES CCCCCCC(=O)[O-]
REMARK SMILES IDX 5 1 6 2 7 3 8 4 9 5 4 6 3 7 2 8 1 9
REMARK H PARENT
REMARK Flexibility Score: inf
ROOT
ATOM      1  C   UNL     1       8.212  -8.480  41.527  1.00  0.00     0.006 C 
ENDROOT
BRANCH   1   2
ATOM      2  C   UNL     1       7.787  -7.018  41.718  1.00  0.00     0.053 C 
BRANCH   2   3
ATOM      3  C   UNL     1       8.402  -6.418  42.945  1.00  0.00     0.041 C 
ATOM      4  O   UNL     1       9.364  -5.612  42.843  1.00  0.00    -0.550 OA
ATOM      5  O   UNL     1       7.933  -6.774  44.203  1.00  0.00    -0.550 OA
ENDBRANCH   2   3
ENDBRANCH   1   2
BRANCH   1   6
ATOM      6  C   UNL     1       7.008  -9.418  41.347  1.00  0.00     0.000 C 
BRANCH   6   7
ATOM      7  C   UNL     1       7.226 -10.740  42.095  1.00  0.00    -0.000 C 
BRANCH   7   8
ATOM      8  C   UNL     1       6.449 -10.806  43.418  1.00  0.00    -0.003 C 
ATOM      9  C   UNL     1       7.235 -10.231  44.595  1.00  0.00     0.004 C 
ENDBRANCH   7   8
ENDBRANCH   6   7
ENDBRANCH   1   6
TORSDOF 5
ENDMDL
MODEL 2
REMARK VINA RESULT:    -3.406      1.259      1.729
REMARK INTER + INTRA:          -4.640
REMARK INTER:                  -4.479
REMARK INTRA:                  -0.161
REMARK UNBOUND:                -0.238
REMARK SMILES CCCCCCC(=O)[O-]
REMARK SMILES IDX 5 1 6 2 7 3 8 4 9 5 4 6 3 7 2 8 1 9
REMARK H PARENT
REMARK Flexibility Score: inf
ROOT
ATOM      1  C   UNL     1       7.931  -7.042  41.619  1.00  0.00     0.006 C 
ENDROOT
BRANCH   1   2
ATOM      2  C   UNL     1       7.486  -5.766  42.346  1.00  0.00     0.053 C 
BRANCH   2   3
ATOM      3  C   UNL     1       8.619  -4.801  42.516  1.00  0.00     0.041 C 
ATOM      4  O   UNL     1       9.810  -5.206  42.466  1.00  0.00    -0.550 OA
ATOM      5  O   UNL     1       8.358  -3.458  42.761  1.00  0.00    -0.550 OA
ENDBRANCH   2   3
ENDBRANCH   1   2
BRANCH   1   6
ATOM      6  C   UNL     1       7.980  -8.259  42.555  1.00  0.00     0.000 C 
BRANCH   6   7
ATOM      7  C   UNL     1       7.486  -9.523  41.838  1.00  0.00    -0.000 C 
BRANCH   7   8
ATOM      8  C   UNL     1       6.768 -10.498  42.784  1.00  0.00    -0.003 C 
ATOM      9  C   UNL     1       7.170 -10.306  44.246  1.00  0.00     0.004 C 
ENDBRANCH   7   8
ENDBRANCH   6   7
ENDBRANCH   1   6
TORSDOF 5
ENDMDL
MODEL 3
REMARK VINA RESULT:    -3.372      3.033      5.670
REMARK INTER + INTRA:          -4.596
REMARK INTER:                  -4.316
REMARK INTRA:                  -0.280
REMARK UNBOUND:                -0.238
REMARK SMILES CCCCCCC(=O)[O-]
REMARK SMILES IDX 5 1 6 2 7 3 8 4 9 5 4 6 3 7 2 8 1 9
REMARK H PARENT
REMARK Flexibility Score: inf
ROOT
ATOM      1  C   UNL     1       7.381  -5.146  42.812  1.00  0.00     0.006 C 
ENDROOT
BRANCH   1   2
ATOM      2  C   UNL     1       7.533  -6.062  41.591  1.00  0.00     0.053 C 
BRANCH   2   3
ATOM      3  C   UNL     1       8.130  -7.385  41.962  1.00  0.00     0.041 C 
ATOM      4  O   UNL     1       7.622  -8.454  41.530  1.00  0.00    -0.550 OA
ATOM      5  O   UNL     1       9.228  -7.439  42.813  1.00  0.00    -0.550 OA
ENDBRANCH   2   3
ENDBRANCH   1   2
BRANCH   1   6
ATOM      6  C   UNL     1       8.166  -3.834  42.658  1.00  0.00     0.000 C 
BRANCH   6   7
ATOM      7  C   UNL     1       8.640  -3.646  41.210  1.00  0.00    -0.000 C 
BRANCH   7   8
ATOM      8  C   UNL     1       8.083  -2.365  40.568  1.00  0.00    -0.003 C 
ATOM      9  C   UNL     1       7.394  -2.626  39.230  1.00  0.00     0.004 C 
ENDBRANCH   7   8
ENDBRANCH   6   7
ENDBRANCH   1   6
TORSDOF 5
ENDMDL
MODEL 4
REMARK VINA RESULT:    -3.320      2.532      4.951
REMARK INTER + INTRA:          -4.528
REMARK INTER:                  -4.275
REMARK INTRA:                  -0.253
REMARK UNBOUND:                -0.238
REMARK SMILES CCCCCCC(=O)[O-]
REMARK SMILES IDX 5 1 6 2 7 3 8 4 9 5 4 6 3 7 2 8 1 9
REMARK H PARENT
REMARK Flexibility Score: inf
ROOT
ATOM      1  C   UNL     1       8.067  -6.408  43.315  1.00  0.00     0.006 C 
ENDROOT
BRANCH   1   2
ATOM      2  C   UNL     1       8.592  -7.384  42.255  1.00  0.00     0.053 C 
BRANCH   2   3
ATOM      3  C   UNL     1       7.768  -8.633  42.195  1.00  0.00     0.041 C 
ATOM      4  O   UNL     1       7.147  -8.935  41.142  1.00  0.00    -0.550 OA
ATOM      5  O   UNL     1       7.660  -9.448  43.316  1.00  0.00    -0.550 OA
ENDBRANCH   2   3
ENDBRANCH   1   2
BRANCH   1   6
ATOM      6  C   UNL     1       7.270  -5.249  42.696  1.00  0.00     0.000 C 
BRANCH   6   7
ATOM      7  C   UNL     1       7.858  -4.842  41.338  1.00  0.00    -0.000 C 
BRANCH   7   8
ATOM      8  C   UNL     1       8.256  -3.359  41.287  1.00  0.00    -0.003 C 
ATOM      9  C   UNL     1       8.571  -2.784  42.668  1.00  0.00     0.004 C 
ENDBRANCH   7   8
ENDBRANCH   6   7
ENDBRANCH   1   6
TORSDOF 5
ENDMDL
MODEL 5
REMARK VINA RESULT:    -3.278      8.122     10.214
REMARK INTER + INTRA:          -4.475
REMARK INTER:                  -4.217
REMARK INTRA:                  -0.257
REMARK UNBOUND:                -0.238
REMARK SMILES CCCCCCC(=O)[O-]
REMARK SMILES IDX 5 1 6 2 7 3 8 4 9 5 4 6 3 7 2 8 1 9
REMARK H PARENT
REMARK Flexibility Score: inf
ROOT
ATOM      1  C   UNL     1       6.571  -1.255  37.561  1.00  0.00     0.006 C 
ENDROOT
BRANCH   1   2
ATOM      2  C   UNL     1       6.441  -2.762  37.815  1.00  0.00     0.053 C 
BRANCH   2   3
ATOM      3  C   UNL     1       7.372  -3.553  36.948  1.00  0.00     0.041 C 
ATOM      4  O   UNL     1       8.486  -3.933  37.395  1.00  0.00    -0.550 OA
ATOM      5  O   UNL     1       7.022  -3.842  35.635  1.00  0.00    -0.550 OA
ENDBRANCH   2   3
ENDBRANCH   1   2
BRANCH   1   6
ATOM      6  C   UNL     1       5.398  -0.698  36.740  1.00  0.00     0.000 C 
BRANCH   6   7
ATOM      7  C   UNL     1       5.841   0.503  35.893  1.00  0.00    -0.000 C 
BRANCH   7   8
ATOM      8  C   UNL     1       5.495   0.338  34.406  1.00  0.00    -0.003 C 
ATOM      9  C   UNL     1       5.345  -1.126  33.993  1.00  0.00     0.004 C 
ENDBRANCH   7   8
ENDBRANCH   6   7
ENDBRANCH   1   6
TORSDOF 5
ENDMDL
MODEL 6
REMARK VINA RESULT:    -3.244      1.320      2.159
REMARK INTER + INTRA:          -4.430
REMARK INTER:                  -4.266
REMARK INTRA:                  -0.164
REMARK UNBOUND:                -0.238
REMARK SMILES CCCCCCC(=O)[O-]
REMARK SMILES IDX 5 1 6 2 7 3 8 4 9 5 4 6 3 7 2 8 1 9
REMARK H PARENT
REMARK Flexibility Score: inf
ROOT
ATOM      1  C   UNL     1       8.262  -8.698  43.582  1.00  0.00     0.006 C 
ENDROOT
BRANCH   1   2
ATOM      2  C   UNL     1       7.956  -7.339  44.226  1.00  0.00     0.053 C 
BRANCH   2   3
ATOM      3  C   UNL     1       8.184  -6.209  43.269  1.00  0.00     0.041 C 
ATOM      4  O   UNL     1       9.308  -6.056  42.724  1.00  0.00    -0.550 OA
ATOM      5  O   UNL     1       7.161  -5.306  43.005  1.00  0.00    -0.550 OA
ENDBRANCH   2   3
ENDBRANCH   1   2
BRANCH   1   6
ATOM      6  C   UNL     1       7.443  -9.837  44.210  1.00  0.00     0.000 C 
BRANCH   6   7
ATOM      7  C   UNL     1       7.166 -10.943  43.182  1.00  0.00    -0.000 C 
BRANCH   7   8
ATOM      8  C   UNL     1       6.066 -10.558  42.181  1.00  0.00    -0.003 C 
ATOM      9  C   UNL     1       6.599 -10.372  40.761  1.00  0.00     0.004 C 
ENDBRANCH   7   8
ENDBRANCH   6   7
ENDBRANCH   1   6
TORSDOF 5
ENDMDL
MODEL 7
REMARK VINA RESULT:    -3.239      2.006      2.946
REMARK INTER + INTRA:          -4.424
REMARK INTER:                  -4.240
REMARK INTRA:                  -0.184
REMARK UNBOUND:                -0.238
REMARK SMILES CCCCCCC(=O)[O-]
REMARK SMILES IDX 5 1 6 2 7 3 8 4 9 5 4 6 3 7 2 8 1 9
REMARK H PARENT
REMARK Flexibility Score: inf
ROOT
ATOM      1  C   UNL     1       8.513  -6.564  42.740  1.00  0.00     0.006 C 
ENDROOT
BRANCH   1   2
ATOM      2  C   UNL     1       7.552  -5.392  42.982  1.00  0.00     0.053 C 
BRANCH   2   3
ATOM      3  C   UNL     1       8.012  -4.147  42.288  1.00  0.00     0.041 C 
ATOM      4  O   UNL     1       8.417  -3.160  42.957  1.00  0.00    -0.550 OA
ATOM      5  O   UNL     1       7.962  -4.065  40.901  1.00  0.00    -0.550 OA
ENDBRANCH   2   3
ENDBRANCH   1   2
BRANCH   1   6
ATOM      6  C   UNL     1       8.346  -7.679  43.784  1.00  0.00     0.000 C 
BRANCH   6   7
ATOM      7  C   UNL     1       7.940  -9.000  43.115  1.00  0.00    -0.000 C 
BRANCH   7   8
ATOM      8  C   UNL     1       7.841  -8.883  41.587  1.00  0.00    -0.003 C 
ATOM      9  C   UNL     1       6.837  -9.865  40.983  1.00  0.00     0.004 C 
ENDBRANCH   7   8
ENDBRANCH   6   7
ENDBRANCH   1   6
TORSDOF 5
ENDMDL
MODEL 8
REMARK VINA RESULT:    -3.213      3.354      4.848
REMARK INTER + INTRA:          -4.390
REMARK INTER:                  -4.214
REMARK INTRA:                  -0.176
REMARK UNBOUND:                -0.238
REMARK SMILES CCCCCCC(=O)[O-]
REMARK SMILES IDX 5 1 6 2 7 3 8 4 9 5 4 6 3 7 2 8 1 9
REMARK H PARENT
REMARK Flexibility Score: inf
ROOT
ATOM      1  C   UNL     1       7.152 -10.043  42.637  1.00  0.00     0.006 C 
ENDROOT
BRANCH   1   2
ATOM      2  C   UNL     1       6.880  -9.721  41.161  1.00  0.00     0.053 C 
BRANCH   2   3
ATOM      3  C   UNL     1       6.145 -10.834  40.478  1.00  0.00     0.041 C 
ATOM      4  O   UNL     1       5.090 -11.300  40.982  1.00  0.00    -0.550 OA
ATOM      5  O   UNL     1       6.645 -11.377  39.301  1.00  0.00    -0.550 OA
ENDBRANCH   2   3
ENDBRANCH   1   2
BRANCH   1   6
ATOM      6  C   UNL     1       7.995  -8.957  43.324  1.00  0.00     0.000 C 
BRANCH   6   7
ATOM      7  C   UNL     1       8.159  -7.732  42.414  1.00  0.00    -0.000 C 
BRANCH   7   8
ATOM      8  C   UNL     1       7.971  -6.407  43.167  1.00  0.00    -0.003 C 
ATOM      9  C   UNL     1       7.420  -5.294  42.277  1.00  0.00     0.004 C 
ENDBRANCH   7   8
ENDBRANCH   6   7
ENDBRANCH   1   6
TORSDOF 5
ENDMDL
MODEL 9
REMARK VINA RESULT:    -3.126      8.513      9.630
REMARK INTER + INTRA:          -4.278
REMARK INTER:                  -3.952
REMARK INTRA:                  -0.326
REMARK UNBOUND:                -0.238
REMARK SMILES CCCCCCC(=O)[O-]
REMARK SMILES IDX 5 1 6 2 7 3 8 4 9 5 4 6 3 7 2 8 1 9
REMARK H PARENT
REMARK Flexibility Score: inf
ROOT
ATOM      1  C   UNL     1       5.718  -1.930  37.517  1.00  0.00     0.006 C 
ENDROOT
BRANCH   1   2
ATOM      2  C   UNL     1       5.550  -0.505  36.973  1.00  0.00     0.053 C 
BRANCH   2   3
ATOM      3  C   UNL     1       5.902  -0.421  35.520  1.00  0.00     0.041 C 
ATOM      4  O   UNL     1       6.651   0.499  35.100  1.00  0.00    -0.550 OA
ATOM      5  O   UNL     1       5.375  -1.343  34.623  1.00  0.00    -0.550 OA
ENDBRANCH   2   3
ENDBRANCH   1   2
BRANCH   1   6
ATOM      6  C   UNL     1       7.044  -2.112  38.273  1.00  0.00     0.000 C 
BRANCH   6   7
ATOM      7  C   UNL     1       7.841  -3.295  37.704  1.00  0.00    -0.000 C 
BRANCH   7   8
ATOM      8  C   UNL     1       7.341  -3.734  36.320  1.00  0.00    -0.003 C 
ATOM      9  C   UNL     1       8.449  -3.747  35.268  1.00  0.00     0.004 C 
ENDBRANCH   7   8
ENDBRANCH   6   7
ENDBRANCH   1   6
TORSDOF 5
ENDMDL
