MODEL 1
REMARK VINA RESULT:    -6.901      0.000      0.000
REMARK INTER + INTRA:         -12.176
REMARK INTER:                 -10.128
REMARK INTRA:                  -2.048
REMARK UNBOUND:                -2.048
REMARK SMILES O=c1c(O[C@@H]2O[C@@H](CO)[C@@H](O)[C@H](O)[C@@H]2O)c(-c2ccc(O)c(O)c2)oc2cc(O)cc(O)c12
REMARK SMILES IDX 4 1 3 2 16 3 25 4 2 5 26 6 1 7 33 8 27 9 31 10 28 11 30 12
REMARK SMILES IDX 17 13 18 14 19 15 20 16 24 17 22 18 21 19 23 21 32 23 29 25
REMARK SMILES IDX 5 27 14 28 6 29 12 30 7 31 10 32 15 33 13 35 8 37 9 38 11 40
REMARK H PARENT 21 20 23 22 32 24 29 26 15 34 13 36 9 39 11 41
REMARK Flexibility Score: inf
ROOT
ATOM      1  O   UNL     1     -38.253   5.190  82.142  1.00  0.00    -0.454 OA
ENDROOT
BRANCH   1   2
ATOM      2  C   UNL     1     -38.923   4.703  81.011  1.00  0.00     0.214 A 
ATOM      3  C   UNL     1     -38.317   4.661  79.740  1.00  0.00     0.180 A 
ATOM      4  O   UNL     1     -39.012   4.232  78.694  1.00  0.00    -0.452 OA
ATOM      5  C   UNL     1     -40.230   4.226  81.154  1.00  0.00     0.239 A 
ATOM      6  C   UNL     1     -40.265   3.801  78.777  1.00  0.00     0.146 A 
ATOM      7  O   UNL     1     -40.724   4.175  82.309  1.00  0.00    -0.285 OA
ATOM      8  C   UNL     1     -40.953   3.795  80.017  1.00  0.00     0.111 A 
ATOM      9  C   UNL     1     -40.885   3.328  77.617  1.00  0.00     0.094 A 
ATOM     10  C   UNL     1     -42.303   3.333  80.043  1.00  0.00     0.134 A 
ATOM     11  C   UNL     1     -42.183   2.826  77.663  1.00  0.00     0.123 A 
ATOM     12  C   UNL     1     -42.882   2.823  78.872  1.00  0.00     0.093 A 
BRANCH   3  13
ATOM     13  C   UNL     1     -36.906   5.038  79.524  1.00  0.00     0.025 A 
ATOM     14  C   UNL     1     -35.867   4.202  79.958  1.00  0.00     0.016 A 
ATOM     15  C   UNL     1     -34.535   4.563  79.744  1.00  0.00     0.051 A 
ATOM     16  C   UNL     1     -34.226   5.753  79.081  1.00  0.00     0.157 A 
ATOM     17  C   UNL     1     -36.597   6.217  78.838  1.00  0.00     0.062 A 
ATOM     18  C   UNL     1     -35.260   6.582  78.618  1.00  0.00     0.158 A 
BRANCH  16  19
ATOM     19  O   UNL     1     -32.888   6.094  78.889  1.00  0.00    -0.504 OA
ATOM     20  H   UNL     1     -32.459   6.101  77.971  1.00  0.00     0.293 HD
ENDBRANCH  16  19
BRANCH  18  21
ATOM     21  O   UNL     1     -34.958   7.768  77.949  1.00  0.00    -0.504 OA
ATOM     22  H   UNL     1     -35.400   8.011  77.068  1.00  0.00     0.293 HD
ENDBRANCH  18  21
ENDBRANCH   3  13
BRANCH  10  23
ATOM     23  O   UNL     1     -43.120   3.375  81.178  1.00  0.00    -0.507 OA
ATOM     24  H   UNL     1     -43.433   2.565  81.690  1.00  0.00     0.293 HD
ENDBRANCH  10  23
BRANCH  11  25
ATOM     25  O   UNL     1     -42.773   2.338  76.499  1.00  0.00    -0.508 OA
ATOM     26  H   UNL     1     -42.792   1.346  76.291  1.00  0.00     0.293 HD
ENDBRANCH  11  25
ENDBRANCH   1   2
BRANCH   1  27
ATOM     27  C   UNL     1     -38.287   6.559  82.562  1.00  0.00     0.339 C 
ATOM     28  C   UNL     1     -38.593   6.667  84.071  1.00  0.00     0.214 C 
ATOM     29  O   UNL     1     -37.069   7.213  82.241  1.00  0.00    -0.332 OA
ATOM     30  C   UNL     1     -37.415   6.138  84.912  1.00  0.00     0.180 C 
ATOM     31  C   UNL     1     -35.968   6.611  82.902  1.00  0.00     0.179 C 
ATOM     32  C   UNL     1     -36.100   6.775  84.437  1.00  0.00     0.177 C 
BRANCH  28  33
ATOM     33  O   UNL     1     -39.765   5.958  84.385  1.00  0.00    -0.384 OA
ATOM     34  H   UNL     1     -39.580   5.003  84.197  1.00  0.00     0.211 HD
ENDBRANCH  28  33
BRANCH  30  35
ATOM     35  O   UNL     1     -37.320   4.739  84.808  1.00  0.00    -0.387 OA
ATOM     36  H   UNL     1     -37.298   4.520  83.841  1.00  0.00     0.211 HD
ENDBRANCH  30  35
BRANCH  31  37
ATOM     37  C   UNL     1     -34.672   7.240  82.364  1.00  0.00     0.191 C 
BRANCH  37  38
ATOM     38  O   UNL     1     -33.643   7.175  83.314  1.00  0.00    -0.394 OA
ATOM     39  H   UNL     1     -33.402   6.218  83.407  1.00  0.00     0.210 HD
ENDBRANCH  37  38
ENDBRANCH  31  37
BRANCH  32  40
ATOM     40  O   UNL     1     -36.097   8.137  84.785  1.00  0.00    -0.387 OA
ATOM     41  H   UNL     1     -36.046   8.659  83.942  1.00  0.00     0.211 HD
ENDBRANCH  32  40
ENDBRANCH   1  27
TORSDOF 12
ENDMDL
MODEL 2
REMARK VINA RESULT:    -6.436      2.027      7.573
REMARK INTER + INTRA:         -11.493
REMARK INTER:                  -9.544
REMARK INTRA:                  -1.949
REMARK UNBOUND:                -2.048
REMARK SMILES O=c1c(O[C@@H]2O[C@@H](CO)[C@@H](O)[C@H](O)[C@@H]2O)c(-c2ccc(O)c(O)c2)oc2cc(O)cc(O)c12
REMARK SMILES IDX 4 1 3 2 16 3 25 4 2 5 26 6 1 7 33 8 27 9 31 10 28 11 30 12
REMARK SMILES IDX 17 13 18 14 19 15 20 16 24 17 22 18 21 19 23 21 32 23 29 25
REMARK SMILES IDX 5 27 14 28 6 29 12 30 7 31 10 32 15 33 13 35 8 37 9 38 11 40
REMARK H PARENT 21 20 23 22 32 24 29 26 15 34 13 36 9 39 11 41
REMARK Flexibility Score: inf
ROOT
ATOM      1  O   UNL     1     -38.370   4.739  79.413  1.00  0.00    -0.454 OA
ENDROOT
BRANCH   1   2
ATOM      2  C   UNL     1     -37.221   5.372  79.907  1.00  0.00     0.214 A 
ATOM      3  C   UNL     1     -36.900   5.381  81.279  1.00  0.00     0.180 A 
ATOM      4  O   UNL     1     -35.822   6.033  81.697  1.00  0.00    -0.452 OA
ATOM      5  C   UNL     1     -36.354   5.996  79.004  1.00  0.00     0.239 A 
ATOM      6  C   UNL     1     -34.990   6.668  80.881  1.00  0.00     0.146 A 
ATOM      7  O   UNL     1     -36.596   5.895  77.775  1.00  0.00    -0.285 OA
ATOM      8  C   UNL     1     -35.224   6.702  79.482  1.00  0.00     0.111 A 
ATOM      9  C   UNL     1     -33.859   7.282  81.428  1.00  0.00     0.094 A 
ATOM     10  C   UNL     1     -34.303   7.410  78.656  1.00  0.00     0.134 A 
ATOM     11  C   UNL     1     -32.936   7.922  80.606  1.00  0.00     0.123 A 
ATOM     12  C   UNL     1     -33.155   7.978  79.228  1.00  0.00     0.093 A 
BRANCH   3  13
ATOM     13  C   UNL     1     -37.698   4.650  82.282  1.00  0.00     0.025 A 
ATOM     14  C   UNL     1     -38.528   5.339  83.178  1.00  0.00     0.016 A 
ATOM     15  C   UNL     1     -39.284   4.638  84.120  1.00  0.00     0.051 A 
ATOM     16  C   UNL     1     -39.233   3.243  84.168  1.00  0.00     0.157 A 
ATOM     17  C   UNL     1     -37.665   3.251  82.314  1.00  0.00     0.062 A 
ATOM     18  C   UNL     1     -38.426   2.543  83.257  1.00  0.00     0.158 A 
BRANCH  16  19
ATOM     19  O   UNL     1     -39.991   2.569  85.125  1.00  0.00    -0.504 OA
ATOM     20  H   UNL     1     -39.920   1.568  85.262  1.00  0.00     0.293 HD
ENDBRANCH  16  19
BRANCH  18  21
ATOM     21  O   UNL     1     -38.375   1.151  83.294  1.00  0.00    -0.504 OA
ATOM     22  H   UNL     1     -38.346   0.594  82.445  1.00  0.00     0.293 HD
ENDBRANCH  18  21
ENDBRANCH   3  13
BRANCH  10  23
ATOM     23  O   UNL     1     -34.478   7.605  77.282  1.00  0.00    -0.507 OA
ATOM     24  H   UNL     1     -34.198   8.434  76.779  1.00  0.00     0.293 HD
ENDBRANCH  10  23
BRANCH  11  25
ATOM     25  O   UNL     1     -31.804   8.509  81.170  1.00  0.00    -0.508 OA
ATOM     26  H   UNL     1     -31.627   9.503  81.087  1.00  0.00     0.293 HD
ENDBRANCH  11  25
ENDBRANCH   1   2
BRANCH   1  27
ATOM     27  C   UNL     1     -39.643   5.383  79.287  1.00  0.00     0.339 C 
ATOM     28  C   UNL     1     -40.257   5.125  77.895  1.00  0.00     0.214 C 
ATOM     29  O   UNL     1     -40.524   4.963  80.318  1.00  0.00    -0.332 OA
ATOM     30  C   UNL     1     -40.667   3.647  77.738  1.00  0.00     0.180 C 
ATOM     31  C   UNL     1     -40.764   3.567  80.256  1.00  0.00     0.179 C 
ATOM     32  C   UNL     1     -41.506   3.202  78.946  1.00  0.00     0.177 C 
BRANCH  28  33
ATOM     33  O   UNL     1     -39.349   5.482  76.884  1.00  0.00    -0.384 OA
ATOM     34  H   UNL     1     -39.171   4.662  76.357  1.00  0.00     0.211 HD
ENDBRANCH  28  33
BRANCH  30  35
ATOM     35  O   UNL     1     -39.531   2.826  77.631  1.00  0.00    -0.387 OA
ATOM     36  H   UNL     1     -39.065   3.082  76.793  1.00  0.00     0.211 HD
ENDBRANCH  30  35
BRANCH  31  37
ATOM     37  C   UNL     1     -41.562   3.154  81.504  1.00  0.00     0.191 C 
BRANCH  37  38
ATOM     38  O   UNL     1     -42.784   3.838  81.576  1.00  0.00    -0.394 OA
ATOM     39  H   UNL     1     -43.385   3.415  80.910  1.00  0.00     0.210 HD
ENDBRANCH  37  38
ENDBRANCH  31  37
BRANCH  32  40
ATOM     40  O   UNL     1     -42.757   3.840  78.897  1.00  0.00    -0.387 OA
ATOM     41  H   UNL     1     -43.095   3.902  79.828  1.00  0.00     0.211 HD
ENDBRANCH  32  40
ENDBRANCH   1  27
TORSDOF 12
ENDMDL
MODEL 3
REMARK VINA RESULT:    -6.433      2.477      6.208
REMARK INTER + INTRA:         -11.490
REMARK INTER:                  -9.796
REMARK INTRA:                  -1.694
REMARK UNBOUND:                -2.048
REMARK SMILES O=c1c(O[C@@H]2O[C@@H](CO)[C@@H](O)[C@H](O)[C@@H]2O)c(-c2ccc(O)c(O)c2)oc2cc(O)cc(O)c12
REMARK SMILES IDX 4 1 3 2 16 3 25 4 2 5 26 6 1 7 33 8 27 9 31 10 28 11 30 12
REMARK SMILES IDX 17 13 18 14 19 15 20 16 24 17 22 18 21 19 23 21 32 23 29 25
REMARK SMILES IDX 5 27 14 28 6 29 12 30 7 31 10 32 15 33 13 35 8 37 9 38 11 40
REMARK H PARENT 21 20 23 22 32 24 29 26 15 34 13 36 9 39 11 41
REMARK Flexibility Score: inf
ROOT
ATOM      1  O   UNL     1     -38.146   5.425  80.855  1.00  0.00    -0.454 OA
ENDROOT
BRANCH   1   2
ATOM      2  C   UNL     1     -38.270   6.163  79.670  1.00  0.00     0.214 A 
ATOM      3  C   UNL     1     -39.184   5.809  78.657  1.00  0.00     0.180 A 
ATOM      4  O   UNL     1     -39.230   6.518  77.536  1.00  0.00    -0.452 OA
ATOM      5  C   UNL     1     -37.475   7.301  79.497  1.00  0.00     0.239 A 
ATOM      6  C   UNL     1     -38.470   7.584  77.314  1.00  0.00     0.146 A 
ATOM      7  O   UNL     1     -36.738   7.664  80.448  1.00  0.00    -0.285 OA
ATOM      8  C   UNL     1     -37.530   8.023  78.281  1.00  0.00     0.111 A 
ATOM      9  C   UNL     1     -38.636   8.282  76.115  1.00  0.00     0.094 A 
ATOM     10  C   UNL     1     -36.732   9.168  77.983  1.00  0.00     0.134 A 
ATOM     11  C   UNL     1     -37.893   9.431  75.857  1.00  0.00     0.123 A 
ATOM     12  C   UNL     1     -36.953   9.873  76.791  1.00  0.00     0.093 A 
BRANCH   3  13
ATOM     13  C   UNL     1     -40.138   4.694  78.808  1.00  0.00     0.025 A 
ATOM     14  C   UNL     1     -40.170   3.646  77.877  1.00  0.00     0.016 A 
ATOM     15  C   UNL     1     -41.072   2.592  78.031  1.00  0.00     0.051 A 
ATOM     16  C   UNL     1     -41.941   2.563  79.124  1.00  0.00     0.157 A 
ATOM     17  C   UNL     1     -40.992   4.653  79.916  1.00  0.00     0.062 A 
ATOM     18  C   UNL     1     -41.898   3.593  80.077  1.00  0.00     0.158 A 
BRANCH  16  19
ATOM     19  O   UNL     1     -42.839   1.503  79.249  1.00  0.00    -0.504 OA
ATOM     20  H   UNL     1     -43.759   1.522  78.825  1.00  0.00     0.293 HD
ENDBRANCH  16  19
BRANCH  18  21
ATOM     21  O   UNL     1     -42.758   3.567  81.174  1.00  0.00    -0.504 OA
ATOM     22  H   UNL     1     -43.733   3.839  81.095  1.00  0.00     0.293 HD
ENDBRANCH  18  21
ENDBRANCH   3  13
BRANCH  10  23
ATOM     23  O   UNL     1     -35.702   9.636  78.805  1.00  0.00    -0.507 OA
ATOM     24  H   UNL     1     -35.367  10.587  78.820  1.00  0.00     0.293 HD
ENDBRANCH  10  23
BRANCH  11  25
ATOM     25  O   UNL     1     -38.090  10.125  74.665  1.00  0.00    -0.508 OA
ATOM     26  H   UNL     1     -38.089  11.138  74.635  1.00  0.00     0.293 HD
ENDBRANCH  11  25
ENDBRANCH   1   2
BRANCH   1  27
ATOM     27  C   UNL     1     -37.424   4.192  80.954  1.00  0.00     0.339 C 
ATOM     28  C   UNL     1     -36.196   4.345  81.877  1.00  0.00     0.214 C 
ATOM     29  O   UNL     1     -38.272   3.147  81.404  1.00  0.00    -0.332 OA
ATOM     30  C   UNL     1     -36.628   4.543  83.343  1.00  0.00     0.180 C 
ATOM     31  C   UNL     1     -38.791   3.421  82.695  1.00  0.00     0.179 C 
ATOM     32  C   UNL     1     -37.649   3.466  83.741  1.00  0.00     0.177 C 
BRANCH  28  33
ATOM     33  O   UNL     1     -35.400   5.425  81.459  1.00  0.00    -0.384 OA
ATOM     34  H   UNL     1     -34.494   5.273  81.831  1.00  0.00     0.211 HD
ENDBRANCH  28  33
BRANCH  30  35
ATOM     35  O   UNL     1     -37.196   5.815  83.525  1.00  0.00    -0.387 OA
ATOM     36  H   UNL     1     -38.143   5.676  83.788  1.00  0.00     0.211 HD
ENDBRANCH  30  35
BRANCH  31  37
ATOM     37  C   UNL     1     -39.843   2.352  83.036  1.00  0.00     0.191 C 
BRANCH  37  38
ATOM     38  O   UNL     1     -39.350   1.061  82.799  1.00  0.00    -0.394 OA
ATOM     39  H   UNL     1     -38.561   1.162  82.207  1.00  0.00     0.210 HD
ENDBRANCH  37  38
ENDBRANCH  31  37
BRANCH  32  40
ATOM     40  O   UNL     1     -37.000   2.221  83.812  1.00  0.00    -0.387 OA
ATOM     41  H   UNL     1     -37.699   1.519  83.744  1.00  0.00     0.211 HD
ENDBRANCH  32  40
ENDBRANCH   1  27
TORSDOF 12
ENDMDL
MODEL 4
REMARK VINA RESULT:    -6.296      1.318      2.623
REMARK INTER + INTRA:         -11.289
REMARK INTER:                 -10.660
REMARK INTRA:                  -0.629
REMARK UNBOUND:                -2.048
REMARK SMILES O=c1c(O[C@@H]2O[C@@H](CO)[C@@H](O)[C@H](O)[C@@H]2O)c(-c2ccc(O)c(O)c2)oc2cc(O)cc(O)c12
REMARK SMILES IDX 4 1 3 2 16 3 25 4 2 5 26 6 1 7 33 8 27 9 31 10 28 11 30 12
REMARK SMILES IDX 17 13 18 14 19 15 20 16 24 17 22 18 21 19 23 21 32 23 29 25
REMARK SMILES IDX 5 27 14 28 6 29 12 30 7 31 10 32 15 33 13 35 8 37 9 38 11 40
REMARK H PARENT 21 20 23 22 32 24 29 26 15 34 13 36 9 39 11 41
REMARK Flexibility Score: inf
ROOT
ATOM      1  O   UNL     1     -38.541   5.762  81.534  1.00  0.00    -0.454 OA
ENDROOT
BRANCH   1   2
ATOM      2  C   UNL     1     -39.204   5.118  80.481  1.00  0.00     0.214 A 
ATOM      3  C   UNL     1     -38.654   5.034  79.186  1.00  0.00     0.180 A 
ATOM      4  O   UNL     1     -39.345   4.450  78.215  1.00  0.00    -0.452 OA
ATOM      5  C   UNL     1     -40.444   4.520  80.730  1.00  0.00     0.239 A 
ATOM      6  C   UNL     1     -40.539   3.899  78.398  1.00  0.00     0.146 A 
ATOM      7  O   UNL     1     -40.877   4.513  81.910  1.00  0.00    -0.285 OA
ATOM      8  C   UNL     1     -41.167   3.924  79.670  1.00  0.00     0.111 A 
ATOM      9  C   UNL     1     -41.155   3.270  77.312  1.00  0.00     0.094 A 
ATOM     10  C   UNL     1     -42.456   3.328  79.803  1.00  0.00     0.134 A 
ATOM     11  C   UNL     1     -42.388   2.641  77.467  1.00  0.00     0.123 A 
ATOM     12  C   UNL     1     -43.028   2.665  78.707  1.00  0.00     0.093 A 
BRANCH   3  13
ATOM     13  C   UNL     1     -37.303   5.536  78.867  1.00  0.00     0.025 A 
ATOM     14  C   UNL     1     -37.121   6.831  78.362  1.00  0.00     0.016 A 
ATOM     15  C   UNL     1     -35.839   7.300  78.069  1.00  0.00     0.051 A 
ATOM     16  C   UNL     1     -34.724   6.488  78.292  1.00  0.00     0.157 A 
ATOM     17  C   UNL     1     -36.185   4.731  79.113  1.00  0.00     0.062 A 
ATOM     18  C   UNL     1     -34.894   5.199  78.822  1.00  0.00     0.158 A 
BRANCH  16  19
ATOM     19  O   UNL     1     -33.456   6.977  77.981  1.00  0.00    -0.504 OA
ATOM     20  H   UNL     1     -32.612   6.452  78.176  1.00  0.00     0.293 HD
ENDBRANCH  16  19
BRANCH  18  21
ATOM     21  O   UNL     1     -33.786   4.386  79.054  1.00  0.00    -0.504 OA
ATOM     22  H   UNL     1     -33.875   3.381  79.165  1.00  0.00     0.293 HD
ENDBRANCH  18  21
ENDBRANCH   3  13
BRANCH  10  23
ATOM     23  O   UNL     1     -43.221   3.378  80.973  1.00  0.00    -0.507 OA
ATOM     24  H   UNL     1     -44.230   3.380  80.999  1.00  0.00     0.293 HD
ENDBRANCH  10  23
BRANCH  11  25
ATOM     25  O   UNL     1     -42.974   2.000  76.377  1.00  0.00    -0.508 OA
ATOM     26  H   UNL     1     -43.184   1.009  76.396  1.00  0.00     0.293 HD
ENDBRANCH  11  25
ENDBRANCH   1   2
BRANCH   1  27
ATOM     27  C   UNL     1     -37.251   5.372  82.022  1.00  0.00     0.339 C 
ATOM     28  C   UNL     1     -36.841   6.227  83.240  1.00  0.00     0.214 C 
ATOM     29  O   UNL     1     -37.231   3.989  82.339  1.00  0.00    -0.332 OA
ATOM     30  C   UNL     1     -37.721   5.902  84.464  1.00  0.00     0.180 C 
ATOM     31  C   UNL     1     -38.165   3.678  83.360  1.00  0.00     0.179 C 
ATOM     32  C   UNL     1     -37.776   4.382  84.684  1.00  0.00     0.177 C 
BRANCH  28  33
ATOM     33  O   UNL     1     -36.931   7.595  82.933  1.00  0.00    -0.384 OA
ATOM     34  H   UNL     1     -36.015   7.966  83.012  1.00  0.00     0.211 HD
ENDBRANCH  28  33
BRANCH  30  35
ATOM     35  O   UNL     1     -39.025   6.394  84.281  1.00  0.00    -0.387 OA
ATOM     36  H   UNL     1     -39.104   7.218  84.829  1.00  0.00     0.211 HD
ENDBRANCH  30  35
BRANCH  31  37
ATOM     37  C   UNL     1     -38.227   2.150  83.516  1.00  0.00     0.191 C 
BRANCH  37  38
ATOM     38  O   UNL     1     -39.023   1.568  82.519  1.00  0.00    -0.394 OA
ATOM     39  H   UNL     1     -38.487   0.838  82.118  1.00  0.00     0.210 HD
ENDBRANCH  37  38
ENDBRANCH  31  37
BRANCH  32  40
ATOM     40  O   UNL     1     -36.518   3.936  85.125  1.00  0.00    -0.387 OA
ATOM     41  H   UNL     1     -35.940   4.737  85.231  1.00  0.00     0.211 HD
ENDBRANCH  32  40
ENDBRANCH   1  27
TORSDOF 12
ENDMDL
MODEL 5
REMARK VINA RESULT:    -6.292      2.294      6.433
REMARK INTER + INTRA:         -11.282
REMARK INTER:                  -9.534
REMARK INTRA:                  -1.748
REMARK UNBOUND:                -2.048
REMARK SMILES O=c1c(O[C@@H]2O[C@@H](CO)[C@@H](O)[C@H](O)[C@@H]2O)c(-c2ccc(O)c(O)c2)oc2cc(O)cc(O)c12
REMARK SMILES IDX 4 1 3 2 16 3 25 4 2 5 26 6 1 7 33 8 27 9 31 10 28 11 30 12
REMARK SMILES IDX 17 13 18 14 19 15 20 16 24 17 22 18 21 19 23 21 32 23 29 25
REMARK SMILES IDX 5 27 14 28 6 29 12 30 7 31 10 32 15 33 13 35 8 37 9 38 11 40
REMARK H PARENT 21 20 23 22 32 24 29 26 15 34 13 36 9 39 11 41
REMARK Flexibility Score: inf
ROOT
ATOM      1  O   UNL     1     -37.053   5.099  81.782  1.00  0.00    -0.454 OA
ENDROOT
BRANCH   1   2
ATOM      2  C   UNL     1     -36.584   5.856  80.700  1.00  0.00     0.214 A 
ATOM      3  C   UNL     1     -37.015   5.624  79.379  1.00  0.00     0.180 A 
ATOM      4  O   UNL     1     -36.505   6.341  78.385  1.00  0.00    -0.452 OA
ATOM      5  C   UNL     1     -35.673   6.889  80.944  1.00  0.00     0.239 A 
ATOM      6  C   UNL     1     -35.614   7.309  78.566  1.00  0.00     0.146 A 
ATOM      7  O   UNL     1     -35.374   7.152  82.136  1.00  0.00    -0.285 OA
ATOM      8  C   UNL     1     -35.131   7.622  79.862  1.00  0.00     0.111 A 
ATOM      9  C   UNL     1     -35.180   8.031  77.451  1.00  0.00     0.094 A 
ATOM     10  C   UNL     1     -34.164   8.663  79.994  1.00  0.00     0.134 A 
ATOM     11  C   UNL     1     -34.279   9.083  77.597  1.00  0.00     0.123 A 
ATOM     12  C   UNL     1     -33.782   9.399  78.863  1.00  0.00     0.093 A 
BRANCH   3  13
ATOM     13  C   UNL     1     -38.057   4.632  79.050  1.00  0.00     0.025 A 
ATOM     14  C   UNL     1     -39.415   4.977  79.101  1.00  0.00     0.016 A 
ATOM     15  C   UNL     1     -40.395   4.034  78.782  1.00  0.00     0.051 A 
ATOM     16  C   UNL     1     -40.030   2.743  78.393  1.00  0.00     0.157 A 
ATOM     17  C   UNL     1     -37.691   3.346  78.637  1.00  0.00     0.062 A 
ATOM     18  C   UNL     1     -38.672   2.397  78.312  1.00  0.00     0.158 A 
BRANCH  16  19
ATOM     19  O   UNL     1     -41.028   1.818  78.090  1.00  0.00    -0.504 OA
ATOM     20  H   UNL     1     -41.056   0.896  78.508  1.00  0.00     0.293 HD
ENDBRANCH  16  19
BRANCH  18  21
ATOM     21  O   UNL     1     -38.300   1.112  77.918  1.00  0.00    -0.504 OA
ATOM     22  H   UNL     1     -37.325   0.841  77.834  1.00  0.00     0.293 HD
ENDBRANCH  18  21
ENDBRANCH   3  13
BRANCH  10  23
ATOM     23  O   UNL     1     -33.535   8.996  81.198  1.00  0.00    -0.507 OA
ATOM     24  H   UNL     1     -32.536   9.001  81.342  1.00  0.00     0.293 HD
ENDBRANCH  10  23
BRANCH  11  25
ATOM     25  O   UNL     1     -33.877   9.805  76.475  1.00  0.00    -0.508 OA
ATOM     26  H   UNL     1     -32.962  10.238  76.424  1.00  0.00     0.293 HD
ENDBRANCH  11  25
ENDBRANCH   1   2
BRANCH   1  27
ATOM     27  C   UNL     1     -36.634   3.757  82.059  1.00  0.00     0.339 C 
ATOM     28  C   UNL     1     -35.868   3.683  83.397  1.00  0.00     0.214 C 
ATOM     29  O   UNL     1     -37.744   2.872  82.057  1.00  0.00    -0.332 OA
ATOM     30  C   UNL     1     -36.813   3.939  84.588  1.00  0.00     0.180 C 
ATOM     31  C   UNL     1     -38.685   3.221  83.059  1.00  0.00     0.179 C 
ATOM     32  C   UNL     1     -38.063   3.054  84.468  1.00  0.00     0.177 C 
BRANCH  28  33
ATOM     33  O   UNL     1     -34.813   4.611  83.411  1.00  0.00    -0.384 OA
ATOM     34  H   UNL     1     -34.180   4.334  82.701  1.00  0.00     0.211 HD
ENDBRANCH  28  33
BRANCH  30  35
ATOM     35  O   UNL     1     -37.199   5.289  84.633  1.00  0.00    -0.387 OA
ATOM     36  H   UNL     1     -38.075   5.326  85.099  1.00  0.00     0.211 HD
ENDBRANCH  30  35
BRANCH  31  37
ATOM     37  C   UNL     1     -39.938   2.349  82.875  1.00  0.00     0.191 C 
BRANCH  37  38
ATOM     38  O   UNL     1     -39.605   0.989  82.798  1.00  0.00    -0.394 OA
ATOM     39  H   UNL     1     -40.107   0.618  82.028  1.00  0.00     0.210 HD
ENDBRANCH  37  38
ENDBRANCH  31  37
BRANCH  32  40
ATOM     40  O   UNL     1     -37.701   1.714  84.689  1.00  0.00    -0.387 OA
ATOM     41  H   UNL     1     -36.839   1.717  85.183  1.00  0.00     0.211 HD
ENDBRANCH  32  40
ENDBRANCH   1  27
TORSDOF 12
ENDMDL
MODEL 6
REMARK VINA RESULT:    -6.185      1.791      6.673
REMARK INTER + INTRA:         -11.126
REMARK INTER:                  -9.357
REMARK INTRA:                  -1.769
REMARK UNBOUND:                -2.048
REMARK SMILES O=c1c(O[C@@H]2O[C@@H](CO)[C@@H](O)[C@H](O)[C@@H]2O)c(-c2ccc(O)c(O)c2)oc2cc(O)cc(O)c12
REMARK SMILES IDX 4 1 3 2 16 3 25 4 2 5 26 6 1 7 33 8 27 9 31 10 28 11 30 12
REMARK SMILES IDX 17 13 18 14 19 15 20 16 24 17 22 18 21 19 23 21 32 23 29 25
REMARK SMILES IDX 5 27 14 28 6 29 12 30 7 31 10 32 15 33 13 35 8 37 9 38 11 40
REMARK H PARENT 21 20 23 22 32 24 29 26 15 34 13 36 9 39 11 41
REMARK Flexibility Score: inf
ROOT
ATOM      1  O   UNL     1     -38.362   5.081  82.461  1.00  0.00    -0.454 OA
ENDROOT
BRANCH   1   2
ATOM      2  C   UNL     1     -37.211   5.520  81.792  1.00  0.00     0.214 A 
ATOM      3  C   UNL     1     -36.994   5.263  80.424  1.00  0.00     0.180 A 
ATOM      4  O   UNL     1     -35.866   5.664  79.851  1.00  0.00    -0.452 OA
ATOM      5  C   UNL     1     -36.256   6.254  82.504  1.00  0.00     0.239 A 
ATOM      6  C   UNL     1     -34.918   6.334  80.495  1.00  0.00     0.146 A 
ATOM      7  O   UNL     1     -36.507   6.564  83.696  1.00  0.00    -0.285 OA
ATOM      8  C   UNL     1     -35.054   6.649  81.871  1.00  0.00     0.111 A 
ATOM      9  C   UNL     1     -33.790   6.747  79.779  1.00  0.00     0.094 A 
ATOM     10  C   UNL     1     -33.997   7.360  82.514  1.00  0.00     0.134 A 
ATOM     11  C   UNL     1     -32.790   7.490  80.401  1.00  0.00     0.123 A 
ATOM     12  C   UNL     1     -32.899   7.799  81.759  1.00  0.00     0.093 A 
BRANCH   3  13
ATOM     13  C   UNL     1     -38.001   4.597  79.575  1.00  0.00     0.025 A 
ATOM     14  C   UNL     1     -39.143   5.286  79.144  1.00  0.00     0.016 A 
ATOM     15  C   UNL     1     -40.088   4.650  78.336  1.00  0.00     0.051 A 
ATOM     16  C   UNL     1     -39.895   3.325  77.936  1.00  0.00     0.157 A 
ATOM     17  C   UNL     1     -37.795   3.278  79.155  1.00  0.00     0.062 A 
ATOM     18  C   UNL     1     -38.740   2.636  78.341  1.00  0.00     0.158 A 
BRANCH  16  19
ATOM     19  O   UNL     1     -40.858   2.711  77.137  1.00  0.00    -0.504 OA
ATOM     20  H   UNL     1     -40.613   2.160  76.323  1.00  0.00     0.293 HD
ENDBRANCH  16  19
BRANCH  18  21
ATOM     21  O   UNL     1     -38.538   1.316  77.940  1.00  0.00    -0.504 OA
ATOM     22  H   UNL     1     -38.913   0.960  77.066  1.00  0.00     0.293 HD
ENDBRANCH  18  21
ENDBRANCH   3  13
BRANCH  10  23
ATOM     23  O   UNL     1     -33.964   7.637  83.884  1.00  0.00    -0.507 OA
ATOM     24  H   UNL     1     -34.707   8.087  84.397  1.00  0.00     0.293 HD
ENDBRANCH  10  23
BRANCH  11  25
ATOM     25  O   UNL     1     -31.686   7.910  79.663  1.00  0.00    -0.508 OA
ATOM     26  H   UNL     1     -30.794   7.433  79.727  1.00  0.00     0.293 HD
ENDBRANCH  11  25
ENDBRANCH   1   2
BRANCH   1  27
ATOM     27  C   UNL     1     -38.604   3.716  82.821  1.00  0.00     0.339 C 
ATOM     28  C   UNL     1     -38.951   3.593  84.320  1.00  0.00     0.214 C 
ATOM     29  O   UNL     1     -39.629   3.156  82.013  1.00  0.00    -0.332 OA
ATOM     30  C   UNL     1     -40.328   4.216  84.621  1.00  0.00     0.180 C 
ATOM     31  C   UNL     1     -40.856   3.847  82.183  1.00  0.00     0.179 C 
ATOM     32  C   UNL     1     -41.376   3.681  83.633  1.00  0.00     0.177 C 
BRANCH  28  33
ATOM     33  O   UNL     1     -37.961   4.209  85.104  1.00  0.00    -0.384 OA
ATOM     34  H   UNL     1     -38.278   5.130  85.292  1.00  0.00     0.211 HD
ENDBRANCH  28  33
BRANCH  30  35
ATOM     35  O   UNL     1     -40.269   5.617  84.525  1.00  0.00    -0.387 OA
ATOM     36  H   UNL     1     -40.676   5.867  83.655  1.00  0.00     0.211 HD
ENDBRANCH  30  35
BRANCH  31  37
ATOM     37  C   UNL     1     -41.861   3.318  81.146  1.00  0.00     0.191 C 
BRANCH  37  38
ATOM     38  O   UNL     1     -43.177   3.653  81.496  1.00  0.00    -0.394 OA
ATOM     39  H   UNL     1     -43.195   4.636  81.622  1.00  0.00     0.210 HD
ENDBRANCH  37  38
ENDBRANCH  31  37
BRANCH  32  40
ATOM     40  O   UNL     1     -41.621   2.326  83.913  1.00  0.00    -0.387 OA
ATOM     41  H   UNL     1     -42.381   2.038  83.341  1.00  0.00     0.211 HD
ENDBRANCH  32  40
ENDBRANCH   1  27
TORSDOF 12
ENDMDL
MODEL 7
REMARK VINA RESULT:    -5.997      2.675      5.046
REMARK INTER + INTRA:         -10.849
REMARK INTER:                  -9.045
REMARK INTRA:                  -1.803
REMARK UNBOUND:                -2.048
REMARK SMILES O=c1c(O[C@@H]2O[C@@H](CO)[C@@H](O)[C@H](O)[C@@H]2O)c(-c2ccc(O)c(O)c2)oc2cc(O)cc(O)c12
REMARK SMILES IDX 4 1 3 2 16 3 25 4 2 5 26 6 1 7 33 8 27 9 31 10 28 11 30 12
REMARK SMILES IDX 17 13 18 14 19 15 20 16 24 17 22 18 21 19 23 21 32 23 29 25
REMARK SMILES IDX 5 27 14 28 6 29 12 30 7 31 10 32 15 33 13 35 8 37 9 38 11 40
REMARK H PARENT 21 20 23 22 32 24 29 26 15 34 13 36 9 39 11 41
REMARK Flexibility Score: inf
ROOT
ATOM      1  O   UNL     1     -38.496   6.052  79.493  1.00  0.00    -0.454 OA
ENDROOT
BRANCH   1   2
ATOM      2  C   UNL     1     -38.348   5.095  80.506  1.00  0.00     0.214 A 
ATOM      3  C   UNL     1     -37.083   4.683  80.971  1.00  0.00     0.180 A 
ATOM      4  O   UNL     1     -37.001   3.741  81.902  1.00  0.00    -0.452 OA
ATOM      5  C   UNL     1     -39.496   4.548  81.090  1.00  0.00     0.239 A 
ATOM      6  C   UNL     1     -38.062   3.170  82.460  1.00  0.00     0.146 A 
ATOM      7  O   UNL     1     -40.616   4.997  80.739  1.00  0.00    -0.285 OA
ATOM      8  C   UNL     1     -39.376   3.530  82.065  1.00  0.00     0.111 A 
ATOM      9  C   UNL     1     -37.856   2.221  83.466  1.00  0.00     0.094 A 
ATOM     10  C   UNL     1     -40.477   2.873  82.689  1.00  0.00     0.134 A 
ATOM     11  C   UNL     1     -38.939   1.627  84.109  1.00  0.00     0.123 A 
ATOM     12  C   UNL     1     -40.240   1.959  83.726  1.00  0.00     0.093 A 
BRANCH   3  13
ATOM     13  C   UNL     1     -35.828   5.292  80.491  1.00  0.00     0.025 A 
ATOM     14  C   UNL     1     -34.915   4.548  79.731  1.00  0.00     0.016 A 
ATOM     15  C   UNL     1     -33.732   5.134  79.276  1.00  0.00     0.051 A 
ATOM     16  C   UNL     1     -33.455   6.473  79.561  1.00  0.00     0.157 A 
ATOM     17  C   UNL     1     -35.562   6.640  80.756  1.00  0.00     0.062 A 
ATOM     18  C   UNL     1     -34.376   7.234  80.298  1.00  0.00     0.158 A 
BRANCH  16  19
ATOM     19  O   UNL     1     -32.262   7.032  79.103  1.00  0.00    -0.504 OA
ATOM     20  H   UNL     1     -32.241   7.879  78.548  1.00  0.00     0.293 HD
ENDBRANCH  16  19
BRANCH  18  21
ATOM     21  O   UNL     1     -34.110   8.574  80.580  1.00  0.00    -0.504 OA
ATOM     22  H   UNL     1     -34.792   9.169  81.040  1.00  0.00     0.293 HD
ENDBRANCH  18  21
ENDBRANCH   3  13
BRANCH  10  23
ATOM     23  O   UNL     1     -41.812   3.063  82.316  1.00  0.00    -0.507 OA
ATOM     24  H   UNL     1     -42.297   3.947  82.349  1.00  0.00     0.293 HD
ENDBRANCH  10  23
BRANCH  11  25
ATOM     25  O   UNL     1     -38.711   0.700  85.125  1.00  0.00    -0.508 OA
ATOM     26  H   UNL     1     -38.617  -0.289  84.927  1.00  0.00     0.293 HD
ENDBRANCH  11  25
ENDBRANCH   1   2
BRANCH   1  27
ATOM     27  C   UNL     1     -38.243   5.792  78.107  1.00  0.00     0.339 C 
ATOM     28  C   UNL     1     -39.546   5.867  77.284  1.00  0.00     0.214 C 
ATOM     29  O   UNL     1     -37.266   6.687  77.597  1.00  0.00    -0.332 OA
ATOM     30  C   UNL     1     -40.071   7.314  77.212  1.00  0.00     0.180 C 
ATOM     31  C   UNL     1     -37.702   8.034  77.687  1.00  0.00     0.179 C 
ATOM     32  C   UNL     1     -38.941   8.264  76.786  1.00  0.00     0.177 C 
BRANCH  28  33
ATOM     33  O   UNL     1     -40.526   5.026  77.840  1.00  0.00    -0.384 OA
ATOM     34  H   UNL     1     -40.214   4.786  78.750  1.00  0.00     0.211 HD
ENDBRANCH  28  33
BRANCH  30  35
ATOM     35  O   UNL     1     -40.577   7.721  78.459  1.00  0.00    -0.387 OA
ATOM     36  H   UNL     1     -41.252   8.427  78.283  1.00  0.00     0.211 HD
ENDBRANCH  30  35
BRANCH  31  37
ATOM     37  C   UNL     1     -36.530   8.952  77.300  1.00  0.00     0.191 C 
BRANCH  37  38
ATOM     38  O   UNL     1     -35.983   9.580  78.428  1.00  0.00    -0.394 OA
ATOM     39  H   UNL     1     -36.529  10.391  78.594  1.00  0.00     0.210 HD
ENDBRANCH  37  38
ENDBRANCH  31  37
BRANCH  32  40
ATOM     40  O   UNL     1     -38.620   8.021  75.439  1.00  0.00    -0.387 OA
ATOM     41  H   UNL     1     -37.689   8.335  75.295  1.00  0.00     0.211 HD
ENDBRANCH  32  40
ENDBRANCH   1  27
TORSDOF 12
ENDMDL
MODEL 8
REMARK VINA RESULT:    -5.961     11.754     15.072
REMARK INTER + INTRA:         -10.796
REMARK INTER:                  -9.161
REMARK INTRA:                  -1.635
REMARK UNBOUND:                -2.048
REMARK SMILES O=c1c(O[C@@H]2O[C@@H](CO)[C@@H](O)[C@H](O)[C@@H]2O)c(-c2ccc(O)c(O)c2)oc2cc(O)cc(O)c12
REMARK SMILES IDX 4 1 3 2 16 3 25 4 2 5 26 6 1 7 33 8 27 9 31 10 28 11 30 12
REMARK SMILES IDX 17 13 18 14 19 15 20 16 24 17 22 18 21 19 23 21 32 23 29 25
REMARK SMILES IDX 5 27 14 28 6 29 12 30 7 31 10 32 15 33 13 35 8 37 9 38 11 40
REMARK H PARENT 21 20 23 22 32 24 29 26 15 34 13 36 9 39 11 41
REMARK Flexibility Score: inf
ROOT
ATOM      1  O   UNL     1     -48.321   3.686  70.735  1.00  0.00    -0.454 OA
ENDROOT
BRANCH   1   2
ATOM      2  C   UNL     1     -48.348   2.431  70.113  1.00  0.00     0.214 A 
ATOM      3  C   UNL     1     -48.154   1.233  70.831  1.00  0.00     0.180 A 
ATOM      4  O   UNL     1     -48.145   0.074  70.185  1.00  0.00    -0.452 OA
ATOM      5  C   UNL     1     -48.596   2.364  68.738  1.00  0.00     0.239 A 
ATOM      6  C   UNL     1     -48.343  -0.034  68.876  1.00  0.00     0.146 A 
ATOM      7  O   UNL     1     -48.868   3.429  68.128  1.00  0.00    -0.285 OA
ATOM      8  C   UNL     1     -48.559   1.116  68.074  1.00  0.00     0.111 A 
ATOM      9  C   UNL     1     -48.358  -1.311  68.308  1.00  0.00     0.094 A 
ATOM     10  C   UNL     1     -48.752   0.939  66.671  1.00  0.00     0.134 A 
ATOM     11  C   UNL     1     -48.605  -1.477  66.948  1.00  0.00     0.123 A 
ATOM     12  C   UNL     1     -48.807  -0.357  66.138  1.00  0.00     0.093 A 
BRANCH   3  13
ATOM     13  C   UNL     1     -48.001   1.207  72.298  1.00  0.00     0.025 A 
ATOM     14  C   UNL     1     -49.125   1.155  73.135  1.00  0.00     0.016 A 
ATOM     15  C   UNL     1     -48.971   1.124  74.522  1.00  0.00     0.051 A 
ATOM     16  C   UNL     1     -47.694   1.128  75.089  1.00  0.00     0.157 A 
ATOM     17  C   UNL     1     -46.722   1.187  72.865  1.00  0.00     0.062 A 
ATOM     18  C   UNL     1     -46.562   1.153  74.259  1.00  0.00     0.158 A 
BRANCH  16  19
ATOM     19  O   UNL     1     -47.569   1.106  76.478  1.00  0.00    -0.504 OA
ATOM     20  H   UNL     1     -46.896   1.683  76.969  1.00  0.00     0.293 HD
ENDBRANCH  16  19
BRANCH  18  21
ATOM     21  O   UNL     1     -45.285   1.150  74.818  1.00  0.00    -0.504 OA
ATOM     22  H   UNL     1     -44.542   1.740  74.456  1.00  0.00     0.293 HD
ENDBRANCH  18  21
ENDBRANCH   3  13
BRANCH  10  23
ATOM     23  O   UNL     1     -48.870   1.995  65.761  1.00  0.00    -0.507 OA
ATOM     24  H   UNL     1     -48.127   2.322  65.163  1.00  0.00     0.293 HD
ENDBRANCH  10  23
BRANCH  11  25
ATOM     25  O   UNL     1     -48.639  -2.761  66.406  1.00  0.00    -0.508 OA
ATOM     26  H   UNL     1     -49.446  -3.098  65.895  1.00  0.00     0.293 HD
ENDBRANCH  11  25
ENDBRANCH   1   2
BRANCH   1  27
ATOM     27  C   UNL     1     -47.124   4.323  71.196  1.00  0.00     0.339 C 
ATOM     28  C   UNL     1     -46.836   5.607  70.389  1.00  0.00     0.214 C 
ATOM     29  O   UNL     1     -47.205   4.602  72.586  1.00  0.00    -0.332 OA
ATOM     30  C   UNL     1     -47.878   6.699  70.699  1.00  0.00     0.180 C 
ATOM     31  C   UNL     1     -48.274   5.487  72.874  1.00  0.00     0.179 C 
ATOM     32  C   UNL     1     -48.027   6.869  72.219  1.00  0.00     0.177 C 
BRANCH  28  33
ATOM     33  O   UNL     1     -46.825   5.328  69.012  1.00  0.00    -0.384 OA
ATOM     34  H   UNL     1     -46.009   5.753  68.641  1.00  0.00     0.211 HD
ENDBRANCH  28  33
BRANCH  30  35
ATOM     35  O   UNL     1     -49.125   6.367  70.142  1.00  0.00    -0.387 OA
ATOM     36  H   UNL     1     -49.814   6.575  70.825  1.00  0.00     0.211 HD
ENDBRANCH  30  35
BRANCH  31  37
ATOM     37  C   UNL     1     -48.423   5.592  74.401  1.00  0.00     0.191 C 
BRANCH  37  38
ATOM     38  O   UNL     1     -47.875   4.472  75.043  1.00  0.00    -0.394 OA
ATOM     39  H   UNL     1     -47.686   3.804  74.336  1.00  0.00     0.210 HD
ENDBRANCH  37  38
ENDBRANCH  31  37
BRANCH  32  40
ATOM     40  O   UNL     1     -46.857   7.453  72.733  1.00  0.00    -0.387 OA
ATOM     41  H   UNL     1     -46.943   7.467  73.722  1.00  0.00     0.211 HD
ENDBRANCH  32  40
ENDBRANCH   1  27
TORSDOF 12
ENDMDL
MODEL 9
REMARK VINA RESULT:    -5.763      2.772      5.021
REMARK INTER + INTRA:         -10.507
REMARK INTER:                  -8.508
REMARK INTRA:                  -1.999
REMARK UNBOUND:                -2.048
REMARK SMILES O=c1c(O[C@@H]2O[C@@H](CO)[C@@H](O)[C@H](O)[C@@H]2O)c(-c2ccc(O)c(O)c2)oc2cc(O)cc(O)c12
REMARK SMILES IDX 4 1 3 2 16 3 25 4 2 5 26 6 1 7 33 8 27 9 31 10 28 11 30 12
REMARK SMILES IDX 17 13 18 14 19 15 20 16 24 17 22 18 21 19 23 21 32 23 29 25
REMARK SMILES IDX 5 27 14 28 6 29 12 30 7 31 10 32 15 33 13 35 8 37 9 38 11 40
REMARK H PARENT 21 20 23 22 32 24 29 26 15 34 13 36 9 39 11 41
REMARK Flexibility Score: inf
ROOT
ATOM      1  O   UNL     1     -36.307   5.762  80.033  1.00  0.00    -0.454 OA
ENDROOT
BRANCH   1   2
ATOM      2  C   UNL     1     -37.497   5.209  80.526  1.00  0.00     0.214 A 
ATOM      3  C   UNL     1     -38.762   5.585  80.031  1.00  0.00     0.180 A 
ATOM      4  O   UNL     1     -39.859   5.062  80.564  1.00  0.00    -0.452 OA
ATOM      5  C   UNL     1     -37.424   4.236  81.529  1.00  0.00     0.239 A 
ATOM      6  C   UNL     1     -39.839   4.161  81.539  1.00  0.00     0.146 A 
ATOM      7  O   UNL     1     -36.290   3.836  81.891  1.00  0.00    -0.285 OA
ATOM      8  C   UNL     1     -38.612   3.713  82.093  1.00  0.00     0.111 A 
ATOM      9  C   UNL     1     -41.055   3.643  81.993  1.00  0.00     0.094 A 
ATOM     10  C   UNL     1     -38.653   2.754  83.148  1.00  0.00     0.134 A 
ATOM     11  C   UNL     1     -41.082   2.665  82.984  1.00  0.00     0.123 A 
ATOM     12  C   UNL     1     -39.886   2.220  83.550  1.00  0.00     0.093 A 
BRANCH   3  13
ATOM     13  C   UNL     1     -38.921   6.517  78.898  1.00  0.00     0.025 A 
ATOM     14  C   UNL     1     -38.763   6.072  77.577  1.00  0.00     0.016 A 
ATOM     15  C   UNL     1     -38.922   6.960  76.510  1.00  0.00     0.051 A 
ATOM     16  C   UNL     1     -39.257   8.295  76.749  1.00  0.00     0.157 A 
ATOM     17  C   UNL     1     -39.280   7.848  79.135  1.00  0.00     0.062 A 
ATOM     18  C   UNL     1     -39.444   8.742  78.066  1.00  0.00     0.158 A 
BRANCH  16  19
ATOM     19  O   UNL     1     -39.400   9.162  75.666  1.00  0.00    -0.504 OA
ATOM     20  H   UNL     1     -40.223   9.740  75.542  1.00  0.00     0.293 HD
ENDBRANCH  16  19
BRANCH  18  21
ATOM     21  O   UNL     1     -39.785  10.072  78.311  1.00  0.00    -0.504 OA
ATOM     22  H   UNL     1     -40.485  10.325  79.001  1.00  0.00     0.293 HD
ENDBRANCH  18  21
ENDBRANCH   3  13
BRANCH  10  23
ATOM     23  O   UNL     1     -37.523   2.312  83.845  1.00  0.00    -0.507 OA
ATOM     24  H   UNL     1     -36.736   2.894  84.089  1.00  0.00     0.293 HD
ENDBRANCH  10  23
BRANCH  11  25
ATOM     25  O   UNL     1     -42.305   2.147  83.405  1.00  0.00    -0.508 OA
ATOM     26  H   UNL     1     -42.936   1.689  82.758  1.00  0.00     0.293 HD
ENDBRANCH  11  25
ENDBRANCH   1   2
BRANCH   1  27
ATOM     27  C   UNL     1     -35.717   6.965  80.540  1.00  0.00     0.339 C 
ATOM     28  C   UNL     1     -34.243   6.734  80.934  1.00  0.00     0.214 C 
ATOM     29  O   UNL     1     -35.833   8.019  79.596  1.00  0.00    -0.332 OA
ATOM     30  C   UNL     1     -33.370   6.490  79.688  1.00  0.00     0.180 C 
ATOM     31  C   UNL     1     -35.156   7.708  78.389  1.00  0.00     0.179 C 
ATOM     32  C   UNL     1     -33.632   7.582  78.639  1.00  0.00     0.177 C 
BRANCH  28  33
ATOM     33  O   UNL     1     -34.137   5.646  81.817  1.00  0.00    -0.384 OA
ATOM     34  H   UNL     1     -33.912   4.852  81.267  1.00  0.00     0.211 HD
ENDBRANCH  28  33
BRANCH  30  35
ATOM     35  O   UNL     1     -33.646   5.230  79.128  1.00  0.00    -0.387 OA
ATOM     36  H   UNL     1     -34.633   5.123  79.125  1.00  0.00     0.211 HD
ENDBRANCH  30  35
BRANCH  31  37
ATOM     37  C   UNL     1     -35.481   8.797  77.353  1.00  0.00     0.191 C 
BRANCH  37  38
ATOM     38  O   UNL     1     -34.325   9.226  76.685  1.00  0.00    -0.394 OA
ATOM     39  H   UNL     1     -34.591  10.000  76.126  1.00  0.00     0.210 HD
ENDBRANCH  37  38
ENDBRANCH  31  37
BRANCH  32  40
ATOM     40  O   UNL     1     -33.109   8.801  79.106  1.00  0.00    -0.387 OA
ATOM     41  H   UNL     1     -32.635   8.613  79.958  1.00  0.00     0.211 HD
ENDBRANCH  32  40
ENDBRANCH   1  27
TORSDOF 12
ENDMDL
