MODEL 1
REMARK VINA RESULT:    12.728      0.000      0.000
REMARK INTER + INTRA:          14.167
REMARK INTER:                  14.216
REMARK INTRA:                  -0.049
REMARK UNBOUND:                -0.049
REMARK SMILES COc1cc2ccc(=O)oc2c(O)c1O
REMARK SMILES IDX 3 1 14 2 12 3 11 4 5 5 4 6 6 7 7 8 8 9 9 10 10 11 2 12 1 13
REMARK SMILES IDX 15 14 13 16
REMARK H PARENT 15 15 13 17
REMARK Flexibility Score: inf
ROOT
ATOM      1  C   UNL     1      12.023  14.117  27.031  1.00  0.00     0.165 A 
ATOM      2  C   UNL     1      13.171  14.385  27.800  1.00  0.00     0.204 A 
ATOM      3  C   UNL     1      13.323  13.815  29.073  1.00  0.00     0.205 A 
ATOM      4  C   UNL     1      12.328  12.970  29.588  1.00  0.00     0.184 A 
ATOM      5  C   UNL     1      11.174  12.699  28.821  1.00  0.00     0.025 A 
ATOM      6  C   UNL     1      11.025  13.270  27.551  1.00  0.00     0.062 A 
ATOM      7  C   UNL     1      10.197  11.854  29.359  1.00  0.00     0.020 A 
ATOM      8  C   UNL     1      10.387  11.308  30.627  1.00  0.00     0.094 A 
ATOM      9  C   UNL     1      11.554  11.621  31.332  1.00  0.00     0.336 A 
ATOM     10  O   UNL     1      11.744  11.138  32.479  1.00  0.00    -0.246 OA
ATOM     11  O   UNL     1      12.466  12.426  30.796  1.00  0.00    -0.419 OA
ENDROOT
BRANCH   1  12
ATOM     12  O   UNL     1      11.907  14.706  25.762  1.00  0.00    -0.493 OA
ATOM     13  C   UNL     1      10.695  14.796  25.019  1.00  0.00     0.278 C 
ENDBRANCH   1  12
BRANCH   2  14
ATOM     14  O   UNL     1      14.178  15.220  27.313  1.00  0.00    -0.502 OA
ATOM     15  H   UNL     1      15.143  14.921  27.243  1.00  0.00     0.293 HD
ENDBRANCH   2  14
BRANCH   3  16
ATOM     16  O   UNL     1      14.474  14.098  29.812  1.00  0.00    -0.502 OA
ATOM     17  H   UNL     1      14.435  14.540  30.723  1.00  0.00     0.293 HD
ENDBRANCH   3  16
TORSDOF 3
ENDMDL
MODEL 2
REMARK VINA RESULT:    14.409      2.388      3.619
REMARK INTER + INTRA:          16.045
REMARK INTER:                  16.095
REMARK INTRA:                  -0.050
REMARK UNBOUND:                -0.049
REMARK SMILES COc1cc2ccc(=O)oc2c(O)c1O
REMARK SMILES IDX 3 1 14 2 12 3 11 4 5 5 4 6 6 7 7 8 8 9 9 10 10 11 2 12 1 13
REMARK SMILES IDX 15 14 13 16
REMARK H PARENT 15 15 13 17
REMARK Flexibility Score: inf
ROOT
ATOM      1  C   UNL     1      13.227  15.327  30.993  1.00  0.00     0.165 A 
ATOM      2  C   UNL     1      13.875  14.931  29.808  1.00  0.00     0.204 A 
ATOM      3  C   UNL     1      13.568  13.702  29.206  1.00  0.00     0.205 A 
ATOM      4  C   UNL     1      12.608  12.856  29.785  1.00  0.00     0.184 A 
ATOM      5  C   UNL     1      11.956  13.248  30.974  1.00  0.00     0.025 A 
ATOM      6  C   UNL     1      12.265  14.476  31.572  1.00  0.00     0.062 A 
ATOM      7  C   UNL     1      11.004  12.386  31.529  1.00  0.00     0.020 A 
ATOM      8  C   UNL     1      10.728  11.174  30.900  1.00  0.00     0.094 A 
ATOM      9  C   UNL     1      11.413  10.850  29.724  1.00  0.00     0.336 A 
ATOM     10  O   UNL     1      11.178   9.760  29.140  1.00  0.00    -0.246 OA
ATOM     11  O   UNL     1      12.312  11.688  29.218  1.00  0.00    -0.419 OA
ENDROOT
BRANCH   1  12
ATOM     12  O   UNL     1      13.561  16.564  31.566  1.00  0.00    -0.493 OA
ATOM     13  C   UNL     1      13.419  16.882  32.947  1.00  0.00     0.278 C 
ENDBRANCH   1  12
BRANCH   2  14
ATOM     14  O   UNL     1      14.832  15.752  29.210  1.00  0.00    -0.502 OA
ATOM     15  H   UNL     1      15.347  15.472  28.384  1.00  0.00     0.293 HD
ENDBRANCH   2  14
BRANCH   3  16
ATOM     16  O   UNL     1      14.227  13.338  28.030  1.00  0.00    -0.502 OA
ATOM     17  H   UNL     1      13.993  12.494  27.520  1.00  0.00     0.293 HD
ENDBRANCH   3  16
TORSDOF 3
ENDMDL
