MODEL 1
REMARK VINA RESULT:    -4.346      0.000      0.000
REMARK INTER + INTRA:         -11.971
REMARK INTER:                  -9.426
REMARK INTRA:                  -2.545
REMARK UNBOUND:                -2.545
REMARK SMILES CCCCCCCCCCCCCCCCCCCCCC(=O)[O-]
REMARK SMILES IDX 12 1 11 2 10 3 9 4 8 5 7 6 6 7 5 8 4 9 3 10 2 11 1 12 13 13
REMARK SMILES IDX 14 14 15 15 16 16 17 17 18 18 19 19 20 20 21 21 22 22 23 23
REMARK SMILES IDX 24 24
REMARK H PARENT
REMARK Flexibility Score: inf
ROOT
ATOM      1  C   UNL     1      19.793   5.338  -2.157  1.00  0.00     0.000 C 
ENDROOT
BRANCH   1   2
ATOM      2  C   UNL     1      19.376   4.232  -3.139  1.00  0.00     0.000 C 
BRANCH   2   3
ATOM      3  C   UNL     1      18.822   2.986  -2.427  1.00  0.00     0.000 C 
BRANCH   3   4
ATOM      4  C   UNL     1      17.702   2.302  -3.227  1.00  0.00    -0.000 C 
BRANCH   4   5
ATOM      5  C   UNL     1      17.989   2.261  -4.736  1.00  0.00    -0.000 C 
BRANCH   5   6
ATOM      6  C   UNL     1      16.723   1.905  -5.524  1.00  0.00    -0.000 C 
BRANCH   6   7
ATOM      7  C   UNL     1      16.879   2.258  -7.011  1.00  0.00    -0.000 C 
BRANCH   7   8
ATOM      8  C   UNL     1      18.167   3.046  -7.300  1.00  0.00    -0.000 C 
BRANCH   8   9
ATOM      9  C   UNL     1      17.909   4.340  -8.085  1.00  0.00    -0.000 C 
BRANCH   9  10
ATOM     10  C   UNL     1      17.373   5.444  -7.160  1.00  0.00    -0.000 C 
BRANCH  10  11
ATOM     11  C   UNL     1      15.897   5.774  -7.430  1.00  0.00    -0.003 C 
ATOM     12  C   UNL     1      14.971   5.310  -6.307  1.00  0.00     0.004 C 
ENDBRANCH  10  11
ENDBRANCH   9  10
ENDBRANCH   8   9
ENDBRANCH   7   8
ENDBRANCH   6   7
ENDBRANCH   5   6
ENDBRANCH   4   5
ENDBRANCH   3   4
ENDBRANCH   2   3
ENDBRANCH   1   2
BRANCH   1  13
ATOM     13  C   UNL     1      19.330   5.061  -0.718  1.00  0.00     0.000 C 
BRANCH  13  14
ATOM     14  C   UNL     1      18.442   6.197  -0.198  1.00  0.00     0.000 C 
BRANCH  14  15
ATOM     15  C   UNL     1      18.151   6.027   1.302  1.00  0.00     0.000 C 
BRANCH  15  16
ATOM     16  C   UNL     1      19.427   5.831   2.135  1.00  0.00     0.000 C 
BRANCH  16  17
ATOM     17  C   UNL     1      19.263   4.765   3.228  1.00  0.00     0.000 C 
BRANCH  17  18
ATOM     18  C   UNL     1      17.792   4.343   3.367  1.00  0.00     0.000 C 
BRANCH  18  19
ATOM     19  C   UNL     1      17.606   2.819   3.350  1.00  0.00     0.000 C 
BRANCH  19  20
ATOM     20  C   UNL     1      16.530   2.362   2.353  1.00  0.00     0.006 C 
BRANCH  20  21
ATOM     21  C   UNL     1      16.930   2.707   0.915  1.00  0.00     0.053 C 
BRANCH  21  22
ATOM     22  C   UNL     1      15.759   3.255   0.162  1.00  0.00     0.041 C 
ATOM     23  O   UNL     1      15.938   4.019  -0.823  1.00  0.00    -0.550 OA
ATOM     24  O   UNL     1      14.469   2.883   0.519  1.00  0.00    -0.550 OA
ENDBRANCH  21  22
ENDBRANCH  20  21
ENDBRANCH  19  20
ENDBRANCH  18  19
ENDBRANCH  17  18
ENDBRANCH  16  17
ENDBRANCH  15  16
ENDBRANCH  14  15
ENDBRANCH  13  14
ENDBRANCH   1  13
TORSDOF 20
ENDMDL
MODEL 2
REMARK VINA RESULT:    -4.101      1.919      8.533
REMARK INTER + INTRA:         -11.440
REMARK INTER:                  -9.267
REMARK INTRA:                  -2.173
REMARK UNBOUND:                -2.545
REMARK SMILES CCCCCCCCCCCCCCCCCCCCCC(=O)[O-]
REMARK SMILES IDX 12 1 11 2 10 3 9 4 8 5 7 6 6 7 5 8 4 9 3 10 2 11 1 12 13 13
REMARK SMILES IDX 14 14 15 15 16 16 17 17 18 18 19 19 20 20 21 21 22 22 23 23
REMARK SMILES IDX 24 24
REMARK H PARENT
REMARK Flexibility Score: inf
ROOT
ATOM      1  C   UNL     1      18.055   3.941  -1.723  1.00  0.00     0.000 C 
ENDROOT
BRANCH   1   2
ATOM      2  C   UNL     1      18.576   4.378  -0.345  1.00  0.00     0.000 C 
BRANCH   2   3
ATOM      3  C   UNL     1      18.279   5.858  -0.044  1.00  0.00     0.000 C 
BRANCH   3   4
ATOM      4  C   UNL     1      18.306   6.166   1.462  1.00  0.00    -0.000 C 
BRANCH   4   5
ATOM      5  C   UNL     1      19.637   5.781   2.124  1.00  0.00    -0.000 C 
BRANCH   5   6
ATOM      6  C   UNL     1      19.482   5.680   3.646  1.00  0.00    -0.000 C 
BRANCH   6   7
ATOM      7  C   UNL     1      19.582   4.221   4.117  1.00  0.00    -0.000 C 
BRANCH   7   8
ATOM      8  C   UNL     1      18.320   3.750   4.859  1.00  0.00    -0.000 C 
BRANCH   8   9
ATOM      9  C   UNL     1      17.097   3.639   3.937  1.00  0.00    -0.000 C 
BRANCH   9  10
ATOM     10  C   UNL     1      17.412   2.766   2.712  1.00  0.00    -0.000 C 
BRANCH  10  11
ATOM     11  C   UNL     1      16.169   2.051   2.162  1.00  0.00    -0.003 C 
ATOM     12  C   UNL     1      15.574   2.751   0.942  1.00  0.00     0.004 C 
ENDBRANCH  10  11
ENDBRANCH   9  10
ENDBRANCH   8   9
ENDBRANCH   7   8
ENDBRANCH   6   7
ENDBRANCH   5   6
ENDBRANCH   4   5
ENDBRANCH   3   4
ENDBRANCH   2   3
ENDBRANCH   1   2
BRANCH   1  13
ATOM     13  C   UNL     1      19.070   4.189  -2.850  1.00  0.00     0.000 C 
BRANCH  13  14
ATOM     14  C   UNL     1      18.961   3.111  -3.934  1.00  0.00     0.000 C 
BRANCH  14  15
ATOM     15  C   UNL     1      17.686   2.272  -3.753  1.00  0.00     0.000 C 
BRANCH  15  16
ATOM     16  C   UNL     1      17.057   1.852  -5.091  1.00  0.00     0.000 C 
BRANCH  16  17
ATOM     17  C   UNL     1      17.966   2.150  -6.292  1.00  0.00     0.000 C 
BRANCH  17  18
ATOM     18  C   UNL     1      17.141   2.320  -7.576  1.00  0.00     0.000 C 
BRANCH  18  19
ATOM     19  C   UNL     1      17.277   3.722  -8.190  1.00  0.00     0.000 C 
BRANCH  19  20
ATOM     20  C   UNL     1      17.522   4.812  -7.134  1.00  0.00     0.006 C 
BRANCH  20  21
ATOM     21  C   UNL     1      16.446   5.900  -7.207  1.00  0.00     0.053 C 
BRANCH  21  22
ATOM     22  C   UNL     1      15.168   5.415  -6.597  1.00  0.00     0.041 C 
ATOM     23  O   UNL     1      15.189   4.534  -5.698  1.00  0.00    -0.550 OA
ATOM     24  O   UNL     1      13.958   5.973  -6.987  1.00  0.00    -0.550 OA
ENDBRANCH  21  22
ENDBRANCH  20  21
ENDBRANCH  19  20
ENDBRANCH  18  19
ENDBRANCH  17  18
ENDBRANCH  16  17
ENDBRANCH  15  16
ENDBRANCH  14  15
ENDBRANCH  13  14
ENDBRANCH   1  13
TORSDOF 20
ENDMDL
MODEL 3
REMARK VINA RESULT:    -4.094      2.343      7.932
REMARK INTER + INTRA:         -11.426
REMARK INTER:                  -8.801
REMARK INTRA:                  -2.626
REMARK UNBOUND:                -2.545
REMARK SMILES CCCCCCCCCCCCCCCCCCCCCC(=O)[O-]
REMARK SMILES IDX 12 1 11 2 10 3 9 4 8 5 7 6 6 7 5 8 4 9 3 10 2 11 1 12 13 13
REMARK SMILES IDX 14 14 15 15 16 16 17 17 18 18 19 19 20 20 21 21 22 22 23 23
REMARK SMILES IDX 24 24
REMARK H PARENT
REMARK Flexibility Score: inf
ROOT
ATOM      1  C   UNL     1      18.250   6.167   1.138  1.00  0.00     0.000 C 
ENDROOT
BRANCH   1   2
ATOM      2  C   UNL     1      19.679   5.906   1.641  1.00  0.00     0.000 C 
BRANCH   2   3
ATOM      3  C   UNL     1      19.721   4.910   2.813  1.00  0.00     0.000 C 
BRANCH   3   4
ATOM      4  C   UNL     1      19.730   5.613   4.180  1.00  0.00    -0.000 C 
BRANCH   4   5
ATOM      5  C   UNL     1      18.804   4.936   5.203  1.00  0.00    -0.000 C 
BRANCH   5   6
ATOM      6  C   UNL     1      19.359   3.570   5.623  1.00  0.00    -0.000 C 
BRANCH   6   7
ATOM      7  C   UNL     1      18.401   2.437   5.225  1.00  0.00    -0.000 C 
BRANCH   7   8
ATOM      8  C   UNL     1      17.006   2.952   4.833  1.00  0.00    -0.000 C 
BRANCH   8   9
ATOM      9  C   UNL     1      16.431   2.233   3.605  1.00  0.00    -0.000 C 
BRANCH   9  10
ATOM     10  C   UNL     1      16.561   3.107   2.347  1.00  0.00    -0.000 C 
BRANCH  10  11
ATOM     11  C   UNL     1      16.165   2.359   1.066  1.00  0.00    -0.003 C 
ATOM     12  C   UNL     1      15.095   3.094   0.258  1.00  0.00     0.004 C 
ENDBRANCH  10  11
ENDBRANCH   9  10
ENDBRANCH   8   9
ENDBRANCH   7   8
ENDBRANCH   6   7
ENDBRANCH   5   6
ENDBRANCH   4   5
ENDBRANCH   3   4
ENDBRANCH   2   3
ENDBRANCH   1   2
BRANCH   1  13
ATOM     13  C   UNL     1      17.937   5.430  -0.173  1.00  0.00     0.000 C 
BRANCH  13  14
ATOM     14  C   UNL     1      19.030   5.679  -1.218  1.00  0.00     0.000 C 
BRANCH  14  15
ATOM     15  C   UNL     1      19.659   4.356  -1.684  1.00  0.00     0.000 C 
BRANCH  15  16
ATOM     16  C   UNL     1      18.791   3.134  -1.341  1.00  0.00     0.000 C 
BRANCH  16  17
ATOM     17  C   UNL     1      18.124   2.517  -2.578  1.00  0.00     0.000 C 
BRANCH  17  18
ATOM     18  C   UNL     1      18.962   2.773  -3.840  1.00  0.00     0.000 C 
BRANCH  18  19
ATOM     19  C   UNL     1      18.115   2.806  -5.121  1.00  0.00     0.000 C 
BRANCH  19  20
ATOM     20  C   UNL     1      16.688   3.321  -4.878  1.00  0.00     0.006 C 
BRANCH  20  21
ATOM     21  C   UNL     1      15.921   3.459  -6.197  1.00  0.00     0.053 C 
BRANCH  21  22
ATOM     22  C   UNL     1      15.747   4.902  -6.554  1.00  0.00     0.041 C 
ATOM     23  O   UNL     1      16.738   5.589  -6.918  1.00  0.00    -0.550 OA
ATOM     24  O   UNL     1      14.483   5.476  -6.532  1.00  0.00    -0.550 OA
ENDBRANCH  21  22
ENDBRANCH  20  21
ENDBRANCH  19  20
ENDBRANCH  18  19
ENDBRANCH  17  18
ENDBRANCH  16  17
ENDBRANCH  15  16
ENDBRANCH  14  15
ENDBRANCH  13  14
ENDBRANCH   1  13
TORSDOF 20
ENDMDL
MODEL 4
REMARK VINA RESULT:    -4.093      2.443      8.294
REMARK INTER + INTRA:         -11.423
REMARK INTER:                  -8.818
REMARK INTRA:                  -2.605
REMARK UNBOUND:                -2.545
REMARK SMILES CCCCCCCCCCCCCCCCCCCCCC(=O)[O-]
REMARK SMILES IDX 12 1 11 2 10 3 9 4 8 5 7 6 6 7 5 8 4 9 3 10 2 11 1 12 13 13
REMARK SMILES IDX 14 14 15 15 16 16 17 17 18 18 19 19 20 20 21 21 22 22 23 23
REMARK SMILES IDX 24 24
REMARK H PARENT
REMARK Flexibility Score: inf
ROOT
ATOM      1  C   UNL     1      17.810   5.121   0.873  1.00  0.00     0.000 C 
ENDROOT
BRANCH   1   2
ATOM      2  C   UNL     1      18.614   6.301   1.441  1.00  0.00     0.000 C 
BRANCH   2   3
ATOM      3  C   UNL     1      19.926   5.854   2.111  1.00  0.00     0.000 C 
BRANCH   3   4
ATOM      4  C   UNL     1      19.722   4.669   3.068  1.00  0.00    -0.000 C 
BRANCH   4   5
ATOM      5  C   UNL     1      19.596   5.105   4.536  1.00  0.00    -0.000 C 
BRANCH   5   6
ATOM      6  C   UNL     1      18.532   4.275   5.264  1.00  0.00    -0.000 C 
BRANCH   6   7
ATOM      7  C   UNL     1      17.262   4.132   4.411  1.00  0.00    -0.000 C 
BRANCH   7   8
ATOM      8  C   UNL     1      16.369   2.968   4.870  1.00  0.00    -0.000 C 
BRANCH   8   9
ATOM      9  C   UNL     1      16.683   1.655   4.140  1.00  0.00    -0.000 C 
BRANCH   9  10
ATOM     10  C   UNL     1      17.096   1.924   2.684  1.00  0.00    -0.000 C 
BRANCH  10  11
ATOM     11  C   UNL     1      18.389   1.192   2.293  1.00  0.00    -0.003 C 
ATOM     12  C   UNL     1      18.937   1.641   0.939  1.00  0.00     0.004 C 
ENDBRANCH  10  11
ENDBRANCH   9  10
ENDBRANCH   8   9
ENDBRANCH   7   8
ENDBRANCH   6   7
ENDBRANCH   5   6
ENDBRANCH   4   5
ENDBRANCH   3   4
ENDBRANCH   2   3
ENDBRANCH   1   2
BRANCH   1  13
ATOM     13  C   UNL     1      17.841   5.065  -0.662  1.00  0.00     0.000 C 
BRANCH  13  14
ATOM     14  C   UNL     1      16.776   4.101  -1.199  1.00  0.00     0.000 C 
BRANCH  14  15
ATOM     15  C   UNL     1      17.418   2.971  -2.020  1.00  0.00     0.000 C 
BRANCH  15  16
ATOM     16  C   UNL     1      18.680   3.427  -2.770  1.00  0.00     0.000 C 
BRANCH  16  17
ATOM     17  C   UNL     1      18.431   3.651  -4.268  1.00  0.00     0.000 C 
BRANCH  17  18
ATOM     18  C   UNL     1      18.398   2.314  -5.024  1.00  0.00     0.000 C 
BRANCH  18  19
ATOM     19  C   UNL     1      16.973   1.877  -5.398  1.00  0.00     0.000 C 
BRANCH  19  20
ATOM     20  C   UNL     1      16.392   2.682  -6.570  1.00  0.00     0.006 C 
BRANCH  20  21
ATOM     21  C   UNL     1      15.310   3.654  -6.088  1.00  0.00     0.053 C 
BRANCH  21  22
ATOM     22  C   UNL     1      15.603   5.042  -6.564  1.00  0.00     0.041 C 
ATOM     23  O   UNL     1      16.778   5.371  -6.875  1.00  0.00    -0.550 OA
ATOM     24  O   UNL     1      14.569   5.958  -6.711  1.00  0.00    -0.550 OA
ENDBRANCH  21  22
ENDBRANCH  20  21
ENDBRANCH  19  20
ENDBRANCH  18  19
ENDBRANCH  17  18
ENDBRANCH  16  17
ENDBRANCH  15  16
ENDBRANCH  14  15
ENDBRANCH  13  14
ENDBRANCH   1  13
TORSDOF 20
ENDMDL
MODEL 5
REMARK VINA RESULT:    -4.007      1.838      2.672
REMARK INTER + INTRA:         -11.236
REMARK INTER:                  -9.337
REMARK INTRA:                  -1.899
REMARK UNBOUND:                -2.545
REMARK SMILES CCCCCCCCCCCCCCCCCCCCCC(=O)[O-]
REMARK SMILES IDX 12 1 11 2 10 3 9 4 8 5 7 6 6 7 5 8 4 9 3 10 2 11 1 12 13 13
REMARK SMILES IDX 14 14 15 15 16 16 17 17 18 18 19 19 20 20 21 21 22 22 23 23
REMARK SMILES IDX 24 24
REMARK H PARENT
REMARK Flexibility Score: inf
ROOT
ATOM      1  C   UNL     1      19.338   3.254  -3.162  1.00  0.00     0.000 C 
ENDROOT
BRANCH   1   2
ATOM      2  C   UNL     1      17.904   3.274  -3.715  1.00  0.00     0.000 C 
BRANCH   2   3
ATOM      3  C   UNL     1      17.575   2.024  -4.551  1.00  0.00     0.000 C 
BRANCH   3   4
ATOM      4  C   UNL     1      16.524   2.304  -5.636  1.00  0.00    -0.000 C 
BRANCH   4   5
ATOM      5  C   UNL     1      17.041   2.013  -7.054  1.00  0.00    -0.000 C 
BRANCH   5   6
ATOM      6  C   UNL     1      18.467   2.547  -7.237  1.00  0.00    -0.000 C 
BRANCH   6   7
ATOM      7  C   UNL     1      18.578   3.403  -8.507  1.00  0.00    -0.000 C 
BRANCH   7   8
ATOM      8  C   UNL     1      17.547   4.542  -8.546  1.00  0.00    -0.000 C 
BRANCH   8   9
ATOM      9  C   UNL     1      17.627   5.457  -7.316  1.00  0.00    -0.000 C 
BRANCH   9  10
ATOM     10  C   UNL     1      16.313   6.231  -7.123  1.00  0.00    -0.000 C 
BRANCH  10  11
ATOM     11  C   UNL     1      15.182   5.346  -6.579  1.00  0.00    -0.003 C 
ATOM     12  C   UNL     1      13.799   5.969  -6.768  1.00  0.00     0.004 C 
ENDBRANCH  10  11
ENDBRANCH   9  10
ENDBRANCH   8   9
ENDBRANCH   7   8
ENDBRANCH   6   7
ENDBRANCH   5   6
ENDBRANCH   4   5
ENDBRANCH   3   4
ENDBRANCH   2   3
ENDBRANCH   1   2
BRANCH   1  13
ATOM     13  C   UNL     1      19.421   3.741  -1.707  1.00  0.00     0.000 C 
BRANCH  13  14
ATOM     14  C   UNL     1      19.347   5.271  -1.635  1.00  0.00     0.000 C 
BRANCH  14  15
ATOM     15  C   UNL     1      18.219   5.725  -0.695  1.00  0.00     0.000 C 
BRANCH  15  16
ATOM     16  C   UNL     1      18.720   6.044   0.722  1.00  0.00     0.000 C 
BRANCH  16  17
ATOM     17  C   UNL     1      18.384   4.937   1.732  1.00  0.00     0.000 C 
BRANCH  17  18
ATOM     18  C   UNL     1      17.219   4.071   1.230  1.00  0.00     0.000 C 
BRANCH  18  19
ATOM     19  C   UNL     1      17.403   2.581   1.552  1.00  0.00     0.000 C 
BRANCH  19  20
ATOM     20  C   UNL     1      16.212   1.986   2.320  1.00  0.00     0.006 C 
BRANCH  20  21
ATOM     21  C   UNL     1      16.649   1.456   3.689  1.00  0.00     0.053 C 
BRANCH  21  22
ATOM     22  C   UNL     1      16.025   2.261   4.786  1.00  0.00     0.041 C 
ATOM     23  O   UNL     1      16.347   3.467   4.950  1.00  0.00    -0.550 OA
ATOM     24  O   UNL     1      15.049   1.693   5.595  1.00  0.00    -0.550 OA
ENDBRANCH  21  22
ENDBRANCH  20  21
ENDBRANCH  19  20
ENDBRANCH  18  19
ENDBRANCH  17  18
ENDBRANCH  16  17
ENDBRANCH  15  16
ENDBRANCH  14  15
ENDBRANCH  13  14
ENDBRANCH   1  13
TORSDOF 20
ENDMDL
MODEL 6
REMARK VINA RESULT:    -4.004      2.077      3.815
REMARK INTER + INTRA:         -11.231
REMARK INTER:                  -8.701
REMARK INTRA:                  -2.530
REMARK UNBOUND:                -2.545
REMARK SMILES CCCCCCCCCCCCCCCCCCCCCC(=O)[O-]
REMARK SMILES IDX 12 1 11 2 10 3 9 4 8 5 7 6 6 7 5 8 4 9 3 10 2 11 1 12 13 13
REMARK SMILES IDX 14 14 15 15 16 16 17 17 18 18 19 19 20 20 21 21 22 22 23 23
REMARK SMILES IDX 24 24
REMARK H PARENT
REMARK Flexibility Score: inf
ROOT
ATOM      1  C   UNL     1      17.499   2.985  -3.814  1.00  0.00     0.000 C 
ENDROOT
BRANCH   1   2
ATOM      2  C   UNL     1      16.771   2.177  -4.901  1.00  0.00     0.000 C 
BRANCH   2   3
ATOM      3  C   UNL     1      17.674   1.860  -6.106  1.00  0.00     0.000 C 
BRANCH   3   4
ATOM      4  C   UNL     1      17.010   2.214  -7.446  1.00  0.00    -0.000 C 
BRANCH   4   5
ATOM      5  C   UNL     1      17.802   1.697  -8.657  1.00  0.00    -0.000 C 
BRANCH   5   6
ATOM      6  C   UNL     1      18.676   2.807  -9.253  1.00  0.00    -0.000 C 
BRANCH   6   7
ATOM      7  C   UNL     1      18.048   4.190  -9.024  1.00  0.00    -0.000 C 
BRANCH   7   8
ATOM      8  C   UNL     1      18.775   4.997  -7.935  1.00  0.00    -0.000 C 
BRANCH   8   9
ATOM      9  C   UNL     1      17.843   5.964  -7.191  1.00  0.00    -0.000 C 
BRANCH   9  10
ATOM     10  C   UNL     1      16.381   5.748  -7.613  1.00  0.00    -0.000 C 
BRANCH  10  11
ATOM     11  C   UNL     1      15.469   5.401  -6.427  1.00  0.00    -0.003 C 
ATOM     12  C   UNL     1      14.005   5.761  -6.679  1.00  0.00     0.004 C 
ENDBRANCH  10  11
ENDBRANCH   9  10
ENDBRANCH   8   9
ENDBRANCH   7   8
ENDBRANCH   6   7
ENDBRANCH   5   6
ENDBRANCH   4   5
ENDBRANCH   3   4
ENDBRANCH   2   3
ENDBRANCH   1   2
BRANCH   1  13
ATOM     13  C   UNL     1      18.599   3.893  -4.384  1.00  0.00     0.000 C 
BRANCH  13  14
ATOM     14  C   UNL     1      19.883   3.789  -3.554  1.00  0.00     0.000 C 
BRANCH  14  15
ATOM     15  C   UNL     1      19.564   3.682  -2.054  1.00  0.00     0.000 C 
BRANCH  15  16
ATOM     16  C   UNL     1      19.822   4.995  -1.298  1.00  0.00     0.000 C 
BRANCH  16  17
ATOM     17  C   UNL     1      18.526   5.685  -0.850  1.00  0.00     0.000 C 
BRANCH  17  18
ATOM     18  C   UNL     1      17.459   4.650  -0.461  1.00  0.00     0.000 C 
BRANCH  18  19
ATOM     19  C   UNL     1      17.573   4.199   1.003  1.00  0.00     0.000 C 
BRANCH  19  20
ATOM     20  C   UNL     1      17.938   5.349   1.954  1.00  0.00     0.006 C 
BRANCH  20  21
ATOM     21  C   UNL     1      19.079   4.945   2.894  1.00  0.00     0.053 C 
BRANCH  21  22
ATOM     22  C   UNL     1      18.555   4.696   4.274  1.00  0.00     0.041 C 
ATOM     23  O   UNL     1      19.282   4.920   5.278  1.00  0.00    -0.550 OA
ATOM     24  O   UNL     1      17.248   4.263   4.453  1.00  0.00    -0.550 OA
ENDBRANCH  21  22
ENDBRANCH  20  21
ENDBRANCH  19  20
ENDBRANCH  18  19
ENDBRANCH  17  18
ENDBRANCH  16  17
ENDBRANCH  15  16
ENDBRANCH  14  15
ENDBRANCH  13  14
ENDBRANCH   1  13
TORSDOF 20
ENDMDL
MODEL 7
REMARK VINA RESULT:    -3.993      2.479      8.460
REMARK INTER + INTRA:         -11.206
REMARK INTER:                  -8.573
REMARK INTRA:                  -2.633
REMARK UNBOUND:                -2.545
REMARK SMILES CCCCCCCCCCCCCCCCCCCCCC(=O)[O-]
REMARK SMILES IDX 12 1 11 2 10 3 9 4 8 5 7 6 6 7 5 8 4 9 3 10 2 11 1 12 13 13
REMARK SMILES IDX 14 14 15 15 16 16 17 17 18 18 19 19 20 20 21 21 22 22 23 23
REMARK SMILES IDX 24 24
REMARK H PARENT
REMARK Flexibility Score: inf
ROOT
ATOM      1  C   UNL     1      16.871   2.727   1.005  1.00  0.00     0.000 C 
ENDROOT
BRANCH   1   2
ATOM      2  C   UNL     1      17.823   1.703   1.644  1.00  0.00     0.000 C 
BRANCH   2   3
ATOM      3  C   UNL     1      17.385   1.294   3.062  1.00  0.00     0.000 C 
BRANCH   3   4
ATOM      4  C   UNL     1      16.362   2.270   3.665  1.00  0.00    -0.000 C 
BRANCH   4   5
ATOM      5  C   UNL     1      16.926   3.064   4.853  1.00  0.00    -0.000 C 
BRANCH   5   6
ATOM      6  C   UNL     1      18.245   2.454   5.342  1.00  0.00    -0.000 C 
BRANCH   6   7
ATOM      7  C   UNL     1      19.409   3.440   5.168  1.00  0.00    -0.000 C 
BRANCH   7   8
ATOM      8  C   UNL     1      18.936   4.896   5.026  1.00  0.00    -0.000 C 
BRANCH   8   9
ATOM      9  C   UNL     1      19.539   5.600   3.802  1.00  0.00    -0.000 C 
BRANCH   9  10
ATOM     10  C   UNL     1      19.768   4.603   2.655  1.00  0.00    -0.000 C 
BRANCH  10  11
ATOM     11  C   UNL     1      19.621   5.253   1.271  1.00  0.00    -0.003 C 
ATOM     12  C   UNL     1      18.380   6.137   1.160  1.00  0.00     0.004 C 
ENDBRANCH  10  11
ENDBRANCH   9  10
ENDBRANCH   8   9
ENDBRANCH   7   8
ENDBRANCH   6   7
ENDBRANCH   5   6
ENDBRANCH   4   5
ENDBRANCH   3   4
ENDBRANCH   2   3
ENDBRANCH   1   2
BRANCH   1  13
ATOM     13  C   UNL     1      17.111   2.901  -0.503  1.00  0.00     0.000 C 
BRANCH  13  14
ATOM     14  C   UNL     1      18.537   2.487  -0.884  1.00  0.00     0.000 C 
BRANCH  14  15
ATOM     15  C   UNL     1      18.855   2.878  -2.336  1.00  0.00     0.000 C 
BRANCH  15  16
ATOM     16  C   UNL     1      17.590   3.076  -3.187  1.00  0.00     0.000 C 
BRANCH  16  17
ATOM     17  C   UNL     1      17.261   1.850  -4.051  1.00  0.00     0.000 C 
BRANCH  17  18
ATOM     18  C   UNL     1      17.866   1.990  -5.456  1.00  0.00     0.000 C 
BRANCH  18  19
ATOM     19  C   UNL     1      16.806   2.251  -6.538  1.00  0.00     0.000 C 
BRANCH  19  20
ATOM     20  C   UNL     1      16.555   3.748  -6.776  1.00  0.00     0.006 C 
BRANCH  20  21
ATOM     21  C   UNL     1      15.152   4.152  -6.312  1.00  0.00     0.053 C 
BRANCH  21  22
ATOM     22  C   UNL     1      14.876   5.580  -6.663  1.00  0.00     0.041 C 
ATOM     23  O   UNL     1      13.697   6.022  -6.639  1.00  0.00    -0.550 OA
ATOM     24  O   UNL     1      15.926   6.436  -6.967  1.00  0.00    -0.550 OA
ENDBRANCH  21  22
ENDBRANCH  20  21
ENDBRANCH  19  20
ENDBRANCH  18  19
ENDBRANCH  17  18
ENDBRANCH  16  17
ENDBRANCH  15  16
ENDBRANCH  14  15
ENDBRANCH  13  14
ENDBRANCH   1  13
TORSDOF 20
ENDMDL
MODEL 8
REMARK VINA RESULT:    -3.929      2.226      3.494
REMARK INTER + INTRA:         -11.067
REMARK INTER:                  -8.373
REMARK INTRA:                  -2.694
REMARK UNBOUND:                -2.545
REMARK SMILES CCCCCCCCCCCCCCCCCCCCCC(=O)[O-]
REMARK SMILES IDX 12 1 11 2 10 3 9 4 8 5 7 6 6 7 5 8 4 9 3 10 2 11 1 12 13 13
REMARK SMILES IDX 14 14 15 15 16 16 17 17 18 18 19 19 20 20 21 21 22 22 23 23
REMARK SMILES IDX 24 24
REMARK H PARENT
REMARK Flexibility Score: inf
ROOT
ATOM      1  C   UNL     1      17.548   5.025  -0.195  1.00  0.00     0.000 C 
ENDROOT
BRANCH   1   2
ATOM      2  C   UNL     1      18.623   5.622  -1.117  1.00  0.00     0.000 C 
BRANCH   2   3
ATOM      3  C   UNL     1      19.700   4.595  -1.511  1.00  0.00     0.000 C 
BRANCH   3   4
ATOM      4  C   UNL     1      19.808   4.415  -3.034  1.00  0.00    -0.000 C 
BRANCH   4   5
ATOM      5  C   UNL     1      19.139   3.124  -3.529  1.00  0.00    -0.000 C 
BRANCH   5   6
ATOM      6  C   UNL     1      17.815   3.431  -4.238  1.00  0.00    -0.000 C 
BRANCH   6   7
ATOM      7  C   UNL     1      17.523   2.398  -5.338  1.00  0.00    -0.000 C 
BRANCH   7   8
ATOM      8  C   UNL     1      17.416   3.033  -6.734  1.00  0.00    -0.000 C 
BRANCH   8   9
ATOM      9  C   UNL     1      17.557   4.562  -6.702  1.00  0.00    -0.000 C 
BRANCH   9  10
ATOM     10  C   UNL     1      16.300   5.239  -7.273  1.00  0.00    -0.000 C 
BRANCH  10  11
ATOM     11  C   UNL     1      15.065   5.033  -6.385  1.00  0.00    -0.003 C 
ATOM     12  C   UNL     1      13.920   5.985  -6.732  1.00  0.00     0.004 C 
ENDBRANCH  10  11
ENDBRANCH   9  10
ENDBRANCH   8   9
ENDBRANCH   7   8
ENDBRANCH   6   7
ENDBRANCH   5   6
ENDBRANCH   4   5
ENDBRANCH   3   4
ENDBRANCH   2   3
ENDBRANCH   1   2
BRANCH   1  13
ATOM     13  C   UNL     1      16.619   4.041  -0.923  1.00  0.00     0.000 C 
BRANCH  13  14
ATOM     14  C   UNL     1      16.421   2.762  -0.101  1.00  0.00     0.000 C 
BRANCH  14  15
ATOM     15  C   UNL     1      16.632   3.032   1.397  1.00  0.00     0.000 C 
BRANCH  15  16
ATOM     16  C   UNL     1      17.560   2.001   2.060  1.00  0.00     0.000 C 
BRANCH  16  17
ATOM     17  C   UNL     1      18.759   1.630   1.176  1.00  0.00     0.000 C 
BRANCH  17  18
ATOM     18  C   UNL     1      19.915   2.622   1.375  1.00  0.00     0.000 C 
BRANCH  18  19
ATOM     19  C   UNL     1      19.941   3.233   2.784  1.00  0.00     0.000 C 
BRANCH  19  20
ATOM     20  C   UNL     1      19.687   4.748   2.781  1.00  0.00     0.006 C 
BRANCH  20  21
ATOM     21  C   UNL     1      19.570   5.290   4.209  1.00  0.00     0.053 C 
BRANCH  21  22
ATOM     22  C   UNL     1      18.664   4.423   5.025  1.00  0.00     0.041 C 
ATOM     23  O   UNL     1      19.112   3.798   6.023  1.00  0.00    -0.550 OA
ATOM     24  O   UNL     1      17.312   4.345   4.714  1.00  0.00    -0.550 OA
ENDBRANCH  21  22
ENDBRANCH  20  21
ENDBRANCH  19  20
ENDBRANCH  18  19
ENDBRANCH  17  18
ENDBRANCH  16  17
ENDBRANCH  15  16
ENDBRANCH  14  15
ENDBRANCH  13  14
ENDBRANCH   1  13
TORSDOF 20
ENDMDL
MODEL 9
REMARK VINA RESULT:    -3.908      1.461      2.421
REMARK INTER + INTRA:         -11.023
REMARK INTER:                  -8.830
REMARK INTRA:                  -2.193
REMARK UNBOUND:                -2.545
REMARK SMILES CCCCCCCCCCCCCCCCCCCCCC(=O)[O-]
REMARK SMILES IDX 12 1 11 2 10 3 9 4 8 5 7 6 6 7 5 8 4 9 3 10 2 11 1 12 13 13
REMARK SMILES IDX 14 14 15 15 16 16 17 17 18 18 19 19 20 20 21 21 22 22 23 23
REMARK SMILES IDX 24 24
REMARK H PARENT
REMARK Flexibility Score: inf
ROOT
ATOM      1  C   UNL     1      17.872   5.245  -0.045  1.00  0.00     0.000 C 
ENDROOT
BRANCH   1   2
ATOM      2  C   UNL     1      18.385   4.864  -1.442  1.00  0.00     0.000 C 
BRANCH   2   3
ATOM      3  C   UNL     1      19.177   3.544  -1.442  1.00  0.00     0.000 C 
BRANCH   3   4
ATOM      4  C   UNL     1      20.060   3.389  -2.690  1.00  0.00    -0.000 C 
BRANCH   4   5
ATOM      5  C   UNL     1      19.384   3.916  -3.965  1.00  0.00    -0.000 C 
BRANCH   5   6
ATOM      6  C   UNL     1      18.750   2.770  -4.763  1.00  0.00    -0.000 C 
BRANCH   6   7
ATOM      7  C   UNL     1      17.230   2.721  -4.548  1.00  0.00    -0.000 C 
BRANCH   7   8
ATOM      8  C   UNL     1      16.502   1.929  -5.647  1.00  0.00    -0.000 C 
BRANCH   8   9
ATOM      9  C   UNL     1      15.682   2.829  -6.583  1.00  0.00    -0.000 C 
BRANCH   9  10
ATOM     10  C   UNL     1      15.634   4.271  -6.053  1.00  0.00    -0.000 C 
BRANCH  10  11
ATOM     11  C   UNL     1      16.075   5.300  -7.104  1.00  0.00    -0.003 C 
ATOM     12  C   UNL     1      17.594   5.447  -7.189  1.00  0.00     0.004 C 
ENDBRANCH  10  11
ENDBRANCH   9  10
ENDBRANCH   8   9
ENDBRANCH   7   8
ENDBRANCH   6   7
ENDBRANCH   5   6
ENDBRANCH   4   5
ENDBRANCH   3   4
ENDBRANCH   2   3
ENDBRANCH   1   2
BRANCH   1  13
ATOM     13  C   UNL     1      18.962   5.874   0.838  1.00  0.00     0.000 C 
BRANCH  13  14
ATOM     14  C   UNL     1      18.608   5.745   2.323  1.00  0.00     0.000 C 
BRANCH  14  15
ATOM     15  C   UNL     1      19.815   5.253   3.138  1.00  0.00     0.000 C 
BRANCH  15  16
ATOM     16  C   UNL     1      19.825   5.802   4.574  1.00  0.00     0.000 C 
BRANCH  16  17
ATOM     17  C   UNL     1      19.156   4.850   5.576  1.00  0.00     0.000 C 
BRANCH  17  18
ATOM     18  C   UNL     1      19.358   3.385   5.160  1.00  0.00     0.000 C 
BRANCH  18  19
ATOM     19  C   UNL     1      18.068   2.556   5.256  1.00  0.00     0.000 C 
BRANCH  19  20
ATOM     20  C   UNL     1      16.904   3.172   4.465  1.00  0.00     0.006 C 
BRANCH  20  21
ATOM     21  C   UNL     1      16.224   2.124   3.579  1.00  0.00     0.053 C 
BRANCH  21  22
ATOM     22  C   UNL     1      16.612   2.317   2.147  1.00  0.00     0.041 C 
ATOM     23  O   UNL     1      17.827   2.328   1.815  1.00  0.00    -0.550 OA
ATOM     24  O   UNL     1      15.630   2.435   1.172  1.00  0.00    -0.550 OA
ENDBRANCH  21  22
ENDBRANCH  20  21
ENDBRANCH  19  20
ENDBRANCH  18  19
ENDBRANCH  17  18
ENDBRANCH  16  17
ENDBRANCH  15  16
ENDBRANCH  14  15
ENDBRANCH  13  14
ENDBRANCH   1  13
TORSDOF 20
ENDMDL
