MODEL 1
REMARK VINA RESULT:    -7.311      0.000      0.000
REMARK INTER + INTRA:          -8.859
REMARK INTER:                  -8.594
REMARK INTRA:                  -0.265
REMARK UNBOUND:                -0.265
REMARK SMILES O=c1cc(-c2ccc(O)c(O)c2)oc2cc(O)cc(O)c12
REMARK SMILES IDX 4 1 3 2 2 3 1 4 21 5 19 6 18 7 16 8 15 9 14 10 13 11 5 12
REMARK SMILES IDX 6 13 7 14 8 15 12 16 10 17 9 18 11 20 20 22 17 24
REMARK H PARENT 9 19 11 21 20 23 17 25
REMARK Flexibility Score: inf
ROOT
ATOM      1  C   UNL     1      31.415  -8.713  12.826  1.00  0.00     0.138 A 
ATOM      2  C   UNL     1      32.758  -8.635  13.218  1.00  0.00     0.100 A 
ATOM      3  C   UNL     1      33.684  -8.000  12.391  1.00  0.00     0.197 A 
ATOM      4  O   UNL     1      34.869  -7.891  12.798  1.00  0.00    -0.289 OA
ATOM      5  C   UNL     1      33.267  -7.466  11.148  1.00  0.00     0.107 A 
ATOM      6  C   UNL     1      34.129  -6.833  10.205  1.00  0.00     0.134 A 
ATOM      7  C   UNL     1      33.583  -6.240   9.059  1.00  0.00     0.093 A 
ATOM      8  C   UNL     1      32.213  -6.310   8.795  1.00  0.00     0.123 A 
ATOM      9  C   UNL     1      31.370  -6.973   9.684  1.00  0.00     0.094 A 
ATOM     10  C   UNL     1      31.879  -7.544  10.851  1.00  0.00     0.146 A 
ATOM     11  O   UNL     1      31.038  -8.155  11.679  1.00  0.00    -0.456 OA
ENDROOT
BRANCH   1  12
ATOM     12  C   UNL     1      30.389  -9.378  13.668  1.00  0.00     0.021 A 
ATOM     13  C   UNL     1      29.767  -8.655  14.701  1.00  0.00     0.016 A 
ATOM     14  C   UNL     1      28.793  -9.256  15.502  1.00  0.00     0.051 A 
ATOM     15  C   UNL     1      28.414 -10.582  15.281  1.00  0.00     0.157 A 
ATOM     16  C   UNL     1      29.995 -10.711  13.440  1.00  0.00     0.062 A 
ATOM     17  C   UNL     1      29.015 -11.314  14.243  1.00  0.00     0.158 A 
BRANCH  15  18
ATOM     18  O   UNL     1      27.441 -11.155  16.098  1.00  0.00    -0.504 OA
ATOM     19  H   UNL     1      26.496 -11.321  15.774  1.00  0.00     0.293 HD
ENDBRANCH  15  18
BRANCH  17  20
ATOM     20  O   UNL     1      28.634 -12.634  14.010  1.00  0.00    -0.504 OA
ATOM     21  H   UNL     1      28.077 -13.153  14.679  1.00  0.00     0.293 HD
ENDBRANCH  17  20
ENDBRANCH   1  12
BRANCH   6  22
ATOM     22  O   UNL     1      35.521  -6.781  10.330  1.00  0.00    -0.507 OA
ATOM     23  H   UNL     1      36.023  -6.129  10.914  1.00  0.00     0.293 HD
ENDBRANCH   6  22
BRANCH   8  24
ATOM     24  O   UNL     1      31.681  -5.730   7.645  1.00  0.00    -0.508 OA
ATOM     25  H   UNL     1      30.930  -5.051   7.691  1.00  0.00     0.293 HD
ENDBRANCH   8  24
TORSDOF 5
ENDMDL
MODEL 2
REMARK VINA RESULT:    -7.246      1.667      3.137
REMARK INTER + INTRA:          -8.782
REMARK INTER:                  -8.519
REMARK INTRA:                  -0.263
REMARK UNBOUND:                -0.265
REMARK SMILES O=c1cc(-c2ccc(O)c(O)c2)oc2cc(O)cc(O)c12
REMARK SMILES IDX 4 1 3 2 2 3 1 4 21 5 19 6 18 7 16 8 15 9 14 10 13 11 5 12
REMARK SMILES IDX 6 13 7 14 8 15 12 16 10 17 9 18 11 20 20 22 17 24
REMARK H PARENT 9 19 11 21 20 23 17 25
REMARK Flexibility Score: inf
ROOT
ATOM      1  C   UNL     1      31.125  -8.393  13.226  1.00  0.00     0.138 A 
ATOM      2  C   UNL     1      30.625  -7.359  12.422  1.00  0.00     0.100 A 
ATOM      3  C   UNL     1      31.507  -6.572  11.681  1.00  0.00     0.197 A 
ATOM      4  O   UNL     1      31.024  -5.693  10.921  1.00  0.00    -0.289 OA
ATOM      5  C   UNL     1      32.900  -6.801  11.772  1.00  0.00     0.107 A 
ATOM      6  C   UNL     1      33.895  -6.035  11.095  1.00  0.00     0.134 A 
ATOM      7  C   UNL     1      35.238  -6.428  11.169  1.00  0.00     0.093 A 
ATOM      8  C   UNL     1      35.626  -7.524  11.945  1.00  0.00     0.123 A 
ATOM      9  C   UNL     1      34.668  -8.245  12.652  1.00  0.00     0.094 A 
ATOM     10  C   UNL     1      33.317  -7.900  12.571  1.00  0.00     0.146 A 
ATOM     11  O   UNL     1      32.434  -8.623  13.251  1.00  0.00    -0.456 OA
ENDROOT
BRANCH   1  12
ATOM     12  C   UNL     1      30.231  -9.260  14.034  1.00  0.00     0.021 A 
ATOM     13  C   UNL     1      29.797 -10.489  13.507  1.00  0.00     0.016 A 
ATOM     14  C   UNL     1      28.963 -11.326  14.251  1.00  0.00     0.051 A 
ATOM     15  C   UNL     1      28.555 -10.959  15.535  1.00  0.00     0.157 A 
ATOM     16  C   UNL     1      29.828  -8.900  15.335  1.00  0.00     0.062 A 
ATOM     17  C   UNL     1      28.992  -9.742  16.083  1.00  0.00     0.158 A 
BRANCH  15  18
ATOM     18  O   UNL     1      27.720 -11.815  16.253  1.00  0.00    -0.504 OA
ATOM     19  H   UNL     1      27.331 -11.558  17.152  1.00  0.00     0.293 HD
ENDBRANCH  15  18
BRANCH  17  20
ATOM     20  O   UNL     1      28.598  -9.375  17.369  1.00  0.00    -0.504 OA
ATOM     21  H   UNL     1      27.621  -9.307  17.627  1.00  0.00     0.293 HD
ENDBRANCH  17  20
ENDBRANCH   1  12
BRANCH   6  22
ATOM     22  O   UNL     1      33.625  -4.875  10.363  1.00  0.00    -0.507 OA
ATOM     23  H   UNL     1      34.311  -4.347   9.846  1.00  0.00     0.293 HD
ENDBRANCH   6  22
BRANCH   8  24
ATOM     24  O   UNL     1      36.966  -7.898  12.025  1.00  0.00    -0.508 OA
ATOM     25  H   UNL     1      37.674  -7.265  12.380  1.00  0.00     0.293 HD
ENDBRANCH   8  24
TORSDOF 5
ENDMDL
MODEL 3
REMARK VINA RESULT:    -6.923      1.902      6.954
REMARK INTER + INTRA:          -8.402
REMARK INTER:                  -8.138
REMARK INTRA:                  -0.263
REMARK UNBOUND:                -0.265
REMARK SMILES O=c1cc(-c2ccc(O)c(O)c2)oc2cc(O)cc(O)c12
REMARK SMILES IDX 4 1 3 2 2 3 1 4 21 5 19 6 18 7 16 8 15 9 14 10 13 11 5 12
REMARK SMILES IDX 6 13 7 14 8 15 12 16 10 17 9 18 11 20 20 22 17 24
REMARK H PARENT 9 19 11 21 20 23 17 25
REMARK Flexibility Score: inf
ROOT
ATOM      1  C   UNL     1      31.592  -9.036  12.455  1.00  0.00     0.138 A 
ATOM      2  C   UNL     1      32.538  -9.974  12.887  1.00  0.00     0.100 A 
ATOM      3  C   UNL     1      32.270 -10.762  14.007  1.00  0.00     0.197 A 
ATOM      4  O   UNL     1      33.112 -11.638  14.333  1.00  0.00    -0.289 OA
ATOM      5  C   UNL     1      31.059 -10.585  14.717  1.00  0.00     0.107 A 
ATOM      6  C   UNL     1      30.696 -11.301  15.896  1.00  0.00     0.134 A 
ATOM      7  C   UNL     1      29.420 -11.124  16.446  1.00  0.00     0.093 A 
ATOM      8  C   UNL     1      28.518 -10.212  15.893  1.00  0.00     0.123 A 
ATOM      9  C   UNL     1      28.883  -9.469  14.774  1.00  0.00     0.094 A 
ATOM     10  C   UNL     1      30.135  -9.647  14.182  1.00  0.00     0.146 A 
ATOM     11  O   UNL     1      30.438  -8.928  13.107  1.00  0.00    -0.456 OA
ENDROOT
BRANCH   1  12
ATOM     12  C   UNL     1      31.826  -8.173  11.270  1.00  0.00     0.021 A 
ATOM     13  C   UNL     1      31.384  -8.599  10.005  1.00  0.00     0.016 A 
ATOM     14  C   UNL     1      31.586  -7.801   8.876  1.00  0.00     0.051 A 
ATOM     15  C   UNL     1      32.221  -6.562   8.989  1.00  0.00     0.157 A 
ATOM     16  C   UNL     1      32.455  -6.917  11.381  1.00  0.00     0.062 A 
ATOM     17  C   UNL     1      32.655  -6.115  10.248  1.00  0.00     0.158 A 
BRANCH  15  18
ATOM     18  O   UNL     1      32.410  -5.789   7.844  1.00  0.00    -0.504 OA
ATOM     19  H   UNL     1      32.062  -4.841   7.772  1.00  0.00     0.293 HD
ENDBRANCH  15  18
BRANCH  17  20
ATOM     20  O   UNL     1      33.281  -4.875  10.370  1.00  0.00    -0.504 OA
ATOM     21  H   UNL     1      33.523  -4.320   9.558  1.00  0.00     0.293 HD
ENDBRANCH  17  20
ENDBRANCH   1  12
BRANCH   6  22
ATOM     22  O   UNL     1      31.553 -12.173  16.575  1.00  0.00    -0.507 OA
ATOM     23  H   UNL     1      32.288 -11.885  17.204  1.00  0.00     0.293 HD
ENDBRANCH   6  22
BRANCH   8  24
ATOM     24  O   UNL     1      27.256 -10.032  16.457  1.00  0.00    -0.508 OA
ATOM     25  H   UNL     1      26.877 -10.687  17.131  1.00  0.00     0.293 HD
ENDBRANCH   8  24
TORSDOF 5
ENDMDL
MODEL 4
REMARK VINA RESULT:    -6.811     17.818     19.853
REMARK INTER + INTRA:          -8.271
REMARK INTER:                  -8.006
REMARK INTRA:                  -0.265
REMARK UNBOUND:                -0.265
REMARK SMILES O=c1cc(-c2ccc(O)c(O)c2)oc2cc(O)cc(O)c12
REMARK SMILES IDX 4 1 3 2 2 3 1 4 21 5 19 6 18 7 16 8 15 9 14 10 13 11 5 12
REMARK SMILES IDX 6 13 7 14 8 15 12 16 10 17 9 18 11 20 20 22 17 24
REMARK H PARENT 9 19 11 21 20 23 17 25
REMARK Flexibility Score: inf
ROOT
ATOM      1  C   UNL     1      41.119 -21.520  21.204  1.00  0.00     0.138 A 
ATOM      2  C   UNL     1      42.353 -22.028  20.775  1.00  0.00     0.100 A 
ATOM      3  C   UNL     1      43.085 -22.867  21.616  1.00  0.00     0.197 A 
ATOM      4  O   UNL     1      44.158 -23.357  21.179  1.00  0.00    -0.289 OA
ATOM      5  C   UNL     1      42.593 -23.173  22.907  1.00  0.00     0.107 A 
ATOM      6  C   UNL     1      43.271 -23.983  23.865  1.00  0.00     0.134 A 
ATOM      7  C   UNL     1      42.633 -24.312  25.068  1.00  0.00     0.093 A 
ATOM      8  C   UNL     1      41.364 -23.811  25.370  1.00  0.00     0.123 A 
ATOM      9  C   UNL     1      40.716 -22.975  24.464  1.00  0.00     0.094 A 
ATOM     10  C   UNL     1      41.311 -22.657  23.242  1.00  0.00     0.146 A 
ATOM     11  O   UNL     1      40.653 -21.868  22.400  1.00  0.00    -0.456 OA
ENDROOT
BRANCH   1  12
ATOM     12  C   UNL     1      40.300 -20.624  20.350  1.00  0.00     0.021 A 
ATOM     13  C   UNL     1      40.674 -19.277  20.201  1.00  0.00     0.016 A 
ATOM     14  C   UNL     1      39.925 -18.417  19.397  1.00  0.00     0.051 A 
ATOM     15  C   UNL     1      38.796 -18.884  18.719  1.00  0.00     0.157 A 
ATOM     16  C   UNL     1      39.168 -21.094  19.656  1.00  0.00     0.062 A 
ATOM     17  C   UNL     1      38.416 -20.230  18.846  1.00  0.00     0.158 A 
BRANCH  15  18
ATOM     18  O   UNL     1      38.066 -18.000  17.926  1.00  0.00    -0.504 OA
ATOM     19  H   UNL     1      38.249 -17.889  16.936  1.00  0.00     0.293 HD
ENDBRANCH  15  18
BRANCH  17  20
ATOM     20  O   UNL     1      37.297 -20.706  18.165  1.00  0.00    -0.504 OA
ATOM     21  H   UNL     1      37.383 -21.307  17.354  1.00  0.00     0.293 HD
ENDBRANCH  17  20
ENDBRANCH   1  12
BRANCH   6  22
ATOM     22  O   UNL     1      44.573 -24.465  23.698  1.00  0.00    -0.507 OA
ATOM     23  H   UNL     1      45.282 -24.028  23.128  1.00  0.00     0.293 HD
ENDBRANCH   6  22
BRANCH   8  24
ATOM     24  O   UNL     1      40.743 -24.131  26.576  1.00  0.00    -0.508 OA
ATOM     25  H   UNL     1      39.811 -23.800  26.798  1.00  0.00     0.293 HD
ENDBRANCH   8  24
TORSDOF 5
ENDMDL
MODEL 5
REMARK VINA RESULT:    -6.742     16.886     19.052
REMARK INTER + INTRA:          -8.189
REMARK INTER:                  -7.922
REMARK INTRA:                  -0.267
REMARK UNBOUND:                -0.265
REMARK SMILES O=c1cc(-c2ccc(O)c(O)c2)oc2cc(O)cc(O)c12
REMARK SMILES IDX 4 1 3 2 2 3 1 4 21 5 19 6 18 7 16 8 15 9 14 10 13 11 5 12
REMARK SMILES IDX 6 13 7 14 8 15 12 16 10 17 9 18 11 20 20 22 17 24
REMARK H PARENT 9 19 11 21 20 23 17 25
REMARK Flexibility Score: inf
ROOT
ATOM      1  C   UNL     1      40.127 -20.744  21.183  1.00  0.00     0.138 A 
ATOM      2  C   UNL     1      39.390 -20.979  22.352  1.00  0.00     0.100 A 
ATOM      3  C   UNL     1      39.870 -21.880  23.303  1.00  0.00     0.197 A 
ATOM      4  O   UNL     1      39.218 -22.023  24.369  1.00  0.00    -0.289 OA
ATOM      5  C   UNL     1      41.082 -22.573  23.067  1.00  0.00     0.107 A 
ATOM      6  C   UNL     1      41.647 -23.543  23.945  1.00  0.00     0.134 A 
ATOM      7  C   UNL     1      42.911 -24.079  23.662  1.00  0.00     0.093 A 
ATOM      8  C   UNL     1      43.600 -23.721  22.501  1.00  0.00     0.123 A 
ATOM      9  C   UNL     1      43.032 -22.815  21.610  1.00  0.00     0.094 A 
ATOM     10  C   UNL     1      41.790 -22.238  21.881  1.00  0.00     0.146 A 
ATOM     11  O   UNL     1      41.290 -21.367  21.011  1.00  0.00    -0.456 OA
ENDROOT
BRANCH   1  12
ATOM     12  C   UNL     1      39.662 -19.797  20.139  1.00  0.00     0.021 A 
ATOM     13  C   UNL     1      38.676 -20.206  19.224  1.00  0.00     0.016 A 
ATOM     14  C   UNL     1      38.216 -19.330  18.238  1.00  0.00     0.051 A 
ATOM     15  C   UNL     1      38.722 -18.031  18.152  1.00  0.00     0.157 A 
ATOM     16  C   UNL     1      40.161 -18.482  20.057  1.00  0.00     0.062 A 
ATOM     17  C   UNL     1      39.697 -17.602  19.068  1.00  0.00     0.158 A 
BRANCH  15  18
ATOM     18  O   UNL     1      38.245 -17.181  17.156  1.00  0.00    -0.504 OA
ATOM     19  H   UNL     1      37.973 -16.225  17.349  1.00  0.00     0.293 HD
ENDBRANCH  15  18
BRANCH  17  20
ATOM     20  O   UNL     1      40.199 -16.304  18.995  1.00  0.00    -0.504 OA
ATOM     21  H   UNL     1      39.595 -15.495  19.080  1.00  0.00     0.293 HD
ENDBRANCH  17  20
ENDBRANCH   1  12
BRANCH   6  22
ATOM     22  O   UNL     1      41.005 -24.032  25.088  1.00  0.00    -0.507 OA
ATOM     23  H   UNL     1      41.128 -23.665  26.020  1.00  0.00     0.293 HD
ENDBRANCH   6  22
BRANCH   8  24
ATOM     24  O   UNL     1      44.849 -24.271  22.219  1.00  0.00    -0.508 OA
ATOM     25  H   UNL     1      45.691 -23.936  22.673  1.00  0.00     0.293 HD
ENDBRANCH   8  24
TORSDOF 5
ENDMDL
MODEL 6
REMARK VINA RESULT:    -6.712      1.572      2.096
REMARK INTER + INTRA:          -8.155
REMARK INTER:                  -7.849
REMARK INTRA:                  -0.305
REMARK UNBOUND:                -0.265
REMARK SMILES O=c1cc(-c2ccc(O)c(O)c2)oc2cc(O)cc(O)c12
REMARK SMILES IDX 4 1 3 2 2 3 1 4 21 5 19 6 18 7 16 8 15 9 14 10 13 11 5 12
REMARK SMILES IDX 6 13 7 14 8 15 12 16 10 17 9 18 11 20 20 22 17 24
REMARK H PARENT 9 19 11 21 20 23 17 25
REMARK Flexibility Score: inf
ROOT
ATOM      1  C   UNL     1      31.656  -9.455  14.090  1.00  0.00     0.138 A 
ATOM      2  C   UNL     1      32.978  -9.663  14.507  1.00  0.00     0.100 A 
ATOM      3  C   UNL     1      34.017  -8.974  13.882  1.00  0.00     0.197 A 
ATOM      4  O   UNL     1      35.185  -9.135  14.320  1.00  0.00    -0.289 OA
ATOM      5  C   UNL     1      33.733  -8.094  12.811  1.00  0.00     0.107 A 
ATOM      6  C   UNL     1      34.714  -7.369  12.072  1.00  0.00     0.134 A 
ATOM      7  C   UNL     1      34.305  -6.437  11.109  1.00  0.00     0.093 A 
ATOM      8  C   UNL     1      32.952  -6.250  10.818  1.00  0.00     0.123 A 
ATOM      9  C   UNL     1      31.988  -6.993  11.496  1.00  0.00     0.094 A 
ATOM     10  C   UNL     1      32.362  -7.903  12.486  1.00  0.00     0.146 A 
ATOM     11  O   UNL     1      31.411  -8.581  13.119  1.00  0.00    -0.456 OA
ENDROOT
BRANCH   1  12
ATOM     12  C   UNL     1      30.513 -10.162  14.720  1.00  0.00     0.021 A 
ATOM     13  C   UNL     1      30.706 -11.448  15.256  1.00  0.00     0.016 A 
ATOM     14  C   UNL     1      29.649 -12.131  15.862  1.00  0.00     0.051 A 
ATOM     15  C   UNL     1      28.385 -11.542  15.953  1.00  0.00     0.157 A 
ATOM     16  C   UNL     1      29.241  -9.567  14.826  1.00  0.00     0.062 A 
ATOM     17  C   UNL     1      28.180 -10.252  15.436  1.00  0.00     0.158 A 
BRANCH  15  18
ATOM     18  O   UNL     1      27.349 -12.249  16.561  1.00  0.00    -0.504 OA
ATOM     19  H   UNL     1      26.858 -12.998  16.087  1.00  0.00     0.293 HD
ENDBRANCH  15  18
BRANCH  17  20
ATOM     20  O   UNL     1      26.924  -9.654  15.533  1.00  0.00    -0.504 OA
ATOM     21  H   UNL     1      26.137 -10.135  15.952  1.00  0.00     0.293 HD
ENDBRANCH  17  20
ENDBRANCH   1  12
BRANCH   6  22
ATOM     22  O   UNL     1      36.093  -7.542  12.226  1.00  0.00    -0.507 OA
ATOM     23  H   UNL     1      36.760  -6.792  12.335  1.00  0.00     0.293 HD
ENDBRANCH   6  22
BRANCH   8  24
ATOM     24  O   UNL     1      32.555  -5.333   9.846  1.00  0.00    -0.508 OA
ATOM     25  H   UNL     1      32.764  -5.475   8.865  1.00  0.00     0.293 HD
ENDBRANCH   8  24
TORSDOF 5
ENDMDL
MODEL 7
REMARK VINA RESULT:    -6.705      2.003      6.769
REMARK INTER + INTRA:          -8.146
REMARK INTER:                  -7.883
REMARK INTRA:                  -0.263
REMARK UNBOUND:                -0.265
REMARK SMILES O=c1cc(-c2ccc(O)c(O)c2)oc2cc(O)cc(O)c12
REMARK SMILES IDX 4 1 3 2 2 3 1 4 21 5 19 6 18 7 16 8 15 9 14 10 13 11 5 12
REMARK SMILES IDX 6 13 7 14 8 15 12 16 10 17 9 18 11 20 20 22 17 24
REMARK H PARENT 9 19 11 21 20 23 17 25
REMARK Flexibility Score: inf
ROOT
ATOM      1  C   UNL     1      31.455  -9.029  12.248  1.00  0.00     0.138 A 
ATOM      2  C   UNL     1      32.428  -9.948  12.664  1.00  0.00     0.100 A 
ATOM      3  C   UNL     1      32.214 -10.710  13.812  1.00  0.00     0.197 A 
ATOM      4  O   UNL     1      33.077 -11.570  14.125  1.00  0.00    -0.289 OA
ATOM      5  C   UNL     1      31.031 -10.527  14.567  1.00  0.00     0.107 A 
ATOM      6  C   UNL     1      30.724 -11.218  15.777  1.00  0.00     0.134 A 
ATOM      7  C   UNL     1      29.469 -11.039  16.375  1.00  0.00     0.093 A 
ATOM      8  C   UNL     1      28.536 -10.150  15.837  1.00  0.00     0.123 A 
ATOM      9  C   UNL     1      28.847  -9.430  14.686  1.00  0.00     0.094 A 
ATOM     10  C   UNL     1      30.076  -9.612  14.048  1.00  0.00     0.146 A 
ATOM     11  O   UNL     1      30.328  -8.916  12.944  1.00  0.00    -0.456 OA
ENDROOT
BRANCH   1  12
ATOM     12  C   UNL     1      31.632  -8.193  11.034  1.00  0.00     0.021 A 
ATOM     13  C   UNL     1      32.050  -6.858  11.168  1.00  0.00     0.016 A 
ATOM     14  C   UNL     1      32.232  -6.054  10.041  1.00  0.00     0.051 A 
ATOM     15  C   UNL     1      32.011  -6.568   8.761  1.00  0.00     0.157 A 
ATOM     16  C   UNL     1      31.422  -8.712   9.741  1.00  0.00     0.062 A 
ATOM     17  C   UNL     1      31.607  -7.905   8.609  1.00  0.00     0.158 A 
BRANCH  15  18
ATOM     18  O   UNL     1      32.198  -5.740   7.656  1.00  0.00    -0.504 OA
ATOM     19  H   UNL     1      31.928  -6.022   6.721  1.00  0.00     0.293 HD
ENDBRANCH  15  18
BRANCH  17  20
ATOM     20  O   UNL     1      31.394  -8.428   7.335  1.00  0.00    -0.504 OA
ATOM     21  H   UNL     1      31.677  -9.370   7.092  1.00  0.00     0.293 HD
ENDBRANCH  17  20
ENDBRANCH   1  12
BRANCH   6  22
ATOM     22  O   UNL     1      31.616 -12.064  16.441  1.00  0.00    -0.507 OA
ATOM     23  H   UNL     1      31.600 -13.072  16.393  1.00  0.00     0.293 HD
ENDBRANCH   6  22
BRANCH   8  24
ATOM     24  O   UNL     1      27.296  -9.967  16.448  1.00  0.00    -0.508 OA
ATOM     25  H   UNL     1      26.429 -10.126  15.947  1.00  0.00     0.293 HD
ENDBRANCH   8  24
TORSDOF 5
ENDMDL
MODEL 8
REMARK VINA RESULT:    -6.692     16.454     18.040
REMARK INTER + INTRA:          -8.131
REMARK INTER:                  -7.867
REMARK INTRA:                  -0.263
REMARK UNBOUND:                -0.265
REMARK SMILES O=c1cc(-c2ccc(O)c(O)c2)oc2cc(O)cc(O)c12
REMARK SMILES IDX 4 1 3 2 2 3 1 4 21 5 19 6 18 7 16 8 15 9 14 10 13 11 5 12
REMARK SMILES IDX 6 13 7 14 8 15 12 16 10 17 9 18 11 20 20 22 17 24
REMARK H PARENT 9 19 11 21 20 23 17 25
REMARK Flexibility Score: inf
ROOT
ATOM      1  C   UNL     1      41.040 -20.961  20.731  1.00  0.00     0.138 A 
ATOM      2  C   UNL     1      39.979 -21.310  19.884  1.00  0.00     0.100 A 
ATOM      3  C   UNL     1      39.230 -20.308  19.267  1.00  0.00     0.197 A 
ATOM      4  O   UNL     1      38.325 -20.652  18.463  1.00  0.00    -0.289 OA
ATOM      5  C   UNL     1      39.524 -18.949  19.526  1.00  0.00     0.107 A 
ATOM      6  C   UNL     1      38.803 -17.843  18.986  1.00  0.00     0.134 A 
ATOM      7  C   UNL     1      39.259 -16.539  19.220  1.00  0.00     0.093 A 
ATOM      8  C   UNL     1      40.376 -16.301  20.024  1.00  0.00     0.123 A 
ATOM      9  C   UNL     1      41.056 -17.372  20.600  1.00  0.00     0.094 A 
ATOM     10  C   UNL     1      40.646 -18.684  20.357  1.00  0.00     0.146 A 
ATOM     11  O   UNL     1      41.331 -19.677  20.914  1.00  0.00    -0.456 OA
ENDROOT
BRANCH   1  12
ATOM     12  C   UNL     1      41.869 -21.987  21.413  1.00  0.00     0.021 A 
ATOM     13  C   UNL     1      43.034 -22.463  20.786  1.00  0.00     0.016 A 
ATOM     14  C   UNL     1      43.835 -23.421  21.411  1.00  0.00     0.051 A 
ATOM     15  C   UNL     1      43.496 -23.914  22.673  1.00  0.00     0.157 A 
ATOM     16  C   UNL     1      41.538 -22.476  22.692  1.00  0.00     0.062 A 
ATOM     17  C   UNL     1      42.344 -23.438  23.320  1.00  0.00     0.158 A 
BRANCH  15  18
ATOM     18  O   UNL     1      44.314 -24.872  23.270  1.00  0.00    -0.504 OA
ATOM     19  H   UNL     1      44.596 -24.810  24.241  1.00  0.00     0.293 HD
ENDBRANCH  15  18
BRANCH  17  20
ATOM     20  O   UNL     1      42.005 -23.916  24.584  1.00  0.00    -0.504 OA
ATOM     21  H   UNL     1      41.283 -23.478  25.143  1.00  0.00     0.293 HD
ENDBRANCH  17  20
ENDBRANCH   1  12
BRANCH   6  22
ATOM     22  O   UNL     1      37.627 -17.968  18.240  1.00  0.00    -0.507 OA
ATOM     23  H   UNL     1      36.699 -18.037  18.632  1.00  0.00     0.293 HD
ENDBRANCH   6  22
BRANCH   8  24
ATOM     24  O   UNL     1      40.813 -15.000  20.264  1.00  0.00    -0.508 OA
ATOM     25  H   UNL     1      40.605 -14.522  21.134  1.00  0.00     0.293 HD
ENDBRANCH   8  24
TORSDOF 5
ENDMDL
MODEL 9
REMARK VINA RESULT:    -6.458      1.674      2.628
REMARK INTER + INTRA:          -7.855
REMARK INTER:                  -7.567
REMARK INTRA:                  -0.288
REMARK UNBOUND:                -0.265
REMARK SMILES O=c1cc(-c2ccc(O)c(O)c2)oc2cc(O)cc(O)c12
REMARK SMILES IDX 4 1 3 2 2 3 1 4 21 5 19 6 18 7 16 8 15 9 14 10 13 11 5 12
REMARK SMILES IDX 6 13 7 14 8 15 12 16 10 17 9 18 11 20 20 22 17 24
REMARK H PARENT 9 19 11 21 20 23 17 25
REMARK Flexibility Score: inf
ROOT
ATOM      1  C   UNL     1      31.091  -9.418  12.476  1.00  0.00     0.138 A 
ATOM      2  C   UNL     1      31.013 -10.017  11.212  1.00  0.00     0.100 A 
ATOM      3  C   UNL     1      31.980  -9.729  10.248  1.00  0.00     0.197 A 
ATOM      4  O   UNL     1      31.918 -10.330   9.145  1.00  0.00    -0.289 OA
ATOM      5  C   UNL     1      33.014  -8.809  10.544  1.00  0.00     0.107 A 
ATOM      6  C   UNL     1      34.031  -8.407   9.627  1.00  0.00     0.134 A 
ATOM      7  C   UNL     1      35.070  -7.578  10.069  1.00  0.00     0.093 A 
ATOM      8  C   UNL     1      35.096  -7.090  11.377  1.00  0.00     0.123 A 
ATOM      9  C   UNL     1      34.079  -7.434  12.264  1.00  0.00     0.094 A 
ATOM     10  C   UNL     1      33.047  -8.286  11.865  1.00  0.00     0.146 A 
ATOM     11  O   UNL     1      32.104  -8.600  12.746  1.00  0.00    -0.456 OA
ENDROOT
BRANCH   1  12
ATOM     12  C   UNL     1      30.089  -9.689  13.537  1.00  0.00     0.021 A 
ATOM     13  C   UNL     1      29.841  -8.715  14.520  1.00  0.00     0.016 A 
ATOM     14  C   UNL     1      28.897  -8.944  15.524  1.00  0.00     0.051 A 
ATOM     15  C   UNL     1      28.178 -10.141  15.560  1.00  0.00     0.157 A 
ATOM     16  C   UNL     1      29.352 -10.889  13.570  1.00  0.00     0.062 A 
ATOM     17  C   UNL     1      28.403 -11.118  14.577  1.00  0.00     0.158 A 
BRANCH  15  18
ATOM     18  O   UNL     1      27.244 -10.341  16.576  1.00  0.00    -0.504 OA
ATOM     19  H   UNL     1      27.194  -9.737  17.387  1.00  0.00     0.293 HD
ENDBRANCH  15  18
BRANCH  17  20
ATOM     20  O   UNL     1      27.681 -12.310  14.600  1.00  0.00    -0.504 OA
ATOM     21  H   UNL     1      26.668 -12.318  14.626  1.00  0.00     0.293 HD
ENDBRANCH  17  20
ENDBRANCH   1  12
BRANCH   6  22
ATOM     22  O   UNL     1      34.053  -8.770   8.277  1.00  0.00    -0.507 OA
ATOM     23  H   UNL     1      34.887  -8.858   7.717  1.00  0.00     0.293 HD
ENDBRANCH   6  22
BRANCH   8  24
ATOM     24  O   UNL     1      36.126  -6.254  11.803  1.00  0.00    -0.508 OA
ATOM     25  H   UNL     1      36.640  -6.436  12.657  1.00  0.00     0.293 HD
ENDBRANCH   8  24
TORSDOF 5
ENDMDL
