MODEL 1
REMARK VINA RESULT:    -4.594      0.000      0.000
REMARK INTER + INTRA:          -5.938
REMARK INTER:                  -5.668
REMARK INTRA:                  -0.270
REMARK UNBOUND:                -0.270
REMARK SMILES C=CC[C@@H](C)C(=O)CC
REMARK SMILES IDX 4 1 5 2 6 3 7 4 8 5 9 6 3 7 2 8 1 9
REMARK H PARENT
REMARK Flexibility Score: inf
ROOT
ATOM      1  C   UNL     1     -25.977  20.445 -33.466  1.00  0.00     0.057 C 
ATOM      2  C   UNL     1     -26.484  19.142 -32.841  1.00  0.00     0.016 C 
ENDROOT
BRANCH   1   3
ATOM      3  C   UNL     1     -24.695  20.188 -34.232  1.00  0.00     0.135 C 
ATOM      4  O   UNL     1     -24.747  19.738 -35.368  1.00  0.00    -0.299 OA
BRANCH   3   5
ATOM      5  C   UNL     1     -23.351  20.493 -33.624  1.00  0.00     0.072 C 
ATOM      6  C   UNL     1     -23.463  21.627 -32.610  1.00  0.00     0.012 C 
ENDBRANCH   3   5
ENDBRANCH   1   3
BRANCH   1   7
ATOM      7  C   UNL     1     -27.055  21.066 -34.378  1.00  0.00     0.038 C 
BRANCH   7   8
ATOM      8  C   UNL     1     -28.199  21.648 -33.589  1.00  0.00    -0.034 C 
ATOM      9  C   UNL     1     -28.091  22.817 -32.949  1.00  0.00     0.004 C 
ENDBRANCH   7   8
ENDBRANCH   1   7
TORSDOF 4
ENDMDL
MODEL 2
REMARK VINA RESULT:    -4.505      1.500      3.894
REMARK INTER + INTRA:          -5.828
REMARK INTER:                  -5.608
REMARK INTRA:                  -0.220
REMARK UNBOUND:                -0.270
REMARK SMILES C=CC[C@@H](C)C(=O)CC
REMARK SMILES IDX 4 1 5 2 6 3 7 4 8 5 9 6 3 7 2 8 1 9
REMARK H PARENT
REMARK Flexibility Score: inf
ROOT
ATOM      1  C   UNL     1     -25.766  20.372 -33.658  1.00  0.00     0.057 C 
ATOM      2  C   UNL     1     -25.285  20.276 -35.109  1.00  0.00     0.016 C 
ENDROOT
BRANCH   1   3
ATOM      3  C   UNL     1     -27.208  19.916 -33.559  1.00  0.00     0.135 C 
ATOM      4  O   UNL     1     -27.457  18.742 -33.323  1.00  0.00    -0.299 OA
BRANCH   3   5
ATOM      5  C   UNL     1     -28.345  20.889 -33.730  1.00  0.00     0.072 C 
ATOM      6  C   UNL     1     -27.963  22.265 -33.194  1.00  0.00     0.012 C 
ENDBRANCH   3   5
ENDBRANCH   1   3
BRANCH   1   7
ATOM      7  C   UNL     1     -24.855  19.544 -32.728  1.00  0.00     0.038 C 
BRANCH   7   8
ATOM      8  C   UNL     1     -23.435  20.047 -32.731  1.00  0.00    -0.034 C 
ATOM      9  C   UNL     1     -23.133  21.305 -32.399  1.00  0.00     0.004 C 
ENDBRANCH   7   8
ENDBRANCH   1   7
TORSDOF 4
ENDMDL
MODEL 3
REMARK VINA RESULT:    -4.393      1.520      2.220
REMARK INTER + INTRA:          -5.690
REMARK INTER:                  -5.504
REMARK INTRA:                  -0.186
REMARK UNBOUND:                -0.270
REMARK SMILES C=CC[C@@H](C)C(=O)CC
REMARK SMILES IDX 4 1 5 2 6 3 7 4 8 5 9 6 3 7 2 8 1 9
REMARK H PARENT
REMARK Flexibility Score: inf
ROOT
ATOM      1  C   UNL     1     -27.128  20.412 -34.132  1.00  0.00     0.057 C 
ATOM      2  C   UNL     1     -27.508  21.797 -33.598  1.00  0.00     0.016 C 
ENDROOT
BRANCH   1   3
ATOM      3  C   UNL     1     -25.624  20.312 -34.291  1.00  0.00     0.135 C 
ATOM      4  O   UNL     1     -25.151  19.916 -35.347  1.00  0.00    -0.299 OA
BRANCH   3   5
ATOM      5  C   UNL     1     -24.696  20.707 -33.173  1.00  0.00     0.072 C 
ATOM      6  C   UNL     1     -23.241  20.601 -33.615  1.00  0.00     0.012 C 
ENDBRANCH   3   5
ENDBRANCH   1   3
BRANCH   1   7
ATOM      7  C   UNL     1     -27.665  19.306 -33.202  1.00  0.00     0.038 C 
BRANCH   7   8
ATOM      8  C   UNL     1     -29.090  19.558 -32.783  1.00  0.00    -0.034 C 
ATOM      9  C   UNL     1     -30.124  19.139 -33.517  1.00  0.00     0.004 C 
ENDBRANCH   7   8
ENDBRANCH   1   7
TORSDOF 4
ENDMDL
MODEL 4
REMARK VINA RESULT:    -4.071      7.212      8.818
REMARK INTER + INTRA:          -5.293
REMARK INTER:                  -4.991
REMARK INTRA:                  -0.302
REMARK UNBOUND:                -0.270
REMARK SMILES C=CC[C@@H](C)C(=O)CC
REMARK SMILES IDX 4 1 5 2 6 3 7 4 8 5 9 6 3 7 2 8 1 9
REMARK H PARENT
REMARK Flexibility Score: inf
ROOT
ATOM      1  C   UNL     1     -26.792  12.142 -30.289  1.00  0.00     0.057 C 
ATOM      2  C   UNL     1     -25.796  11.003 -30.529  1.00  0.00     0.016 C 
ENDROOT
BRANCH   1   3
ATOM      3  C   UNL     1     -26.332  13.394 -31.009  1.00  0.00     0.135 C 
ATOM      4  O   UNL     1     -26.362  13.436 -32.230  1.00  0.00    -0.299 OA
BRANCH   3   5
ATOM      5  C   UNL     1     -25.852  14.598 -30.243  1.00  0.00     0.072 C 
ATOM      6  C   UNL     1     -24.470  15.029 -30.724  1.00  0.00     0.012 C 
ENDBRANCH   3   5
ENDBRANCH   1   3
BRANCH   1   7
ATOM      7  C   UNL     1     -28.208  11.728 -30.741  1.00  0.00     0.038 C 
BRANCH   7   8
ATOM      8  C   UNL     1     -29.269  12.190 -29.777  1.00  0.00    -0.034 C 
ATOM      9  C   UNL     1     -29.003  12.400 -28.485  1.00  0.00     0.004 C 
ENDBRANCH   7   8
ENDBRANCH   1   7
TORSDOF 4
ENDMDL
MODEL 5
REMARK VINA RESULT:    -3.951      7.858      9.562
REMARK INTER + INTRA:          -5.145
REMARK INTER:                  -4.715
REMARK INTRA:                  -0.430
REMARK UNBOUND:                -0.270
REMARK SMILES C=CC[C@@H](C)C(=O)CC
REMARK SMILES IDX 4 1 5 2 6 3 7 4 8 5 9 6 3 7 2 8 1 9
REMARK H PARENT
REMARK Flexibility Score: inf
ROOT
ATOM      1  C   UNL     1     -26.813  13.080 -30.103  1.00  0.00     0.057 C 
ATOM      2  C   UNL     1     -26.096  14.434 -30.094  1.00  0.00     0.016 C 
ENDROOT
BRANCH   1   3
ATOM      3  C   UNL     1     -25.831  11.975 -30.439  1.00  0.00     0.135 C 
ATOM      4  O   UNL     1     -24.727  11.966 -29.914  1.00  0.00    -0.299 OA
BRANCH   3   5
ATOM      5  C   UNL     1     -26.198  10.875 -31.399  1.00  0.00     0.072 C 
ATOM      6  C   UNL     1     -26.761  11.453 -32.693  1.00  0.00     0.012 C 
ENDBRANCH   3   5
ENDBRANCH   1   3
BRANCH   1   7
ATOM      7  C   UNL     1     -27.500  12.821 -28.746  1.00  0.00     0.038 C 
BRANCH   7   8
ATOM      8  C   UNL     1     -28.995  12.700 -28.881  1.00  0.00    -0.034 C 
ATOM      9  C   UNL     1     -29.558  11.922 -29.810  1.00  0.00     0.004 C 
ENDBRANCH   7   8
ENDBRANCH   1   7
TORSDOF 4
ENDMDL
MODEL 6
REMARK VINA RESULT:    -3.912      1.742      2.198
REMARK INTER + INTRA:          -5.097
REMARK INTER:                  -4.859
REMARK INTRA:                  -0.238
REMARK UNBOUND:                -0.270
REMARK SMILES C=CC[C@@H](C)C(=O)CC
REMARK SMILES IDX 4 1 5 2 6 3 7 4 8 5 9 6 3 7 2 8 1 9
REMARK H PARENT
REMARK Flexibility Score: inf
ROOT
ATOM      1  C   UNL     1     -25.522  19.732 -33.897  1.00  0.00     0.057 C 
ATOM      2  C   UNL     1     -24.991  20.143 -35.274  1.00  0.00     0.016 C 
ENDROOT
BRANCH   1   3
ATOM      3  C   UNL     1     -24.384  19.683 -32.897  1.00  0.00     0.135 C 
ATOM      4  O   UNL     1     -24.455  18.930 -31.936  1.00  0.00    -0.299 OA
BRANCH   3   5
ATOM      5  C   UNL     1     -23.155  20.535 -33.074  1.00  0.00     0.072 C 
ATOM      6  C   UNL     1     -23.369  21.922 -32.479  1.00  0.00     0.012 C 
ENDBRANCH   3   5
ENDBRANCH   1   3
BRANCH   1   7
ATOM      7  C   UNL     1     -26.631  20.699 -33.432  1.00  0.00     0.038 C 
BRANCH   7   8
ATOM      8  C   UNL     1     -28.007  20.120 -33.630  1.00  0.00    -0.034 C 
ATOM      9  C   UNL     1     -28.390  18.991 -33.028  1.00  0.00     0.004 C 
ENDBRANCH   7   8
ENDBRANCH   1   7
TORSDOF 4
ENDMDL
MODEL 7
REMARK VINA RESULT:    -3.825      8.528     10.165
REMARK INTER + INTRA:          -4.989
REMARK INTER:                  -4.656
REMARK INTRA:                  -0.333
REMARK UNBOUND:                -0.270
REMARK SMILES C=CC[C@@H](C)C(=O)CC
REMARK SMILES IDX 4 1 5 2 6 3 7 4 8 5 9 6 3 7 2 8 1 9
REMARK H PARENT
REMARK Flexibility Score: inf
ROOT
ATOM      1  C   UNL     1     -26.971  12.615 -29.708  1.00  0.00     0.057 C 
ATOM      2  C   UNL     1     -26.195  13.922 -29.895  1.00  0.00     0.016 C 
ENDROOT
BRANCH   1   3
ATOM      3  C   UNL     1     -26.010  11.475 -29.438  1.00  0.00     0.135 C 
ATOM      4  O   UNL     1     -25.352  11.007 -30.356  1.00  0.00    -0.299 OA
BRANCH   3   5
ATOM      5  C   UNL     1     -25.837  10.915 -28.050  1.00  0.00     0.072 C 
ATOM      6  C   UNL     1     -24.370  10.941 -27.636  1.00  0.00     0.012 C 
ENDBRANCH   3   5
ENDBRANCH   1   3
BRANCH   1   7
ATOM      7  C   UNL     1     -28.003  12.755 -28.570  1.00  0.00     0.038 C 
BRANCH   7   8
ATOM      8  C   UNL     1     -29.316  12.101 -28.911  1.00  0.00    -0.034 C 
ATOM      9  C   UNL     1     -29.721  11.949 -30.176  1.00  0.00     0.004 C 
ENDBRANCH   7   8
ENDBRANCH   1   7
TORSDOF 4
ENDMDL
MODEL 8
REMARK VINA RESULT:    -3.806      8.091     10.012
REMARK INTER + INTRA:          -4.966
REMARK INTER:                  -4.632
REMARK INTRA:                  -0.333
REMARK UNBOUND:                -0.270
REMARK SMILES C=CC[C@@H](C)C(=O)CC
REMARK SMILES IDX 4 1 5 2 6 3 7 4 8 5 9 6 3 7 2 8 1 9
REMARK H PARENT
REMARK Flexibility Score: inf
ROOT
ATOM      1  C   UNL     1     -26.486  12.188 -29.694  1.00  0.00     0.057 C 
ATOM      2  C   UNL     1     -26.296  10.875 -30.462  1.00  0.00     0.016 C 
ENDROOT
BRANCH   1   3
ATOM      3  C   UNL     1     -27.264  11.934 -28.419  1.00  0.00     0.135 C 
ATOM      4  O   UNL     1     -26.747  11.302 -27.509  1.00  0.00    -0.299 OA
BRANCH   3   5
ATOM      5  C   UNL     1     -28.663  12.464 -28.244  1.00  0.00     0.072 C 
ATOM      6  C   UNL     1     -29.442  12.375 -29.552  1.00  0.00     0.012 C 
ENDBRANCH   3   5
ENDBRANCH   1   3
BRANCH   1   7
ATOM      7  C   UNL     1     -25.122  12.843 -29.394  1.00  0.00     0.038 C 
BRANCH   7   8
ATOM      8  C   UNL     1     -24.956  14.159 -30.108  1.00  0.00    -0.034 C 
ATOM      9  C   UNL     1     -25.987  14.981 -30.319  1.00  0.00     0.004 C 
ENDBRANCH   7   8
ENDBRANCH   1   7
TORSDOF 4
ENDMDL
MODEL 9
REMARK VINA RESULT:    -3.673     12.329     13.896
REMARK INTER + INTRA:          -4.801
REMARK INTER:                  -4.370
REMARK INTRA:                  -0.432
REMARK UNBOUND:                -0.270
REMARK SMILES C=CC[C@@H](C)C(=O)CC
REMARK SMILES IDX 4 1 5 2 6 3 7 4 8 5 9 6 3 7 2 8 1 9
REMARK H PARENT
REMARK Flexibility Score: inf
ROOT
ATOM      1  C   UNL     1     -13.864  15.814 -32.079  1.00  0.00     0.057 C 
ATOM      2  C   UNL     1     -12.750  15.093 -32.844  1.00  0.00     0.016 C 
ENDROOT
BRANCH   1   3
ATOM      3  C   UNL     1     -15.141  14.999 -32.132  1.00  0.00     0.135 C 
ATOM      4  O   UNL     1     -15.829  15.017 -33.142  1.00  0.00    -0.299 OA
BRANCH   3   5
ATOM      5  C   UNL     1     -15.571  14.151 -30.964  1.00  0.00     0.072 C 
ATOM      6  C   UNL     1     -15.025  12.733 -31.096  1.00  0.00     0.012 C 
ENDBRANCH   3   5
ENDBRANCH   1   3
BRANCH   1   7
ATOM      7  C   UNL     1     -13.435  16.083 -30.622  1.00  0.00     0.038 C 
BRANCH   7   8
ATOM      8  C   UNL     1     -12.123  15.425 -30.285  1.00  0.00    -0.034 C 
ATOM      9  C   UNL     1     -11.826  15.039 -29.041  1.00  0.00     0.004 C 
ENDBRANCH   7   8
ENDBRANCH   1   7
TORSDOF 4
ENDMDL
