MODEL 1
REMARK VINA RESULT:    -3.941      0.000      0.000
REMARK INTER + INTRA:          -5.610
REMARK INTER:                  -5.323
REMARK INTRA:                  -0.287
REMARK UNBOUND:                -0.287
REMARK SMILES CCCCCCCC(=O)[O-]
REMARK SMILES IDX 5 1 6 2 7 3 8 4 9 5 10 6 4 7 3 8 2 9 1 10
REMARK H PARENT
REMARK Flexibility Score: inf
ROOT
ATOM      1  C   UNL     1     -12.434 -10.762   7.003  1.00  0.00     0.000 C 
ENDROOT
BRANCH   1   2
ATOM      2  C   UNL     1     -13.079  -9.539   7.668  1.00  0.00     0.006 C 
BRANCH   2   3
ATOM      3  C   UNL     1     -13.994  -9.961   8.822  1.00  0.00     0.053 C 
BRANCH   3   4
ATOM      4  C   UNL     1     -15.427  -9.715   8.469  1.00  0.00     0.041 C 
ATOM      5  O   UNL     1     -16.208  -9.201   9.312  1.00  0.00    -0.550 OA
ATOM      6  O   UNL     1     -15.888 -10.009   7.193  1.00  0.00    -0.550 OA
ENDBRANCH   3   4
ENDBRANCH   2   3
ENDBRANCH   1   2
BRANCH   1   7
ATOM      7  C   UNL     1     -11.484 -10.339   5.876  1.00  0.00     0.000 C 
BRANCH   7   8
ATOM      8  C   UNL     1     -10.959  -8.914   6.107  1.00  0.00    -0.000 C 
BRANCH   8   9
ATOM      9  C   UNL     1      -9.440  -8.875   6.337  1.00  0.00    -0.003 C 
ATOM     10  C   UNL     1      -8.923 -10.106   7.081  1.00  0.00     0.004 C 
ENDBRANCH   8   9
ENDBRANCH   7   8
ENDBRANCH   1   7
TORSDOF 6
ENDMDL
MODEL 2
REMARK VINA RESULT:    -3.939      1.659      2.134
REMARK INTER + INTRA:          -5.609
REMARK INTER:                  -5.403
REMARK INTRA:                  -0.205
REMARK UNBOUND:                -0.287
REMARK SMILES CCCCCCCC(=O)[O-]
REMARK SMILES IDX 5 1 6 2 7 3 8 4 9 5 10 6 4 7 3 8 2 9 1 10
REMARK H PARENT
REMARK Flexibility Score: inf
ROOT
ATOM      1  C   UNL     1     -12.554  -9.641   6.641  1.00  0.00     0.000 C 
ENDROOT
BRANCH   1   2
ATOM      2  C   UNL     1     -13.548 -10.743   7.031  1.00  0.00     0.006 C 
BRANCH   2   3
ATOM      3  C   UNL     1     -14.957 -10.170   7.215  1.00  0.00     0.053 C 
BRANCH   3   4
ATOM      4  C   UNL     1     -15.205  -9.843   8.654  1.00  0.00     0.041 C 
ATOM      5  O   UNL     1     -16.248  -9.226   8.993  1.00  0.00    -0.550 OA
ATOM      6  O   UNL     1     -14.307 -10.264   9.626  1.00  0.00    -0.550 OA
ENDBRANCH   3   4
ENDBRANCH   2   3
ENDBRANCH   1   2
BRANCH   1   7
ATOM      7  C   UNL     1     -11.352 -10.225   5.889  1.00  0.00     0.000 C 
BRANCH   7   8
ATOM      8  C   UNL     1     -10.638 -11.288   6.736  1.00  0.00    -0.000 C 
BRANCH   8   9
ATOM      9  C   UNL     1     -10.303 -12.555   5.934  1.00  0.00    -0.003 C 
ATOM     10  C   UNL     1      -8.834 -12.961   6.055  1.00  0.00     0.004 C 
ENDBRANCH   8   9
ENDBRANCH   7   8
ENDBRANCH   1   7
TORSDOF 6
ENDMDL
MODEL 3
REMARK VINA RESULT:    -3.900      3.275      5.304
REMARK INTER + INTRA:          -5.555
REMARK INTER:                  -5.277
REMARK INTRA:                  -0.278
REMARK UNBOUND:                -0.287
REMARK SMILES CCCCCCCC(=O)[O-]
REMARK SMILES IDX 5 1 6 2 7 3 8 4 9 5 10 6 4 7 3 8 2 9 1 10
REMARK H PARENT
REMARK Flexibility Score: inf
ROOT
ATOM      1  C   UNL     1     -12.850 -10.027   6.253  1.00  0.00     0.000 C 
ENDROOT
BRANCH   1   2
ATOM      2  C   UNL     1     -11.901  -8.933   6.758  1.00  0.00     0.006 C 
BRANCH   2   3
ATOM      3  C   UNL     1     -10.597  -8.923   5.955  1.00  0.00     0.053 C 
BRANCH   3   4
ATOM      4  C   UNL     1      -9.557  -9.755   6.636  1.00  0.00     0.041 C 
ATOM      5  O   UNL     1      -8.730  -9.219   7.420  1.00  0.00    -0.550 OA
ATOM      6  O   UNL     1      -9.531 -11.130   6.443  1.00  0.00    -0.550 OA
ENDBRANCH   3   4
ENDBRANCH   2   3
ENDBRANCH   1   2
BRANCH   1   7
ATOM      7  C   UNL     1     -13.750 -10.540   7.384  1.00  0.00     0.000 C 
BRANCH   7   8
ATOM      8  C   UNL     1     -15.195 -10.056   7.198  1.00  0.00    -0.000 C 
BRANCH   8   9
ATOM      9  C   UNL     1     -15.858  -9.654   8.525  1.00  0.00    -0.003 C 
ATOM     10  C   UNL     1     -14.888  -9.692   9.706  1.00  0.00     0.004 C 
ENDBRANCH   8   9
ENDBRANCH   7   8
ENDBRANCH   1   7
TORSDOF 6
ENDMDL
MODEL 4
REMARK VINA RESULT:    -3.865      3.573      5.403
REMARK INTER + INTRA:          -5.508
REMARK INTER:                  -5.237
REMARK INTRA:                  -0.271
REMARK UNBOUND:                -0.287
REMARK SMILES CCCCCCCC(=O)[O-]
REMARK SMILES IDX 5 1 6 2 7 3 8 4 9 5 10 6 4 7 3 8 2 9 1 10
REMARK H PARENT
REMARK Flexibility Score: inf
ROOT
ATOM      1  C   UNL     1     -12.563  -9.402   6.891  1.00  0.00     0.000 C 
ENDROOT
BRANCH   1   2
ATOM      2  C   UNL     1     -11.381  -9.861   6.028  1.00  0.00     0.006 C 
BRANCH   2   3
ATOM      3  C   UNL     1     -11.085 -11.349   6.248  1.00  0.00     0.053 C 
BRANCH   3   4
ATOM      4  C   UNL     1      -9.662 -11.543   6.664  1.00  0.00     0.041 C 
ATOM      5  O   UNL     1      -9.246 -12.688   6.982  1.00  0.00    -0.550 OA
ATOM      6  O   UNL     1      -8.782 -10.469   6.655  1.00  0.00    -0.550 OA
ENDBRANCH   3   4
ENDBRANCH   2   3
ENDBRANCH   1   2
BRANCH   1   7
ATOM      7  C   UNL     1     -13.438 -10.592   7.304  1.00  0.00     0.000 C 
BRANCH   7   8
ATOM      8  C   UNL     1     -14.918 -10.315   7.000  1.00  0.00    -0.000 C 
BRANCH   8   9
ATOM      9  C   UNL     1     -15.628  -9.580   8.147  1.00  0.00    -0.003 C 
ATOM     10  C   UNL     1     -15.096  -9.977   9.524  1.00  0.00     0.004 C 
ENDBRANCH   8   9
ENDBRANCH   7   8
ENDBRANCH   1   7
TORSDOF 6
ENDMDL
MODEL 5
REMARK VINA RESULT:    -3.763      3.343      5.333
REMARK INTER + INTRA:          -5.371
REMARK INTER:                  -4.935
REMARK INTRA:                  -0.436
REMARK UNBOUND:                -0.287
REMARK SMILES CCCCCCCC(=O)[O-]
REMARK SMILES IDX 5 1 6 2 7 3 8 4 9 5 10 6 4 7 3 8 2 9 1 10
REMARK H PARENT
REMARK Flexibility Score: inf
ROOT
ATOM      1  C   UNL     1     -12.360 -10.032   9.187  1.00  0.00     0.000 C 
ENDROOT
BRANCH   1   2
ATOM      2  C   UNL     1     -11.939  -9.704   7.749  1.00  0.00     0.006 C 
BRANCH   2   3
ATOM      3  C   UNL     1     -11.965 -10.959   6.870  1.00  0.00     0.053 C 
BRANCH   3   4
ATOM      4  C   UNL     1     -10.602 -11.241   6.321  1.00  0.00     0.041 C 
ATOM      5  O   UNL     1     -10.386 -12.301   5.678  1.00  0.00    -0.550 OA
ATOM      6  O   UNL     1      -9.584 -10.310   6.478  1.00  0.00    -0.550 OA
ENDBRANCH   3   4
ENDBRANCH   2   3
ENDBRANCH   1   2
BRANCH   1   7
ATOM      7  C   UNL     1     -13.578  -9.200   9.608  1.00  0.00     0.000 C 
BRANCH   7   8
ATOM      8  C   UNL     1     -14.839 -10.074   9.681  1.00  0.00    -0.000 C 
BRANCH   8   9
ATOM      9  C   UNL     1     -15.923  -9.630   8.687  1.00  0.00    -0.003 C 
ATOM     10  C   UNL     1     -15.601 -10.024   7.245  1.00  0.00     0.004 C 
ENDBRANCH   8   9
ENDBRANCH   7   8
ENDBRANCH   1   7
TORSDOF 6
ENDMDL
MODEL 6
REMARK VINA RESULT:    -3.742     13.782     15.025
REMARK INTER + INTRA:          -5.342
REMARK INTER:                  -5.074
REMARK INTRA:                  -0.268
REMARK UNBOUND:                -0.287
REMARK SMILES CCCCCCCC(=O)[O-]
REMARK SMILES IDX 5 1 6 2 7 3 8 4 9 5 10 6 4 7 3 8 2 9 1 10
REMARK H PARENT
REMARK Flexibility Score: inf
ROOT
ATOM      1  C   UNL     1     -11.163 -20.011  17.389  1.00  0.00     0.000 C 
ENDROOT
BRANCH   1   2
ATOM      2  C   UNL     1     -10.961 -21.213  16.458  1.00  0.00     0.006 C 
BRANCH   2   3
ATOM      3  C   UNL     1     -11.014 -20.783  14.988  1.00  0.00     0.053 C 
BRANCH   3   4
ATOM      4  C   UNL     1      -9.669 -20.317  14.531  1.00  0.00     0.041 C 
ATOM      5  O   UNL     1      -9.512 -19.134  14.128  1.00  0.00    -0.550 OA
ATOM      6  O   UNL     1      -8.578 -21.173  14.595  1.00  0.00    -0.550 OA
ENDBRANCH   3   4
ENDBRANCH   2   3
ENDBRANCH   1   2
BRANCH   1   7
ATOM      7  C   UNL     1     -11.013 -20.422  18.859  1.00  0.00     0.000 C 
BRANCH   7   8
ATOM      8  C   UNL     1     -12.145 -19.830  19.712  1.00  0.00    -0.000 C 
BRANCH   8   9
ATOM      9  C   UNL     1     -13.080 -18.919  18.902  1.00  0.00    -0.003 C 
ATOM     10  C   UNL     1     -13.994 -18.071  19.786  1.00  0.00     0.004 C 
ENDBRANCH   8   9
ENDBRANCH   7   8
ENDBRANCH   1   7
TORSDOF 6
ENDMDL
MODEL 7
REMARK VINA RESULT:    -3.715      3.989      5.825
REMARK INTER + INTRA:          -5.305
REMARK INTER:                  -5.058
REMARK INTRA:                  -0.246
REMARK UNBOUND:                -0.287
REMARK SMILES CCCCCCCC(=O)[O-]
REMARK SMILES IDX 5 1 6 2 7 3 8 4 9 5 10 6 4 7 3 8 2 9 1 10
REMARK H PARENT
REMARK Flexibility Score: inf
ROOT
ATOM      1  C   UNL     1     -11.604 -10.217   5.994  1.00  0.00     0.000 C 
ENDROOT
BRANCH   1   2
ATOM      2  C   UNL     1     -10.583 -11.151   6.655  1.00  0.00     0.006 C 
BRANCH   2   3
ATOM      3  C   UNL     1     -10.382 -12.422   5.824  1.00  0.00     0.053 C 
BRANCH   3   4
ATOM      4  C   UNL     1      -9.063 -13.052   6.142  1.00  0.00     0.041 C 
ATOM      5  O   UNL     1      -8.362 -13.554   5.224  1.00  0.00    -0.550 OA
ATOM      6  O   UNL     1      -8.585 -13.042   7.445  1.00  0.00    -0.550 OA
ENDBRANCH   3   4
ENDBRANCH   2   3
ENDBRANCH   1   2
BRANCH   1   7
ATOM      7  C   UNL     1     -12.017  -9.089   6.947  1.00  0.00     0.000 C 
BRANCH   7   8
ATOM      8  C   UNL     1     -13.247  -9.493   7.774  1.00  0.00    -0.000 C 
BRANCH   8   9
ATOM      9  C   UNL     1     -14.207 -10.406   6.996  1.00  0.00    -0.003 C 
ATOM     10  C   UNL     1     -15.675 -10.029   7.197  1.00  0.00     0.004 C 
ENDBRANCH   8   9
ENDBRANCH   7   8
ENDBRANCH   1   7
TORSDOF 6
ENDMDL
MODEL 8
REMARK VINA RESULT:    -3.690     15.317     16.402
REMARK INTER + INTRA:          -5.272
REMARK INTER:                  -5.104
REMARK INTRA:                  -0.168
REMARK UNBOUND:                -0.287
REMARK SMILES CCCCCCCC(=O)[O-]
REMARK SMILES IDX 5 1 6 2 7 3 8 4 9 5 10 6 4 7 3 8 2 9 1 10
REMARK H PARENT
REMARK Flexibility Score: inf
ROOT
ATOM      1  C   UNL     1      -9.393 -21.115  16.924  1.00  0.00     0.000 C 
ENDROOT
BRANCH   1   2
ATOM      2  C   UNL     1      -8.523 -21.200  15.663  1.00  0.00     0.006 C 
BRANCH   2   3
ATOM      3  C   UNL     1      -7.050 -21.416  16.025  1.00  0.00     0.053 C 
BRANCH   3   4
ATOM      4  C   UNL     1      -6.658 -22.840  15.787  1.00  0.00     0.041 C 
ATOM      5  O   UNL     1      -6.091 -23.501  16.697  1.00  0.00    -0.550 OA
ATOM      6  O   UNL     1      -6.960 -23.451  14.578  1.00  0.00    -0.550 OA
ENDBRANCH   3   4
ENDBRANCH   2   3
ENDBRANCH   1   2
BRANCH   1   7
ATOM      7  C   UNL     1     -10.884 -21.183  16.570  1.00  0.00     0.000 C 
BRANCH   7   8
ATOM      8  C   UNL     1     -11.679 -20.118  17.339  1.00  0.00    -0.000 C 
BRANCH   8   9
ATOM      9  C   UNL     1     -11.524 -20.250  18.862  1.00  0.00    -0.003 C 
ATOM     10  C   UNL     1     -12.820 -19.956  19.617  1.00  0.00     0.004 C 
ENDBRANCH   8   9
ENDBRANCH   7   8
ENDBRANCH   1   7
TORSDOF 6
ENDMDL
MODEL 9
REMARK VINA RESULT:    -3.671     12.695     13.808
REMARK INTER + INTRA:          -5.247
REMARK INTER:                  -4.960
REMARK INTRA:                  -0.287
REMARK UNBOUND:                -0.287
REMARK SMILES CCCCCCCC(=O)[O-]
REMARK SMILES IDX 5 1 6 2 7 3 8 4 9 5 10 6 4 7 3 8 2 9 1 10
REMARK H PARENT
REMARK Flexibility Score: inf
ROOT
ATOM      1  C   UNL     1     -11.681 -20.180  15.814  1.00  0.00     0.000 C 
ENDROOT
BRANCH   1   2
ATOM      2  C   UNL     1     -11.105 -20.244  14.393  1.00  0.00     0.006 C 
BRANCH   2   3
ATOM      3  C   UNL     1      -9.767 -19.502  14.309  1.00  0.00     0.053 C 
BRANCH   3   4
ATOM      4  C   UNL     1      -9.872 -18.340  13.374  1.00  0.00     0.041 C 
ATOM      5  O   UNL     1      -9.001 -17.431  13.392  1.00  0.00    -0.550 OA
ATOM      6  O   UNL     1     -10.906 -18.284  12.448  1.00  0.00    -0.550 OA
ENDBRANCH   3   4
ENDBRANCH   2   3
ENDBRANCH   1   2
BRANCH   1   7
ATOM      7  C   UNL     1     -10.817 -20.982  16.795  1.00  0.00     0.000 C 
BRANCH   7   8
ATOM      8  C   UNL     1     -10.814 -20.327  18.185  1.00  0.00    -0.000 C 
BRANCH   8   9
ATOM      9  C   UNL     1     -12.100 -19.535  18.466  1.00  0.00    -0.003 C 
ATOM     10  C   UNL     1     -12.889 -20.090  19.652  1.00  0.00     0.004 C 
ENDBRANCH   8   9
ENDBRANCH   7   8
ENDBRANCH   1   7
TORSDOF 6
ENDMDL
