MODEL 1
REMARK VINA RESULT:    -3.999      0.000      0.000
REMARK INTER + INTRA:         -11.047
REMARK INTER:                  -8.674
REMARK INTRA:                  -2.372
REMARK UNBOUND:                -2.372
REMARK SMILES CCCCCCCCCCCCCCCCCCCCCC(=O)[O-]
REMARK SMILES IDX 12 1 11 2 10 3 9 4 8 5 7 6 6 7 5 8 4 9 3 10 2 11 1 12 13 13
REMARK SMILES IDX 14 14 15 15 16 16 17 17 18 18 19 19 20 20 21 21 22 22 23 23
REMARK SMILES IDX 24 24
REMARK H PARENT
REMARK Flexibility Score: inf
ROOT
ATOM      1  C   UNL     1      34.627  15.734 -17.826  1.00  0.00     0.000 C 
ENDROOT
BRANCH   1   2
ATOM      2  C   UNL     1      34.782  17.266 -17.818  1.00  0.00     0.000 C 
BRANCH   2   3
ATOM      3  C   UNL     1      33.854  18.021 -18.787  1.00  0.00     0.000 C 
BRANCH   3   4
ATOM      4  C   UNL     1      33.352  17.199 -19.990  1.00  0.00    -0.000 C 
BRANCH   4   5
ATOM      5  C   UNL     1      31.875  16.761 -19.876  1.00  0.00    -0.000 C 
BRANCH   5   6
ATOM      6  C   UNL     1      31.095  17.585 -18.838  1.00  0.00    -0.000 C 
BRANCH   6   7
ATOM      7  C   UNL     1      29.601  17.706 -19.178  1.00  0.00    -0.000 C 
BRANCH   7   8
ATOM      8  C   UNL     1      28.740  16.647 -18.465  1.00  0.00    -0.000 C 
BRANCH   8   9
ATOM      9  C   UNL     1      27.747  17.280 -17.468  1.00  0.00    -0.000 C 
BRANCH   9  10
ATOM     10  C   UNL     1      27.905  18.804 -17.328  1.00  0.00    -0.000 C 
BRANCH  10  11
ATOM     11  C   UNL     1      26.706  19.582 -17.888  1.00  0.00    -0.003 C 
ATOM     12  C   UNL     1      27.073  20.302 -19.182  1.00  0.00     0.004 C 
ENDBRANCH  10  11
ENDBRANCH   9  10
ENDBRANCH   8   9
ENDBRANCH   7   8
ENDBRANCH   6   7
ENDBRANCH   5   6
ENDBRANCH   4   5
ENDBRANCH   3   4
ENDBRANCH   2   3
ENDBRANCH   1   2
BRANCH   1  13
ATOM     13  C   UNL     1      34.629  15.121 -16.418  1.00  0.00     0.000 C 
BRANCH  13  14
ATOM     14  C   UNL     1      34.497  13.592 -16.489  1.00  0.00     0.000 C 
BRANCH  14  15
ATOM     15  C   UNL     1      33.108  13.097 -16.056  1.00  0.00     0.000 C 
BRANCH  15  16
ATOM     16  C   UNL     1      32.092  13.107 -17.212  1.00  0.00     0.000 C 
BRANCH  16  17
ATOM     17  C   UNL     1      30.961  14.124 -16.994  1.00  0.00     0.000 C 
BRANCH  17  18
ATOM     18  C   UNL     1      30.658  14.361 -15.504  1.00  0.00     0.000 C 
BRANCH  18  19
ATOM     19  C   UNL     1      29.761  13.253 -14.908  1.00  0.00     0.000 C 
BRANCH  19  20
ATOM     20  C   UNL     1      28.463  13.016 -15.705  1.00  0.00     0.006 C 
BRANCH  20  21
ATOM     21  C   UNL     1      27.506  14.218 -15.716  1.00  0.00     0.053 C 
BRANCH  21  22
ATOM     22  C   UNL     1      26.071  13.787 -15.731  1.00  0.00     0.041 C 
ATOM     23  O   UNL     1      25.665  12.912 -14.923  1.00  0.00    -0.550 OA
ATOM     24  O   UNL     1      25.192  14.318 -16.666  1.00  0.00    -0.550 OA
ENDBRANCH  21  22
ENDBRANCH  20  21
ENDBRANCH  19  20
ENDBRANCH  18  19
ENDBRANCH  17  18
ENDBRANCH  16  17
ENDBRANCH  15  16
ENDBRANCH  14  15
ENDBRANCH  13  14
ENDBRANCH   1  13
TORSDOF 20
ENDMDL
MODEL 2
REMARK VINA RESULT:    -3.909      1.537      5.484
REMARK INTER + INTRA:         -10.851
REMARK INTER:                  -7.469
REMARK INTRA:                  -3.382
REMARK UNBOUND:                -2.372
REMARK SMILES CCCCCCCCCCCCCCCCCCCCCC(=O)[O-]
REMARK SMILES IDX 12 1 11 2 10 3 9 4 8 5 7 6 6 7 5 8 4 9 3 10 2 11 1 12 13 13
REMARK SMILES IDX 14 14 15 15 16 16 17 17 18 18 19 19 20 20 21 21 22 22 23 23
REMARK SMILES IDX 24 24
REMARK H PARENT
REMARK Flexibility Score: inf
ROOT
ATOM      1  C   UNL     1      30.819  17.394 -19.874  1.00  0.00     0.000 C 
ENDROOT
BRANCH   1   2
ATOM      2  C   UNL     1      31.744  17.240 -18.652  1.00  0.00     0.000 C 
BRANCH   2   3
ATOM      3  C   UNL     1      33.021  18.100 -18.688  1.00  0.00     0.000 C 
BRANCH   3   4
ATOM      4  C   UNL     1      34.326  17.351 -18.356  1.00  0.00    -0.000 C 
BRANCH   4   5
ATOM      5  C   UNL     1      34.558  16.087 -19.213  1.00  0.00    -0.000 C 
BRANCH   5   6
ATOM      6  C   UNL     1      34.561  14.799 -18.373  1.00  0.00    -0.000 C 
BRANCH   6   7
ATOM      7  C   UNL     1      34.436  15.073 -16.866  1.00  0.00    -0.000 C 
BRANCH   7   8
ATOM      8  C   UNL     1      34.011  13.827 -16.067  1.00  0.00    -0.000 C 
BRANCH   8   9
ATOM      9  C   UNL     1      32.671  13.246 -16.565  1.00  0.00    -0.000 C 
BRANCH   9  10
ATOM     10  C   UNL     1      31.505  14.246 -16.498  1.00  0.00    -0.000 C 
BRANCH  10  11
ATOM     11  C   UNL     1      30.432  13.983 -17.564  1.00  0.00    -0.003 C 
ATOM     12  C   UNL     1      31.066  13.637 -18.908  1.00  0.00     0.004 C 
ENDBRANCH  10  11
ENDBRANCH   9  10
ENDBRANCH   8   9
ENDBRANCH   7   8
ENDBRANCH   6   7
ENDBRANCH   5   6
ENDBRANCH   4   5
ENDBRANCH   3   4
ENDBRANCH   2   3
ENDBRANCH   1   2
BRANCH   1  13
ATOM     13  C   UNL     1      29.377  17.765 -19.495  1.00  0.00     0.000 C 
BRANCH  13  14
ATOM     14  C   UNL     1      29.148  17.586 -17.986  1.00  0.00     0.000 C 
BRANCH  14  15
ATOM     15  C   UNL     1      28.229  18.666 -17.395  1.00  0.00     0.000 C 
BRANCH  15  16
ATOM     16  C   UNL     1      27.302  19.294 -18.451  1.00  0.00     0.000 C 
BRANCH  16  17
ATOM     17  C   UNL     1      25.906  18.652 -18.466  1.00  0.00     0.000 C 
BRANCH  17  18
ATOM     18  C   UNL     1      25.658  17.804 -19.726  1.00  0.00     0.000 C 
BRANCH  18  19
ATOM     19  C   UNL     1      25.559  16.296 -19.404  1.00  0.00     0.000 C 
BRANCH  19  20
ATOM     20  C   UNL     1      25.751  15.972 -17.909  1.00  0.00     0.006 C 
BRANCH  20  21
ATOM     21  C   UNL     1      26.655  14.757 -17.643  1.00  0.00     0.053 C 
BRANCH  21  22
ATOM     22  C   UNL     1      26.998  14.626 -16.191  1.00  0.00     0.041 C 
ATOM     23  O   UNL     1      26.387  13.797 -15.469  1.00  0.00    -0.550 OA
ATOM     24  O   UNL     1      27.963  15.449 -15.624  1.00  0.00    -0.550 OA
ENDBRANCH  21  22
ENDBRANCH  20  21
ENDBRANCH  19  20
ENDBRANCH  18  19
ENDBRANCH  17  18
ENDBRANCH  16  17
ENDBRANCH  15  16
ENDBRANCH  14  15
ENDBRANCH  13  14
ENDBRANCH   1  13
TORSDOF 20
ENDMDL
MODEL 3
REMARK VINA RESULT:    -3.859      1.455      5.900
REMARK INTER + INTRA:         -10.744
REMARK INTER:                  -7.578
REMARK INTRA:                  -3.166
REMARK UNBOUND:                -2.372
REMARK SMILES CCCCCCCCCCCCCCCCCCCCCC(=O)[O-]
REMARK SMILES IDX 12 1 11 2 10 3 9 4 8 5 7 6 6 7 5 8 4 9 3 10 2 11 1 12 13 13
REMARK SMILES IDX 14 14 15 15 16 16 17 17 18 18 19 19 20 20 21 21 22 22 23 23
REMARK SMILES IDX 24 24
REMARK H PARENT
REMARK Flexibility Score: inf
ROOT
ATOM      1  C   UNL     1      29.606  17.627 -18.503  1.00  0.00     0.000 C 
ENDROOT
BRANCH   1   2
ATOM      2  C   UNL     1      30.122  16.175 -18.487  1.00  0.00     0.000 C 
BRANCH   2   3
ATOM      3  C   UNL     1      30.001  15.455 -17.131  1.00  0.00     0.000 C 
BRANCH   3   4
ATOM      4  C   UNL     1      30.167  13.924 -17.185  1.00  0.00    -0.000 C 
BRANCH   4   5
ATOM      5  C   UNL     1      31.114  13.358 -16.105  1.00  0.00    -0.000 C 
BRANCH   5   6
ATOM      6  C   UNL     1      32.189  14.372 -15.675  1.00  0.00    -0.000 C 
BRANCH   6   7
ATOM      7  C   UNL     1      33.607  13.941 -16.083  1.00  0.00    -0.000 C 
BRANCH   7   8
ATOM      8  C   UNL     1      34.298  14.963 -17.005  1.00  0.00    -0.000 C 
BRANCH   8   9
ATOM      9  C   UNL     1      33.691  14.970 -18.424  1.00  0.00    -0.000 C 
BRANCH   9  10
ATOM     10  C   UNL     1      33.720  16.352 -19.098  1.00  0.00    -0.000 C 
BRANCH  10  11
ATOM     11  C   UNL     1      34.060  17.485 -18.120  1.00  0.00    -0.003 C 
ATOM     12  C   UNL     1      33.294  18.759 -18.466  1.00  0.00     0.004 C 
ENDBRANCH  10  11
ENDBRANCH   9  10
ENDBRANCH   8   9
ENDBRANCH   7   8
ENDBRANCH   6   7
ENDBRANCH   5   6
ENDBRANCH   4   5
ENDBRANCH   3   4
ENDBRANCH   2   3
ENDBRANCH   1   2
BRANCH   1  13
ATOM     13  C   UNL     1      29.179  18.099 -19.900  1.00  0.00     0.000 C 
BRANCH  13  14
ATOM     14  C   UNL     1      27.862  18.886 -19.830  1.00  0.00     0.000 C 
BRANCH  14  15
ATOM     15  C   UNL     1      27.529  19.355 -18.404  1.00  0.00     0.000 C 
BRANCH  15  16
ATOM     16  C   UNL     1      26.233  18.726 -17.864  1.00  0.00     0.000 C 
BRANCH  16  17
ATOM     17  C   UNL     1      25.429  18.004 -18.957  1.00  0.00     0.000 C 
BRANCH  17  18
ATOM     18  C   UNL     1      25.237  16.507 -18.659  1.00  0.00     0.000 C 
BRANCH  18  19
ATOM     19  C   UNL     1      26.401  15.923 -17.829  1.00  0.00     0.000 C 
BRANCH  19  20
ATOM     20  C   UNL     1      26.506  14.387 -17.909  1.00  0.00     0.006 C 
BRANCH  20  21
ATOM     21  C   UNL     1      25.452  13.643 -17.074  1.00  0.00     0.053 C 
BRANCH  21  22
ATOM     22  C   UNL     1      25.860  13.528 -15.637  1.00  0.00     0.041 C 
ATOM     23  O   UNL     1      25.031  13.772 -14.723  1.00  0.00    -0.550 OA
ATOM     24  O   UNL     1      27.167  13.194 -15.306  1.00  0.00    -0.550 OA
ENDBRANCH  21  22
ENDBRANCH  20  21
ENDBRANCH  19  20
ENDBRANCH  18  19
ENDBRANCH  17  18
ENDBRANCH  16  17
ENDBRANCH  15  16
ENDBRANCH  14  15
ENDBRANCH  13  14
ENDBRANCH   1  13
TORSDOF 20
ENDMDL
MODEL 4
REMARK VINA RESULT:    -3.812      1.481      5.273
REMARK INTER + INTRA:         -10.641
REMARK INTER:                  -8.308
REMARK INTRA:                  -2.333
REMARK UNBOUND:                -2.372
REMARK SMILES CCCCCCCCCCCCCCCCCCCCCC(=O)[O-]
REMARK SMILES IDX 12 1 11 2 10 3 9 4 8 5 7 6 6 7 5 8 4 9 3 10 2 11 1 12 13 13
REMARK SMILES IDX 14 14 15 15 16 16 17 17 18 18 19 19 20 20 21 21 22 22 23 23
REMARK SMILES IDX 24 24
REMARK H PARENT
REMARK Flexibility Score: inf
ROOT
ATOM      1  C   UNL     1      32.779  18.217 -18.664  1.00  0.00     0.000 C 
ENDROOT
BRANCH   1   2
ATOM      2  C   UNL     1      34.211  17.744 -18.347  1.00  0.00     0.000 C 
BRANCH   2   3
ATOM      3  C   UNL     1      34.721  16.579 -19.215  1.00  0.00     0.000 C 
BRANCH   3   4
ATOM      4  C   UNL     1      34.641  15.188 -18.559  1.00  0.00    -0.000 C 
BRANCH   4   5
ATOM      5  C   UNL     1      34.258  15.222 -17.063  1.00  0.00    -0.000 C 
BRANCH   5   6
ATOM      6  C   UNL     1      34.583  13.903 -16.342  1.00  0.00    -0.000 C 
BRANCH   6   7
ATOM      7  C   UNL     1      33.332  13.058 -16.058  1.00  0.00    -0.000 C 
BRANCH   7   8
ATOM      8  C   UNL     1      32.029  13.763 -16.480  1.00  0.00    -0.000 C 
BRANCH   8   9
ATOM      9  C   UNL     1      30.775  13.025 -15.965  1.00  0.00    -0.000 C 
BRANCH   9  10
ATOM     10  C   UNL     1      29.928  13.861 -14.991  1.00  0.00    -0.000 C 
BRANCH  10  11
ATOM     11  C   UNL     1      29.451  15.186 -15.601  1.00  0.00    -0.003 C 
ATOM     12  C   UNL     1      27.993  15.097 -16.041  1.00  0.00     0.004 C 
ENDBRANCH  10  11
ENDBRANCH   9  10
ENDBRANCH   8   9
ENDBRANCH   7   8
ENDBRANCH   6   7
ENDBRANCH   5   6
ENDBRANCH   4   5
ENDBRANCH   3   4
ENDBRANCH   2   3
ENDBRANCH   1   2
BRANCH   1  13
ATOM     13  C   UNL     1      32.175  17.526 -19.896  1.00  0.00     0.000 C 
BRANCH  13  14
ATOM     14  C   UNL     1      30.775  16.979 -19.581  1.00  0.00     0.000 C 
BRANCH  14  15
ATOM     15  C   UNL     1      30.141  17.648 -18.352  1.00  0.00     0.000 C 
BRANCH  15  16
ATOM     16  C   UNL     1      28.620  17.829 -18.497  1.00  0.00     0.000 C 
BRANCH  16  17
ATOM     17  C   UNL     1      28.014  18.667 -17.361  1.00  0.00     0.000 C 
BRANCH  17  18
ATOM     18  C   UNL     1      26.792  19.484 -17.814  1.00  0.00     0.000 C 
BRANCH  18  19
ATOM     19  C   UNL     1      26.448  19.243 -19.301  1.00  0.00     0.000 C 
BRANCH  19  20
ATOM     20  C   UNL     1      25.148  18.442 -19.510  1.00  0.00     0.006 C 
BRANCH  20  21
ATOM     21  C   UNL     1      24.668  17.690 -18.259  1.00  0.00     0.053 C 
BRANCH  21  22
ATOM     22  C   UNL     1      25.015  16.233 -18.317  1.00  0.00     0.041 C 
ATOM     23  O   UNL     1      25.857  15.817 -19.154  1.00  0.00    -0.550 OA
ATOM     24  O   UNL     1      24.379  15.329 -17.476  1.00  0.00    -0.550 OA
ENDBRANCH  21  22
ENDBRANCH  20  21
ENDBRANCH  19  20
ENDBRANCH  18  19
ENDBRANCH  17  18
ENDBRANCH  16  17
ENDBRANCH  15  16
ENDBRANCH  14  15
ENDBRANCH  13  14
ENDBRANCH   1  13
TORSDOF 20
ENDMDL
MODEL 5
REMARK VINA RESULT:    -3.796      1.679      3.201
REMARK INTER + INTRA:         -10.608
REMARK INTER:                  -7.845
REMARK INTRA:                  -2.762
REMARK UNBOUND:                -2.372
REMARK SMILES CCCCCCCCCCCCCCCCCCCCCC(=O)[O-]
REMARK SMILES IDX 12 1 11 2 10 3 9 4 8 5 7 6 6 7 5 8 4 9 3 10 2 11 1 12 13 13
REMARK SMILES IDX 14 14 15 15 16 16 17 17 18 18 19 19 20 20 21 21 22 22 23 23
REMARK SMILES IDX 24 24
REMARK H PARENT
REMARK Flexibility Score: inf
ROOT
ATOM      1  C   UNL     1      33.361  18.365 -18.541  1.00  0.00     0.000 C 
ENDROOT
BRANCH   1   2
ATOM      2  C   UNL     1      32.243  17.711 -19.375  1.00  0.00     0.000 C 
BRANCH   2   3
ATOM      3  C   UNL     1      31.059  17.159 -18.560  1.00  0.00     0.000 C 
BRANCH   3   4
ATOM      4  C   UNL     1      29.699  17.823 -18.847  1.00  0.00    -0.000 C 
BRANCH   4   5
ATOM      5  C   UNL     1      28.731  17.813 -17.643  1.00  0.00    -0.000 C 
BRANCH   5   6
ATOM      6  C   UNL     1      27.805  19.040 -17.622  1.00  0.00    -0.000 C 
BRANCH   6   7
ATOM      7  C   UNL     1      27.392  19.496 -19.031  1.00  0.00    -0.000 C 
BRANCH   7   8
ATOM      8  C   UNL     1      26.043  18.902 -19.478  1.00  0.00    -0.000 C 
BRANCH   8   9
ATOM      9  C   UNL     1      25.240  18.327 -18.292  1.00  0.00    -0.000 C 
BRANCH   9  10
ATOM     10  C   UNL     1      25.027  16.806 -18.374  1.00  0.00    -0.000 C 
BRANCH  10  11
ATOM     11  C   UNL     1      25.563  16.198 -19.678  1.00  0.00    -0.003 C 
ATOM     12  C   UNL     1      26.744  15.270 -19.409  1.00  0.00     0.004 C 
ENDBRANCH  10  11
ENDBRANCH   9  10
ENDBRANCH   8   9
ENDBRANCH   7   8
ENDBRANCH   6   7
ENDBRANCH   5   6
ENDBRANCH   4   5
ENDBRANCH   3   4
ENDBRANCH   2   3
ENDBRANCH   1   2
BRANCH   1  13
ATOM     13  C   UNL     1      34.459  17.376 -18.124  1.00  0.00     0.000 C 
BRANCH  13  14
ATOM     14  C   UNL     1      34.485  16.163 -19.066  1.00  0.00     0.000 C 
BRANCH  14  15
ATOM     15  C   UNL     1      34.452  14.825 -18.310  1.00  0.00     0.000 C 
BRANCH  15  16
ATOM     16  C   UNL     1      34.408  15.012 -16.783  1.00  0.00     0.000 C 
BRANCH  16  17
ATOM     17  C   UNL     1      33.643  13.885 -16.073  1.00  0.00     0.000 C 
BRANCH  17  18
ATOM     18  C   UNL     1      32.147  14.203 -15.899  1.00  0.00     0.000 C 
BRANCH  18  19
ATOM     19  C   UNL     1      31.244  13.163 -16.598  1.00  0.00     0.000 C 
BRANCH  19  20
ATOM     20  C   UNL     1      30.033  13.785 -17.321  1.00  0.00     0.006 C 
BRANCH  20  21
ATOM     21  C   UNL     1      28.680  13.458 -16.671  1.00  0.00     0.053 C 
BRANCH  21  22
ATOM     22  C   UNL     1      28.126  14.629 -15.917  1.00  0.00     0.041 C 
ATOM     23  O   UNL     1      28.897  15.390 -15.277  1.00  0.00    -0.550 OA
ATOM     24  O   UNL     1      26.756  14.854 -15.885  1.00  0.00    -0.550 OA
ENDBRANCH  21  22
ENDBRANCH  20  21
ENDBRANCH  19  20
ENDBRANCH  18  19
ENDBRANCH  17  18
ENDBRANCH  16  17
ENDBRANCH  15  16
ENDBRANCH  14  15
ENDBRANCH  13  14
ENDBRANCH   1  13
TORSDOF 20
ENDMDL
MODEL 6
REMARK VINA RESULT:    -3.721      1.921      3.377
REMARK INTER + INTRA:         -10.444
REMARK INTER:                  -7.811
REMARK INTRA:                  -2.632
REMARK UNBOUND:                -2.372
REMARK SMILES CCCCCCCCCCCCCCCCCCCCCC(=O)[O-]
REMARK SMILES IDX 12 1 11 2 10 3 9 4 8 5 7 6 6 7 5 8 4 9 3 10 2 11 1 12 13 13
REMARK SMILES IDX 14 14 15 15 16 16 17 17 18 18 19 19 20 20 21 21 22 22 23 23
REMARK SMILES IDX 24 24
REMARK H PARENT
REMARK Flexibility Score: inf
ROOT
ATOM      1  C   UNL     1      33.302  14.095 -16.128  1.00  0.00     0.000 C 
ENDROOT
BRANCH   1   2
ATOM      2  C   UNL     1      34.601  14.757 -16.623  1.00  0.00     0.000 C 
BRANCH   2   3
ATOM      3  C   UNL     1      34.469  15.556 -17.933  1.00  0.00     0.000 C 
BRANCH   3   4
ATOM      4  C   UNL     1      34.537  17.087 -17.778  1.00  0.00    -0.000 C 
BRANCH   4   5
ATOM      5  C   UNL     1      33.905  17.864 -18.954  1.00  0.00    -0.000 C 
BRANCH   5   6
ATOM      6  C   UNL     1      32.401  18.115 -18.752  1.00  0.00    -0.000 C 
BRANCH   6   7
ATOM      7  C   UNL     1      31.524  17.129 -19.539  1.00  0.00    -0.000 C 
BRANCH   7   8
ATOM      8  C   UNL     1      30.024  17.468 -19.455  1.00  0.00    -0.000 C 
BRANCH   8   9
ATOM      9  C   UNL     1      29.640  18.075 -18.089  1.00  0.00    -0.000 C 
BRANCH   9  10
ATOM     10  C   UNL     1      28.165  17.854 -17.712  1.00  0.00    -0.000 C 
BRANCH  10  11
ATOM     11  C   UNL     1      27.385  19.168 -17.565  1.00  0.00    -0.003 C 
ATOM     12  C   UNL     1      27.152  19.825 -18.922  1.00  0.00     0.004 C 
ENDBRANCH  10  11
ENDBRANCH   9  10
ENDBRANCH   8   9
ENDBRANCH   7   8
ENDBRANCH   6   7
ENDBRANCH   5   6
ENDBRANCH   4   5
ENDBRANCH   3   4
ENDBRANCH   2   3
ENDBRANCH   1   2
BRANCH   1  13
ATOM     13  C   UNL     1      32.258  13.911 -17.239  1.00  0.00     0.000 C 
BRANCH  13  14
ATOM     14  C   UNL     1      30.946  14.623 -16.876  1.00  0.00     0.000 C 
BRANCH  14  15
ATOM     15  C   UNL     1      30.514  14.363 -15.424  1.00  0.00     0.000 C 
BRANCH  15  16
ATOM     16  C   UNL     1      29.077  13.821 -15.325  1.00  0.00     0.000 C 
BRANCH  16  17
ATOM     17  C   UNL     1      28.060  14.711 -16.055  1.00  0.00     0.000 C 
BRANCH  17  18
ATOM     18  C   UNL     1      26.929  13.901 -16.712  1.00  0.00     0.000 C 
BRANCH  18  19
ATOM     19  C   UNL     1      26.491  14.501 -18.066  1.00  0.00     0.000 C 
BRANCH  19  20
ATOM     20  C   UNL     1      25.276  15.444 -17.958  1.00  0.00     0.006 C 
BRANCH  20  21
ATOM     21  C   UNL     1      25.222  16.523 -19.050  1.00  0.00     0.053 C 
BRANCH  21  22
ATOM     22  C   UNL     1      24.173  17.555 -18.763  1.00  0.00     0.041 C 
ATOM     23  O   UNL     1      23.868  17.831 -17.574  1.00  0.00    -0.550 OA
ATOM     24  O   UNL     1      23.502  18.179 -19.807  1.00  0.00    -0.550 OA
ENDBRANCH  21  22
ENDBRANCH  20  21
ENDBRANCH  19  20
ENDBRANCH  18  19
ENDBRANCH  17  18
ENDBRANCH  16  17
ENDBRANCH  15  16
ENDBRANCH  14  15
ENDBRANCH  13  14
ENDBRANCH   1  13
TORSDOF 20
ENDMDL
MODEL 7
REMARK VINA RESULT:    -3.698      1.653      4.813
REMARK INTER + INTRA:         -10.394
REMARK INTER:                  -7.546
REMARK INTRA:                  -2.848
REMARK UNBOUND:                -2.372
REMARK SMILES CCCCCCCCCCCCCCCCCCCCCC(=O)[O-]
REMARK SMILES IDX 12 1 11 2 10 3 9 4 8 5 7 6 6 7 5 8 4 9 3 10 2 11 1 12 13 13
REMARK SMILES IDX 14 14 15 15 16 16 17 17 18 18 19 19 20 20 21 21 22 22 23 23
REMARK SMILES IDX 24 24
REMARK H PARENT
REMARK Flexibility Score: inf
ROOT
ATOM      1  C   UNL     1      34.360  15.920 -18.165  1.00  0.00     0.000 C 
ENDROOT
BRANCH   1   2
ATOM      2  C   UNL     1      34.709  15.406 -16.755  1.00  0.00     0.000 C 
BRANCH   2   3
ATOM      3  C   UNL     1      34.446  13.907 -16.523  1.00  0.00     0.000 C 
BRANCH   3   4
ATOM      4  C   UNL     1      33.019  13.431 -16.856  1.00  0.00    -0.000 C 
BRANCH   4   5
ATOM      5  C   UNL     1      31.913  14.175 -16.076  1.00  0.00    -0.000 C 
BRANCH   5   6
ATOM      6  C   UNL     1      30.789  13.234 -15.608  1.00  0.00    -0.000 C 
BRANCH   6   7
ATOM      7  C   UNL     1      29.512  13.989 -15.208  1.00  0.00    -0.000 C 
BRANCH   7   8
ATOM      8  C   UNL     1      28.237  13.147 -15.403  1.00  0.00    -0.000 C 
BRANCH   8   9
ATOM      9  C   UNL     1      27.131  13.928 -16.142  1.00  0.00    -0.000 C 
BRANCH   9  10
ATOM     10  C   UNL     1      27.658  15.138 -16.933  1.00  0.00    -0.000 C 
BRANCH  10  11
ATOM     11  C   UNL     1      27.673  14.898 -18.449  1.00  0.00    -0.003 C 
ATOM     12  C   UNL     1      28.898  14.091 -18.867  1.00  0.00     0.004 C 
ENDBRANCH  10  11
ENDBRANCH   9  10
ENDBRANCH   8   9
ENDBRANCH   7   8
ENDBRANCH   6   7
ENDBRANCH   5   6
ENDBRANCH   4   5
ENDBRANCH   3   4
ENDBRANCH   2   3
ENDBRANCH   1   2
BRANCH   1  13
ATOM     13  C   UNL     1      34.375  17.452 -18.268  1.00  0.00     0.000 C 
BRANCH  13  14
ATOM     14  C   UNL     1      33.007  17.980 -18.725  1.00  0.00     0.000 C 
BRANCH  14  15
ATOM     15  C   UNL     1      31.971  16.860 -18.905  1.00  0.00     0.000 C 
BRANCH  15  16
ATOM     16  C   UNL     1      30.616  17.386 -19.410  1.00  0.00     0.000 C 
BRANCH  16  17
ATOM     17  C   UNL     1      29.712  17.876 -18.269  1.00  0.00     0.000 C 
BRANCH  17  18
ATOM     18  C   UNL     1      28.431  18.560 -18.780  1.00  0.00     0.000 C 
BRANCH  18  19
ATOM     19  C   UNL     1      27.412  18.812 -17.648  1.00  0.00     0.000 C 
BRANCH  19  20
ATOM     20  C   UNL     1      25.969  19.013 -18.151  1.00  0.00     0.006 C 
BRANCH  20  21
ATOM     21  C   UNL     1      25.370  17.779 -18.844  1.00  0.00     0.053 C 
BRANCH  21  22
ATOM     22  C   UNL     1      24.298  17.141 -18.015  1.00  0.00     0.041 C 
ATOM     23  O   UNL     1      24.257  15.889 -17.889  1.00  0.00    -0.550 OA
ATOM     24  O   UNL     1      23.318  17.923 -17.416  1.00  0.00    -0.550 OA
ENDBRANCH  21  22
ENDBRANCH  20  21
ENDBRANCH  19  20
ENDBRANCH  18  19
ENDBRANCH  17  18
ENDBRANCH  16  17
ENDBRANCH  15  16
ENDBRANCH  14  15
ENDBRANCH  13  14
ENDBRANCH   1  13
TORSDOF 20
ENDMDL
MODEL 8
REMARK VINA RESULT:    -3.651      1.584      5.976
REMARK INTER + INTRA:         -10.292
REMARK INTER:                  -6.942
REMARK INTRA:                  -3.350
REMARK UNBOUND:                -2.372
REMARK SMILES CCCCCCCCCCCCCCCCCCCCCC(=O)[O-]
REMARK SMILES IDX 12 1 11 2 10 3 9 4 8 5 7 6 6 7 5 8 4 9 3 10 2 11 1 12 13 13
REMARK SMILES IDX 14 14 15 15 16 16 17 17 18 18 19 19 20 20 21 21 22 22 23 23
REMARK SMILES IDX 24 24
REMARK H PARENT
REMARK Flexibility Score: inf
ROOT
ATOM      1  C   UNL     1      28.090  14.638 -16.732  1.00  0.00     0.000 C 
ENDROOT
BRANCH   1   2
ATOM      2  C   UNL     1      28.054  13.255 -16.054  1.00  0.00     0.000 C 
BRANCH   2   3
ATOM      3  C   UNL     1      29.108  13.041 -14.952  1.00  0.00     0.000 C 
BRANCH   3   4
ATOM      4  C   UNL     1      30.492  13.654 -15.239  1.00  0.00    -0.000 C 
BRANCH   4   5
ATOM      5  C   UNL     1      31.316  12.875 -16.288  1.00  0.00    -0.000 C 
BRANCH   5   6
ATOM      6  C   UNL     1      32.808  13.246 -16.258  1.00  0.00    -0.000 C 
BRANCH   6   7
ATOM      7  C   UNL     1      33.051  14.747 -16.483  1.00  0.00    -0.000 C 
BRANCH   7   8
ATOM      8  C   UNL     1      34.511  15.065 -16.857  1.00  0.00    -0.000 C 
BRANCH   8   9
ATOM      9  C   UNL     1      34.611  15.890 -18.157  1.00  0.00    -0.000 C 
BRANCH   9  10
ATOM     10  C   UNL     1      34.621  17.410 -17.920  1.00  0.00    -0.000 C 
BRANCH  10  11
ATOM     11  C   UNL     1      33.391  18.113 -18.509  1.00  0.00    -0.003 C 
ATOM     12  C   UNL     1      32.996  17.500 -19.849  1.00  0.00     0.004 C 
ENDBRANCH  10  11
ENDBRANCH   9  10
ENDBRANCH   8   9
ENDBRANCH   7   8
ENDBRANCH   6   7
ENDBRANCH   5   6
ENDBRANCH   4   5
ENDBRANCH   3   4
ENDBRANCH   2   3
ENDBRANCH   1   2
BRANCH   1  13
ATOM     13  C   UNL     1      28.274  14.557 -18.255  1.00  0.00     0.000 C 
BRANCH  13  14
ATOM     14  C   UNL     1      29.635  15.135 -18.669  1.00  0.00     0.000 C 
BRANCH  14  15
ATOM     15  C   UNL     1      30.015  16.389 -17.865  1.00  0.00     0.000 C 
BRANCH  15  16
ATOM     16  C   UNL     1      29.481  17.683 -18.503  1.00  0.00     0.000 C 
BRANCH  16  17
ATOM     17  C   UNL     1      28.621  18.506 -17.532  1.00  0.00     0.000 C 
BRANCH  17  18
ATOM     18  C   UNL     1      27.223  18.817 -18.096  1.00  0.00     0.000 C 
BRANCH  18  19
ATOM     19  C   UNL     1      27.030  18.249 -19.520  1.00  0.00     0.000 C 
BRANCH  19  20
ATOM     20  C   UNL     1      25.986  17.117 -19.594  1.00  0.00     0.006 C 
BRANCH  20  21
ATOM     21  C   UNL     1      25.304  16.804 -18.253  1.00  0.00     0.053 C 
BRANCH  21  22
ATOM     22  C   UNL     1      24.639  15.461 -18.266  1.00  0.00     0.041 C 
ATOM     23  O   UNL     1      24.522  14.804 -17.200  1.00  0.00    -0.550 OA
ATOM     24  O   UNL     1      24.186  14.917 -19.461  1.00  0.00    -0.550 OA
ENDBRANCH  21  22
ENDBRANCH  20  21
ENDBRANCH  19  20
ENDBRANCH  18  19
ENDBRANCH  17  18
ENDBRANCH  16  17
ENDBRANCH  15  16
ENDBRANCH  14  15
ENDBRANCH  13  14
ENDBRANCH   1  13
TORSDOF 20
ENDMDL
MODEL 9
REMARK VINA RESULT:    -3.600      2.281      5.810
REMARK INTER + INTRA:         -10.181
REMARK INTER:                  -6.410
REMARK INTRA:                  -3.772
REMARK UNBOUND:                -2.372
REMARK SMILES CCCCCCCCCCCCCCCCCCCCCC(=O)[O-]
REMARK SMILES IDX 12 1 11 2 10 3 9 4 8 5 7 6 6 7 5 8 4 9 3 10 2 11 1 12 13 13
REMARK SMILES IDX 14 14 15 15 16 16 17 17 18 18 19 19 20 20 21 21 22 22 23 23
REMARK SMILES IDX 24 24
REMARK H PARENT
REMARK Flexibility Score: inf
ROOT
ATOM      1  C   UNL     1      29.378  15.501 -15.618  1.00  0.00     0.000 C 
ENDROOT
BRANCH   1   2
ATOM      2  C   UNL     1      30.044  14.137 -15.354  1.00  0.00     0.000 C 
BRANCH   2   3
ATOM      3  C   UNL     1      31.307  13.855 -16.187  1.00  0.00     0.000 C 
BRANCH   3   4
ATOM      4  C   UNL     1      31.053  13.477 -17.659  1.00  0.00    -0.000 C 
BRANCH   4   5
ATOM      5  C   UNL     1      32.129  14.001 -18.635  1.00  0.00    -0.000 C 
BRANCH   5   6
ATOM      6  C   UNL     1      31.553  14.975 -19.677  1.00  0.00    -0.000 C 
BRANCH   6   7
ATOM      7  C   UNL     1      30.396  15.821 -19.124  1.00  0.00    -0.000 C 
BRANCH   7   8
ATOM      8  C   UNL     1      30.841  17.231 -18.695  1.00  0.00    -0.000 C 
BRANCH   8   9
ATOM      9  C   UNL     1      32.078  17.714 -19.480  1.00  0.00    -0.000 C 
BRANCH   9  10
ATOM     10  C   UNL     1      33.245  18.154 -18.579  1.00  0.00    -0.000 C 
BRANCH  10  11
ATOM     11  C   UNL     1      34.464  17.228 -18.689  1.00  0.00    -0.003 C 
ATOM     12  C   UNL     1      34.598  16.345 -17.452  1.00  0.00     0.004 C 
ENDBRANCH  10  11
ENDBRANCH   9  10
ENDBRANCH   8   9
ENDBRANCH   7   8
ENDBRANCH   6   7
ENDBRANCH   5   6
ENDBRANCH   4   5
ENDBRANCH   3   4
ENDBRANCH   2   3
ENDBRANCH   1   2
BRANCH   1  13
ATOM     13  C   UNL     1      27.899  15.383 -16.015  1.00  0.00     0.000 C 
BRANCH  13  14
ATOM     14  C   UNL     1      27.455  13.912 -16.027  1.00  0.00     0.000 C 
BRANCH  14  15
ATOM     15  C   UNL     1      26.648  13.548 -17.283  1.00  0.00     0.000 C 
BRANCH  15  16
ATOM     16  C   UNL     1      27.456  13.739 -18.578  1.00  0.00     0.000 C 
BRANCH  16  17
ATOM     17  C   UNL     1      26.767  14.692 -19.567  1.00  0.00     0.000 C 
BRANCH  17  18
ATOM     18  C   UNL     1      25.623  15.491 -18.919  1.00  0.00     0.000 C 
BRANCH  18  19
ATOM     19  C   UNL     1      25.757  17.010 -19.166  1.00  0.00     0.000 C 
BRANCH  19  20
ATOM     20  C   UNL     1      27.171  17.439 -19.607  1.00  0.00     0.006 C 
BRANCH  20  21
ATOM     21  C   UNL     1      27.523  18.892 -19.251  1.00  0.00     0.053 C 
BRANCH  21  22
ATOM     22  C   UNL     1      27.283  19.184 -17.801  1.00  0.00     0.041 C 
ATOM     23  O   UNL     1      26.296  19.881 -17.451  1.00  0.00    -0.550 OA
ATOM     24  O   UNL     1      28.173  18.723 -16.839  1.00  0.00    -0.550 OA
ENDBRANCH  21  22
ENDBRANCH  20  21
ENDBRANCH  19  20
ENDBRANCH  18  19
ENDBRANCH  17  18
ENDBRANCH  16  17
ENDBRANCH  15  16
ENDBRANCH  14  15
ENDBRANCH  13  14
ENDBRANCH   1  13
TORSDOF 20
ENDMDL
