MODEL 1
REMARK VINA RESULT:    -4.309      0.000      0.000
REMARK INTER + INTRA:          -6.681
REMARK INTER:                  -6.324
REMARK INTRA:                  -0.357
REMARK UNBOUND:                -0.357
REMARK SMILES O=C([O-])CCCCCCCC(=O)[O-]
REMARK SMILES IDX 7 1 6 2 5 3 4 4 2 5 1 6 3 7 8 8 9 9 10 10 11 11 12 12 13 13
REMARK H PARENT
REMARK Flexibility Score: inf
ROOT
ATOM      1  C   UNL     1      10.884   9.247  -6.541  1.00  0.00     0.000 C 
ENDROOT
BRANCH   1   2
ATOM      2  C   UNL     1      10.094   8.403  -7.558  1.00  0.00     0.000 C 
BRANCH   2   3
ATOM      3  C   UNL     1      10.037   6.892  -7.247  1.00  0.00     0.006 C 
BRANCH   3   4
ATOM      4  C   UNL     1      11.221   6.366  -6.421  1.00  0.00     0.053 C 
BRANCH   4   5
ATOM      5  C   UNL     1      11.379   4.883  -6.546  1.00  0.00     0.041 C 
ATOM      6  O   UNL     1      10.500   4.200  -7.134  1.00  0.00    -0.550 OA
ATOM      7  O   UNL     1      12.514   4.258  -6.044  1.00  0.00    -0.550 OA
ENDBRANCH   4   5
ENDBRANCH   3   4
ENDBRANCH   2   3
ENDBRANCH   1   2
BRANCH   1   8
ATOM      8  C   UNL     1      11.805  10.280  -7.207  1.00  0.00     0.000 C 
BRANCH   8   9
ATOM      9  C   UNL     1      11.530  10.371  -8.715  1.00  0.00     0.006 C 
BRANCH   9  10
ATOM     10  C   UNL     1      12.787  10.740  -9.515  1.00  0.00     0.053 C 
BRANCH  10  11
ATOM     11  C   UNL     1      12.461  11.083 -10.936  1.00  0.00     0.041 C 
ATOM     12  O   UNL     1      13.287  10.835 -11.852  1.00  0.00    -0.550 OA
ATOM     13  O   UNL     1      11.259  11.707 -11.245  1.00  0.00    -0.550 OA
ENDBRANCH  10  11
ENDBRANCH   9  10
ENDBRANCH   8   9
ENDBRANCH   1   8
TORSDOF 8
ENDMDL
MODEL 2
REMARK VINA RESULT:    -4.197      1.572      6.328
REMARK INTER + INTRA:          -6.517
REMARK INTER:                  -6.185
REMARK INTRA:                  -0.332
REMARK UNBOUND:                -0.357
REMARK SMILES O=C([O-])CCCCCCCC(=O)[O-]
REMARK SMILES IDX 7 1 6 2 5 3 4 4 2 5 1 6 3 7 8 8 9 9 10 10 11 11 12 12 13 13
REMARK H PARENT
REMARK Flexibility Score: inf
ROOT
ATOM      1  C   UNL     1      10.742   7.823  -7.027  1.00  0.00     0.000 C 
ENDROOT
BRANCH   1   2
ATOM      2  C   UNL     1       9.905   8.678  -7.996  1.00  0.00     0.000 C 
BRANCH   2   3
ATOM      3  C   UNL     1      10.557  10.011  -8.419  1.00  0.00     0.006 C 
BRANCH   3   4
ATOM      4  C   UNL     1      11.856  10.351  -7.672  1.00  0.00     0.053 C 
BRANCH   4   5
ATOM      5  C   UNL     1      12.862  11.009  -8.564  1.00  0.00     0.041 C 
ATOM      6  O   UNL     1      12.903  10.725  -9.790  1.00  0.00    -0.550 OA
ATOM      7  O   UNL     1      13.732  11.962  -8.049  1.00  0.00    -0.550 OA
ENDBRANCH   4   5
ENDBRANCH   3   4
ENDBRANCH   2   3
ENDBRANCH   1   2
BRANCH   1   8
ATOM      8  C   UNL     1       9.901   6.795  -6.255  1.00  0.00     0.000 C 
BRANCH   8   9
ATOM      9  C   UNL     1       9.892   5.439  -6.976  1.00  0.00     0.006 C 
BRANCH   9  10
ATOM     10  C   UNL     1      10.558   4.335  -6.146  1.00  0.00     0.053 C 
BRANCH  10  11
ATOM     11  C   UNL     1      12.046   4.501  -6.089  1.00  0.00     0.041 C 
ATOM     12  O   UNL     1      12.774   3.991  -6.980  1.00  0.00    -0.550 OA
ATOM     13  O   UNL     1      12.630   5.193  -5.036  1.00  0.00    -0.550 OA
ENDBRANCH  10  11
ENDBRANCH   9  10
ENDBRANCH   8   9
ENDBRANCH   1   8
TORSDOF 8
ENDMDL
MODEL 3
REMARK VINA RESULT:    -4.181      0.326      6.461
REMARK INTER + INTRA:          -6.494
REMARK INTER:                  -6.141
REMARK INTRA:                  -0.353
REMARK UNBOUND:                -0.357
REMARK SMILES O=C([O-])CCCCCCCC(=O)[O-]
REMARK SMILES IDX 7 1 6 2 5 3 4 4 2 5 1 6 3 7 8 8 9 9 10 10 11 11 12 12 13 13
REMARK H PARENT
REMARK Flexibility Score: inf
ROOT
ATOM      1  C   UNL     1      10.980   9.342  -6.554  1.00  0.00     0.000 C 
ENDROOT
BRANCH   1   2
ATOM      2  C   UNL     1      11.936  10.360  -7.203  1.00  0.00     0.000 C 
BRANCH   2   3
ATOM      3  C   UNL     1      12.191  10.148  -8.710  1.00  0.00     0.006 C 
BRANCH   3   4
ATOM      4  C   UNL     1      12.808  11.358  -9.429  1.00  0.00     0.053 C 
BRANCH   4   5
ATOM      5  C   UNL     1      12.470  11.378 -10.887  1.00  0.00     0.041 C 
ATOM      6  O   UNL     1      11.476  12.034 -11.297  1.00  0.00    -0.550 OA
ATOM      7  O   UNL     1      13.271  10.702 -11.798  1.00  0.00    -0.550 OA
ENDBRANCH   4   5
ENDBRANCH   3   4
ENDBRANCH   2   3
ENDBRANCH   1   2
BRANCH   1   8
ATOM      8  C   UNL     1      10.235   8.479  -7.583  1.00  0.00     0.000 C 
BRANCH   8   9
ATOM      9  C   UNL     1       9.997   7.062  -7.043  1.00  0.00     0.006 C 
BRANCH   9  10
ATOM     10  C   UNL     1      11.242   6.484  -6.356  1.00  0.00     0.053 C 
BRANCH  10  11
ATOM     11  C   UNL     1      11.357   5.006  -6.565  1.00  0.00     0.041 C 
ATOM     12  O   UNL     1      10.398   4.360  -7.061  1.00  0.00    -0.550 OA
ATOM     13  O   UNL     1      12.511   4.336  -6.181  1.00  0.00    -0.550 OA
ENDBRANCH  10  11
ENDBRANCH   9  10
ENDBRANCH   8   9
ENDBRANCH   1   8
TORSDOF 8
ENDMDL
MODEL 4
REMARK VINA RESULT:    -4.164      1.594      2.189
REMARK INTER + INTRA:          -6.469
REMARK INTER:                  -6.051
REMARK INTRA:                  -0.418
REMARK UNBOUND:                -0.357
REMARK SMILES O=C([O-])CCCCCCCC(=O)[O-]
REMARK SMILES IDX 7 1 6 2 5 3 4 4 2 5 1 6 3 7 8 8 9 9 10 10 11 11 12 12 13 13
REMARK H PARENT
REMARK Flexibility Score: inf
ROOT
ATOM      1  C   UNL     1      10.771   7.889  -6.892  1.00  0.00     0.000 C 
ENDROOT
BRANCH   1   2
ATOM      2  C   UNL     1       9.943   7.195  -5.796  1.00  0.00     0.000 C 
BRANCH   2   3
ATOM      3  C   UNL     1       9.994   5.653  -5.817  1.00  0.00     0.006 C 
BRANCH   3   4
ATOM      4  C   UNL     1      10.810   5.058  -6.976  1.00  0.00     0.053 C 
BRANCH   4   5
ATOM      5  C   UNL     1      12.110   4.482  -6.510  1.00  0.00     0.041 C 
ATOM      6  O   UNL     1      12.485   4.644  -5.319  1.00  0.00    -0.550 OA
ATOM      7  O   UNL     1      12.894   3.735  -7.381  1.00  0.00    -0.550 OA
ENDBRANCH   4   5
ENDBRANCH   3   4
ENDBRANCH   2   3
ENDBRANCH   1   2
BRANCH   1   8
ATOM      8  C   UNL     1       9.902   8.570  -7.960  1.00  0.00     0.000 C 
BRANCH   8   9
ATOM      9  C   UNL     1      10.520   9.904  -8.404  1.00  0.00     0.006 C 
BRANCH   9  10
ATOM     10  C   UNL     1      11.838  10.204  -7.676  1.00  0.00     0.053 C 
BRANCH  10  11
ATOM     11  C   UNL     1      12.807  10.930  -8.558  1.00  0.00     0.041 C 
ATOM     12  O   UNL     1      12.853  10.679  -9.790  1.00  0.00    -0.550 OA
ATOM     13  O   UNL     1      13.682  11.862  -8.013  1.00  0.00    -0.550 OA
ENDBRANCH  10  11
ENDBRANCH   9  10
ENDBRANCH   8   9
ENDBRANCH   1   8
TORSDOF 8
ENDMDL
MODEL 5
REMARK VINA RESULT:    -3.940      2.203      6.692
REMARK INTER + INTRA:          -6.140
REMARK INTER:                  -5.708
REMARK INTRA:                  -0.432
REMARK UNBOUND:                -0.357
REMARK SMILES O=C([O-])CCCCCCCC(=O)[O-]
REMARK SMILES IDX 7 1 6 2 5 3 4 4 2 5 1 6 3 7 8 8 9 9 10 10 11 11 12 12 13 13
REMARK H PARENT
REMARK Flexibility Score: inf
ROOT
ATOM      1  C   UNL     1      10.158   7.406  -7.206  1.00  0.00     0.000 C 
ENDROOT
BRANCH   1   2
ATOM      2  C   UNL     1      11.346   8.383  -7.139  1.00  0.00     0.000 C 
BRANCH   2   3
ATOM      3  C   UNL     1      10.997   9.856  -7.434  1.00  0.00     0.006 C 
BRANCH   3   4
ATOM      4  C   UNL     1      11.107  10.253  -8.915  1.00  0.00     0.053 C 
BRANCH   4   5
ATOM      5  C   UNL     1      12.431  10.876  -9.232  1.00  0.00     0.041 C 
ATOM      6  O   UNL     1      12.814  10.975 -10.428  1.00  0.00    -0.550 OA
ATOM      7  O   UNL     1      13.227  11.380  -8.211  1.00  0.00    -0.550 OA
ENDBRANCH   4   5
ENDBRANCH   3   4
ENDBRANCH   2   3
ENDBRANCH   1   2
BRANCH   1   8
ATOM      8  C   UNL     1      10.586   5.934  -7.113  1.00  0.00     0.000 C 
BRANCH   8   9
ATOM      9  C   UNL     1      11.728   5.756  -6.102  1.00  0.00     0.006 C 
BRANCH   9  10
ATOM     10  C   UNL     1      11.252   5.110  -4.794  1.00  0.00     0.053 C 
BRANCH  10  11
ATOM     11  C   UNL     1      11.358   6.055  -3.636  1.00  0.00     0.041 C 
ATOM     12  O   UNL     1      11.199   7.291  -3.811  1.00  0.00    -0.550 OA
ATOM     13  O   UNL     1      11.665   5.573  -2.370  1.00  0.00    -0.550 OA
ENDBRANCH  10  11
ENDBRANCH   9  10
ENDBRANCH   8   9
ENDBRANCH   1   8
TORSDOF 8
ENDMDL
MODEL 6
REMARK VINA RESULT:    -3.935     16.240     18.164
REMARK INTER + INTRA:          -6.132
REMARK INTER:                  -5.690
REMARK INTRA:                  -0.442
REMARK UNBOUND:                -0.357
REMARK SMILES O=C([O-])CCCCCCCC(=O)[O-]
REMARK SMILES IDX 7 1 6 2 5 3 4 4 2 5 1 6 3 7 8 8 9 9 10 10 11 11 12 12 13 13
REMARK H PARENT
REMARK Flexibility Score: inf
ROOT
ATOM      1  C   UNL     1      24.331  -1.514  -9.085  1.00  0.00     0.000 C 
ENDROOT
BRANCH   1   2
ATOM      2  C   UNL     1      25.400  -0.564  -9.655  1.00  0.00     0.000 C 
BRANCH   2   3
ATOM      3  C   UNL     1      25.577  -0.624 -11.187  1.00  0.00     0.006 C 
BRANCH   3   4
ATOM      4  C   UNL     1      24.261  -0.654 -11.980  1.00  0.00     0.053 C 
BRANCH   4   5
ATOM      5  C   UNL     1      24.397   0.005 -13.318  1.00  0.00     0.041 C 
ATOM      6  O   UNL     1      24.520   1.255 -13.399  1.00  0.00    -0.550 OA
ATOM      7  O   UNL     1      24.423  -0.765 -14.474  1.00  0.00    -0.550 OA
ENDBRANCH   4   5
ENDBRANCH   3   4
ENDBRANCH   2   3
ENDBRANCH   1   2
BRANCH   1   8
ATOM      8  C   UNL     1      24.921  -2.611  -8.187  1.00  0.00     0.000 C 
BRANCH   8   9
ATOM      9  C   UNL     1      25.074  -3.930  -8.958  1.00  0.00     0.006 C 
BRANCH   9  10
ATOM     10  C   UNL     1      23.769  -4.357  -9.644  1.00  0.00     0.053 C 
BRANCH  10  11
ATOM     11  C   UNL     1      23.481  -5.812  -9.435  1.00  0.00     0.041 C 
ATOM     12  O   UNL     1      22.309  -6.251  -9.568  1.00  0.00    -0.550 OA
ATOM     13  O   UNL     1      24.501  -6.678  -9.061  1.00  0.00    -0.550 OA
ENDBRANCH  10  11
ENDBRANCH   9  10
ENDBRANCH   8   9
ENDBRANCH   1   8
TORSDOF 8
ENDMDL
MODEL 7
REMARK VINA RESULT:    -3.928     12.448     13.805
REMARK INTER + INTRA:          -6.123
REMARK INTER:                  -5.870
REMARK INTRA:                  -0.252
REMARK UNBOUND:                -0.357
REMARK SMILES O=C([O-])CCCCCCCC(=O)[O-]
REMARK SMILES IDX 7 1 6 2 5 3 4 4 2 5 1 6 3 7 8 8 9 9 10 10 11 11 12 12 13 13
REMARK H PARENT
REMARK Flexibility Score: inf
ROOT
ATOM      1  C   UNL     1      19.967   9.991   2.279  1.00  0.00     0.000 C 
ENDROOT
BRANCH   1   2
ATOM      2  C   UNL     1      18.453  10.243   2.404  1.00  0.00     0.000 C 
BRANCH   2   3
ATOM      3  C   UNL     1      17.743  10.622   1.088  1.00  0.00     0.006 C 
BRANCH   3   4
ATOM      4  C   UNL     1      16.348  10.002   0.915  1.00  0.00     0.053 C 
BRANCH   4   5
ATOM      5  C   UNL     1      16.168   9.392  -0.441  1.00  0.00     0.041 C 
ATOM      6  O   UNL     1      15.070   9.506  -1.047  1.00  0.00    -0.550 OA
ATOM      7  O   UNL     1      17.224   8.726  -1.050  1.00  0.00    -0.550 OA
ENDBRANCH   4   5
ENDBRANCH   3   4
ENDBRANCH   2   3
ENDBRANCH   1   2
BRANCH   1   8
ATOM      8  C   UNL     1      20.526   9.119   3.413  1.00  0.00     0.000 C 
BRANCH   8   9
ATOM      9  C   UNL     1      22.041   9.318   3.564  1.00  0.00     0.006 C 
BRANCH   9  10
ATOM     10  C   UNL     1      22.618  10.235   2.476  1.00  0.00     0.053 C 
BRANCH  10  11
ATOM     11  C   UNL     1      24.012   9.838   2.096  1.00  0.00     0.041 C 
ATOM     12  O   UNL     1      24.730   9.197   2.907  1.00  0.00    -0.550 OA
ATOM     13  O   UNL     1      24.528  10.205   0.860  1.00  0.00    -0.550 OA
ENDBRANCH  10  11
ENDBRANCH   9  10
ENDBRANCH   8   9
ENDBRANCH   1   8
TORSDOF 8
ENDMDL
MODEL 8
REMARK VINA RESULT:    -3.888     13.450     14.801
REMARK INTER + INTRA:          -6.063
REMARK INTER:                  -5.589
REMARK INTRA:                  -0.473
REMARK UNBOUND:                -0.357
REMARK SMILES O=C([O-])CCCCCCCC(=O)[O-]
REMARK SMILES IDX 7 1 6 2 5 3 4 4 2 5 1 6 3 7 8 8 9 9 10 10 11 11 12 12 13 13
REMARK H PARENT
REMARK Flexibility Score: inf
ROOT
ATOM      1  C   UNL     1      20.691   9.542   2.676  1.00  0.00     0.000 C 
ENDROOT
BRANCH   1   2
ATOM      2  C   UNL     1      21.914   9.184   3.540  1.00  0.00     0.000 C 
BRANCH   2   3
ATOM      3  C   UNL     1      23.155  10.072   3.314  1.00  0.00     0.006 C 
BRANCH   3   4
ATOM      4  C   UNL     1      24.144   9.533   2.268  1.00  0.00     0.053 C 
BRANCH   4   5
ATOM      5  C   UNL     1      24.380  10.512   1.161  1.00  0.00     0.041 C 
ATOM      6  O   UNL     1      24.967  10.147   0.108  1.00  0.00    -0.550 OA
ATOM      7  O   UNL     1      23.922  11.818   1.276  1.00  0.00    -0.550 OA
ENDBRANCH   4   5
ENDBRANCH   3   4
ENDBRANCH   2   3
ENDBRANCH   1   2
BRANCH   1   8
ATOM      8  C   UNL     1      20.627  11.034   2.317  1.00  0.00     0.000 C 
BRANCH   8   9
ATOM      9  C   UNL     1      19.222  11.600   2.568  1.00  0.00     0.006 C 
BRANCH   9  10
ATOM     10  C   UNL     1      18.136  10.519   2.486  1.00  0.00     0.053 C 
BRANCH  10  11
ATOM     11  C   UNL     1      17.201  10.755   1.340  1.00  0.00     0.041 C 
ATOM     12  O   UNL     1      16.446  11.762   1.337  1.00  0.00    -0.550 OA
ATOM     13  O   UNL     1      17.139   9.846   0.292  1.00  0.00    -0.550 OA
ENDBRANCH  10  11
ENDBRANCH   9  10
ENDBRANCH   8   9
ENDBRANCH   1   8
TORSDOF 8
ENDMDL
MODEL 9
REMARK VINA RESULT:    -3.862     16.444     18.017
REMARK INTER + INTRA:          -6.025
REMARK INTER:                  -5.491
REMARK INTRA:                  -0.535
REMARK UNBOUND:                -0.357
REMARK SMILES O=C([O-])CCCCCCCC(=O)[O-]
REMARK SMILES IDX 7 1 6 2 5 3 4 4 2 5 1 6 3 7 8 8 9 9 10 10 11 11 12 12 13 13
REMARK H PARENT
REMARK Flexibility Score: inf
ROOT
ATOM      1  C   UNL     1      25.586  -0.617 -11.023  1.00  0.00     0.000 C 
ENDROOT
BRANCH   1   2
ATOM      2  C   UNL     1      24.182  -0.702 -11.649  1.00  0.00     0.000 C 
BRANCH   2   3
ATOM      3  C   UNL     1      24.131  -0.457 -13.172  1.00  0.00     0.006 C 
BRANCH   3   4
ATOM      4  C   UNL     1      24.844   0.823 -13.636  1.00  0.00     0.053 C 
BRANCH   4   5
ATOM      5  C   UNL     1      25.806   0.558 -14.752  1.00  0.00     0.041 C 
ATOM      6  O   UNL     1      26.664  -0.358 -14.645  1.00  0.00    -0.550 OA
ATOM      7  O   UNL     1      25.732   1.298 -15.926  1.00  0.00    -0.550 OA
ENDBRANCH   4   5
ENDBRANCH   3   4
ENDBRANCH   2   3
ENDBRANCH   1   2
BRANCH   1   8
ATOM      8  C   UNL     1      25.569  -0.746  -9.492  1.00  0.00     0.000 C 
BRANCH   8   9
ATOM      9  C   UNL     1      24.381  -1.601  -9.026  1.00  0.00     0.006 C 
BRANCH   9  10
ATOM     10  C   UNL     1      24.804  -3.026  -8.646  1.00  0.00     0.053 C 
BRANCH  10  11
ATOM     11  C   UNL     1      24.283  -4.039  -9.619  1.00  0.00     0.041 C 
ATOM     12  O   UNL     1      23.382  -4.846  -9.272  1.00  0.00    -0.550 OA
ATOM     13  O   UNL     1      24.816  -4.113 -10.900  1.00  0.00    -0.550 OA
ENDBRANCH  10  11
ENDBRANCH   9  10
ENDBRANCH   8   9
ENDBRANCH   1   8
TORSDOF 8
ENDMDL
