MODEL 1
REMARK VINA RESULT:    14.731      0.000      0.000
REMARK INTER + INTRA:          16.022
REMARK INTER:                  16.022
REMARK INTRA:                   0.000
REMARK UNBOUND:                 0.000
REMARK SMILES Cc1cc(O)c2c(c1)C(=O)c1cc(O)cc(O)c1C2=O
REMARK SMILES IDX 1 1 2 2 8 3 7 4 6 5 4 6 3 7 19 8 20 9 18 10 11 11 9 12 10 13
REMARK SMILES IDX 12 14 13 15 15 16 16 17 5 18 17 20 14 22
REMARK H PARENT 5 19 17 21 14 23
REMARK Flexibility Score: inf
ROOT
ATOM      1  C   UNL     1      -1.470  -5.172 -12.175  1.00  0.00     0.044 C 
ATOM      2  C   UNL     1      -1.057  -4.015 -11.313  1.00  0.00    -0.047 A 
ATOM      3  C   UNL     1       0.242  -3.500 -11.399  1.00  0.00     0.016 A 
ATOM      4  C   UNL     1       0.651  -2.442 -10.569  1.00  0.00     0.038 A 
ATOM      5  C   UNL     1      -0.253  -1.895  -9.633  1.00  0.00     0.076 A 
ATOM      6  C   UNL     1      -1.555  -2.435  -9.531  1.00  0.00     0.127 A 
ATOM      7  C   UNL     1      -1.944  -3.491 -10.365  1.00  0.00     0.050 A 
ATOM      8  C   UNL     1       0.181  -0.749  -8.792  1.00  0.00     0.201 C 
ATOM      9  O   UNL     1      -0.687  -0.026  -8.234  1.00  0.00    -0.288 OA
ATOM     10  C   UNL     1       1.624  -0.388  -8.706  1.00  0.00     0.076 A 
ATOM     11  C   UNL     1       2.505  -0.900  -9.688  1.00  0.00     0.041 A 
ATOM     12  C   UNL     1       2.024  -1.899 -10.672  1.00  0.00     0.194 C 
ATOM     13  O   UNL     1       2.792  -2.300 -11.589  1.00  0.00    -0.289 OA
ATOM     14  C   UNL     1       3.841  -0.466  -9.724  1.00  0.00     0.059 A 
ATOM     15  C   UNL     1       4.314   0.457  -8.787  1.00  0.00     0.120 A 
ATOM     16  C   UNL     1       3.464   0.927  -7.790  1.00  0.00     0.093 A 
ATOM     17  C   UNL     1       2.137   0.491  -7.713  1.00  0.00     0.131 A 
ENDROOT
BRANCH   6  18
ATOM     18  O   UNL     1      -2.461  -1.936  -8.594  1.00  0.00    -0.507 OA
ATOM     19  H   UNL     1      -3.454  -2.123  -8.661  1.00  0.00     0.293 HD
ENDBRANCH   6  18
BRANCH  17  20
ATOM     20  O   UNL     1       1.385   0.929  -6.620  1.00  0.00    -0.507 OA
ATOM     21  H   UNL     1       0.515   1.435  -6.705  1.00  0.00     0.293 HD
ENDBRANCH  17  20
BRANCH  15  22
ATOM     22  O   UNL     1       5.634   0.901  -8.831  1.00  0.00    -0.508 OA
ATOM     23  H   UNL     1       5.860   1.886  -8.914  1.00  0.00     0.293 HD
ENDBRANCH  15  22
TORSDOF 3
ENDMDL
MODEL 2
REMARK VINA RESULT:    16.272      1.541      6.147
REMARK INTER + INTRA:          17.699
REMARK INTER:                  17.699
REMARK INTRA:                   0.000
REMARK UNBOUND:                 0.000
REMARK SMILES Cc1cc(O)c2c(c1)C(=O)c1cc(O)cc(O)c1C2=O
REMARK SMILES IDX 1 1 2 2 8 3 7 4 6 5 4 6 3 7 19 8 20 9 18 10 11 11 9 12 10 13
REMARK SMILES IDX 12 14 13 15 15 16 16 17 5 18 17 20 14 22
REMARK H PARENT 5 19 17 21 14 23
REMARK Flexibility Score: inf
ROOT
ATOM      1  C   UNL     1       1.060   1.773  -5.481  1.00  0.00     0.044 C 
ATOM      2  C   UNL     1       1.242   0.954  -6.725  1.00  0.00    -0.047 A 
ATOM      3  C   UNL     1       0.176   0.208  -7.241  1.00  0.00     0.016 A 
ATOM      4  C   UNL     1       0.346  -0.592  -8.384  1.00  0.00     0.038 A 
ATOM      5  C   UNL     1       1.606  -0.651  -9.017  1.00  0.00     0.076 A 
ATOM      6  C   UNL     1       2.687   0.083  -8.478  1.00  0.00     0.127 A 
ATOM      7  C   UNL     1       2.499   0.873  -7.337  1.00  0.00     0.050 A 
ATOM      8  C   UNL     1       1.759  -1.469 -10.248  1.00  0.00     0.201 C 
ATOM      9  O   UNL     1       2.734  -1.254 -11.017  1.00  0.00    -0.288 OA
ATOM     10  C   UNL     1       0.707  -2.452 -10.630  1.00  0.00     0.076 A 
ATOM     11  C   UNL     1      -0.568  -2.341 -10.027  1.00  0.00     0.041 A 
ATOM     12  C   UNL     1      -0.788  -1.372  -8.926  1.00  0.00     0.194 C 
ATOM     13  O   UNL     1      -1.943  -1.225  -8.438  1.00  0.00    -0.289 OA
ATOM     14  C   UNL     1      -1.625  -3.155 -10.467  1.00  0.00     0.059 A 
ATOM     15  C   UNL     1      -1.425  -4.089 -11.487  1.00  0.00     0.120 A 
ATOM     16  C   UNL     1      -0.160  -4.236 -12.051  1.00  0.00     0.093 A 
ATOM     17  C   UNL     1       0.916  -3.458 -11.613  1.00  0.00     0.131 A 
ENDROOT
BRANCH   6  18
ATOM     18  O   UNL     1       3.952   0.020  -9.064  1.00  0.00    -0.507 OA
ATOM     19  H   UNL     1       4.491  -0.838  -9.076  1.00  0.00     0.293 HD
ENDBRANCH   6  18
BRANCH  17  20
ATOM     20  O   UNL     1       2.171  -3.744 -12.155  1.00  0.00    -0.507 OA
ATOM     21  H   UNL     1       2.939  -4.128 -11.622  1.00  0.00     0.293 HD
ENDBRANCH  17  20
BRANCH  15  22
ATOM     22  O   UNL     1      -2.474  -4.887 -11.936  1.00  0.00    -0.508 OA
ATOM     23  H   UNL     1      -2.349  -5.878 -12.115  1.00  0.00     0.293 HD
ENDBRANCH  15  22
TORSDOF 3
ENDMDL
