MODEL 1
REMARK VINA RESULT:    -3.720      0.000      0.000
REMARK INTER + INTRA:          -7.486
REMARK INTER:                  -6.329
REMARK INTRA:                  -1.156
REMARK UNBOUND:                -1.156
REMARK SMILES CCCCCCCCCCCCCC(=O)[O-]
REMARK SMILES IDX 8 1 9 2 10 3 11 4 12 5 13 6 14 7 15 8 16 9 7 10 6 11 5 12
REMARK SMILES IDX 4 13 3 14 2 15 1 16
REMARK H PARENT
REMARK Flexibility Score: inf
ROOT
ATOM      1  C   UNL     1      -2.677 -50.345   1.798  1.00  0.00     0.000 C 
ENDROOT
BRANCH   1   2
ATOM      2  C   UNL     1      -1.408 -51.019   2.347  1.00  0.00     0.000 C 
BRANCH   2   3
ATOM      3  C   UNL     1      -1.706 -52.036   3.463  1.00  0.00     0.000 C 
BRANCH   3   4
ATOM      4  C   UNL     1      -3.184 -52.120   3.896  1.00  0.00     0.000 C 
BRANCH   4   5
ATOM      5  C   UNL     1      -3.481 -51.583   5.308  1.00  0.00     0.006 C 
BRANCH   5   6
ATOM      6  C   UNL     1      -2.217 -51.416   6.160  1.00  0.00     0.053 C 
BRANCH   6   7
ATOM      7  C   UNL     1      -2.580 -51.142   7.585  1.00  0.00     0.041 C 
ATOM      8  O   UNL     1      -1.823 -51.524   8.517  1.00  0.00    -0.550 OA
ATOM      9  O   UNL     1      -3.729 -50.421   7.883  1.00  0.00    -0.550 OA
ENDBRANCH   6   7
ENDBRANCH   5   6
ENDBRANCH   4   5
ENDBRANCH   3   4
ENDBRANCH   2   3
ENDBRANCH   1   2
BRANCH   1  10
ATOM     10  C   UNL     1      -2.979 -50.753   0.347  1.00  0.00     0.000 C 
BRANCH  10  11
ATOM     11  C   UNL     1      -4.094 -51.809   0.252  1.00  0.00    -0.000 C 
BRANCH  11  12
ATOM     12  C   UNL     1      -5.439 -51.219  -0.211  1.00  0.00    -0.000 C 
BRANCH  12  13
ATOM     13  C   UNL     1      -6.663 -51.655   0.614  1.00  0.00    -0.000 C 
BRANCH  13  14
ATOM     14  C   UNL     1      -6.320 -51.965   2.079  1.00  0.00    -0.000 C 
BRANCH  14  15
ATOM     15  C   UNL     1      -7.494 -51.623   3.003  1.00  0.00    -0.003 C 
ATOM     16  C   UNL     1      -8.568 -50.830   2.262  1.00  0.00     0.004 C 
ENDBRANCH  14  15
ENDBRANCH  13  14
ENDBRANCH  12  13
ENDBRANCH  11  12
ENDBRANCH  10  11
ENDBRANCH   1  10
TORSDOF 12
ENDMDL
MODEL 2
REMARK VINA RESULT:    -3.537      0.932      1.281
REMARK INTER + INTRA:          -7.174
REMARK INTER:                  -6.550
REMARK INTRA:                  -0.624
REMARK UNBOUND:                -1.156
REMARK SMILES CCCCCCCCCCCCCC(=O)[O-]
REMARK SMILES IDX 8 1 9 2 10 3 11 4 12 5 13 6 14 7 15 8 16 9 7 10 6 11 5 12
REMARK SMILES IDX 4 13 3 14 2 15 1 16
REMARK H PARENT
REMARK Flexibility Score: inf
ROOT
ATOM      1  C   UNL     1      -2.872 -50.343   1.153  1.00  0.00     0.000 C 
ENDROOT
BRANCH   1   2
ATOM      2  C   UNL     1      -1.599 -51.199   1.267  1.00  0.00     0.000 C 
BRANCH   2   3
ATOM      3  C   UNL     1      -1.609 -52.124   2.496  1.00  0.00     0.000 C 
BRANCH   3   4
ATOM      4  C   UNL     1      -2.663 -51.781   3.568  1.00  0.00     0.000 C 
BRANCH   4   5
ATOM      5  C   UNL     1      -2.161 -51.845   5.022  1.00  0.00     0.006 C 
BRANCH   5   6
ATOM      6  C   UNL     1      -3.301 -51.788   6.047  1.00  0.00     0.053 C 
BRANCH   6   7
ATOM      7  C   UNL     1      -2.849 -51.089   7.291  1.00  0.00     0.041 C 
ATOM      8  O   UNL     1      -1.623 -51.023   7.572  1.00  0.00    -0.550 OA
ATOM      9  O   UNL     1      -3.779 -50.467   8.114  1.00  0.00    -0.550 OA
ENDBRANCH   6   7
ENDBRANCH   5   6
ENDBRANCH   4   5
ENDBRANCH   3   4
ENDBRANCH   2   3
ENDBRANCH   1   2
BRANCH   1  10
ATOM     10  C   UNL     1      -3.889 -50.930   0.160  1.00  0.00     0.000 C 
BRANCH  10  11
ATOM     11  C   UNL     1      -4.778 -52.012   0.797  1.00  0.00    -0.000 C 
BRANCH  11  12
ATOM     12  C   UNL     1      -6.281 -51.720   0.641  1.00  0.00    -0.000 C 
BRANCH  12  13
ATOM     13  C   UNL     1      -7.089 -51.732   1.951  1.00  0.00    -0.000 C 
BRANCH  13  14
ATOM     14  C   UNL     1      -8.414 -50.965   1.846  1.00  0.00    -0.000 C 
BRANCH  14  15
ATOM     15  C   UNL     1      -9.124 -50.905   3.203  1.00  0.00    -0.003 C 
ATOM     16  C   UNL     1      -8.158 -50.507   4.316  1.00  0.00     0.004 C 
ENDBRANCH  14  15
ENDBRANCH  13  14
ENDBRANCH  12  13
ENDBRANCH  11  12
ENDBRANCH  10  11
ENDBRANCH   1  10
TORSDOF 12
ENDMDL
MODEL 3
REMARK VINA RESULT:    -3.276      2.317      5.704
REMARK INTER + INTRA:          -6.731
REMARK INTER:                  -5.810
REMARK INTRA:                  -0.920
REMARK UNBOUND:                -1.156
REMARK SMILES CCCCCCCCCCCCCC(=O)[O-]
REMARK SMILES IDX 8 1 9 2 10 3 11 4 12 5 13 6 14 7 15 8 16 9 7 10 6 11 5 12
REMARK SMILES IDX 4 13 3 14 2 15 1 16
REMARK H PARENT
REMARK Flexibility Score: inf
ROOT
ATOM      1  C   UNL     1      -2.110 -50.964   2.087  1.00  0.00     0.000 C 
ENDROOT
BRANCH   1   2
ATOM      2  C   UNL     1      -3.086 -50.623   0.948  1.00  0.00     0.000 C 
BRANCH   2   3
ATOM      3  C   UNL     1      -4.070 -51.766   0.643  1.00  0.00     0.000 C 
BRANCH   3   4
ATOM      4  C   UNL     1      -5.424 -51.325   0.050  1.00  0.00     0.000 C 
BRANCH   4   5
ATOM      5  C   UNL     1      -6.657 -51.684   0.899  1.00  0.00     0.006 C 
BRANCH   5   6
ATOM      6  C   UNL     1      -6.301 -52.017   2.354  1.00  0.00     0.053 C 
BRANCH   6   7
ATOM      7  C   UNL     1      -7.393 -51.569   3.274  1.00  0.00     0.041 C 
ATOM      8  O   UNL     1      -8.600 -51.729   2.950  1.00  0.00    -0.550 OA
ATOM      9  O   UNL     1      -7.078 -51.022   4.511  1.00  0.00    -0.550 OA
ENDBRANCH   6   7
ENDBRANCH   5   6
ENDBRANCH   4   5
ENDBRANCH   3   4
ENDBRANCH   2   3
ENDBRANCH   1   2
BRANCH   1  10
ATOM     10  C   UNL     1      -2.621 -52.108   2.978  1.00  0.00     0.000 C 
BRANCH  10  11
ATOM     11  C   UNL     1      -3.163 -51.606   4.328  1.00  0.00    -0.000 C 
BRANCH  11  12
ATOM     12  C   UNL     1      -2.197 -51.871   5.497  1.00  0.00    -0.000 C 
BRANCH  12  13
ATOM     13  C   UNL     1      -2.364 -50.937   6.708  1.00  0.00    -0.000 C 
BRANCH  13  14
ATOM     14  C   UNL     1      -2.238 -51.667   8.052  1.00  0.00    -0.000 C 
BRANCH  14  15
ATOM     15  C   UNL     1      -3.543 -51.577   8.852  1.00  0.00    -0.003 C 
ATOM     16  C   UNL     1      -4.728 -52.079   8.033  1.00  0.00     0.004 C 
ENDBRANCH  14  15
ENDBRANCH  13  14
ENDBRANCH  12  13
ENDBRANCH  11  12
ENDBRANCH  10  11
ENDBRANCH   1  10
TORSDOF 12
ENDMDL
MODEL 4
REMARK VINA RESULT:    -2.921      1.429      1.989
REMARK INTER + INTRA:          -6.127
REMARK INTER:                  -5.711
REMARK INTRA:                  -0.416
REMARK UNBOUND:                -1.156
REMARK SMILES CCCCCCCCCCCCCC(=O)[O-]
REMARK SMILES IDX 8 1 9 2 10 3 11 4 12 5 13 6 14 7 15 8 16 9 7 10 6 11 5 12
REMARK SMILES IDX 4 13 3 14 2 15 1 16
REMARK H PARENT
REMARK Flexibility Score: inf
ROOT
ATOM      1  C   UNL     1      -1.964 -51.306   2.545  1.00  0.00     0.000 C 
ENDROOT
BRANCH   1   2
ATOM      2  C   UNL     1      -1.114 -52.082   3.566  1.00  0.00     0.000 C 
BRANCH   2   3
ATOM      3  C   UNL     1      -1.170 -51.471   4.977  1.00  0.00     0.000 C 
BRANCH   3   4
ATOM      4  C   UNL     1      -2.188 -52.124   5.934  1.00  0.00     0.000 C 
BRANCH   4   5
ATOM      5  C   UNL     1      -3.090 -51.139   6.699  1.00  0.00     0.006 C 
BRANCH   5   6
ATOM      6  C   UNL     1      -3.295 -51.537   8.166  1.00  0.00     0.053 C 
BRANCH   6   7
ATOM      7  C   UNL     1      -4.669 -51.158   8.622  1.00  0.00     0.041 C 
ATOM      8  O   UNL     1      -5.679 -51.518   7.960  1.00  0.00    -0.550 OA
ATOM      9  O   UNL     1      -4.837 -50.451   9.806  1.00  0.00    -0.550 OA
ENDBRANCH   6   7
ENDBRANCH   5   6
ENDBRANCH   4   5
ENDBRANCH   3   4
ENDBRANCH   2   3
ENDBRANCH   1   2
BRANCH   1  10
ATOM     10  C   UNL     1      -1.466 -51.491   1.102  1.00  0.00     0.000 C 
BRANCH  10  11
ATOM     11  C   UNL     1      -2.540 -51.139   0.058  1.00  0.00    -0.000 C 
BRANCH  11  12
ATOM     12  C   UNL     1      -3.838 -51.947   0.240  1.00  0.00    -0.000 C 
BRANCH  12  13
ATOM     13  C   UNL     1      -5.023 -51.157   0.823  1.00  0.00    -0.000 C 
BRANCH  13  14
ATOM     14  C   UNL     1      -6.385 -51.781   0.487  1.00  0.00    -0.000 C 
BRANCH  14  15
ATOM     15  C   UNL     1      -7.263 -51.892   1.738  1.00  0.00    -0.003 C 
ATOM     16  C   UNL     1      -8.604 -51.191   1.536  1.00  0.00     0.004 C 
ENDBRANCH  14  15
ENDBRANCH  13  14
ENDBRANCH  12  13
ENDBRANCH  11  12
ENDBRANCH  10  11
ENDBRANCH   1  10
TORSDOF 12
ENDMDL
MODEL 5
REMARK VINA RESULT:    -2.719      2.695      5.947
REMARK INTER + INTRA:          -5.783
REMARK INTER:                  -5.082
REMARK INTRA:                  -0.701
REMARK UNBOUND:                -1.156
REMARK SMILES CCCCCCCCCCCCCC(=O)[O-]
REMARK SMILES IDX 8 1 9 2 10 3 11 4 12 5 13 6 14 7 15 8 16 9 7 10 6 11 5 12
REMARK SMILES IDX 4 13 3 14 2 15 1 16
REMARK H PARENT
REMARK Flexibility Score: inf
ROOT
ATOM      1  C   UNL     1      -3.307 -51.464   4.152  1.00  0.00     0.000 C 
ENDROOT
BRANCH   1   2
ATOM      2  C   UNL     1      -3.144 -51.705   2.641  1.00  0.00     0.000 C 
BRANCH   2   3
ATOM      3  C   UNL     1      -4.483 -51.965   1.930  1.00  0.00     0.000 C 
BRANCH   3   4
ATOM      4  C   UNL     1      -5.702 -52.123   2.862  1.00  0.00     0.000 C 
BRANCH   4   5
ATOM      5  C   UNL     1      -7.027 -51.577   2.302  1.00  0.00     0.006 C 
BRANCH   5   6
ATOM      6  C   UNL     1      -8.234 -51.923   3.185  1.00  0.00     0.053 C 
BRANCH   6   7
ATOM      7  C   UNL     1      -8.195 -51.132   4.455  1.00  0.00     0.041 C 
ATOM      8  O   UNL     1      -7.994 -51.710   5.555  1.00  0.00    -0.550 OA
ATOM      9  O   UNL     1      -8.331 -49.751   4.417  1.00  0.00    -0.550 OA
ENDBRANCH   6   7
ENDBRANCH   5   6
ENDBRANCH   4   5
ENDBRANCH   3   4
ENDBRANCH   2   3
ENDBRANCH   1   2
BRANCH   1  10
ATOM     10  C   UNL     1      -1.984 -51.623   4.919  1.00  0.00     0.000 C 
BRANCH  10  11
ATOM     11  C   UNL     1      -2.195 -52.125   6.358  1.00  0.00    -0.000 C 
BRANCH  11  12
ATOM     12  C   UNL     1      -3.392 -51.455   7.057  1.00  0.00    -0.000 C 
BRANCH  12  13
ATOM     13  C   UNL     1      -3.516 -51.744   8.563  1.00  0.00    -0.000 C 
BRANCH  13  14
ATOM     14  C   UNL     1      -4.356 -50.697   9.309  1.00  0.00    -0.000 C 
BRANCH  14  15
ATOM     15  C   UNL     1      -5.699 -51.285   9.756  1.00  0.00    -0.003 C 
ATOM     16  C   UNL     1      -6.861 -50.640   9.007  1.00  0.00     0.004 C 
ENDBRANCH  14  15
ENDBRANCH  13  14
ENDBRANCH  12  13
ENDBRANCH  11  12
ENDBRANCH  10  11
ENDBRANCH   1  10
TORSDOF 12
ENDMDL
MODEL 6
REMARK VINA RESULT:    -2.443      1.786      3.483
REMARK INTER + INTRA:          -5.313
REMARK INTER:                  -4.778
REMARK INTRA:                  -0.535
REMARK UNBOUND:                -1.156
REMARK SMILES CCCCCCCCCCCCCC(=O)[O-]
REMARK SMILES IDX 8 1 9 2 10 3 11 4 12 5 13 6 14 7 15 8 16 9 7 10 6 11 5 12
REMARK SMILES IDX 4 13 3 14 2 15 1 16
REMARK H PARENT
REMARK Flexibility Score: inf
ROOT
ATOM      1  C   UNL     1      -1.448 -51.049   4.481  1.00  0.00     0.000 C 
ENDROOT
BRANCH   1   2
ATOM      2  C   UNL     1      -1.822 -51.688   5.829  1.00  0.00     0.000 C 
BRANCH   2   3
ATOM      3  C   UNL     1      -1.599 -50.742   7.022  1.00  0.00     0.000 C 
BRANCH   3   4
ATOM      4  C   UNL     1      -1.902 -51.349   8.407  1.00  0.00     0.000 C 
BRANCH   4   5
ATOM      5  C   UNL     1      -3.228 -52.125   8.503  1.00  0.00     0.006 C 
BRANCH   5   6
ATOM      6  C   UNL     1      -4.043 -51.756   9.749  1.00  0.00     0.053 C 
BRANCH   6   7
ATOM      7  C   UNL     1      -5.109 -50.765   9.402  1.00  0.00     0.041 C 
ATOM      8  O   UNL     1      -5.221 -49.697  10.060  1.00  0.00    -0.550 OA
ATOM      9  O   UNL     1      -5.946 -50.998   8.318  1.00  0.00    -0.550 OA
ENDBRANCH   6   7
ENDBRANCH   5   6
ENDBRANCH   4   5
ENDBRANCH   3   4
ENDBRANCH   2   3
ENDBRANCH   1   2
BRANCH   1  10
ATOM     10  C   UNL     1      -2.260 -51.627   3.310  1.00  0.00     0.000 C 
BRANCH  10  11
ATOM     11  C   UNL     1      -2.070 -50.826   2.010  1.00  0.00    -0.000 C 
BRANCH  11  12
ATOM     12  C   UNL     1      -1.723 -51.716   0.803  1.00  0.00    -0.000 C 
BRANCH  12  13
ATOM     13  C   UNL     1      -2.865 -51.924  -0.207  1.00  0.00    -0.000 C 
BRANCH  13  14
ATOM     14  C   UNL     1      -4.141 -51.154   0.163  1.00  0.00    -0.000 C 
BRANCH  14  15
ATOM     15  C   UNL     1      -5.247 -52.111   0.623  1.00  0.00    -0.003 C 
ATOM     16  C   UNL     1      -6.623 -51.460   0.512  1.00  0.00     0.004 C 
ENDBRANCH  14  15
ENDBRANCH  13  14
ENDBRANCH  12  13
ENDBRANCH  11  12
ENDBRANCH  10  11
ENDBRANCH   1  10
TORSDOF 12
ENDMDL
