MODEL 1
REMARK VINA RESULT:    -3.572      0.000      0.000
REMARK INTER + INTRA:          -5.783
REMARK INTER:                  -5.242
REMARK INTRA:                  -0.541
REMARK UNBOUND:                -0.541
REMARK SMILES O=C([O-])CCCCCCCC(=O)[O-]
REMARK SMILES IDX 7 1 6 2 5 3 4 4 2 5 1 6 3 7 8 8 9 9 10 10 11 11 12 12 13 13
REMARK H PARENT
REMARK Flexibility Score: inf
ROOT
ATOM      1  C   UNL     1      26.438  42.223  25.177  1.00  0.00     0.000 C 
ENDROOT
BRANCH   1   2
ATOM      2  C   UNL     1      26.737  41.735  26.602  1.00  0.00     0.000 C 
BRANCH   2   3
ATOM      3  C   UNL     1      27.912  42.484  27.257  1.00  0.00     0.006 C 
BRANCH   3   4
ATOM      4  C   UNL     1      28.536  43.578  26.376  1.00  0.00     0.053 C 
BRANCH   4   5
ATOM      5  C   UNL     1      30.008  43.379  26.190  1.00  0.00     0.041 C 
ATOM      6  O   UNL     1      30.518  42.238  26.349  1.00  0.00    -0.550 OA
ATOM      7  O   UNL     1      30.813  44.445  25.810  1.00  0.00    -0.550 OA
ENDBRANCH   4   5
ENDBRANCH   3   4
ENDBRANCH   2   3
ENDBRANCH   1   2
BRANCH   1   8
ATOM      8  C   UNL     1      25.621  41.180  24.399  1.00  0.00     0.000 C 
BRANCH   8   9
ATOM      9  C   UNL     1      25.007  40.108  25.313  1.00  0.00     0.006 C 
BRANCH   9  10
ATOM     10  C   UNL     1      25.038  38.708  24.686  1.00  0.00     0.053 C 
BRANCH  10  11
ATOM     11  C   UNL     1      26.436  38.177  24.664  1.00  0.00     0.041 C 
ATOM     12  O   UNL     1      26.894  37.641  23.620  1.00  0.00    -0.550 OA
ATOM     13  O   UNL     1      27.250  38.317  25.780  1.00  0.00    -0.550 OA
ENDBRANCH  10  11
ENDBRANCH   9  10
ENDBRANCH   8   9
ENDBRANCH   1   8
TORSDOF 8
ENDMDL
MODEL 2
REMARK VINA RESULT:    -3.566      0.773      5.379
REMARK INTER + INTRA:          -5.774
REMARK INTER:                  -5.278
REMARK INTRA:                  -0.496
REMARK UNBOUND:                -0.541
REMARK SMILES O=C([O-])CCCCCCCC(=O)[O-]
REMARK SMILES IDX 7 1 6 2 5 3 4 4 2 5 1 6 3 7 8 8 9 9 10 10 11 11 12 12 13 13
REMARK H PARENT
REMARK Flexibility Score: inf
ROOT
ATOM      1  C   UNL     1      26.410  42.447  25.024  1.00  0.00     0.000 C 
ENDROOT
BRANCH   1   2
ATOM      2  C   UNL     1      25.663  41.360  24.237  1.00  0.00     0.000 C 
BRANCH   2   3
ATOM      3  C   UNL     1      25.196  40.192  25.125  1.00  0.00     0.006 C 
BRANCH   3   4
ATOM      4  C   UNL     1      25.839  38.839  24.784  1.00  0.00     0.053 C 
BRANCH   4   5
ATOM      5  C   UNL     1      26.731  38.347  25.881  1.00  0.00     0.041 C 
ATOM      6  O   UNL     1      27.929  38.046  25.636  1.00  0.00    -0.550 OA
ATOM      7  O   UNL     1      26.250  38.251  27.181  1.00  0.00    -0.550 OA
ENDBRANCH   4   5
ENDBRANCH   3   4
ENDBRANCH   2   3
ENDBRANCH   1   2
BRANCH   1   8
ATOM      8  C   UNL     1      26.524  42.070  26.509  1.00  0.00     0.000 C 
BRANCH   8   9
ATOM      9  C   UNL     1      27.892  42.433  27.109  1.00  0.00     0.006 C 
BRANCH   9  10
ATOM     10  C   UNL     1      28.538  43.640  26.417  1.00  0.00     0.053 C 
BRANCH  10  11
ATOM     11  C   UNL     1      30.004  43.407  26.225  1.00  0.00     0.041 C 
ATOM     12  O   UNL     1      30.503  42.278  26.470  1.00  0.00    -0.550 OA
ATOM     13  O   UNL     1      30.810  44.423  25.729  1.00  0.00    -0.550 OA
ENDBRANCH  10  11
ENDBRANCH   9  10
ENDBRANCH   8   9
ENDBRANCH   1   8
TORSDOF 8
ENDMDL
MODEL 3
REMARK VINA RESULT:    -3.556      0.138      5.488
REMARK INTER + INTRA:          -5.759
REMARK INTER:                  -5.198
REMARK INTRA:                  -0.562
REMARK UNBOUND:                -0.541
REMARK SMILES O=C([O-])CCCCCCCC(=O)[O-]
REMARK SMILES IDX 7 1 6 2 5 3 4 4 2 5 1 6 3 7 8 8 9 9 10 10 11 11 12 12 13 13
REMARK H PARENT
REMARK Flexibility Score: inf
ROOT
ATOM      1  C   UNL     1      26.591  42.110  25.146  1.00  0.00     0.000 C 
ENDROOT
BRANCH   1   2
ATOM      2  C   UNL     1      25.595  41.154  24.472  1.00  0.00     0.000 C 
BRANCH   2   3
ATOM      3  C   UNL     1      25.014  40.113  25.445  1.00  0.00     0.006 C 
BRANCH   3   4
ATOM      4  C   UNL     1      25.073  38.665  24.934  1.00  0.00     0.053 C 
BRANCH   4   5
ATOM      5  C   UNL     1      26.482  38.197  24.730  1.00  0.00     0.041 C 
ATOM      6  O   UNL     1      26.830  37.702  23.626  1.00  0.00    -0.550 OA
ATOM      7  O   UNL     1      27.417  38.337  25.748  1.00  0.00    -0.550 OA
ENDBRANCH   4   5
ENDBRANCH   3   4
ENDBRANCH   2   3
ENDBRANCH   1   2
BRANCH   1   8
ATOM      8  C   UNL     1      26.879  41.675  26.591  1.00  0.00     0.000 C 
BRANCH   8   9
ATOM      9  C   UNL     1      27.992  42.506  27.248  1.00  0.00     0.006 C 
BRANCH   9  10
ATOM     10  C   UNL     1      28.527  43.611  26.328  1.00  0.00     0.053 C 
BRANCH  10  11
ATOM     11  C   UNL     1      29.997  43.440  26.109  1.00  0.00     0.041 C 
ATOM     12  O   UNL     1      30.695  44.410  25.713  1.00  0.00    -0.550 OA
ATOM     13  O   UNL     1      30.605  42.223  26.389  1.00  0.00    -0.550 OA
ENDBRANCH  10  11
ENDBRANCH   9  10
ENDBRANCH   8   9
ENDBRANCH   1   8
TORSDOF 8
ENDMDL
MODEL 4
REMARK VINA RESULT:    -3.492      2.015      5.461
REMARK INTER + INTRA:          -5.666
REMARK INTER:                  -5.172
REMARK INTRA:                  -0.494
REMARK UNBOUND:                -0.541
REMARK SMILES O=C([O-])CCCCCCCC(=O)[O-]
REMARK SMILES IDX 7 1 6 2 5 3 4 4 2 5 1 6 3 7 8 8 9 9 10 10 11 11 12 12 13 13
REMARK H PARENT
REMARK Flexibility Score: inf
ROOT
ATOM      1  C   UNL     1      26.301  42.200  24.756  1.00  0.00     0.000 C 
ENDROOT
BRANCH   1   2
ATOM      2  C   UNL     1      25.577  40.856  24.588  1.00  0.00     0.000 C 
BRANCH   2   3
ATOM      3  C   UNL     1      24.965  40.338  25.903  1.00  0.00     0.006 C 
BRANCH   3   4
ATOM      4  C   UNL     1      25.691  39.125  26.505  1.00  0.00     0.053 C 
BRANCH   4   5
ATOM      5  C   UNL     1      25.601  39.101  28.000  1.00  0.00     0.041 C 
ATOM      6  O   UNL     1      25.225  38.056  28.595  1.00  0.00    -0.550 OA
ATOM      7  O   UNL     1      25.964  40.220  28.738  1.00  0.00    -0.550 OA
ENDBRANCH   4   5
ENDBRANCH   3   4
ENDBRANCH   2   3
ENDBRANCH   1   2
BRANCH   1   8
ATOM      8  C   UNL     1      26.218  42.691  26.209  1.00  0.00     0.000 C 
BRANCH   8   9
ATOM      9  C   UNL     1      27.584  43.122  26.767  1.00  0.00     0.006 C 
BRANCH   9  10
ATOM     10  C   UNL     1      28.687  43.113  25.700  1.00  0.00     0.053 C 
BRANCH  10  11
ATOM     11  C   UNL     1      30.030  43.287  26.338  1.00  0.00     0.041 C 
ATOM     12  O   UNL     1      30.485  42.401  27.107  1.00  0.00    -0.550 OA
ATOM     13  O   UNL     1      30.799  44.406  26.044  1.00  0.00    -0.550 OA
ENDBRANCH  10  11
ENDBRANCH   9  10
ENDBRANCH   8   9
ENDBRANCH   1   8
TORSDOF 8
ENDMDL
MODEL 5
REMARK VINA RESULT:    -3.451     16.657     17.878
REMARK INTER + INTRA:          -5.606
REMARK INTER:                  -5.005
REMARK INTRA:                  -0.602
REMARK UNBOUND:                -0.541
REMARK SMILES O=C([O-])CCCCCCCC(=O)[O-]
REMARK SMILES IDX 7 1 6 2 5 3 4 4 2 5 1 6 3 7 8 8 9 9 10 10 11 11 12 12 13 13
REMARK H PARENT
REMARK Flexibility Score: inf
ROOT
ATOM      1  C   UNL     1      30.476  51.145  38.451  1.00  0.00     0.000 C 
ENDROOT
BRANCH   1   2
ATOM      2  C   UNL     1      29.932  52.550  38.752  1.00  0.00     0.000 C 
BRANCH   2   3
ATOM      3  C   UNL     1      28.464  52.728  38.323  1.00  0.00     0.006 C 
BRANCH   3   4
ATOM      4  C   UNL     1      27.445  52.522  39.454  1.00  0.00     0.053 C 
BRANCH   4   5
ATOM      5  C   UNL     1      27.983  52.953  40.783  1.00  0.00     0.041 C 
ATOM      6  O   UNL     1      28.225  54.169  41.004  1.00  0.00    -0.550 OA
ATOM      7  O   UNL     1      28.188  52.018  41.790  1.00  0.00    -0.550 OA
ENDBRANCH   4   5
ENDBRANCH   3   4
ENDBRANCH   2   3
ENDBRANCH   1   2
BRANCH   1   8
ATOM      8  C   UNL     1      30.509  50.285  39.723  1.00  0.00     0.000 C 
BRANCH   8   9
ATOM      9  C   UNL     1      29.323  49.311  39.810  1.00  0.00     0.006 C 
BRANCH   9  10
ATOM     10  C   UNL     1      29.222  48.624  41.178  1.00  0.00     0.053 C 
BRANCH  10  11
ATOM     11  C   UNL     1      30.020  47.358  41.185  1.00  0.00     0.041 C 
ATOM     12  O   UNL     1      29.518  46.291  40.743  1.00  0.00    -0.550 OA
ATOM     13  O   UNL     1      31.333  47.366  41.635  1.00  0.00    -0.550 OA
ENDBRANCH  10  11
ENDBRANCH   9  10
ENDBRANCH   8   9
ENDBRANCH   1   8
TORSDOF 8
ENDMDL
MODEL 6
REMARK VINA RESULT:    -3.367     16.578     18.169
REMARK INTER + INTRA:          -5.482
REMARK INTER:                  -4.937
REMARK INTRA:                  -0.545
REMARK UNBOUND:                -0.541
REMARK SMILES O=C([O-])CCCCCCCC(=O)[O-]
REMARK SMILES IDX 7 1 6 2 5 3 4 4 2 5 1 6 3 7 8 8 9 9 10 10 11 11 12 12 13 13
REMARK H PARENT
REMARK Flexibility Score: inf
ROOT
ATOM      1  C   UNL     1      30.285  51.170  38.390  1.00  0.00     0.000 C 
ENDROOT
BRANCH   1   2
ATOM      2  C   UNL     1      30.601  50.371  39.663  1.00  0.00     0.000 C 
BRANCH   2   3
ATOM      3  C   UNL     1      29.587  49.243  39.929  1.00  0.00     0.006 C 
BRANCH   3   4
ATOM      4  C   UNL     1      29.779  48.522  41.273  1.00  0.00     0.053 C 
BRANCH   4   5
ATOM      5  C   UNL     1      30.353  47.150  41.098  1.00  0.00     0.041 C 
ATOM      6  O   UNL     1      29.758  46.301  40.384  1.00  0.00    -0.550 OA
ATOM      7  O   UNL     1      31.562  46.819  41.698  1.00  0.00    -0.550 OA
ENDBRANCH   4   5
ENDBRANCH   3   4
ENDBRANCH   2   3
ENDBRANCH   1   2
BRANCH   1   8
ATOM      8  C   UNL     1      29.888  52.614  38.732  1.00  0.00     0.000 C 
BRANCH   8   9
ATOM      9  C   UNL     1      28.417  52.916  38.406  1.00  0.00     0.006 C 
BRANCH   9  10
ATOM     10  C   UNL     1      27.450  52.340  39.447  1.00  0.00     0.053 C 
BRANCH  10  11
ATOM     11  C   UNL     1      27.889  52.711  40.829  1.00  0.00     0.041 C 
ATOM     12  O   UNL     1      28.062  53.921  41.135  1.00  0.00    -0.550 OA
ATOM     13  O   UNL     1      28.062  51.726  41.792  1.00  0.00    -0.550 OA
ENDBRANCH  10  11
ENDBRANCH   9  10
ENDBRANCH   8   9
ENDBRANCH   1   8
TORSDOF 8
ENDMDL
MODEL 7
REMARK VINA RESULT:    -3.316      1.695      2.046
REMARK INTER + INTRA:          -5.408
REMARK INTER:                  -4.758
REMARK INTRA:                  -0.650
REMARK UNBOUND:                -0.541
REMARK SMILES O=C([O-])CCCCCCCC(=O)[O-]
REMARK SMILES IDX 7 1 6 2 5 3 4 4 2 5 1 6 3 7 8 8 9 9 10 10 11 11 12 12 13 13
REMARK H PARENT
REMARK Flexibility Score: inf
ROOT
ATOM      1  C   UNL     1      26.550  41.335  27.711  1.00  0.00     0.000 C 
ENDROOT
BRANCH   1   2
ATOM      2  C   UNL     1      26.025  42.658  27.135  1.00  0.00     0.000 C 
BRANCH   2   3
ATOM      3  C   UNL     1      27.118  43.478  26.426  1.00  0.00     0.006 C 
BRANCH   3   4
ATOM      4  C   UNL     1      28.274  42.638  25.861  1.00  0.00     0.053 C 
BRANCH   4   5
ATOM      5  C   UNL     1      29.604  43.092  26.379  1.00  0.00     0.041 C 
ATOM      6  O   UNL     1      30.114  42.535  27.387  1.00  0.00    -0.550 OA
ATOM      7  O   UNL     1      30.295  44.107  25.731  1.00  0.00    -0.550 OA
ENDBRANCH   4   5
ENDBRANCH   3   4
ENDBRANCH   2   3
ENDBRANCH   1   2
BRANCH   1   8
ATOM      8  C   UNL     1      25.391  40.400  28.087  1.00  0.00     0.000 C 
BRANCH   8   9
ATOM      9  C   UNL     1      24.944  39.511  26.916  1.00  0.00     0.006 C 
BRANCH   9  10
ATOM     10  C   UNL     1      26.052  39.301  25.877  1.00  0.00     0.053 C 
BRANCH  10  11
ATOM     11  C   UNL     1      25.555  39.644  24.507  1.00  0.00     0.041 C 
ATOM     12  O   UNL     1      25.265  38.730  23.691  1.00  0.00    -0.550 OA
ATOM     13  O   UNL     1      25.367  40.973  24.149  1.00  0.00    -0.550 OA
ENDBRANCH  10  11
ENDBRANCH   9  10
ENDBRANCH   8   9
ENDBRANCH   1   8
TORSDOF 8
ENDMDL
MODEL 8
REMARK VINA RESULT:    -3.291      2.403      2.762
REMARK INTER + INTRA:          -5.371
REMARK INTER:                  -4.857
REMARK INTRA:                  -0.514
REMARK UNBOUND:                -0.541
REMARK SMILES O=C([O-])CCCCCCCC(=O)[O-]
REMARK SMILES IDX 7 1 6 2 5 3 4 4 2 5 1 6 3 7 8 8 9 9 10 10 11 11 12 12 13 13
REMARK H PARENT
REMARK Flexibility Score: inf
ROOT
ATOM      1  C   UNL     1      26.778  40.774  26.086  1.00  0.00     0.000 C 
ENDROOT
BRANCH   1   2
ATOM      2  C   UNL     1      26.340  41.934  26.993  1.00  0.00     0.000 C 
BRANCH   2   3
ATOM      3  C   UNL     1      27.071  43.251  26.674  1.00  0.00     0.006 C 
BRANCH   3   4
ATOM      4  C   UNL     1      28.312  43.088  25.783  1.00  0.00     0.053 C 
BRANCH   4   5
ATOM      5  C   UNL     1      29.585  43.287  26.548  1.00  0.00     0.041 C 
ATOM      6  O   UNL     1      29.892  42.499  27.481  1.00  0.00    -0.550 OA
ATOM      7  O   UNL     1      30.447  44.322  26.210  1.00  0.00    -0.550 OA
ENDBRANCH   4   5
ENDBRANCH   3   4
ENDBRANCH   2   3
ENDBRANCH   1   2
BRANCH   1   8
ATOM      8  C   UNL     1      25.561  40.003  25.554  1.00  0.00     0.000 C 
BRANCH   8   9
ATOM      9  C   UNL     1      24.876  39.156  26.638  1.00  0.00     0.006 C 
BRANCH   9  10
ATOM     10  C   UNL     1      25.874  38.336  27.465  1.00  0.00     0.053 C 
BRANCH  10  11
ATOM     11  C   UNL     1      25.641  38.552  28.928  1.00  0.00     0.041 C 
ATOM     12  O   UNL     1      26.002  37.681  29.762  1.00  0.00    -0.550 OA
ATOM     13  O   UNL     1      25.068  39.736  29.373  1.00  0.00    -0.550 OA
ENDBRANCH  10  11
ENDBRANCH   9  10
ENDBRANCH   8   9
ENDBRANCH   1   8
TORSDOF 8
ENDMDL
MODEL 9
REMARK VINA RESULT:    -3.257     16.848     17.986
REMARK INTER + INTRA:          -5.321
REMARK INTER:                  -4.888
REMARK INTRA:                  -0.433
REMARK UNBOUND:                -0.541
REMARK SMILES O=C([O-])CCCCCCCC(=O)[O-]
REMARK SMILES IDX 7 1 6 2 5 3 4 4 2 5 1 6 3 7 8 8 9 9 10 10 11 11 12 12 13 13
REMARK H PARENT
REMARK Flexibility Score: inf
ROOT
ATOM      1  C   UNL     1      28.469  49.893  39.877  1.00  0.00     0.000 C 
ENDROOT
BRANCH   1   2
ATOM      2  C   UNL     1      29.999  49.760  39.903  1.00  0.00     0.000 C 
BRANCH   2   3
ATOM      3  C   UNL     1      30.487  48.647  40.848  1.00  0.00     0.006 C 
BRANCH   3   4
ATOM      4  C   UNL     1      29.369  47.747  41.398  1.00  0.00     0.053 C 
BRANCH   4   5
ATOM      5  C   UNL     1      29.724  46.295  41.315  1.00  0.00     0.041 C 
ATOM      6  O   UNL     1      30.889  45.945  40.990  1.00  0.00    -0.550 OA
ATOM      7  O   UNL     1      28.777  45.327  41.626  1.00  0.00    -0.550 OA
ENDBRANCH   4   5
ENDBRANCH   3   4
ENDBRANCH   2   3
ENDBRANCH   1   2
BRANCH   1   8
ATOM      8  C   UNL     1      27.999  51.014  40.816  1.00  0.00     0.000 C 
BRANCH   8   9
ATOM      9  C   UNL     1      27.090  52.033  40.111  1.00  0.00     0.006 C 
BRANCH   9  10
ATOM     10  C   UNL     1      27.600  52.413  38.714  1.00  0.00     0.053 C 
BRANCH  10  11
ATOM     11  C   UNL     1      28.748  53.367  38.820  1.00  0.00     0.041 C 
ATOM     12  O   UNL     1      28.560  54.542  39.231  1.00  0.00    -0.550 OA
ATOM     13  O   UNL     1      30.034  52.943  38.510  1.00  0.00    -0.550 OA
ENDBRANCH  10  11
ENDBRANCH   9  10
ENDBRANCH   8   9
ENDBRANCH   1   8
TORSDOF 8
ENDMDL
