MODEL 1
REMARK VINA RESULT:    -4.768      0.000      0.000
REMARK INTER + INTRA:         -10.296
REMARK INTER:                  -8.392
REMARK INTRA:                  -1.903
REMARK UNBOUND:                -1.903
REMARK SMILES CCCCCCC=CCCCCCCCC(=O)[O-]
REMARK SMILES IDX 10 1 11 2 12 3 13 4 14 5 15 6 16 7 17 8 18 9 9 10 8 11 7 12
REMARK SMILES IDX 6 13 5 14 4 15 3 16 2 17 1 18
REMARK H PARENT
REMARK Flexibility Score: inf
ROOT
ATOM      1  C   UNL     1      25.983  24.703  57.115  1.00  0.00     0.004 C 
ENDROOT
BRANCH   1   2
ATOM      2  C   UNL     1      26.653  25.232  55.830  1.00  0.00     0.000 C 
BRANCH   2   3
ATOM      3  C   UNL     1      26.261  26.667  55.434  1.00  0.00     0.000 C 
BRANCH   3   4
ATOM      4  C   UNL     1      25.670  27.469  56.606  1.00  0.00     0.000 C 
BRANCH   4   5
ATOM      5  C   UNL     1      24.656  28.532  56.146  1.00  0.00     0.006 C 
BRANCH   5   6
ATOM      6  C   UNL     1      23.674  28.050  55.067  1.00  0.00     0.053 C 
BRANCH   6   7
ATOM      7  C   UNL     1      22.426  27.473  55.660  1.00  0.00     0.041 C 
ATOM      8  O   UNL     1      21.502  28.230  56.057  1.00  0.00    -0.550 OA
ATOM      9  O   UNL     1      22.297  26.096  55.805  1.00  0.00    -0.550 OA
ENDBRANCH   6   7
ENDBRANCH   5   6
ENDBRANCH   4   5
ENDBRANCH   3   4
ENDBRANCH   2   3
ENDBRANCH   1   2
BRANCH   1  10
ATOM     10  C   UNL     1      26.444  23.301  57.552  1.00  0.00     0.027 C 
BRANCH  10  11
ATOM     11  C   UNL     1      27.847  22.959  57.105  1.00  0.00    -0.031 C 
ATOM     12  C   UNL     1      28.177  21.971  56.252  1.00  0.00    -0.031 C 
BRANCH  12  13
ATOM     13  C   UNL     1      27.201  21.056  55.553  1.00  0.00     0.027 C 
BRANCH  13  14
ATOM     14  C   UNL     1      26.484  21.764  54.389  1.00  0.00     0.004 C 
BRANCH  14  15
ATOM     15  C   UNL     1      24.948  21.664  54.424  1.00  0.00     0.000 C 
BRANCH  15  16
ATOM     16  C   UNL     1      24.267  22.509  53.338  1.00  0.00    -0.000 C 
BRANCH  16  17
ATOM     17  C   UNL     1      23.975  23.925  53.848  1.00  0.00    -0.003 C 
ATOM     18  C   UNL     1      24.235  24.967  52.763  1.00  0.00     0.004 C 
ENDBRANCH  16  17
ENDBRANCH  15  16
ENDBRANCH  14  15
ENDBRANCH  13  14
ENDBRANCH  12  13
ENDBRANCH  10  11
ENDBRANCH   1  10
TORSDOF 13
ENDMDL
MODEL 2
REMARK VINA RESULT:    -4.671      6.592      9.135
REMARK INTER + INTRA:         -10.125
REMARK INTER:                  -7.652
REMARK INTRA:                  -2.473
REMARK UNBOUND:                -1.903
REMARK SMILES CCCCCCC=CCCCCCCCC(=O)[O-]
REMARK SMILES IDX 10 1 11 2 12 3 13 4 14 5 15 6 16 7 17 8 18 9 9 10 8 11 7 12
REMARK SMILES IDX 6 13 5 14 4 15 3 16 2 17 1 18
REMARK H PARENT
REMARK Flexibility Score: inf
ROOT
ATOM      1  C   UNL     1      14.660  27.582  57.766  1.00  0.00     0.004 C 
ENDROOT
BRANCH   1   2
ATOM      2  C   UNL     1      14.683  28.085  56.308  1.00  0.00     0.000 C 
BRANCH   2   3
ATOM      3  C   UNL     1      15.993  28.769  55.876  1.00  0.00     0.000 C 
BRANCH   3   4
ATOM      4  C   UNL     1      16.881  29.164  57.067  1.00  0.00     0.000 C 
BRANCH   4   5
ATOM      5  C   UNL     1      18.209  28.386  57.103  1.00  0.00     0.006 C 
BRANCH   5   6
ATOM      6  C   UNL     1      19.049  28.501  55.820  1.00  0.00     0.053 C 
BRANCH   6   7
ATOM      7  C   UNL     1      20.464  28.058  56.034  1.00  0.00     0.041 C 
ATOM      8  O   UNL     1      21.215  28.690  56.822  1.00  0.00    -0.550 OA
ATOM      9  O   UNL     1      20.963  26.964  55.337  1.00  0.00    -0.550 OA
ENDBRANCH   6   7
ENDBRANCH   5   6
ENDBRANCH   4   5
ENDBRANCH   3   4
ENDBRANCH   2   3
ENDBRANCH   1   2
BRANCH   1  10
ATOM     10  C   UNL     1      14.595  26.052  57.918  1.00  0.00     0.027 C 
BRANCH  10  11
ATOM     11  C   UNL     1      15.934  25.415  58.210  1.00  0.00    -0.031 C 
ATOM     12  C   UNL     1      16.793  24.942  57.288  1.00  0.00    -0.031 C 
BRANCH  12  13
ATOM     13  C   UNL     1      16.593  25.004  55.793  1.00  0.00     0.027 C 
BRANCH  13  14
ATOM     14  C   UNL     1      17.929  25.124  55.039  1.00  0.00     0.004 C 
BRANCH  14  15
ATOM     15  C   UNL     1      17.796  25.469  53.544  1.00  0.00     0.000 C 
BRANCH  15  16
ATOM     16  C   UNL     1      16.415  26.035  53.181  1.00  0.00    -0.000 C 
BRANCH  16  17
ATOM     17  C   UNL     1      16.547  27.386  52.468  1.00  0.00    -0.003 C 
ATOM     18  C   UNL     1      15.190  27.888  51.982  1.00  0.00     0.004 C 
ENDBRANCH  16  17
ENDBRANCH  15  16
ENDBRANCH  14  15
ENDBRANCH  13  14
ENDBRANCH  12  13
ENDBRANCH  10  11
ENDBRANCH   1  10
TORSDOF 13
ENDMDL
MODEL 3
REMARK VINA RESULT:    -4.659      7.328      9.314
REMARK INTER + INTRA:         -10.104
REMARK INTER:                  -7.996
REMARK INTRA:                  -2.108
REMARK UNBOUND:                -1.903
REMARK SMILES CCCCCCC=CCCCCCCCC(=O)[O-]
REMARK SMILES IDX 10 1 11 2 12 3 13 4 14 5 15 6 16 7 17 8 18 9 9 10 8 11 7 12
REMARK SMILES IDX 6 13 5 14 4 15 3 16 2 17 1 18
REMARK H PARENT
REMARK Flexibility Score: inf
ROOT
ATOM      1  C   UNL     1      15.671  27.578  52.278  1.00  0.00     0.004 C 
ENDROOT
BRANCH   1   2
ATOM      2  C   UNL     1      16.467  28.486  53.237  1.00  0.00     0.000 C 
BRANCH   2   3
ATOM      3  C   UNL     1      15.958  28.505  54.690  1.00  0.00     0.000 C 
BRANCH   3   4
ATOM      4  C   UNL     1      17.099  28.550  55.721  1.00  0.00     0.000 C 
BRANCH   4   5
ATOM      5  C   UNL     1      18.492  28.532  55.067  1.00  0.00     0.006 C 
BRANCH   5   6
ATOM      6  C   UNL     1      19.660  28.710  56.051  1.00  0.00     0.053 C 
BRANCH   6   7
ATOM      7  C   UNL     1      19.483  29.917  56.920  1.00  0.00     0.041 C 
ATOM      8  O   UNL     1      19.553  31.072  56.423  1.00  0.00    -0.550 OA
ATOM      9  O   UNL     1      19.273  29.767  58.286  1.00  0.00    -0.550 OA
ENDBRANCH   6   7
ENDBRANCH   5   6
ENDBRANCH   4   5
ENDBRANCH   3   4
ENDBRANCH   2   3
ENDBRANCH   1   2
BRANCH   1  10
ATOM     10  C   UNL     1      15.848  26.069  52.526  1.00  0.00     0.027 C 
BRANCH  10  11
ATOM     11  C   UNL     1      17.272  25.591  52.360  1.00  0.00    -0.031 C 
ATOM     12  C   UNL     1      17.923  24.765  53.201  1.00  0.00    -0.031 C 
BRANCH  12  13
ATOM     13  C   UNL     1      17.332  24.132  54.438  1.00  0.00     0.027 C 
BRANCH  13  14
ATOM     14  C   UNL     1      17.549  25.004  55.688  1.00  0.00     0.004 C 
BRANCH  14  15
ATOM     15  C   UNL     1      16.671  24.625  56.896  1.00  0.00     0.000 C 
BRANCH  15  16
ATOM     16  C   UNL     1      16.566  25.750  57.936  1.00  0.00    -0.000 C 
BRANCH  16  17
ATOM     17  C   UNL     1      15.100  26.115  58.202  1.00  0.00    -0.003 C 
ATOM     18  C   UNL     1      14.282  26.088  56.914  1.00  0.00     0.004 C 
ENDBRANCH  16  17
ENDBRANCH  15  16
ENDBRANCH  14  15
ENDBRANCH  13  14
ENDBRANCH  12  13
ENDBRANCH  10  11
ENDBRANCH   1  10
TORSDOF 13
ENDMDL
MODEL 4
REMARK VINA RESULT:    -4.646      7.868     10.745
REMARK INTER + INTRA:         -10.079
REMARK INTER:                  -8.183
REMARK INTRA:                  -1.896
REMARK UNBOUND:                -1.903
REMARK SMILES CCCCCCC=CCCCCCCCC(=O)[O-]
REMARK SMILES IDX 10 1 11 2 12 3 13 4 14 5 15 6 16 7 17 8 18 9 9 10 8 11 7 12
REMARK SMILES IDX 6 13 5 14 4 15 3 16 2 17 1 18
REMARK H PARENT
REMARK Flexibility Score: inf
ROOT
ATOM      1  C   UNL     1      13.720  26.434  57.087  1.00  0.00     0.004 C 
ENDROOT
BRANCH   1   2
ATOM      2  C   UNL     1      14.149  26.017  58.508  1.00  0.00     0.000 C 
BRANCH   2   3
ATOM      3  C   UNL     1      15.272  24.966  58.567  1.00  0.00     0.000 C 
BRANCH   3   4
ATOM      4  C   UNL     1      16.580  25.453  57.923  1.00  0.00     0.000 C 
BRANCH   4   5
ATOM      5  C   UNL     1      16.945  24.668  56.650  1.00  0.00     0.006 C 
BRANCH   5   6
ATOM      6  C   UNL     1      17.618  25.510  55.553  1.00  0.00     0.053 C 
BRANCH   6   7
ATOM      7  C   UNL     1      17.706  24.772  54.253  1.00  0.00     0.041 C 
ATOM      8  O   UNL     1      18.012  25.383  53.195  1.00  0.00    -0.550 OA
ATOM      9  O   UNL     1      17.419  23.413  54.203  1.00  0.00    -0.550 OA
ENDBRANCH   6   7
ENDBRANCH   5   6
ENDBRANCH   4   5
ENDBRANCH   3   4
ENDBRANCH   2   3
ENDBRANCH   1   2
BRANCH   1  10
ATOM     10  C   UNL     1      14.177  27.841  56.663  1.00  0.00     0.027 C 
BRANCH  10  11
ATOM     11  C   UNL     1      14.730  28.667  57.802  1.00  0.00    -0.031 C 
ATOM     12  C   UNL     1      15.984  29.152  57.879  1.00  0.00    -0.031 C 
BRANCH  12  13
ATOM     13  C   UNL     1      17.048  28.997  56.819  1.00  0.00     0.027 C 
BRANCH  13  14
ATOM     14  C   UNL     1      18.411  28.618  57.426  1.00  0.00     0.004 C 
BRANCH  14  15
ATOM     15  C   UNL     1      19.060  29.719  58.286  1.00  0.00     0.000 C 
BRANCH  15  16
ATOM     16  C   UNL     1      19.659  30.858  57.449  1.00  0.00    -0.000 C 
BRANCH  16  17
ATOM     17  C   UNL     1      19.366  32.221  58.089  1.00  0.00    -0.003 C 
ATOM     18  C   UNL     1      17.965  32.257  58.693  1.00  0.00     0.004 C 
ENDBRANCH  16  17
ENDBRANCH  15  16
ENDBRANCH  14  15
ENDBRANCH  13  14
ENDBRANCH  12  13
ENDBRANCH  10  11
ENDBRANCH   1  10
TORSDOF 13
ENDMDL
MODEL 5
REMARK VINA RESULT:    -4.634      7.761      9.746
REMARK INTER + INTRA:         -10.058
REMARK INTER:                  -7.685
REMARK INTRA:                  -2.374
REMARK UNBOUND:                -1.903
REMARK SMILES CCCCCCC=CCCCCCCCC(=O)[O-]
REMARK SMILES IDX 10 1 11 2 12 3 13 4 14 5 15 6 16 7 17 8 18 9 9 10 8 11 7 12
REMARK SMILES IDX 6 13 5 14 4 15 3 16 2 17 1 18
REMARK H PARENT
REMARK Flexibility Score: inf
ROOT
ATOM      1  C   UNL     1      15.547  25.383  58.442  1.00  0.00     0.004 C 
ENDROOT
BRANCH   1   2
ATOM      2  C   UNL     1      14.201  26.027  58.050  1.00  0.00     0.000 C 
BRANCH   2   3
ATOM      3  C   UNL     1      14.078  27.527  58.372  1.00  0.00     0.000 C 
BRANCH   3   4
ATOM      4  C   UNL     1      14.043  28.407  57.112  1.00  0.00     0.000 C 
BRANCH   4   5
ATOM      5  C   UNL     1      15.130  29.497  57.118  1.00  0.00     0.006 C 
BRANCH   5   6
ATOM      6  C   UNL     1      16.178  29.345  58.234  1.00  0.00     0.053 C 
BRANCH   6   7
ATOM      7  C   UNL     1      17.576  29.481  57.714  1.00  0.00     0.041 C 
ATOM      8  O   UNL     1      18.529  28.903  58.299  1.00  0.00    -0.550 OA
ATOM      9  O   UNL     1      17.831  30.274  56.601  1.00  0.00    -0.550 OA
ENDBRANCH   6   7
ENDBRANCH   5   6
ENDBRANCH   4   5
ENDBRANCH   3   4
ENDBRANCH   2   3
ENDBRANCH   1   2
BRANCH   1  10
ATOM     10  C   UNL     1      16.416  24.934  57.253  1.00  0.00     0.027 C 
BRANCH  10  11
ATOM     11  C   UNL     1      17.135  26.071  56.564  1.00  0.00    -0.031 C 
ATOM     12  C   UNL     1      16.765  26.639  55.401  1.00  0.00    -0.031 C 
BRANCH  12  13
ATOM     13  C   UNL     1      15.541  26.272  54.598  1.00  0.00     0.027 C 
BRANCH  13  14
ATOM     14  C   UNL     1      15.777  26.429  53.085  1.00  0.00     0.004 C 
BRANCH  14  15
ATOM     15  C   UNL     1      17.246  26.283  52.646  1.00  0.00     0.000 C 
BRANCH  15  16
ATOM     16  C   UNL     1      17.571  24.885  52.099  1.00  0.00    -0.000 C 
BRANCH  16  17
ATOM     17  C   UNL     1      18.433  24.094  53.091  1.00  0.00    -0.003 C 
ATOM     18  C   UNL     1      17.565  23.293  54.058  1.00  0.00     0.004 C 
ENDBRANCH  16  17
ENDBRANCH  15  16
ENDBRANCH  14  15
ENDBRANCH  13  14
ENDBRANCH  12  13
ENDBRANCH  10  11
ENDBRANCH   1  10
TORSDOF 13
ENDMDL
MODEL 6
REMARK VINA RESULT:    -4.630      2.307      3.478
REMARK INTER + INTRA:         -10.053
REMARK INTER:                  -7.498
REMARK INTRA:                  -2.555
REMARK UNBOUND:                -1.903
REMARK SMILES CCCCCCC=CCCCCCCCC(=O)[O-]
REMARK SMILES IDX 10 1 11 2 12 3 13 4 14 5 15 6 16 7 17 8 18 9 9 10 8 11 7 12
REMARK SMILES IDX 6 13 5 14 4 15 3 16 2 17 1 18
REMARK H PARENT
REMARK Flexibility Score: inf
ROOT
ATOM      1  C   UNL     1      25.921  25.210  57.258  1.00  0.00     0.004 C 
ENDROOT
BRANCH   1   2
ATOM      2  C   UNL     1      25.881  26.310  56.179  1.00  0.00     0.000 C 
BRANCH   2   3
ATOM      3  C   UNL     1      26.865  26.114  55.011  1.00  0.00     0.000 C 
BRANCH   3   4
ATOM      4  C   UNL     1      26.168  26.096  53.640  1.00  0.00     0.000 C 
BRANCH   4   5
ATOM      5  C   UNL     1      24.657  25.820  53.745  1.00  0.00     0.006 C 
BRANCH   5   6
ATOM      6  C   UNL     1      24.262  24.349  53.533  1.00  0.00     0.053 C 
BRANCH   6   7
ATOM      7  C   UNL     1      23.631  24.125  52.193  1.00  0.00     0.041 C 
ATOM      8  O   UNL     1      22.423  23.778  52.111  1.00  0.00    -0.550 OA
ATOM      9  O   UNL     1      24.386  24.268  51.035  1.00  0.00    -0.550 OA
ENDBRANCH   6   7
ENDBRANCH   5   6
ENDBRANCH   4   5
ENDBRANCH   3   4
ENDBRANCH   2   3
ENDBRANCH   1   2
BRANCH   1  10
ATOM     10  C   UNL     1      26.160  23.788  56.719  1.00  0.00     0.027 C 
BRANCH  10  11
ATOM     11  C   UNL     1      27.080  22.958  57.584  1.00  0.00    -0.031 C 
ATOM     12  C   UNL     1      28.390  22.749  57.356  1.00  0.00    -0.031 C 
BRANCH  12  13
ATOM     13  C   UNL     1      29.186  23.342  56.218  1.00  0.00     0.027 C 
BRANCH  13  14
ATOM     14  C   UNL     1      29.143  22.454  54.963  1.00  0.00     0.004 C 
BRANCH  14  15
ATOM     15  C   UNL     1      28.350  23.047  53.782  1.00  0.00     0.000 C 
BRANCH  15  16
ATOM     16  C   UNL     1      27.231  22.120  53.286  1.00  0.00    -0.000 C 
BRANCH  16  17
ATOM     17  C   UNL     1      26.951  21.006  54.302  1.00  0.00    -0.003 C 
ATOM     18  C   UNL     1      25.465  20.931  54.642  1.00  0.00     0.004 C 
ENDBRANCH  16  17
ENDBRANCH  15  16
ENDBRANCH  14  15
ENDBRANCH  13  14
ENDBRANCH  12  13
ENDBRANCH  10  11
ENDBRANCH   1  10
TORSDOF 13
ENDMDL
MODEL 7
REMARK VINA RESULT:    -4.615      3.206      5.593
REMARK INTER + INTRA:         -10.026
REMARK INTER:                  -7.561
REMARK INTRA:                  -2.465
REMARK UNBOUND:                -1.903
REMARK SMILES CCCCCCC=CCCCCCCCC(=O)[O-]
REMARK SMILES IDX 10 1 11 2 12 3 13 4 14 5 15 6 16 7 17 8 18 9 9 10 8 11 7 12
REMARK SMILES IDX 6 13 5 14 4 15 3 16 2 17 1 18
REMARK H PARENT
REMARK Flexibility Score: inf
ROOT
ATOM      1  C   UNL     1      26.269  26.766  55.607  1.00  0.00     0.004 C 
ENDROOT
BRANCH   1   2
ATOM      2  C   UNL     1      26.684  25.314  55.917  1.00  0.00     0.000 C 
BRANCH   2   3
ATOM      3  C   UNL     1      26.018  24.697  57.160  1.00  0.00     0.000 C 
BRANCH   3   4
ATOM      4  C   UNL     1      26.391  23.219  57.365  1.00  0.00     0.000 C 
BRANCH   4   5
ATOM      5  C   UNL     1      26.818  22.527  56.058  1.00  0.00     0.006 C 
BRANCH   5   6
ATOM      6  C   UNL     1      28.150  21.764  56.147  1.00  0.00     0.053 C 
BRANCH   6   7
ATOM      7  C   UNL     1      29.288  22.553  55.575  1.00  0.00     0.041 C 
ATOM      8  O   UNL     1      29.737  23.556  56.189  1.00  0.00    -0.550 OA
ATOM      9  O   UNL     1      29.831  22.198  54.345  1.00  0.00    -0.550 OA
ENDBRANCH   6   7
ENDBRANCH   5   6
ENDBRANCH   4   5
ENDBRANCH   3   4
ENDBRANCH   2   3
ENDBRANCH   1   2
BRANCH   1  10
ATOM     10  C   UNL     1      25.272  26.916  54.443  1.00  0.00     0.027 C 
BRANCH  10  11
ATOM     11  C   UNL     1      23.866  26.483  54.790  1.00  0.00    -0.031 C 
ATOM     12  C   UNL     1      23.291  25.323  54.420  1.00  0.00    -0.031 C 
BRANCH  12  13
ATOM     13  C   UNL     1      23.964  24.226  53.630  1.00  0.00     0.027 C 
BRANCH  13  14
ATOM     14  C   UNL     1      24.084  24.584  52.138  1.00  0.00     0.004 C 
BRANCH  14  15
ATOM     15  C   UNL     1      25.512  24.497  51.569  1.00  0.00     0.000 C 
BRANCH  15  16
ATOM     16  C   UNL     1      26.490  23.780  52.512  1.00  0.00    -0.000 C 
BRANCH  16  17
ATOM     17  C   UNL     1      27.838  24.509  52.561  1.00  0.00    -0.003 C 
ATOM     18  C   UNL     1      27.759  25.863  51.861  1.00  0.00     0.004 C 
ENDBRANCH  16  17
ENDBRANCH  15  16
ENDBRANCH  14  15
ENDBRANCH  13  14
ENDBRANCH  12  13
ENDBRANCH  10  11
ENDBRANCH   1  10
TORSDOF 13
ENDMDL
MODEL 8
REMARK VINA RESULT:    -4.561      7.034     10.730
REMARK INTER + INTRA:          -9.931
REMARK INTER:                  -7.772
REMARK INTRA:                  -2.159
REMARK UNBOUND:                -1.903
REMARK SMILES CCCCCCC=CCCCCCCCC(=O)[O-]
REMARK SMILES IDX 10 1 11 2 12 3 13 4 14 5 15 6 16 7 17 8 18 9 9 10 8 11 7 12
REMARK SMILES IDX 6 13 5 14 4 15 3 16 2 17 1 18
REMARK H PARENT
REMARK Flexibility Score: inf
ROOT
ATOM      1  C   UNL     1      17.047  26.759  56.194  1.00  0.00     0.004 C 
ENDROOT
BRANCH   1   2
ATOM      2  C   UNL     1      16.447  27.056  54.805  1.00  0.00     0.000 C 
BRANCH   2   3
ATOM      3  C   UNL     1      15.851  25.836  54.079  1.00  0.00     0.000 C 
BRANCH   3   4
ATOM      4  C   UNL     1      16.103  25.863  52.562  1.00  0.00     0.000 C 
BRANCH   4   5
ATOM      5  C   UNL     1      17.362  25.077  52.154  1.00  0.00     0.006 C 
BRANCH   5   6
ATOM      6  C   UNL     1      17.906  24.138  53.243  1.00  0.00     0.053 C 
BRANCH   6   7
ATOM      7  C   UNL     1      19.327  24.453  53.597  1.00  0.00     0.041 C 
ATOM      8  O   UNL     1      19.622  25.564  54.111  1.00  0.00    -0.550 OA
ATOM      9  O   UNL     1      20.332  23.530  53.330  1.00  0.00    -0.550 OA
ENDBRANCH   6   7
ENDBRANCH   5   6
ENDBRANCH   4   5
ENDBRANCH   3   4
ENDBRANCH   2   3
ENDBRANCH   1   2
BRANCH   1  10
ATOM     10  C   UNL     1      16.715  25.365  56.754  1.00  0.00     0.027 C 
BRANCH  10  11
ATOM     11  C   UNL     1      16.038  25.401  58.105  1.00  0.00    -0.031 C 
ATOM     12  C   UNL     1      14.757  25.752  58.329  1.00  0.00    -0.031 C 
BRANCH  12  13
ATOM     13  C   UNL     1      13.755  26.129  57.264  1.00  0.00     0.027 C 
BRANCH  13  14
ATOM     14  C   UNL     1      13.490  27.645  57.236  1.00  0.00     0.004 C 
BRANCH  14  15
ATOM     15  C   UNL     1      13.444  28.315  58.623  1.00  0.00     0.000 C 
BRANCH  15  16
ATOM     16  C   UNL     1      14.244  29.625  58.682  1.00  0.00    -0.000 C 
BRANCH  16  17
ATOM     17  C   UNL     1      15.398  29.609  57.673  1.00  0.00    -0.003 C 
ATOM     18  C   UNL     1      16.746  29.758  58.372  1.00  0.00     0.004 C 
ENDBRANCH  16  17
ENDBRANCH  15  16
ENDBRANCH  14  15
ENDBRANCH  13  14
ENDBRANCH  12  13
ENDBRANCH  10  11
ENDBRANCH   1  10
TORSDOF 13
ENDMDL
MODEL 9
REMARK VINA RESULT:    -4.535      8.088      9.751
REMARK INTER + INTRA:          -9.884
REMARK INTER:                  -7.819
REMARK INTRA:                  -2.065
REMARK UNBOUND:                -1.903
REMARK SMILES CCCCCCC=CCCCCCCCC(=O)[O-]
REMARK SMILES IDX 10 1 11 2 12 3 13 4 14 5 15 6 16 7 17 8 18 9 9 10 8 11 7 12
REMARK SMILES IDX 6 13 5 14 4 15 3 16 2 17 1 18
REMARK H PARENT
REMARK Flexibility Score: inf
ROOT
ATOM      1  C   UNL     1      13.705  27.692  57.378  1.00  0.00     0.004 C 
ENDROOT
BRANCH   1   2
ATOM      2  C   UNL     1      14.766  28.512  58.139  1.00  0.00     0.000 C 
BRANCH   2   3
ATOM      3  C   UNL     1      15.897  29.085  57.266  1.00  0.00     0.000 C 
BRANCH   3   4
ATOM      4  C   UNL     1      16.957  29.841  58.084  1.00  0.00     0.000 C 
BRANCH   4   5
ATOM      5  C   UNL     1      18.297  29.087  58.163  1.00  0.00     0.006 C 
BRANCH   5   6
ATOM      6  C   UNL     1      19.419  29.690  57.301  1.00  0.00     0.053 C 
BRANCH   6   7
ATOM      7  C   UNL     1      19.453  31.185  57.390  1.00  0.00     0.041 C 
ATOM      8  O   UNL     1      19.713  31.750  58.484  1.00  0.00    -0.550 OA
ATOM      9  O   UNL     1      19.165  31.955  56.269  1.00  0.00    -0.550 OA
ENDBRANCH   6   7
ENDBRANCH   5   6
ENDBRANCH   4   5
ENDBRANCH   3   4
ENDBRANCH   2   3
ENDBRANCH   1   2
BRANCH   1  10
ATOM     10  C   UNL     1      13.847  26.166  57.521  1.00  0.00     0.027 C 
BRANCH  10  11
ATOM     11  C   UNL     1      14.934  25.746  58.483  1.00  0.00    -0.031 C 
ATOM     12  C   UNL     1      16.113  25.194  58.138  1.00  0.00    -0.031 C 
BRANCH  12  13
ATOM     13  C   UNL     1      16.579  24.936  56.726  1.00  0.00     0.027 C 
BRANCH  13  14
ATOM     14  C   UNL     1      17.599  25.990  56.256  1.00  0.00     0.004 C 
BRANCH  14  15
ATOM     15  C   UNL     1      17.287  26.619  54.886  1.00  0.00     0.000 C 
BRANCH  15  16
ATOM     16  C   UNL     1      15.819  26.450  54.468  1.00  0.00    -0.000 C 
BRANCH  16  17
ATOM     17  C   UNL     1      15.694  25.489  53.280  1.00  0.00    -0.003 C 
ATOM     18  C   UNL     1      16.773  25.760  52.235  1.00  0.00     0.004 C 
ENDBRANCH  16  17
ENDBRANCH  15  16
ENDBRANCH  14  15
ENDBRANCH  13  14
ENDBRANCH  12  13
ENDBRANCH  10  11
ENDBRANCH   1  10
TORSDOF 13
ENDMDL
