MODEL 1
REMARK VINA RESULT:    -4.881      0.000      0.000
REMARK INTER + INTRA:          -8.051
REMARK INTER:                  -7.164
REMARK INTRA:                  -0.887
REMARK UNBOUND:                -0.887
REMARK SMILES CCCOC(=O)c1ccccc1C(=O)OCCC
REMARK SMILES IDX 7 1 8 2 9 3 10 4 11 5 12 6 5 7 6 8 4 9 3 10 2 11 1 12 13 13
REMARK SMILES IDX 14 14 15 15 16 16 17 17 18 18
REMARK H PARENT
REMARK Flexibility Score: inf
ROOT
ATOM      1  C   UNL     1      34.503   1.670  -4.097  1.00  0.00     0.074 A 
ATOM      2  C   UNL     1      34.595   3.022  -4.473  1.00  0.00     0.016 A 
ATOM      3  C   UNL     1      35.643   3.821  -4.013  1.00  0.00     0.001 A 
ATOM      4  C   UNL     1      36.614   3.283  -3.172  1.00  0.00     0.001 A 
ATOM      5  C   UNL     1      36.529   1.951  -2.768  1.00  0.00     0.016 A 
ATOM      6  C   UNL     1      35.470   1.132  -3.201  1.00  0.00     0.074 A 
ENDROOT
BRANCH   1   7
ATOM      7  C   UNL     1      33.430   0.855  -4.712  1.00  0.00     0.339 C 
ATOM      8  O   UNL     1      33.623   0.272  -5.813  1.00  0.00    -0.246 OA
BRANCH   7   9
ATOM      9  O   UNL     1      32.180   0.784  -4.089  1.00  0.00    -0.462 OA
BRANCH   9  10
ATOM     10  C   UNL     1      31.415  -0.416  -4.033  1.00  0.00     0.233 C 
BRANCH  10  11
ATOM     11  C   UNL     1      29.931  -0.085  -3.881  1.00  0.00     0.038 C 
ATOM     12  C   UNL     1      29.684   0.895  -2.736  1.00  0.00     0.007 C 
ENDBRANCH  10  11
ENDBRANCH   9  10
ENDBRANCH   7   9
ENDBRANCH   1   7
BRANCH   6  13
ATOM     13  C   UNL     1      35.380  -0.237  -2.641  1.00  0.00     0.339 C 
ATOM     14  O   UNL     1      34.453  -0.535  -1.839  1.00  0.00    -0.246 OA
BRANCH  13  15
ATOM     15  O   UNL     1      36.370  -1.176  -2.960  1.00  0.00    -0.462 OA
BRANCH  15  16
ATOM     16  C   UNL     1      36.093  -2.513  -3.374  1.00  0.00     0.233 C 
BRANCH  16  17
ATOM     17  C   UNL     1      35.500  -2.542  -4.787  1.00  0.00     0.038 C 
ATOM     18  C   UNL     1      34.042  -2.992  -4.802  1.00  0.00     0.007 C 
ENDBRANCH  16  17
ENDBRANCH  15  16
ENDBRANCH  13  15
ENDBRANCH   6  13
TORSDOF 8
ENDMDL
MODEL 2
REMARK VINA RESULT:    -4.820      0.482      4.338
REMARK INTER + INTRA:          -7.961
REMARK INTER:                  -7.094
REMARK INTRA:                  -0.866
REMARK UNBOUND:                -0.887
REMARK SMILES CCCOC(=O)c1ccccc1C(=O)OCCC
REMARK SMILES IDX 7 1 8 2 9 3 10 4 11 5 12 6 5 7 6 8 4 9 3 10 2 11 1 12 13 13
REMARK SMILES IDX 14 14 15 15 16 16 17 17 18 18
REMARK H PARENT
REMARK Flexibility Score: inf
ROOT
ATOM      1  C   UNL     1      35.675   1.145  -3.189  1.00  0.00     0.074 A 
ATOM      2  C   UNL     1      36.717   2.040  -2.885  1.00  0.00     0.016 A 
ATOM      3  C   UNL     1      36.650   3.376  -3.283  1.00  0.00     0.001 A 
ATOM      4  C   UNL     1      35.543   3.839  -3.991  1.00  0.00     0.001 A 
ATOM      5  C   UNL     1      34.509   2.964  -4.323  1.00  0.00     0.016 A 
ATOM      6  C   UNL     1      34.565   1.608  -3.952  1.00  0.00     0.074 A 
ENDROOT
BRANCH   1   7
ATOM      7  C   UNL     1      35.761  -0.227  -2.639  1.00  0.00     0.339 C 
ATOM      8  O   UNL     1      35.183  -0.518  -1.556  1.00  0.00    -0.246 OA
BRANCH   7   9
ATOM      9  O   UNL     1      36.538  -1.184  -3.299  1.00  0.00    -0.462 OA
BRANCH   9  10
ATOM     10  C   UNL     1      36.091  -2.518  -3.522  1.00  0.00     0.233 C 
BRANCH  10  11
ATOM     11  C   UNL     1      35.318  -2.599  -4.838  1.00  0.00     0.038 C 
ATOM     12  C   UNL     1      33.863  -3.010  -4.616  1.00  0.00     0.007 C 
ENDBRANCH  10  11
ENDBRANCH   9  10
ENDBRANCH   7   9
ENDBRANCH   1   7
BRANCH   6  13
ATOM     13  C   UNL     1      33.488   0.713  -4.437  1.00  0.00     0.339 C 
ATOM     14  O   UNL     1      33.456   0.357  -5.647  1.00  0.00    -0.246 OA
BRANCH  13  15
ATOM     15  O   UNL     1      32.472   0.319  -3.556  1.00  0.00    -0.462 OA
BRANCH  15  16
ATOM     16  C   UNL     1      31.123   0.078  -3.955  1.00  0.00     0.233 C 
BRANCH  16  17
ATOM     17  C   UNL     1      30.146   0.394  -2.817  1.00  0.00     0.038 C 
ATOM     18  C   UNL     1      28.938   1.199  -3.287  1.00  0.00     0.007 C 
ENDBRANCH  16  17
ENDBRANCH  15  16
ENDBRANCH  13  15
ENDBRANCH   6  13
TORSDOF 8
ENDMDL
MODEL 3
REMARK VINA RESULT:    -4.804      1.550      3.310
REMARK INTER + INTRA:          -7.937
REMARK INTER:                  -6.782
REMARK INTRA:                  -1.155
REMARK UNBOUND:                -0.887
REMARK SMILES CCCOC(=O)c1ccccc1C(=O)OCCC
REMARK SMILES IDX 7 1 8 2 9 3 10 4 11 5 12 6 5 7 6 8 4 9 3 10 2 11 1 12 13 13
REMARK SMILES IDX 14 14 15 15 16 16 17 17 18 18
REMARK H PARENT
REMARK Flexibility Score: inf
ROOT
ATOM      1  C   UNL     1      35.397   0.736  -3.585  1.00  0.00     0.074 A 
ATOM      2  C   UNL     1      36.471   1.598  -3.296  1.00  0.00     0.016 A 
ATOM      3  C   UNL     1      36.379   2.965  -3.560  1.00  0.00     0.001 A 
ATOM      4  C   UNL     1      35.216   3.493  -4.115  1.00  0.00     0.001 A 
ATOM      5  C   UNL     1      34.148   2.653  -4.431  1.00  0.00     0.016 A 
ATOM      6  C   UNL     1      34.226   1.268  -4.195  1.00  0.00     0.074 A 
ENDROOT
BRANCH   1   7
ATOM      7  C   UNL     1      35.522  -0.682  -3.177  1.00  0.00     0.339 C 
ATOM      8  O   UNL     1      36.278  -1.466  -3.813  1.00  0.00    -0.246 OA
BRANCH   7   9
ATOM      9  O   UNL     1      34.748  -1.161  -2.114  1.00  0.00    -0.462 OA
BRANCH   9  10
ATOM     10  C   UNL     1      35.045  -0.867  -0.753  1.00  0.00     0.233 C 
BRANCH  10  11
ATOM     11  C   UNL     1      33.751  -0.715   0.046  1.00  0.00     0.038 C 
ATOM     12  C   UNL     1      32.524  -0.693  -0.864  1.00  0.00     0.007 C 
ENDBRANCH  10  11
ENDBRANCH   9  10
ENDBRANCH   7   9
ENDBRANCH   1   7
BRANCH   6  13
ATOM     13  C   UNL     1      33.102   0.423  -4.661  1.00  0.00     0.339 C 
ATOM     14  O   UNL     1      31.978   0.491  -4.093  1.00  0.00    -0.246 OA
BRANCH  13  15
ATOM     15  O   UNL     1      33.317  -0.500  -5.694  1.00  0.00    -0.462 OA
BRANCH  15  16
ATOM     16  C   UNL     1      32.596  -1.724  -5.829  1.00  0.00     0.233 C 
BRANCH  16  17
ATOM     17  C   UNL     1      33.305  -2.866  -5.093  1.00  0.00     0.038 C 
ATOM     18  C   UNL     1      32.528  -3.347  -3.870  1.00  0.00     0.007 C 
ENDBRANCH  16  17
ENDBRANCH  15  16
ENDBRANCH  13  15
ENDBRANCH   6  13
TORSDOF 8
ENDMDL
MODEL 4
REMARK VINA RESULT:    -4.760      1.737      4.012
REMARK INTER + INTRA:          -7.873
REMARK INTER:                  -6.774
REMARK INTRA:                  -1.099
REMARK UNBOUND:                -0.887
REMARK SMILES CCCOC(=O)c1ccccc1C(=O)OCCC
REMARK SMILES IDX 7 1 8 2 9 3 10 4 11 5 12 6 5 7 6 8 4 9 3 10 2 11 1 12 13 13
REMARK SMILES IDX 14 14 15 15 16 16 17 17 18 18
REMARK H PARENT
REMARK Flexibility Score: inf
ROOT
ATOM      1  C   UNL     1      35.458   0.819  -3.373  1.00  0.00     0.074 A 
ATOM      2  C   UNL     1      36.064   2.089  -3.367  1.00  0.00     0.016 A 
ATOM      3  C   UNL     1      35.503   3.151  -4.078  1.00  0.00     0.001 A 
ATOM      4  C   UNL     1      34.331   2.961  -4.807  1.00  0.00     0.001 A 
ATOM      5  C   UNL     1      33.727   1.705  -4.846  1.00  0.00     0.016 A 
ATOM      6  C   UNL     1      34.286   0.614  -4.154  1.00  0.00     0.074 A 
ENDROOT
BRANCH   1   7
ATOM      7  C   UNL     1      36.045  -0.229  -2.507  1.00  0.00     0.339 C 
ATOM      8  O   UNL     1      36.881  -1.049  -2.975  1.00  0.00    -0.246 OA
BRANCH   7   9
ATOM      9  O   UNL     1      35.619  -0.340  -1.179  1.00  0.00    -0.462 OA
BRANCH   9  10
ATOM     10  C   UNL     1      34.708  -1.345  -0.745  1.00  0.00     0.233 C 
BRANCH  10  11
ATOM     11  C   UNL     1      33.387  -0.707  -0.319  1.00  0.00     0.038 C 
ATOM     12  C   UNL     1      32.782  -1.411   0.893  1.00  0.00     0.007 C 
ENDBRANCH  10  11
ENDBRANCH   9  10
ENDBRANCH   7   9
ENDBRANCH   1   7
BRANCH   6  13
ATOM     13  C   UNL     1      33.656  -0.715  -4.334  1.00  0.00     0.339 C 
ATOM     14  O   UNL     1      34.085  -1.507  -5.217  1.00  0.00    -0.246 OA
BRANCH  13  15
ATOM     15  O   UNL     1      32.540  -1.057  -3.559  1.00  0.00    -0.462 OA
BRANCH  15  16
ATOM     16  C   UNL     1      31.191  -0.838  -3.968  1.00  0.00     0.233 C 
BRANCH  16  17
ATOM     17  C   UNL     1      30.609   0.415  -3.305  1.00  0.00     0.038 C 
ATOM     18  C   UNL     1      30.104   0.149  -1.889  1.00  0.00     0.007 C 
ENDBRANCH  16  17
ENDBRANCH  15  16
ENDBRANCH  13  15
ENDBRANCH   6  13
TORSDOF 8
ENDMDL
MODEL 5
REMARK VINA RESULT:    -4.751      1.581      2.815
REMARK INTER + INTRA:          -7.860
REMARK INTER:                  -6.691
REMARK INTRA:                  -1.169
REMARK UNBOUND:                -0.887
REMARK SMILES CCCOC(=O)c1ccccc1C(=O)OCCC
REMARK SMILES IDX 7 1 8 2 9 3 10 4 11 5 12 6 5 7 6 8 4 9 3 10 2 11 1 12 13 13
REMARK SMILES IDX 14 14 15 15 16 16 17 17 18 18
REMARK H PARENT
REMARK Flexibility Score: inf
ROOT
ATOM      1  C   UNL     1      34.258   1.170  -4.242  1.00  0.00     0.074 A 
ATOM      2  C   UNL     1      34.157   2.557  -4.453  1.00  0.00     0.016 A 
ATOM      3  C   UNL     1      35.223   3.405  -4.149  1.00  0.00     0.001 A 
ATOM      4  C   UNL     1      36.406   2.881  -3.629  1.00  0.00     0.001 A 
ATOM      5  C   UNL     1      36.518   1.511  -3.391  1.00  0.00     0.016 A 
ATOM      6  C   UNL     1      35.449   0.640  -3.669  1.00  0.00     0.074 A 
ENDROOT
BRANCH   1   7
ATOM      7  C   UNL     1      33.132   0.320  -4.692  1.00  0.00     0.339 C 
ATOM      8  O   UNL     1      32.005   0.404  -4.131  1.00  0.00    -0.246 OA
BRANCH   7   9
ATOM      9  O   UNL     1      33.343  -0.620  -5.706  1.00  0.00    -0.462 OA
BRANCH   9  10
ATOM     10  C   UNL     1      32.569  -1.810  -5.826  1.00  0.00     0.233 C 
BRANCH  10  11
ATOM     11  C   UNL     1      33.243  -2.951  -5.065  1.00  0.00     0.038 C 
ATOM     12  C   UNL     1      32.488  -3.300  -3.784  1.00  0.00     0.007 C 
ENDBRANCH  10  11
ENDBRANCH   9  10
ENDBRANCH   7   9
ENDBRANCH   1   7
BRANCH   6  13
ATOM     13  C   UNL     1      35.597  -0.783  -3.283  1.00  0.00     0.339 C 
ATOM     14  O   UNL     1      36.276  -1.567  -4.000  1.00  0.00    -0.246 OA
BRANCH  13  15
ATOM     15  O   UNL     1      34.923  -1.262  -2.152  1.00  0.00    -0.462 OA
BRANCH  15  16
ATOM     16  C   UNL     1      35.070  -0.709  -0.845  1.00  0.00     0.233 C 
BRANCH  16  17
ATOM     17  C   UNL     1      33.772  -0.839  -0.041  1.00  0.00     0.038 C 
ATOM     18  C   UNL     1      32.526  -0.657  -0.905  1.00  0.00     0.007 C 
ENDBRANCH  16  17
ENDBRANCH  15  16
ENDBRANCH  13  15
ENDBRANCH   6  13
TORSDOF 8
ENDMDL
MODEL 6
REMARK VINA RESULT:    -4.719      1.806      2.529
REMARK INTER + INTRA:          -7.813
REMARK INTER:                  -6.656
REMARK INTRA:                  -1.157
REMARK UNBOUND:                -0.887
REMARK SMILES CCCOC(=O)c1ccccc1C(=O)OCCC
REMARK SMILES IDX 7 1 8 2 9 3 10 4 11 5 12 6 5 7 6 8 4 9 3 10 2 11 1 12 13 13
REMARK SMILES IDX 14 14 15 15 16 16 17 17 18 18
REMARK H PARENT
REMARK Flexibility Score: inf
ROOT
ATOM      1  C   UNL     1      34.228   0.451  -4.151  1.00  0.00     0.074 A 
ATOM      2  C   UNL     1      33.603   1.491  -4.863  1.00  0.00     0.016 A 
ATOM      3  C   UNL     1      34.133   2.781  -4.856  1.00  0.00     0.001 A 
ATOM      4  C   UNL     1      35.296   3.054  -4.138  1.00  0.00     0.001 A 
ATOM      5  C   UNL     1      35.919   2.043  -3.405  1.00  0.00     0.016 A 
ATOM      6  C   UNL     1      35.389   0.740  -3.380  1.00  0.00     0.074 A 
ENDROOT
BRANCH   1   7
ATOM      7  C   UNL     1      33.673  -0.914  -4.294  1.00  0.00     0.339 C 
ATOM      8  O   UNL     1      34.080  -1.675  -5.215  1.00  0.00    -0.246 OA
BRANCH   7   9
ATOM      9  O   UNL     1      32.651  -1.334  -3.437  1.00  0.00    -0.462 OA
BRANCH   9  10
ATOM     10  C   UNL     1      31.347  -1.670  -3.900  1.00  0.00     0.233 C 
BRANCH  10  11
ATOM     11  C   UNL     1      30.525  -0.399  -4.118  1.00  0.00     0.038 C 
ATOM     12  C   UNL     1      30.396   0.418  -2.834  1.00  0.00     0.007 C 
ENDBRANCH  10  11
ENDBRANCH   9  10
ENDBRANCH   7   9
ENDBRANCH   1   7
BRANCH   6  13
ATOM     13  C   UNL     1      36.037  -0.253  -2.491  1.00  0.00     0.339 C 
ATOM     14  O   UNL     1      36.866  -1.079  -2.959  1.00  0.00    -0.246 OA
BRANCH  13  15
ATOM     15  O   UNL     1      35.671  -0.307  -1.139  1.00  0.00    -0.462 OA
BRANCH  15  16
ATOM     16  C   UNL     1      34.820  -1.310  -0.585  1.00  0.00     0.233 C 
BRANCH  16  17
ATOM     17  C   UNL     1      33.509  -0.702  -0.074  1.00  0.00     0.038 C 
ATOM     18  C   UNL     1      32.660  -1.705   0.701  1.00  0.00     0.007 C 
ENDBRANCH  16  17
ENDBRANCH  15  16
ENDBRANCH  13  15
ENDBRANCH   6  13
TORSDOF 8
ENDMDL
MODEL 7
REMARK VINA RESULT:    -4.671      6.716      9.604
REMARK INTER + INTRA:          -7.742
REMARK INTER:                  -6.598
REMARK INTRA:                  -1.144
REMARK UNBOUND:                -0.887
REMARK SMILES CCCOC(=O)c1ccccc1C(=O)OCCC
REMARK SMILES IDX 7 1 8 2 9 3 10 4 11 5 12 6 5 7 6 8 4 9 3 10 2 11 1 12 13 13
REMARK SMILES IDX 14 14 15 15 16 16 17 17 18 18
REMARK H PARENT
REMARK Flexibility Score: inf
ROOT
ATOM      1  C   UNL     1      26.099   5.988  -1.927  1.00  0.00     0.074 A 
ATOM      2  C   UNL     1      25.745   6.625  -0.724  1.00  0.00     0.016 A 
ATOM      3  C   UNL     1      26.726   7.077   0.159  1.00  0.00     0.001 A 
ATOM      4  C   UNL     1      28.075   6.901  -0.145  1.00  0.00     0.001 A 
ATOM      5  C   UNL     1      28.447   6.251  -1.321  1.00  0.00     0.016 A 
ATOM      6  C   UNL     1      27.475   5.767  -2.216  1.00  0.00     0.074 A 
ENDROOT
BRANCH   1   7
ATOM      7  C   UNL     1      25.010   5.635  -2.867  1.00  0.00     0.339 C 
ATOM      8  O   UNL     1      24.367   4.560  -2.724  1.00  0.00    -0.246 OA
BRANCH   7   9
ATOM      9  O   UNL     1      24.740   6.476  -3.951  1.00  0.00    -0.462 OA
BRANCH   9  10
ATOM     10  C   UNL     1      24.358   7.839  -3.791  1.00  0.00     0.233 C 
BRANCH  10  11
ATOM     11  C   UNL     1      25.507   8.758  -4.205  1.00  0.00     0.038 C 
ATOM     12  C   UNL     1      26.051   9.553  -3.020  1.00  0.00     0.007 C 
ENDBRANCH  10  11
ENDBRANCH   9  10
ENDBRANCH   7   9
ENDBRANCH   1   7
BRANCH   6  13
ATOM     13  C   UNL     1      27.941   4.987  -3.387  1.00  0.00     0.339 C 
ATOM     14  O   UNL     1      28.149   5.561  -4.490  1.00  0.00    -0.246 OA
BRANCH  13  15
ATOM     15  O   UNL     1      28.084   3.597  -3.274  1.00  0.00    -0.462 OA
BRANCH  15  16
ATOM     16  C   UNL     1      27.173   2.656  -3.840  1.00  0.00     0.233 C 
BRANCH  16  17
ATOM     17  C   UNL     1      27.880   1.339  -4.180  1.00  0.00     0.038 C 
ATOM     18  C   UNL     1      28.880   0.916  -3.107  1.00  0.00     0.007 C 
ENDBRANCH  16  17
ENDBRANCH  15  16
ENDBRANCH  13  15
ENDBRANCH   6  13
TORSDOF 8
ENDMDL
MODEL 8
REMARK VINA RESULT:    -4.622      1.569      2.452
REMARK INTER + INTRA:          -7.671
REMARK INTER:                  -6.546
REMARK INTRA:                  -1.125
REMARK UNBOUND:                -0.887
REMARK SMILES CCCOC(=O)c1ccccc1C(=O)OCCC
REMARK SMILES IDX 7 1 8 2 9 3 10 4 11 5 12 6 5 7 6 8 4 9 3 10 2 11 1 12 13 13
REMARK SMILES IDX 14 14 15 15 16 16 17 17 18 18
REMARK H PARENT
REMARK Flexibility Score: inf
ROOT
ATOM      1  C   UNL     1      33.421   0.565  -3.972  1.00  0.00     0.074 A 
ATOM      2  C   UNL     1      33.700   1.534  -4.953  1.00  0.00     0.016 A 
ATOM      3  C   UNL     1      34.896   2.252  -4.928  1.00  0.00     0.001 A 
ATOM      4  C   UNL     1      35.833   2.014  -3.925  1.00  0.00     0.001 A 
ATOM      5  C   UNL     1      35.567   1.074  -2.929  1.00  0.00     0.016 A 
ATOM      6  C   UNL     1      34.357   0.354  -2.921  1.00  0.00     0.074 A 
ENDROOT
BRANCH   1   7
ATOM      7  C   UNL     1      32.185  -0.235  -4.125  1.00  0.00     0.339 C 
ATOM      8  O   UNL     1      31.075   0.223  -3.737  1.00  0.00    -0.246 OA
BRANCH   7   9
ATOM      9  O   UNL     1      32.265  -1.530  -4.648  1.00  0.00    -0.462 OA
BRANCH   9  10
ATOM     10  C   UNL     1      32.298  -1.793  -6.047  1.00  0.00     0.233 C 
BRANCH  10  11
ATOM     11  C   UNL     1      31.682  -3.162  -6.338  1.00  0.00     0.038 C 
ATOM     12  C   UNL     1      31.274  -3.883  -5.055  1.00  0.00     0.007 C 
ENDBRANCH  10  11
ENDBRANCH   9  10
ENDBRANCH   7   9
ENDBRANCH   1   7
BRANCH   6  13
ATOM     13  C   UNL     1      34.093  -0.542  -1.771  1.00  0.00     0.339 C 
ATOM     14  O   UNL     1      33.159  -0.282  -0.964  1.00  0.00    -0.246 OA
BRANCH  13  15
ATOM     15  O   UNL     1      34.931  -1.643  -1.551  1.00  0.00    -0.462 OA
BRANCH  15  16
ATOM     16  C   UNL     1      35.020  -2.763  -2.431  1.00  0.00     0.233 C 
BRANCH  16  17
ATOM     17  C   UNL     1      36.172  -2.593  -3.427  1.00  0.00     0.038 C 
ATOM     18  C   UNL     1      35.686  -2.454  -4.868  1.00  0.00     0.007 C 
ENDBRANCH  16  17
ENDBRANCH  15  16
ENDBRANCH  13  15
ENDBRANCH   6  13
TORSDOF 8
ENDMDL
MODEL 9
REMARK VINA RESULT:    -4.536      1.762      4.610
REMARK INTER + INTRA:          -7.544
REMARK INTER:                  -6.163
REMARK INTRA:                  -1.381
REMARK UNBOUND:                -0.887
REMARK SMILES CCCOC(=O)c1ccccc1C(=O)OCCC
REMARK SMILES IDX 7 1 8 2 9 3 10 4 11 5 12 6 5 7 6 8 4 9 3 10 2 11 1 12 13 13
REMARK SMILES IDX 14 14 15 15 16 16 17 17 18 18
REMARK H PARENT
REMARK Flexibility Score: inf
ROOT
ATOM      1  C   UNL     1      34.832  -0.583  -2.598  1.00  0.00     0.074 A 
ATOM      2  C   UNL     1      34.895  -0.919  -1.233  1.00  0.00     0.016 A 
ATOM      3  C   UNL     1      33.741  -0.937  -0.449  1.00  0.00     0.001 A 
ATOM      4  C   UNL     1      32.507  -0.622  -1.014  1.00  0.00     0.001 A 
ATOM      5  C   UNL     1      32.425  -0.264  -2.360  1.00  0.00     0.016 A 
ATOM      6  C   UNL     1      33.578  -0.216  -3.165  1.00  0.00     0.074 A 
ENDROOT
BRANCH   1   7
ATOM      7  C   UNL     1      36.076  -0.693  -3.394  1.00  0.00     0.339 C 
ATOM      8  O   UNL     1      36.303  -1.724  -4.084  1.00  0.00    -0.246 OA
BRANCH   7   9
ATOM      9  O   UNL     1      37.026   0.331  -3.327  1.00  0.00    -0.462 OA
BRANCH   9  10
ATOM     10  C   UNL     1      36.872   1.569  -4.013  1.00  0.00     0.233 C 
BRANCH  10  11
ATOM     11  C   UNL     1      36.503   2.674  -3.023  1.00  0.00     0.038 C 
ATOM     12  C   UNL     1      35.719   3.799  -3.697  1.00  0.00     0.007 C 
ENDBRANCH  10  11
ENDBRANCH   9  10
ENDBRANCH   7   9
ENDBRANCH   1   7
BRANCH   6  13
ATOM     13  C   UNL     1      33.433   0.283  -4.552  1.00  0.00     0.339 C 
ATOM     14  O   UNL     1      33.339   1.521  -4.775  1.00  0.00    -0.246 OA
BRANCH  13  15
ATOM     15  O   UNL     1      33.336  -0.635  -5.606  1.00  0.00    -0.462 OA
BRANCH  15  16
ATOM     16  C   UNL     1      32.478  -1.775  -5.591  1.00  0.00     0.233 C 
BRANCH  16  17
ATOM     17  C   UNL     1      33.253  -3.044  -5.217  1.00  0.00     0.038 C 
ATOM     18  C   UNL     1      32.724  -3.701  -3.945  1.00  0.00     0.007 C 
ENDBRANCH  16  17
ENDBRANCH  15  16
ENDBRANCH  13  15
ENDBRANCH   6  13
TORSDOF 8
ENDMDL
