MODEL 1
REMARK VINA RESULT:    -6.159      0.000      0.000
REMARK INTER + INTRA:          -8.851
REMARK INTER:                  -8.319
REMARK INTRA:                  -0.531
REMARK UNBOUND:                -0.531
REMARK SMILES COc1ccc(-c2cc(=O)c3c(OC)c(OC)c(OC)c(OC)c3o2)cc1
REMARK SMILES IDX 7 1 8 2 9 3 10 4 11 5 24 6 25 7 21 8 18 9 15 10 12 11 6 12
REMARK SMILES IDX 3 13 4 14 27 15 5 16 26 17 2 18 1 19 22 20 23 21 13 22 14 23
REMARK SMILES IDX 19 24 20 25 16 26 17 27
REMARK H PARENT
REMARK Flexibility Score: inf
ROOT
ATOM      1  C   UNL     1       7.406 -16.906 -38.877  1.00  0.00     0.138 A 
ATOM      2  C   UNL     1       7.221 -15.517 -38.897  1.00  0.00     0.100 A 
ATOM      3  C   UNL     1       5.936 -14.994 -38.767  1.00  0.00     0.197 A 
ATOM      4  O   UNL     1       5.789 -13.743 -38.787  1.00  0.00    -0.289 OA
ATOM      5  C   UNL     1       4.832 -15.868 -38.621  1.00  0.00     0.115 A 
ATOM      6  C   UNL     1       5.099 -17.257 -38.629  1.00  0.00     0.188 A 
ATOM      7  O   UNL     1       6.347 -17.702 -38.753  1.00  0.00    -0.452 OA
ATOM      8  C   UNL     1       4.064 -18.189 -38.516  1.00  0.00     0.209 A 
ATOM      9  C   UNL     1       2.732 -17.738 -38.397  1.00  0.00     0.211 A 
ATOM     10  C   UNL     1       2.461 -16.356 -38.298  1.00  0.00     0.208 A 
ATOM     11  C   UNL     1       3.503 -15.408 -38.461  1.00  0.00     0.179 A 
ENDROOT
BRANCH   1  12
ATOM     12  C   UNL     1       8.750 -17.523 -39.007  1.00  0.00     0.018 A 
ATOM     13  C   UNL     1      11.312 -18.673 -39.322  1.00  0.00     0.118 A 
ATOM     14  C   UNL     1      10.925 -17.579 -40.102  1.00  0.00     0.047 A 
ATOM     15  C   UNL     1      10.404 -19.199 -38.384  1.00  0.00     0.047 A 
ATOM     16  C   UNL     1       9.656 -17.010 -39.953  1.00  0.00     0.016 A 
ATOM     17  C   UNL     1       9.136 -18.632 -38.232  1.00  0.00     0.016 A 
BRANCH  13  18
ATOM     18  O   UNL     1      12.594 -19.206 -39.510  1.00  0.00    -0.497 OA
ATOM     19  C   UNL     1      13.332 -19.116 -40.725  1.00  0.00     0.278 C 
ENDBRANCH  13  18
ENDBRANCH   1  12
BRANCH   8  20
ATOM     20  O   UNL     1       4.432 -19.550 -38.544  1.00  0.00    -0.490 OA
ATOM     21  C   UNL     1       4.459 -20.446 -37.438  1.00  0.00     0.278 C 
ENDBRANCH   8  20
BRANCH  11  22
ATOM     22  O   UNL     1       3.274 -14.016 -38.455  1.00  0.00    -0.492 OA
ATOM     23  C   UNL     1       2.821 -13.224 -37.363  1.00  0.00     0.278 C 
ENDBRANCH  11  22
BRANCH   9  24
ATOM     24  O   UNL     1       1.681 -18.660 -38.391  1.00  0.00    -0.490 OA
ATOM     25  C   UNL     1       0.978 -19.015 -37.204  1.00  0.00     0.279 C 
ENDBRANCH   9  24
BRANCH  10  26
ATOM     26  O   UNL     1       1.161 -15.923 -38.019  1.00  0.00    -0.490 OA
ATOM     27  C   UNL     1       0.211 -15.647 -39.044  1.00  0.00     0.278 C 
ENDBRANCH  10  26
TORSDOF 6
ENDMDL
MODEL 2
REMARK VINA RESULT:    -6.111      1.557      3.354
REMARK INTER + INTRA:          -8.786
REMARK INTER:                  -8.073
REMARK INTRA:                  -0.713
REMARK UNBOUND:                -0.531
REMARK SMILES COc1ccc(-c2cc(=O)c3c(OC)c(OC)c(OC)c(OC)c3o2)cc1
REMARK SMILES IDX 7 1 8 2 9 3 10 4 11 5 24 6 25 7 21 8 18 9 15 10 12 11 6 12
REMARK SMILES IDX 3 13 4 14 27 15 5 16 26 17 2 18 1 19 22 20 23 21 13 22 14 23
REMARK SMILES IDX 19 24 20 25 16 26 17 27
REMARK H PARENT
REMARK Flexibility Score: inf
ROOT
ATOM      1  C   UNL     1       7.392 -17.825 -38.693  1.00  0.00     0.138 A 
ATOM      2  C   UNL     1       6.548 -18.620 -37.906  1.00  0.00     0.100 A 
ATOM      3  C   UNL     1       5.196 -18.297 -37.808  1.00  0.00     0.197 A 
ATOM      4  O   UNL     1       4.452 -19.023 -37.096  1.00  0.00    -0.289 OA
ATOM      5  C   UNL     1       4.690 -17.170 -38.497  1.00  0.00     0.115 A 
ATOM      6  C   UNL     1       5.609 -16.407 -39.255  1.00  0.00     0.188 A 
ATOM      7  O   UNL     1       6.890 -16.763 -39.316  1.00  0.00    -0.452 OA
ATOM      8  C   UNL     1       5.199 -15.263 -39.945  1.00  0.00     0.209 A 
ATOM      9  C   UNL     1       3.847 -14.860 -39.882  1.00  0.00     0.211 A 
ATOM     10  C   UNL     1       2.903 -15.661 -39.204  1.00  0.00     0.208 A 
ATOM     11  C   UNL     1       3.325 -16.794 -38.463  1.00  0.00     0.179 A 
ENDROOT
BRANCH   1  12
ATOM     12  C   UNL     1       8.840 -18.121 -38.839  1.00  0.00     0.018 A 
ATOM     13  C   UNL     1      11.590 -18.668 -39.185  1.00  0.00     0.118 A 
ATOM     14  C   UNL     1      10.930 -17.780 -40.040  1.00  0.00     0.047 A 
ATOM     15  C   UNL     1      10.863 -19.293 -38.155  1.00  0.00     0.047 A 
ATOM     16  C   UNL     1       9.568 -17.510 -39.875  1.00  0.00     0.016 A 
ATOM     17  C   UNL     1       9.502 -19.024 -37.987  1.00  0.00     0.016 A 
BRANCH  13  18
ATOM     18  O   UNL     1      12.956 -18.903 -39.393  1.00  0.00    -0.497 OA
ATOM     19  C   UNL     1      13.557 -19.076 -40.672  1.00  0.00     0.278 C 
ENDBRANCH  13  18
ENDBRANCH   1  12
BRANCH   8  20
ATOM     20  O   UNL     1       6.192 -14.566 -40.663  1.00  0.00    -0.490 OA
ATOM     21  C   UNL     1       6.535 -14.747 -42.033  1.00  0.00     0.278 C 
ENDBRANCH   8  20
BRANCH  11  22
ATOM     22  O   UNL     1       2.437 -17.579 -37.699  1.00  0.00    -0.492 OA
ATOM     23  C   UNL     1       1.750 -17.193 -36.513  1.00  0.00     0.278 C 
ENDBRANCH  11  22
BRANCH   9  24
ATOM     24  O   UNL     1       3.448 -13.661 -40.480  1.00  0.00    -0.490 OA
ATOM     25  C   UNL     1       3.041 -13.582 -41.842  1.00  0.00     0.279 C 
ENDBRANCH   9  24
BRANCH  10  26
ATOM     26  O   UNL     1       1.544 -15.344 -39.280  1.00  0.00    -0.490 OA
ATOM     27  C   UNL     1       0.670 -15.948 -40.229  1.00  0.00     0.278 C 
ENDBRANCH  10  26
TORSDOF 6
ENDMDL
MODEL 3
REMARK VINA RESULT:    -5.971      2.954      7.731
REMARK INTER + INTRA:          -8.596
REMARK INTER:                  -8.033
REMARK INTRA:                  -0.563
REMARK UNBOUND:                -0.531
REMARK SMILES COc1ccc(-c2cc(=O)c3c(OC)c(OC)c(OC)c(OC)c3o2)cc1
REMARK SMILES IDX 7 1 8 2 9 3 10 4 11 5 24 6 25 7 21 8 18 9 15 10 12 11 6 12
REMARK SMILES IDX 3 13 4 14 27 15 5 16 26 17 2 18 1 19 22 20 23 21 13 22 14 23
REMARK SMILES IDX 19 24 20 25 16 26 17 27
REMARK H PARENT
REMARK Flexibility Score: inf
ROOT
ATOM      1  C   UNL     1       2.367 -16.058 -36.517  1.00  0.00     0.138 A 
ATOM      2  C   UNL     1       2.250 -14.928 -37.337  1.00  0.00     0.100 A 
ATOM      3  C   UNL     1       3.133 -14.761 -38.403  1.00  0.00     0.197 A 
ATOM      4  O   UNL     1       3.013 -13.739 -39.130  1.00  0.00    -0.289 OA
ATOM      5  C   UNL     1       4.137 -15.728 -38.643  1.00  0.00     0.115 A 
ATOM      6  C   UNL     1       4.201 -16.831 -37.759  1.00  0.00     0.188 A 
ATOM      7  O   UNL     1       3.331 -16.942 -36.759  1.00  0.00    -0.452 OA
ATOM      8  C   UNL     1       5.178 -17.818 -37.909  1.00  0.00     0.209 A 
ATOM      9  C   UNL     1       6.120 -17.712 -38.956  1.00  0.00     0.211 A 
ATOM     10  C   UNL     1       6.012 -16.665 -39.898  1.00  0.00     0.208 A 
ATOM     11  C   UNL     1       5.052 -15.637 -39.720  1.00  0.00     0.179 A 
ENDROOT
BRANCH   1  12
ATOM     12  C   UNL     1       1.455 -16.293 -35.368  1.00  0.00     0.018 A 
ATOM     13  C   UNL     1      -0.229 -16.721 -33.140  1.00  0.00     0.118 A 
ATOM     14  C   UNL     1       0.830 -15.811 -33.065  1.00  0.00     0.047 A 
ATOM     15  C   UNL     1      -0.439 -17.429 -34.338  1.00  0.00     0.047 A 
ATOM     16  C   UNL     1       1.668 -15.600 -34.164  1.00  0.00     0.016 A 
ATOM     17  C   UNL     1       0.397 -17.219 -35.439  1.00  0.00     0.016 A 
BRANCH  13  18
ATOM     18  O   UNL     1      -1.040 -16.895 -32.011  1.00  0.00    -0.497 OA
ATOM     19  C   UNL     1      -0.595 -17.452 -30.778  1.00  0.00     0.278 C 
ENDBRANCH  13  18
ENDBRANCH   1  12
BRANCH   8  20
ATOM     20  O   UNL     1       5.165 -18.870 -36.972  1.00  0.00    -0.490 OA
ATOM     21  C   UNL     1       4.558 -20.148 -37.137  1.00  0.00     0.278 C 
ENDBRANCH   8  20
BRANCH  11  22
ATOM     22  O   UNL     1       4.958 -14.525 -40.583  1.00  0.00    -0.492 OA
ATOM     23  C   UNL     1       5.824 -13.396 -40.628  1.00  0.00     0.278 C 
ENDBRANCH  11  22
BRANCH   9  24
ATOM     24  O   UNL     1       7.165 -18.635 -39.051  1.00  0.00    -0.490 OA
ATOM     25  C   UNL     1       8.386 -18.488 -38.332  1.00  0.00     0.279 C 
ENDBRANCH   9  24
BRANCH  10  26
ATOM     26  O   UNL     1       6.845 -16.656 -41.021  1.00  0.00    -0.490 OA
ATOM     27  C   UNL     1       8.131 -16.043 -41.013  1.00  0.00     0.278 C 
ENDBRANCH  10  26
TORSDOF 6
ENDMDL
MODEL 4
REMARK VINA RESULT:    -5.791      0.958      3.530
REMARK INTER + INTRA:          -8.354
REMARK INTER:                  -7.623
REMARK INTRA:                  -0.730
REMARK UNBOUND:                -0.531
REMARK SMILES COc1ccc(-c2cc(=O)c3c(OC)c(OC)c(OC)c(OC)c3o2)cc1
REMARK SMILES IDX 7 1 8 2 9 3 10 4 11 5 24 6 25 7 21 8 18 9 15 10 12 11 6 12
REMARK SMILES IDX 3 13 4 14 27 15 5 16 26 17 2 18 1 19 22 20 23 21 13 22 14 23
REMARK SMILES IDX 19 24 20 25 16 26 17 27
REMARK H PARENT
REMARK Flexibility Score: inf
ROOT
ATOM      1  C   UNL     1       7.112 -17.641 -39.093  1.00  0.00     0.138 A 
ATOM      2  C   UNL     1       6.419 -18.821 -38.795  1.00  0.00     0.100 A 
ATOM      3  C   UNL     1       5.043 -18.772 -38.578  1.00  0.00     0.197 A 
ATOM      4  O   UNL     1       4.435 -19.843 -38.312  1.00  0.00    -0.289 OA
ATOM      5  C   UNL     1       4.362 -17.534 -38.655  1.00  0.00     0.115 A 
ATOM      6  C   UNL     1       5.136 -16.385 -38.942  1.00  0.00     0.188 A 
ATOM      7  O   UNL     1       6.447 -16.490 -39.144  1.00  0.00    -0.452 OA
ATOM      8  C   UNL     1       4.548 -15.119 -39.010  1.00  0.00     0.209 A 
ATOM      9  C   UNL     1       3.160 -14.984 -38.785  1.00  0.00     0.211 A 
ATOM     10  C   UNL     1       2.362 -16.133 -38.588  1.00  0.00     0.208 A 
ATOM     11  C   UNL     1       2.964 -17.411 -38.469  1.00  0.00     0.179 A 
ENDROOT
BRANCH   1  12
ATOM     12  C   UNL     1       8.577 -17.630 -39.338  1.00  0.00     0.018 A 
ATOM     13  C   UNL     1      11.372 -17.650 -39.747  1.00  0.00     0.118 A 
ATOM     14  C   UNL     1      10.744 -18.710 -39.085  1.00  0.00     0.047 A 
ATOM     15  C   UNL     1      10.594 -16.569 -40.200  1.00  0.00     0.047 A 
ATOM     16  C   UNL     1       9.362 -18.701 -38.876  1.00  0.00     0.016 A 
ATOM     17  C   UNL     1       9.211 -16.558 -39.993  1.00  0.00     0.016 A 
BRANCH  13  18
ATOM     18  O   UNL     1      12.761 -17.708 -39.932  1.00  0.00    -0.497 OA
ATOM     19  C   UNL     1      13.455 -18.831 -40.464  1.00  0.00     0.278 C 
ENDBRANCH  13  18
ENDBRANCH   1  12
BRANCH   8  20
ATOM     20  O   UNL     1       5.405 -14.037 -39.292  1.00  0.00    -0.490 OA
ATOM     21  C   UNL     1       5.575 -13.393 -40.550  1.00  0.00     0.278 C 
ENDBRANCH   8  20
BRANCH  11  22
ATOM     22  O   UNL     1       2.223 -18.578 -38.187  1.00  0.00    -0.492 OA
ATOM     23  C   UNL     1       1.482 -18.861 -37.005  1.00  0.00     0.278 C 
ENDBRANCH  11  22
BRANCH   9  24
ATOM     24  O   UNL     1       2.580 -13.713 -38.746  1.00  0.00    -0.490 OA
ATOM     25  C   UNL     1       2.510 -12.938 -37.553  1.00  0.00     0.279 C 
ENDBRANCH   9  24
BRANCH  10  26
ATOM     26  O   UNL     1       0.971 -16.007 -38.527  1.00  0.00    -0.490 OA
ATOM     27  C   UNL     1       0.140 -16.146 -39.675  1.00  0.00     0.278 C 
ENDBRANCH  10  26
TORSDOF 6
ENDMDL
MODEL 5
REMARK VINA RESULT:    -5.750      2.341      7.833
REMARK INTER + INTRA:          -8.298
REMARK INTER:                  -7.561
REMARK INTRA:                  -0.737
REMARK UNBOUND:                -0.531
REMARK SMILES COc1ccc(-c2cc(=O)c3c(OC)c(OC)c(OC)c(OC)c3o2)cc1
REMARK SMILES IDX 7 1 8 2 9 3 10 4 11 5 24 6 25 7 21 8 18 9 15 10 12 11 6 12
REMARK SMILES IDX 3 13 4 14 27 15 5 16 26 17 2 18 1 19 22 20 23 21 13 22 14 23
REMARK SMILES IDX 19 24 20 25 16 26 17 27
REMARK H PARENT
REMARK Flexibility Score: inf
ROOT
ATOM      1  C   UNL     1       5.508 -17.754 -38.561  1.00  0.00     0.138 A 
ATOM      2  C   UNL     1       6.608 -18.423 -38.008  1.00  0.00     0.100 A 
ATOM      3  C   UNL     1       7.897 -18.060 -38.395  1.00  0.00     0.197 A 
ATOM      4  O   UNL     1       8.875 -18.672 -37.887  1.00  0.00    -0.289 OA
ATOM      5  C   UNL     1       8.082 -17.026 -39.343  1.00  0.00     0.115 A 
ATOM      6  C   UNL     1       6.921 -16.413 -39.869  1.00  0.00     0.188 A 
ATOM      7  O   UNL     1       5.714 -16.797 -39.462  1.00  0.00    -0.452 OA
ATOM      8  C   UNL     1       7.013 -15.402 -40.829  1.00  0.00     0.209 A 
ATOM      9  C   UNL     1       8.284 -14.989 -41.285  1.00  0.00     0.211 A 
ATOM     10  C   UNL     1       9.452 -15.530 -40.703  1.00  0.00     0.208 A 
ATOM     11  C   UNL     1       9.361 -16.589 -39.765  1.00  0.00     0.179 A 
ENDROOT
BRANCH   1  12
ATOM     12  C   UNL     1       4.112 -18.093 -38.186  1.00  0.00     0.018 A 
ATOM     13  C   UNL     1       1.436 -18.674 -37.493  1.00  0.00     0.118 A 
ATOM     14  C   UNL     1       1.723 -17.718 -38.472  1.00  0.00     0.047 A 
ATOM     15  C   UNL     1       2.498 -19.337 -36.851  1.00  0.00     0.047 A 
ATOM     16  C   UNL     1       3.046 -17.425 -38.814  1.00  0.00     0.016 A 
ATOM     17  C   UNL     1       3.822 -19.046 -37.192  1.00  0.00     0.016 A 
BRANCH  13  18
ATOM     18  O   UNL     1       0.092 -18.933 -37.187  1.00  0.00    -0.497 OA
ATOM     19  C   UNL     1      -1.003 -18.146 -37.645  1.00  0.00     0.278 C 
ENDBRANCH  13  18
ENDBRANCH   1  12
BRANCH   8  20
ATOM     20  O   UNL     1       5.799 -14.861 -41.298  1.00  0.00    -0.490 OA
ATOM     21  C   UNL     1       5.189 -13.647 -40.872  1.00  0.00     0.278 C 
ENDBRANCH   8  20
BRANCH  11  22
ATOM     22  O   UNL     1      10.497 -17.222 -39.219  1.00  0.00    -0.492 OA
ATOM     23  C   UNL     1      11.473 -17.988 -39.916  1.00  0.00     0.278 C 
ENDBRANCH  11  22
BRANCH   9  24
ATOM     24  O   UNL     1       8.385 -14.055 -42.320  1.00  0.00    -0.490 OA
ATOM     25  C   UNL     1       8.391 -14.431 -43.694  1.00  0.00     0.279 C 
ENDBRANCH   9  24
BRANCH  10  26
ATOM     26  O   UNL     1      10.702 -15.003 -41.043  1.00  0.00    -0.490 OA
ATOM     27  C   UNL     1      11.312 -13.946 -40.308  1.00  0.00     0.278 C 
ENDBRANCH  10  26
TORSDOF 6
ENDMDL
MODEL 6
REMARK VINA RESULT:    -5.680      2.943      8.095
REMARK INTER + INTRA:          -8.203
REMARK INTER:                  -7.573
REMARK INTRA:                  -0.631
REMARK UNBOUND:                -0.531
REMARK SMILES COc1ccc(-c2cc(=O)c3c(OC)c(OC)c(OC)c(OC)c3o2)cc1
REMARK SMILES IDX 7 1 8 2 9 3 10 4 11 5 24 6 25 7 21 8 18 9 15 10 12 11 6 12
REMARK SMILES IDX 3 13 4 14 27 15 5 16 26 17 2 18 1 19 22 20 23 21 13 22 14 23
REMARK SMILES IDX 19 24 20 25 16 26 17 27
REMARK H PARENT
REMARK Flexibility Score: inf
ROOT
ATOM      1  C   UNL     1       2.968 -16.842 -36.749  1.00  0.00     0.138 A 
ATOM      2  C   UNL     1       3.801 -17.961 -36.881  1.00  0.00     0.100 A 
ATOM      3  C   UNL     1       4.804 -17.958 -37.850  1.00  0.00     0.197 A 
ATOM      4  O   UNL     1       5.544 -18.973 -37.954  1.00  0.00    -0.289 OA
ATOM      5  C   UNL     1       4.968 -16.832 -38.689  1.00  0.00     0.115 A 
ATOM      6  C   UNL     1       4.075 -15.750 -38.506  1.00  0.00     0.188 A 
ATOM      7  O   UNL     1       3.137 -15.805 -37.564  1.00  0.00    -0.452 OA
ATOM      8  C   UNL     1       4.150 -14.610 -39.310  1.00  0.00     0.209 A 
ATOM      9  C   UNL     1       5.130 -14.538 -40.325  1.00  0.00     0.211 A 
ATOM     10  C   UNL     1       6.083 -15.571 -40.460  1.00  0.00     0.208 A 
ATOM     11  C   UNL     1       5.979 -16.749 -39.678  1.00  0.00     0.179 A 
ENDROOT
BRANCH   1  12
ATOM     12  C   UNL     1       1.885 -16.785 -35.735  1.00  0.00     0.018 A 
ATOM     13  C   UNL     1      -0.129 -16.655 -33.757  1.00  0.00     0.118 A 
ATOM     14  C   UNL     1       1.022 -15.868 -33.650  1.00  0.00     0.047 A 
ATOM     15  C   UNL     1      -0.267 -17.519 -34.859  1.00  0.00     0.047 A 
ATOM     16  C   UNL     1       2.023 -15.933 -34.624  1.00  0.00     0.016 A 
ATOM     17  C   UNL     1       0.732 -17.585 -35.835  1.00  0.00     0.016 A 
BRANCH  13  18
ATOM     18  O   UNL     1      -1.103 -16.552 -32.755  1.00  0.00    -0.497 OA
ATOM     19  C   UNL     1      -0.861 -16.786 -31.371  1.00  0.00     0.278 C 
ENDBRANCH  13  18
ENDBRANCH   1  12
BRANCH   8  20
ATOM     20  O   UNL     1       3.210 -13.592 -39.055  1.00  0.00    -0.490 OA
ATOM     21  C   UNL     1       1.938 -13.435 -39.675  1.00  0.00     0.278 C 
ENDBRANCH   8  20
BRANCH  11  22
ATOM     22  O   UNL     1       6.853 -17.845 -39.832  1.00  0.00    -0.492 OA
ATOM     23  C   UNL     1       8.238 -17.892 -39.508  1.00  0.00     0.278 C 
ENDBRANCH  11  22
BRANCH   9  24
ATOM     24  O   UNL     1       5.146 -13.450 -41.203  1.00  0.00    -0.490 OA
ATOM     25  C   UNL     1       4.393 -13.429 -42.411  1.00  0.00     0.279 C 
ENDBRANCH   9  24
BRANCH  10  26
ATOM     26  O   UNL     1       7.145 -15.420 -41.356  1.00  0.00    -0.490 OA
ATOM     27  C   UNL     1       7.094 -15.913 -42.692  1.00  0.00     0.278 C 
ENDBRANCH  10  26
TORSDOF 6
ENDMDL
MODEL 7
REMARK VINA RESULT:    -5.509      2.399      5.442
REMARK INTER + INTRA:          -7.973
REMARK INTER:                  -7.341
REMARK INTRA:                  -0.632
REMARK UNBOUND:                -0.531
REMARK SMILES COc1ccc(-c2cc(=O)c3c(OC)c(OC)c(OC)c(OC)c3o2)cc1
REMARK SMILES IDX 7 1 8 2 9 3 10 4 11 5 24 6 25 7 21 8 18 9 15 10 12 11 6 12
REMARK SMILES IDX 3 13 4 14 27 15 5 16 26 17 2 18 1 19 22 20 23 21 13 22 14 23
REMARK SMILES IDX 19 24 20 25 16 26 17 27
REMARK H PARENT
REMARK Flexibility Score: inf
ROOT
ATOM      1  C   UNL     1      11.134 -17.993 -39.839  1.00  0.00     0.138 A 
ATOM      2  C   UNL     1      10.462 -18.676 -38.817  1.00  0.00     0.100 A 
ATOM      3  C   UNL     1       9.121 -18.388 -38.566  1.00  0.00     0.197 A 
ATOM      4  O   UNL     1       8.533 -19.012 -37.643  1.00  0.00    -0.289 OA
ATOM      5  C   UNL     1       8.455 -17.411 -39.342  1.00  0.00     0.115 A 
ATOM      6  C   UNL     1       9.208 -16.753 -40.343  1.00  0.00     0.188 A 
ATOM      7  O   UNL     1      10.485 -17.069 -40.541  1.00  0.00    -0.452 OA
ATOM      8  C   UNL     1       8.634 -15.755 -41.136  1.00  0.00     0.209 A 
ATOM      9  C   UNL     1       7.284 -15.395 -40.933  1.00  0.00     0.211 A 
ATOM     10  C   UNL     1       6.497 -16.106 -39.999  1.00  0.00     0.208 A 
ATOM     11  C   UNL     1       7.089 -17.083 -39.160  1.00  0.00     0.179 A 
ENDROOT
BRANCH   1  12
ATOM     12  C   UNL     1      12.561 -18.258 -40.155  1.00  0.00     0.018 A 
ATOM     13  C   UNL     1      15.291 -18.697 -40.735  1.00  0.00     0.118 A 
ATOM     14  C   UNL     1      14.913 -17.766 -39.762  1.00  0.00     0.047 A 
ATOM     15  C   UNL     1      14.292 -19.406 -41.428  1.00  0.00     0.047 A 
ATOM     16  C   UNL     1      13.563 -17.543 -39.476  1.00  0.00     0.016 A 
ATOM     17  C   UNL     1      12.942 -19.185 -41.144  1.00  0.00     0.016 A 
BRANCH  13  18
ATOM     18  O   UNL     1      16.658 -18.884 -40.984  1.00  0.00    -0.497 OA
ATOM     19  C   UNL     1      17.621 -17.836 -41.011  1.00  0.00     0.278 C 
ENDBRANCH  13  18
ENDBRANCH   1  12
BRANCH   8  20
ATOM     20  O   UNL     1       9.469 -15.153 -42.098  1.00  0.00    -0.490 OA
ATOM     21  C   UNL     1      10.215 -13.950 -41.943  1.00  0.00     0.278 C 
ENDBRANCH   8  20
BRANCH  11  22
ATOM     22  O   UNL     1       6.369 -17.761 -38.154  1.00  0.00    -0.492 OA
ATOM     23  C   UNL     1       5.363 -18.751 -38.336  1.00  0.00     0.278 C 
ENDBRANCH  11  22
BRANCH   9  24
ATOM     24  O   UNL     1       6.731 -14.328 -41.646  1.00  0.00    -0.490 OA
ATOM     25  C   UNL     1       6.753 -12.989 -41.162  1.00  0.00     0.279 C 
ENDBRANCH   9  24
BRANCH  10  26
ATOM     26  O   UNL     1       5.125 -15.854 -39.917  1.00  0.00    -0.490 OA
ATOM     27  C   UNL     1       4.563 -14.996 -38.928  1.00  0.00     0.278 C 
ENDBRANCH  10  26
TORSDOF 6
ENDMDL
MODEL 8
REMARK VINA RESULT:    -5.210      3.019      4.054
REMARK INTER + INTRA:          -7.568
REMARK INTER:                  -7.005
REMARK INTRA:                  -0.563
REMARK UNBOUND:                -0.531
REMARK SMILES COc1ccc(-c2cc(=O)c3c(OC)c(OC)c(OC)c(OC)c3o2)cc1
REMARK SMILES IDX 7 1 8 2 9 3 10 4 11 5 24 6 25 7 21 8 18 9 15 10 12 11 6 12
REMARK SMILES IDX 3 13 4 14 27 15 5 16 26 17 2 18 1 19 22 20 23 21 13 22 14 23
REMARK SMILES IDX 19 24 20 25 16 26 17 27
REMARK H PARENT
REMARK Flexibility Score: inf
ROOT
ATOM      1  C   UNL     1       6.430 -15.079 -41.064  1.00  0.00     0.138 A 
ATOM      2  C   UNL     1       5.292 -14.268 -40.959  1.00  0.00     0.100 A 
ATOM      3  C   UNL     1       4.278 -14.622 -40.070  1.00  0.00     0.197 A 
ATOM      4  O   UNL     1       3.262 -13.881 -39.988  1.00  0.00    -0.289 OA
ATOM      5  C   UNL     1       4.405 -15.794 -39.288  1.00  0.00     0.115 A 
ATOM      6  C   UNL     1       5.575 -16.569 -39.466  1.00  0.00     0.188 A 
ATOM      7  O   UNL     1       6.513 -16.183 -40.327  1.00  0.00    -0.452 OA
ATOM      8  C   UNL     1       5.768 -17.756 -38.754  1.00  0.00     0.209 A 
ATOM      9  C   UNL     1       4.778 -18.191 -37.845  1.00  0.00     0.211 A 
ATOM     10  C   UNL     1       3.648 -17.381 -37.592  1.00  0.00     0.208 A 
ATOM     11  C   UNL     1       3.427 -16.203 -38.349  1.00  0.00     0.179 A 
ENDROOT
BRANCH   1  12
ATOM     12  C   UNL     1       7.544 -14.753 -41.990  1.00  0.00     0.018 A 
ATOM     13  C   UNL     1       9.634 -14.173 -43.801  1.00  0.00     0.118 A 
ATOM     14  C   UNL     1       8.364 -14.521 -44.271  1.00  0.00     0.047 A 
ATOM     15  C   UNL     1       9.860 -14.124 -42.413  1.00  0.00     0.047 A 
ATOM     16  C   UNL     1       7.329 -14.814 -43.379  1.00  0.00     0.016 A 
ATOM     17  C   UNL     1       8.826 -14.415 -41.518  1.00  0.00     0.016 A 
BRANCH  13  18
ATOM     18  O   UNL     1      10.637 -13.888 -44.737  1.00  0.00    -0.497 OA
ATOM     19  C   UNL     1      11.662 -12.918 -44.548  1.00  0.00     0.278 C 
ENDBRANCH  13  18
ENDBRANCH   1  12
BRANCH   8  20
ATOM     20  O   UNL     1       6.961 -18.461 -39.009  1.00  0.00    -0.490 OA
ATOM     21  C   UNL     1       8.165 -18.397 -38.251  1.00  0.00     0.278 C 
ENDBRANCH   8  20
BRANCH  11  22
ATOM     22  O   UNL     1       2.274 -15.405 -38.196  1.00  0.00    -0.492 OA
ATOM     23  C   UNL     1       0.964 -15.688 -38.675  1.00  0.00     0.278 C 
ENDBRANCH  11  22
BRANCH   9  24
ATOM     24  O   UNL     1       4.911 -19.427 -37.208  1.00  0.00    -0.490 OA
ATOM     25  C   UNL     1       4.460 -20.644 -37.793  1.00  0.00     0.279 C 
ENDBRANCH   9  24
BRANCH  10  26
ATOM     26  O   UNL     1       2.755 -17.737 -36.578  1.00  0.00    -0.490 OA
ATOM     27  C   UNL     1       1.631 -18.580 -36.810  1.00  0.00     0.278 C 
ENDBRANCH  10  26
TORSDOF 6
ENDMDL
MODEL 9
REMARK VINA RESULT:    -5.108      2.423      3.952
REMARK INTER + INTRA:          -7.431
REMARK INTER:                  -7.115
REMARK INTRA:                  -0.316
REMARK UNBOUND:                -0.531
REMARK SMILES COc1ccc(-c2cc(=O)c3c(OC)c(OC)c(OC)c(OC)c3o2)cc1
REMARK SMILES IDX 7 1 8 2 9 3 10 4 11 5 24 6 25 7 21 8 18 9 15 10 12 11 6 12
REMARK SMILES IDX 3 13 4 14 27 15 5 16 26 17 2 18 1 19 22 20 23 21 13 22 14 23
REMARK SMILES IDX 19 24 20 25 16 26 17 27
REMARK H PARENT
REMARK Flexibility Score: inf
ROOT
ATOM      1  C   UNL     1       6.580 -14.616 -38.693  1.00  0.00     0.138 A 
ATOM      2  C   UNL     1       5.392 -13.925 -38.963  1.00  0.00     0.100 A 
ATOM      3  C   UNL     1       4.187 -14.626 -39.013  1.00  0.00     0.197 A 
ATOM      4  O   UNL     1       3.128 -13.988 -39.255  1.00  0.00    -0.289 OA
ATOM      5  C   UNL     1       4.177 -16.024 -38.796  1.00  0.00     0.115 A 
ATOM      6  C   UNL     1       5.421 -16.651 -38.549  1.00  0.00     0.188 A 
ATOM      7  O   UNL     1       6.541 -15.933 -38.510  1.00  0.00    -0.452 OA
ATOM      8  C   UNL     1       5.505 -18.032 -38.351  1.00  0.00     0.209 A 
ATOM      9  C   UNL     1       4.330 -18.814 -38.403  1.00  0.00     0.211 A 
ATOM     10  C   UNL     1       3.073 -18.189 -38.559  1.00  0.00     0.208 A 
ATOM     11  C   UNL     1       2.991 -16.796 -38.809  1.00  0.00     0.179 A 
ENDROOT
BRANCH   1  12
ATOM     12  C   UNL     1       7.893 -13.925 -38.624  1.00  0.00     0.018 A 
ATOM     13  C   UNL     1      10.415 -12.663 -38.453  1.00  0.00     0.118 A 
ATOM     14  C   UNL     1      10.307 -14.052 -38.334  1.00  0.00     0.047 A 
ATOM     15  C   UNL     1       9.248 -11.901 -38.650  1.00  0.00     0.047 A 
ATOM     16  C   UNL     1       9.061 -14.679 -38.413  1.00  0.00     0.016 A 
ATOM     17  C   UNL     1       8.000 -12.526 -38.730  1.00  0.00     0.016 A 
BRANCH  13  18
ATOM     18  O   UNL     1      11.688 -12.082 -38.367  1.00  0.00    -0.497 OA
ATOM     19  C   UNL     1      12.600 -12.300 -37.296  1.00  0.00     0.278 C 
ENDBRANCH  13  18
ENDBRANCH   1  12
BRANCH   8  20
ATOM     20  O   UNL     1       6.790 -18.563 -38.123  1.00  0.00    -0.490 OA
ATOM     21  C   UNL     1       7.919 -18.454 -38.982  1.00  0.00     0.278 C 
ENDBRANCH   8  20
BRANCH  11  22
ATOM     22  O   UNL     1       1.768 -16.137 -39.056  1.00  0.00    -0.492 OA
ATOM     23  C   UNL     1       0.955 -16.243 -40.219  1.00  0.00     0.278 C 
ENDBRANCH  11  22
BRANCH   9  24
ATOM     24  O   UNL     1       4.414 -20.206 -38.313  1.00  0.00    -0.490 OA
ATOM     25  C   UNL     1       4.320 -20.902 -37.074  1.00  0.00     0.279 C 
ENDBRANCH   9  24
BRANCH  10  26
ATOM     26  O   UNL     1       1.904 -18.949 -38.449  1.00  0.00    -0.490 OA
ATOM     27  C   UNL     1       1.105 -18.954 -37.270  1.00  0.00     0.278 C 
ENDBRANCH  10  26
TORSDOF 6
ENDMDL
