MODEL 1
REMARK VINA RESULT:    -4.749      0.000      0.000
REMARK INTER + INTRA:          -6.348
REMARK INTER:                  -6.693
REMARK INTRA:                   0.345
REMARK UNBOUND:                 0.345
REMARK SMILES CC1=CCC(=C(C)C)C(=O)CC(C)=CCC1
REMARK SMILES IDX 12 1 14 2 13 3 15 4 16 5 2 6 1 7 3 8 11 10 9 11 10 12 5 13
REMARK SMILES IDX 6 14 7 15 8 16 4 17
REMARK H PARENT
REMARK Flexibility Score: 60.00
ROOT
ATOM      1  C   UNL     1     257.300 261.182 245.303  1.00  0.00    -0.070 C 
ATOM      2  C   UNL     1     256.236 260.660 244.650  1.00  0.00    -0.027 C 
ATOM      3  C   UNL     1     258.670 260.971 244.711  1.00  0.00     0.039 C 
ENDROOT
BRANCH   2   4
ATOM      4  C   UNL     1     254.792 260.825 245.065  1.00  0.00     0.032 C 
BRANCH   4   5
ATOM      5  C   UNL     1     254.416 259.861 246.200  1.00  0.00     0.034 C 
BRANCH   5   6
ATOM      6  C   UNL     1     253.798 260.553 247.406  1.00  0.00    -0.077 C 
ATOM      7  C   UNL     1     252.477 261.261 247.240  1.00  0.00     0.039 C 
ATOM      8  C   UNL     1     254.362 260.552 248.635  1.00  0.00    -0.023 CG0
ATOM      9  G   UNL     1     255.708 259.958 248.980  1.00  0.00     0.000 G0
ENDBRANCH   5   6
ENDBRANCH   4   5
ENDBRANCH   2   4
BRANCH   1  10
ATOM     10  C   UNL     1     257.173 261.962 246.598  1.00  0.00     0.111 C 
BRANCH  10  11
ATOM     11  C   UNL     1     257.674 261.160 247.766  1.00  0.00     0.163 C 
ATOM     12  O   UNL     1     258.821 260.639 247.710  1.00  0.00    -0.294 OA
BRANCH  11  13
ATOM     13  C   UNL     1     256.856 260.990 248.993  1.00  0.00    -0.002 C 
ATOM     14  C   UNL     1     257.120 261.733 250.103  1.00  0.00    -0.069 C 
ATOM     15  C   UNL     1     258.182 262.809 250.088  1.00  0.00     0.039 C 
ATOM     16  C   UNL     1     256.334 261.537 251.378  1.00  0.00     0.039 C 
BRANCH  13  17
ATOM     17  C   UNL     1     255.719 259.974 248.993  1.00  0.00     0.066 CG0
ATOM     18  G   UNL     1     254.375 260.566 248.639  1.00  0.00     0.000 G0
ENDBRANCH  13  17
ENDBRANCH  11  13
ENDBRANCH  10  11
ENDBRANCH   1  10
TORSDOF 0
ENDMDL
MODEL 2
REMARK VINA RESULT:    -4.729      3.212      5.363
REMARK INTER + INTRA:          -6.319
REMARK INTER:                  -6.612
REMARK INTRA:                   0.293
REMARK UNBOUND:                 0.345
REMARK SMILES CC1=CCC(=C(C)C)C(=O)CC(C)=CCC1
REMARK SMILES IDX 12 1 14 2 13 3 15 4 16 5 2 6 1 7 3 8 11 10 9 11 10 12 5 13
REMARK SMILES IDX 6 14 7 15 8 16 4 17
REMARK H PARENT
REMARK Flexibility Score: 60.00
ROOT
ATOM      1  C   UNL     1     251.863 259.083 246.917  1.00  0.00    -0.070 C 
ATOM      2  C   UNL     1     252.212 260.383 247.059  1.00  0.00    -0.027 C 
ATOM      3  C   UNL     1     250.396 258.739 246.906  1.00  0.00     0.039 C 
ENDROOT
BRANCH   2   4
ATOM      4  C   UNL     1     253.628 260.914 247.031  1.00  0.00     0.032 C 
BRANCH   4   5
ATOM      5  C   UNL     1     254.342 260.691 248.373  1.00  0.00     0.034 C 
BRANCH   5   6
ATOM      6  C   UNL     1     255.738 260.104 248.228  1.00  0.00    -0.077 C 
ATOM      7  C   UNL     1     256.785 260.893 247.483  1.00  0.00     0.039 C 
ATOM      8  C   UNL     1     256.102 258.911 248.752  1.00  0.00    -0.023 CG0
ATOM      9  G   UNL     1     255.181 257.951 249.468  1.00  0.00     0.000 G0
ENDBRANCH   5   6
ENDBRANCH   4   5
ENDBRANCH   2   4
BRANCH   1  10
ATOM     10  C   UNL     1     252.880 257.967 246.771  1.00  0.00     0.111 C 
BRANCH  10  11
ATOM     11  C   UNL     1     253.102 257.261 248.080  1.00  0.00     0.163 C 
ATOM     12  O   UNL     1     252.105 256.907 248.767  1.00  0.00    -0.294 OA
BRANCH  11  13
ATOM     13  C   UNL     1     254.469 256.953 248.568  1.00  0.00    -0.002 C 
ATOM     14  C   UNL     1     255.084 255.794 248.202  1.00  0.00    -0.069 C 
ATOM     15  C   UNL     1     254.437 254.843 247.221  1.00  0.00     0.039 C 
ATOM     16  C   UNL     1     256.454 255.438 248.730  1.00  0.00     0.039 C 
BRANCH  13  17
ATOM     17  C   UNL     1     255.174 257.949 249.483  1.00  0.00     0.066 CG0
ATOM     18  G   UNL     1     256.111 258.884 248.756  1.00  0.00     0.000 G0
ENDBRANCH  13  17
ENDBRANCH  11  13
ENDBRANCH  10  11
ENDBRANCH   1  10
TORSDOF 0
ENDMDL
MODEL 3
REMARK VINA RESULT:    -4.635      1.699      3.538
REMARK INTER + INTRA:          -6.187
REMARK INTER:                  -6.612
REMARK INTRA:                   0.425
REMARK UNBOUND:                 0.345
REMARK SMILES CC1=CCC(=C(C)C)C(=O)CC(C)=CCC1
REMARK SMILES IDX 12 1 14 2 13 3 15 4 16 5 2 6 1 7 3 8 11 10 9 11 10 12 5 13
REMARK SMILES IDX 6 14 7 15 8 16 4 17
REMARK H PARENT
REMARK Flexibility Score: 60.00
ROOT
ATOM      1  C   UNL     1     254.348 259.659 246.867  1.00  0.00    -0.070 C 
ATOM      2  C   UNL     1     254.800 260.059 245.655  1.00  0.00    -0.027 C 
ATOM      3  C   UNL     1     253.627 258.338 246.955  1.00  0.00     0.039 C 
ENDROOT
BRANCH   2   4
ATOM      4  C   UNL     1     255.593 261.320 245.393  1.00  0.00     0.032 C 
BRANCH   4   5
ATOM      5  C   UNL     1     257.105 261.049 245.407  1.00  0.00     0.034 C 
BRANCH   5   6
ATOM      6  C   UNL     1     257.902 262.093 246.176  1.00  0.00    -0.077 C 
ATOM      7  C   UNL     1     258.279 263.377 245.480  1.00  0.00     0.039 C 
ATOM      8  C   UNL     1     258.280 261.940 247.466  1.00  0.00    -0.023 CG0
ATOM      9  G   UNL     1     258.057 260.702 248.302  1.00  0.00     0.000 G0
ENDBRANCH   5   6
ENDBRANCH   4   5
ENDBRANCH   2   4
BRANCH   1  10
ATOM     10  C   UNL     1     254.535 260.479 248.129  1.00  0.00     0.111 C 
BRANCH  10  11
ATOM     11  C   UNL     1     255.673 259.950 248.956  1.00  0.00     0.163 C 
ATOM     12  O   UNL     1     255.618 258.771 249.400  1.00  0.00    -0.294 OA
BRANCH  11  13
ATOM     13  C   UNL     1     256.872 260.780 249.239  1.00  0.00    -0.002 C 
ATOM     14  C   UNL     1     256.897 261.601 250.325  1.00  0.00    -0.069 C 
ATOM     15  C   UNL     1     255.755 261.622 251.316  1.00  0.00     0.039 C 
ATOM     16  C   UNL     1     258.086 262.492 250.601  1.00  0.00     0.039 C 
BRANCH  13  17
ATOM     17  C   UNL     1     258.071 260.699 248.300  1.00  0.00     0.066 CG0
ATOM     18  G   UNL     1     258.276 261.942 247.467  1.00  0.00     0.000 G0
ENDBRANCH  13  17
ENDBRANCH  11  13
ENDBRANCH  10  11
ENDBRANCH   1  10
TORSDOF 0
ENDMDL
MODEL 4
REMARK VINA RESULT:    -4.565      4.196      6.545
REMARK INTER + INTRA:          -6.088
REMARK INTER:                  -6.379
REMARK INTRA:                   0.291
REMARK UNBOUND:                 0.345
REMARK SMILES CC1=CCC(=C(C)C)C(=O)CC(C)=CCC1
REMARK SMILES IDX 12 1 14 2 13 3 15 4 16 5 2 6 1 7 3 8 11 10 9 11 10 12 5 13
REMARK SMILES IDX 6 14 7 15 8 16 4 17
REMARK H PARENT
REMARK Flexibility Score: 60.00
ROOT
ATOM      1  C   UNL     1     252.953 260.537 247.226  1.00  0.00    -0.070 C 
ATOM      2  C   UNL     1     252.014 261.512 247.227  1.00  0.00    -0.027 C 
ATOM      3  C   UNL     1     254.203 260.755 248.039  1.00  0.00     0.039 C 
ENDROOT
BRANCH   2   4
ATOM      4  C   UNL     1     250.680 261.437 246.520  1.00  0.00     0.032 C 
BRANCH   4   5
ATOM      5  C   UNL     1     249.675 260.576 247.300  1.00  0.00     0.034 C 
BRANCH   5   6
ATOM      6  C   UNL     1     248.891 259.612 246.422  1.00  0.00    -0.077 C 
ATOM      7  C   UNL     1     247.937 260.173 245.398  1.00  0.00     0.039 C 
ATOM      8  C   UNL     1     249.017 258.267 246.496  1.00  0.00    -0.023 CG0
ATOM      9  G   UNL     1     249.865 257.521 247.500  1.00  0.00     0.000 G0
ENDBRANCH   5   6
ENDBRANCH   4   5
ENDBRANCH   2   4
BRANCH   1  10
ATOM     10  C   UNL     1     252.802 259.245 246.445  1.00  0.00     0.111 C 
BRANCH  10  11
ATOM     11  C   UNL     1     252.402 258.111 247.346  1.00  0.00     0.163 C 
ATOM     12  O   UNL     1     253.007 257.948 248.440  1.00  0.00    -0.294 OA
BRANCH  11  13
ATOM     13  C   UNL     1     251.291 257.193 246.986  1.00  0.00    -0.002 C 
ATOM     14  C   UNL     1     251.531 256.092 246.221  1.00  0.00    -0.069 C 
ATOM     15  C   UNL     1     252.937 255.724 245.801  1.00  0.00     0.039 C 
ATOM     16  C   UNL     1     250.407 255.175 245.800  1.00  0.00     0.039 C 
BRANCH  13  17
ATOM     17  C   UNL     1     249.882 257.500 247.482  1.00  0.00     0.066 CG0
ATOM     18  G   UNL     1     249.041 258.266 246.489  1.00  0.00     0.000 G0
ENDBRANCH  13  17
ENDBRANCH  11  13
ENDBRANCH  10  11
ENDBRANCH   1  10
TORSDOF 0
ENDMDL
MODEL 5
REMARK VINA RESULT:    -4.539      5.978      8.480
REMARK INTER + INTRA:          -6.051
REMARK INTER:                  -6.409
REMARK INTRA:                   0.357
REMARK UNBOUND:                 0.345
REMARK SMILES CC1=CCC(=C(C)C)C(=O)CC(C)=CCC1
REMARK SMILES IDX 12 1 14 2 13 3 15 4 16 5 2 6 1 7 3 8 11 10 9 11 10 12 5 13
REMARK SMILES IDX 6 14 7 15 8 16 4 17
REMARK H PARENT
REMARK Flexibility Score: 60.00
ROOT
ATOM      1  C   UNL     1     250.116 259.176 247.006  1.00  0.00    -0.070 C 
ATOM      2  C   UNL     1     251.450 259.401 247.021  1.00  0.00    -0.027 C 
ATOM      3  C   UNL     1     249.216 260.273 246.496  1.00  0.00     0.039 C 
ENDROOT
BRANCH   2   4
ATOM      4  C   UNL     1     252.499 258.396 247.440  1.00  0.00     0.032 C 
BRANCH   4   5
ATOM      5  C   UNL     1     252.850 257.435 246.294  1.00  0.00     0.034 C 
BRANCH   5   6
ATOM      6  C   UNL     1     252.957 255.981 246.731  1.00  0.00    -0.077 C 
ATOM      7  C   UNL     1     254.117 255.568 247.602  1.00  0.00     0.039 C 
ATOM      8  C   UNL     1     252.052 255.034 246.396  1.00  0.00    -0.023 CG0
ATOM      9  G   UNL     1     250.868 255.239 245.480  1.00  0.00     0.000 G0
ENDBRANCH   5   6
ENDBRANCH   4   5
ENDBRANCH   2   4
BRANCH   1  10
ATOM     10  C   UNL     1     249.492 257.876 247.478  1.00  0.00     0.111 C 
BRANCH  10  11
ATOM     11  C   UNL     1     249.136 256.992 246.315  1.00  0.00     0.163 C 
ATOM     12  O   UNL     1     248.463 257.469 245.361  1.00  0.00    -0.294 OA
BRANCH  11  13
ATOM     13  C   UNL     1     249.580 255.577 246.257  1.00  0.00    -0.002 C 
ATOM     14  C   UNL     1     248.861 254.605 246.883  1.00  0.00    -0.069 C 
ATOM     15  C   UNL     1     247.551 254.922 247.569  1.00  0.00     0.039 C 
ATOM     16  C   UNL     1     249.325 253.167 246.879  1.00  0.00     0.039 C 
BRANCH  13  17
ATOM     17  C   UNL     1     250.850 255.227 245.488  1.00  0.00     0.066 CG0
ATOM     18  G   UNL     1     252.059 255.022 246.371  1.00  0.00     0.000 G0
ENDBRANCH  13  17
ENDBRANCH  11  13
ENDBRANCH  10  11
ENDBRANCH   1  10
TORSDOF 0
ENDMDL
MODEL 6
REMARK VINA RESULT:    -4.496      2.351      3.002
REMARK INTER + INTRA:          -5.991
REMARK INTER:                  -6.316
REMARK INTRA:                   0.325
REMARK UNBOUND:                 0.345
REMARK SMILES CC1=CCC(=C(C)C)C(=O)CC(C)=CCC1
REMARK SMILES IDX 12 1 14 2 13 3 15 4 16 5 2 6 1 7 3 8 11 10 9 11 10 12 5 13
REMARK SMILES IDX 6 14 7 15 8 16 4 17
REMARK H PARENT
REMARK Flexibility Score: 60.00
ROOT
ATOM      1  C   UNL     1     254.957 260.273 246.291  1.00  0.00    -0.070 C 
ATOM      2  C   UNL     1     254.411 259.261 245.578  1.00  0.00    -0.027 C 
ATOM      3  C   UNL     1     255.907 261.207 245.586  1.00  0.00     0.039 C 
ENDROOT
BRANCH   2   4
ATOM      4  C   UNL     1     253.397 258.271 246.105  1.00  0.00     0.032 C 
BRANCH   4   5
ATOM      5  C   UNL     1     254.045 257.243 247.045  1.00  0.00     0.034 C 
BRANCH   5   6
ATOM      6  C   UNL     1     253.309 257.078 248.366  1.00  0.00    -0.077 C 
ATOM      7  C   UNL     1     251.855 256.679 248.343  1.00  0.00     0.039 C 
ATOM      8  C   UNL     1     253.896 257.252 249.573  1.00  0.00    -0.023 CG0
ATOM      9  G   UNL     1     255.316 257.716 249.797  1.00  0.00     0.000 G0
ENDBRANCH   5   6
ENDBRANCH   4   5
ENDBRANCH   2   4
BRANCH   1  10
ATOM     10  C   UNL     1     254.656 260.505 247.760  1.00  0.00     0.111 C 
BRANCH  10  11
ATOM     11  C   UNL     1     255.766 259.984 248.629  1.00  0.00     0.163 C 
ATOM     12  O   UNL     1     256.963 260.206 248.301  1.00  0.00    -0.294 OA
BRANCH  11  13
ATOM     13  C   UNL     1     255.481 259.235 249.879  1.00  0.00    -0.002 C 
ATOM     14  C   UNL     1     255.360 259.897 251.064  1.00  0.00    -0.069 C 
ATOM     15  C   UNL     1     255.417 261.406 251.125  1.00  0.00     0.039 C 
ATOM     16  C   UNL     1     255.123 259.147 252.354  1.00  0.00     0.039 C 
BRANCH  13  17
ATOM     17  C   UNL     1     255.326 257.719 249.819  1.00  0.00     0.066 CG0
ATOM     18  G   UNL     1     253.909 257.263 249.564  1.00  0.00     0.000 G0
ENDBRANCH  13  17
ENDBRANCH  11  13
ENDBRANCH  10  11
ENDBRANCH   1  10
TORSDOF 0
ENDMDL
MODEL 7
REMARK VINA RESULT:    -4.398      5.668      7.394
REMARK INTER + INTRA:          -5.853
REMARK INTER:                  -6.179
REMARK INTRA:                   0.326
REMARK UNBOUND:                 0.345
REMARK SMILES CC1=CCC(=C(C)C)C(=O)CC(C)=CCC1
REMARK SMILES IDX 12 1 14 2 13 3 15 4 16 5 2 6 1 7 3 8 11 10 9 11 10 12 5 13
REMARK SMILES IDX 6 14 7 15 8 16 4 17
REMARK H PARENT
REMARK Flexibility Score: 60.00
ROOT
ATOM      1  C   UNL     1     250.811 258.823 247.243  1.00  0.00    -0.070 C 
ATOM      2  C   UNL     1     249.522 258.657 246.865  1.00  0.00    -0.027 C 
ATOM      3  C   UNL     1     251.426 260.191 247.089  1.00  0.00     0.039 C 
ENDROOT
BRANCH   2   4
ATOM      4  C   UNL     1     248.731 257.377 247.005  1.00  0.00     0.032 C 
BRANCH   4   5
ATOM      5  C   UNL     1     249.139 256.341 245.947  1.00  0.00     0.034 C 
BRANCH   5   6
ATOM      6  C   UNL     1     249.486 254.979 246.531  1.00  0.00    -0.077 C 
ATOM      7  C   UNL     1     248.442 254.247 247.336  1.00  0.00     0.039 C 
ATOM      8  C   UNL     1     250.683 254.375 246.351  1.00  0.00    -0.023 CG0
ATOM      9  G   UNL     1     251.870 254.978 245.637  1.00  0.00     0.000 G0
ENDBRANCH   5   6
ENDBRANCH   4   5
ENDBRANCH   2   4
BRANCH   1  10
ATOM     10  C   UNL     1     251.656 257.699 247.811  1.00  0.00     0.111 C 
BRANCH  10  11
ATOM     11  C   UNL     1     252.639 257.193 246.793  1.00  0.00     0.163 C 
ATOM     12  O   UNL     1     253.317 258.020 246.125  1.00  0.00    -0.294 OA
BRANCH  11  13
ATOM     13  C   UNL     1     252.844 255.738 246.574  1.00  0.00    -0.002 C 
ATOM     14  C   UNL     1     253.870 255.089 247.192  1.00  0.00    -0.069 C 
ATOM     15  C   UNL     1     254.763 255.803 248.182  1.00  0.00     0.039 C 
ATOM     16  C   UNL     1     254.127 253.622 246.941  1.00  0.00     0.039 C 
BRANCH  13  17
ATOM     17  C   UNL     1     251.893 254.984 245.651  1.00  0.00     0.066 CG0
ATOM     18  G   UNL     1     250.693 254.400 246.360  1.00  0.00     0.000 G0
ENDBRANCH  13  17
ENDBRANCH  11  13
ENDBRANCH  10  11
ENDBRANCH   1  10
TORSDOF 0
ENDMDL
MODEL 8
REMARK VINA RESULT:    -4.325      4.753      6.561
REMARK INTER + INTRA:          -5.750
REMARK INTER:                  -6.143
REMARK INTRA:                   0.393
REMARK UNBOUND:                 0.345
REMARK SMILES CC1=CCC(=C(C)C)C(=O)CC(C)=CCC1
REMARK SMILES IDX 12 1 14 2 13 3 15 4 16 5 2 6 1 7 3 8 11 10 9 11 10 12 5 13
REMARK SMILES IDX 6 14 7 15 8 16 4 17
REMARK H PARENT
REMARK Flexibility Score: 60.00
ROOT
ATOM      1  C   UNL     1     252.458 254.683 246.324  1.00  0.00    -0.070 C 
ATOM      2  C   UNL     1     251.184 254.229 246.374  1.00  0.00    -0.027 C 
ATOM      3  C   UNL     1     253.549 253.797 246.868  1.00  0.00     0.039 C 
ENDROOT
BRANCH   2   4
ATOM      4  C   UNL     1     249.978 254.955 245.822  1.00  0.00     0.032 C 
BRANCH   4   5
ATOM      5  C   UNL     1     249.287 255.805 246.899  1.00  0.00     0.034 C 
BRANCH   5   6
ATOM      6  C   UNL     1     249.102 257.261 246.499  1.00  0.00    -0.077 C 
ATOM      7  C   UNL     1     247.974 257.620 245.564  1.00  0.00     0.039 C 
ATOM      8  C   UNL     1     249.887 258.264 246.954  1.00  0.00    -0.023 CG0
ATOM      9  G   UNL     1     251.101 258.094 247.837  1.00  0.00     0.000 G0
ENDBRANCH   5   6
ENDBRANCH   4   5
ENDBRANCH   2   4
BRANCH   1  10
ATOM     10  C   UNL     1     252.830 256.037 245.750  1.00  0.00     0.111 C 
BRANCH  10  11
ATOM     11  C   UNL     1     253.222 256.998 246.838  1.00  0.00     0.163 C 
ATOM     12  O   UNL     1     254.255 256.767 247.522  1.00  0.00    -0.294 OA
BRANCH  11  13
ATOM     13  C   UNL     1     252.430 258.225 247.106  1.00  0.00    -0.002 C 
ATOM     14  C   UNL     1     252.890 259.441 246.701  1.00  0.00    -0.069 C 
ATOM     15  C   UNL     1     254.161 259.565 245.891  1.00  0.00     0.039 C 
ATOM     16  C   UNL     1     252.125 260.707 247.011  1.00  0.00     0.039 C 
BRANCH  13  17
ATOM     17  C   UNL     1     251.098 258.105 247.839  1.00  0.00     0.066 CG0
ATOM     18  G   UNL     1     249.894 258.277 246.943  1.00  0.00     0.000 G0
ENDBRANCH  13  17
ENDBRANCH  11  13
ENDBRANCH  10  11
ENDBRANCH   1  10
TORSDOF 0
ENDMDL
MODEL 9
REMARK VINA RESULT:    -4.140      4.239      6.053
REMARK INTER + INTRA:          -5.489
REMARK INTER:                  -6.109
REMARK INTRA:                   0.620
REMARK UNBOUND:                 0.345
REMARK SMILES CC1=CCC(=C(C)C)C(=O)CC(C)=CCC1
REMARK SMILES IDX 12 1 14 2 13 3 15 4 16 5 2 6 1 7 3 8 11 10 9 11 10 12 5 13
REMARK SMILES IDX 6 14 7 15 8 16 4 17
REMARK H PARENT
REMARK Flexibility Score: 60.00
ROOT
ATOM      1  C   UNL     1     252.164 255.508 246.446  1.00  0.00    -0.070 C 
ATOM      2  C   UNL     1     252.741 254.371 246.897  1.00  0.00    -0.027 C 
ATOM      3  C   UNL     1     250.663 255.537 246.310  1.00  0.00     0.039 C 
ENDROOT
BRANCH   2   4
ATOM      4  C   UNL     1     254.220 254.186 247.151  1.00  0.00     0.032 C 
BRANCH   4   5
ATOM      5  C   UNL     1     254.586 254.488 248.612  1.00  0.00     0.034 C 
BRANCH   5   6
ATOM      6  C   UNL     1     255.645 255.570 248.762  1.00  0.00    -0.077 C 
ATOM      7  C   UNL     1     257.099 255.179 248.681  1.00  0.00     0.039 C 
ATOM      8  C   UNL     1     255.353 256.878 248.948  1.00  0.00    -0.023 CG0
ATOM      9  G   UNL     1     253.966 257.449 249.124  1.00  0.00     0.000 G0
ENDBRANCH   5   6
ENDBRANCH   4   5
ENDBRANCH   2   4
BRANCH   1  10
ATOM     10  C   UNL     1     252.958 256.745 246.071  1.00  0.00     0.111 C 
BRANCH  10  11
ATOM     11  C   UNL     1     252.605 257.906 246.960  1.00  0.00     0.163 C 
ATOM     12  O   UNL     1     251.478 258.456 246.837  1.00  0.00    -0.294 OA
BRANCH  11  13
ATOM     13  C   UNL     1     253.548 258.400 247.994  1.00  0.00    -0.002 C 
ATOM     14  C   UNL     1     254.034 259.671 247.930  1.00  0.00    -0.069 C 
ATOM     15  C   UNL     1     253.559 260.635 246.866  1.00  0.00     0.039 C 
ATOM     16  C   UNL     1     255.035 260.175 248.943  1.00  0.00     0.039 C 
BRANCH  13  17
ATOM     17  C   UNL     1     253.963 257.468 249.128  1.00  0.00     0.066 CG0
ATOM     18  G   UNL     1     255.344 256.879 248.956  1.00  0.00     0.000 G0
ENDBRANCH  13  17
ENDBRANCH  11  13
ENDBRANCH  10  11
ENDBRANCH   1  10
TORSDOF 0
ENDMDL
