MODEL 1
REMARK VINA RESULT:    -4.907      0.000      0.000
REMARK INTER + INTRA:          -9.130
REMARK INTER:                  -8.062
REMARK INTRA:                  -1.068
REMARK UNBOUND:                -1.068
REMARK SMILES C[C@@H]1O[C@H](OC[C@H]2O[C@@H](Oc3c(-c4ccc(O)c(O)c4)oc4cc(O)cc(O)c4c3=O)[C@H](O)[C@@H](O)[C@H]2O)[C@@H](O)[C@@H](O)[C@@H]1O
REMARK SMILES IDX 7 1 36 2 34 3 32 4 9 5 8 6 6 7 5 8 4 9 1 10 2 11 42 12 3 13
REMARK SMILES IDX 40 14 38 15 43 16 41 18 39 20 37 22 35 24 10 26 11 27 12 28
REMARK SMILES IDX 30 29 21 30 29 31 31 32 22 33 27 34 23 35 26 36 24 37 13 38
REMARK SMILES IDX 20 39 14 40 18 41 15 42 16 43 19 44 17 46 28 48 25 50 33 52
REMARK H PARENT 43 17 41 19 39 21 37 23 35 25 19 45 17 47 28 49 25 51 33 53
REMARK Flexibility Score: inf
ROOT
ATOM      1  C   UNL     1      28.036 -11.483  31.116  1.00  0.00     0.180 C 
ATOM      2  C   UNL     1      27.847 -11.981  29.654  1.00  0.00     0.177 C 
ATOM      3  C   UNL     1      26.348 -12.125  29.282  1.00  0.00     0.180 C 
ATOM      4  C   UNL     1      25.457 -11.209  30.138  1.00  0.00     0.214 C 
ATOM      5  C   UNL     1      25.699 -11.494  31.641  1.00  0.00     0.339 C 
ATOM      6  O   UNL     1      27.002 -11.971  31.958  1.00  0.00    -0.332 OA
ENDROOT
BRANCH   1   7
ATOM      7  C   UNL     1      28.253  -9.954  31.266  1.00  0.00     0.198 C 
BRANCH   7   8
ATOM      8  O   UNL     1      29.579  -9.614  30.888  1.00  0.00    -0.347 OA
BRANCH   8   9
ATOM      9  C   UNL     1      30.490  -9.768  31.963  1.00  0.00     0.281 C 
ATOM     10  C   UNL     1      31.241 -11.729  29.647  1.00  0.00     0.041 C 
ATOM     11  C   UNL     1      31.951 -11.402  30.972  1.00  0.00     0.150 C 
ATOM     12  C   UNL     1      33.105 -10.375  30.846  1.00  0.00     0.174 C 
ATOM     13  O   UNL     1      31.035 -11.087  32.018  1.00  0.00    -0.344 OA
ATOM     14  C   UNL     1      32.563  -8.937  30.753  1.00  0.00     0.179 C 
ATOM     15  C   UNL     1      31.569  -8.664  31.896  1.00  0.00     0.202 C 
BRANCH  12  16
ATOM     16  O   UNL     1      33.958 -10.683  29.769  1.00  0.00    -0.388 OA
ATOM     17  H   UNL     1      34.896 -10.619  30.085  1.00  0.00     0.211 HD
ENDBRANCH  12  16
BRANCH  14  18
ATOM     18  O   UNL     1      33.605  -7.992  30.747  1.00  0.00    -0.387 OA
ATOM     19  H   UNL     1      34.395  -8.400  31.187  1.00  0.00     0.211 HD
ENDBRANCH  14  18
BRANCH  15  20
ATOM     20  O   UNL     1      32.224  -8.513  33.134  1.00  0.00    -0.385 OA
ATOM     21  H   UNL     1      33.194  -8.404  32.961  1.00  0.00     0.211 HD
ENDBRANCH  15  20
ENDBRANCH   8   9
ENDBRANCH   7   8
ENDBRANCH   1   7
BRANCH   2  22
ATOM     22  O   UNL     1      28.519 -11.148  28.742  1.00  0.00    -0.387 OA
ATOM     23  H   UNL     1      27.824 -10.591  28.299  1.00  0.00     0.211 HD
ENDBRANCH   2  22
BRANCH   3  24
ATOM     24  O   UNL     1      26.135 -11.919  27.906  1.00  0.00    -0.387 OA
ATOM     25  H   UNL     1      26.620 -11.093  27.642  1.00  0.00     0.211 HD
ENDBRANCH   3  24
BRANCH   5  26
ATOM     26  O   UNL     1      25.397 -10.327  32.411  1.00  0.00    -0.454 OA
BRANCH  26  27
ATOM     27  C   UNL     1      24.292 -10.237  33.271  1.00  0.00     0.214 A 
ATOM     28  C   UNL     1      23.134  -9.503  32.943  1.00  0.00     0.180 A 
ATOM     29  C   UNL     1      24.345 -10.885  34.510  1.00  0.00     0.239 A 
ATOM     30  O   UNL     1      22.152  -9.376  33.829  1.00  0.00    -0.452 OA
ATOM     31  C   UNL     1      23.279 -10.743  35.422  1.00  0.00     0.111 A 
ATOM     32  O   UNL     1      25.362 -11.572  34.799  1.00  0.00    -0.285 OA
ATOM     33  C   UNL     1      22.178  -9.947  35.028  1.00  0.00     0.146 A 
ATOM     34  C   UNL     1      23.276 -11.339  36.705  1.00  0.00     0.134 A 
ATOM     35  C   UNL     1      21.099  -9.758  35.897  1.00  0.00     0.094 A 
ATOM     36  C   UNL     1      22.184 -11.136  37.563  1.00  0.00     0.093 A 
ATOM     37  C   UNL     1      21.099 -10.349  37.161  1.00  0.00     0.123 A 
BRANCH  28  38
ATOM     38  C   UNL     1      22.953  -8.887  31.621  1.00  0.00     0.025 A 
ATOM     39  C   UNL     1      21.814  -9.183  30.860  1.00  0.00     0.062 A 
ATOM     40  C   UNL     1      23.928  -8.023  31.103  1.00  0.00     0.016 A 
ATOM     41  C   UNL     1      21.619  -8.577  29.614  1.00  0.00     0.158 A 
ATOM     42  C   UNL     1      23.741  -7.419  29.858  1.00  0.00     0.051 A 
ATOM     43  C   UNL     1      22.585  -7.686  29.111  1.00  0.00     0.157 A 
BRANCH  41  44
ATOM     44  O   UNL     1      20.458  -8.861  28.897  1.00  0.00    -0.504 OA
ATOM     45  H   UNL     1      20.455  -9.491  28.105  1.00  0.00     0.293 HD
ENDBRANCH  41  44
BRANCH  43  46
ATOM     46  O   UNL     1      22.393  -7.070  27.875  1.00  0.00    -0.504 OA
ATOM     47  H   UNL     1      22.557  -6.079  27.744  1.00  0.00     0.293 HD
ENDBRANCH  43  46
ENDBRANCH  28  38
BRANCH  34  48
ATOM     48  O   UNL     1      24.346 -12.124  37.136  1.00  0.00    -0.507 OA
ATOM     49  H   UNL     1      24.443 -12.407  38.103  1.00  0.00     0.293 HD
ENDBRANCH  34  48
BRANCH  37  50
ATOM     50  O   UNL     1      20.014 -10.150  38.012  1.00  0.00    -0.508 OA
ATOM     51  H   UNL     1      19.857 -10.743  38.818  1.00  0.00     0.293 HD
ENDBRANCH  37  50
ENDBRANCH  26  27
ENDBRANCH   5  26
BRANCH   4  52
ATOM     52  O   UNL     1      24.103 -11.435  29.837  1.00  0.00    -0.384 OA
ATOM     53  H   UNL     1      23.986 -12.418  29.740  1.00  0.00     0.211 HD
ENDBRANCH   4  52
TORSDOF 16
ENDMDL
MODEL 2
REMARK VINA RESULT:    -3.606      1.040      2.035
REMARK INTER + INTRA:          -6.992
REMARK INTER:                  -5.382
REMARK INTRA:                  -1.610
REMARK UNBOUND:                -1.068
REMARK SMILES C[C@@H]1O[C@H](OC[C@H]2O[C@@H](Oc3c(-c4ccc(O)c(O)c4)oc4cc(O)cc(O)c4c3=O)[C@H](O)[C@@H](O)[C@H]2O)[C@@H](O)[C@@H](O)[C@@H]1O
REMARK SMILES IDX 7 1 36 2 34 3 32 4 9 5 8 6 6 7 5 8 4 9 1 10 2 11 42 12 3 13
REMARK SMILES IDX 40 14 38 15 43 16 41 18 39 20 37 22 35 24 10 26 11 27 12 28
REMARK SMILES IDX 30 29 21 30 29 31 31 32 22 33 27 34 23 35 26 36 24 37 13 38
REMARK SMILES IDX 20 39 14 40 18 41 15 42 16 43 19 44 17 46 28 48 25 50 33 52
REMARK H PARENT 43 17 41 19 39 21 37 23 35 25 19 45 17 47 28 49 25 51 33 53
REMARK Flexibility Score: inf
ROOT
ATOM      1  C   UNL     1      28.152 -11.157  31.235  1.00  0.00     0.180 C 
ATOM      2  C   UNL     1      28.075 -11.735  29.792  1.00  0.00     0.177 C 
ATOM      3  C   UNL     1      26.614 -12.036  29.367  1.00  0.00     0.180 C 
ATOM      4  C   UNL     1      25.604 -11.170  30.141  1.00  0.00     0.214 C 
ATOM      5  C   UNL     1      25.804 -11.364  31.664  1.00  0.00     0.339 C 
ATOM      6  O   UNL     1      27.131 -11.701  32.057  1.00  0.00    -0.332 OA
ENDROOT
BRANCH   1   7
ATOM      7  C   UNL     1      28.220  -9.608  31.318  1.00  0.00     0.198 C 
BRANCH   7   8
ATOM      8  O   UNL     1      29.305  -9.215  32.145  1.00  0.00    -0.347 OA
BRANCH   8   9
ATOM      9  C   UNL     1      30.409  -8.755  31.384  1.00  0.00     0.281 C 
ATOM     10  C   UNL     1      29.297  -6.430  33.154  1.00  0.00     0.041 C 
ATOM     11  C   UNL     1      30.536  -6.512  32.245  1.00  0.00     0.150 C 
ATOM     12  C   UNL     1      31.861  -6.813  32.989  1.00  0.00     0.174 C 
ATOM     13  O   UNL     1      30.326  -7.355  31.114  1.00  0.00    -0.344 OA
ATOM     14  C   UNL     1      31.982  -8.310  33.329  1.00  0.00     0.179 C 
ATOM     15  C   UNL     1      31.728  -9.165  32.075  1.00  0.00     0.202 C 
BRANCH  12  16
ATOM     16  O   UNL     1      32.010  -6.004  34.131  1.00  0.00    -0.388 OA
ATOM     17  H   UNL     1      32.366  -6.565  34.867  1.00  0.00     0.211 HD
ENDBRANCH  12  16
BRANCH  14  18
ATOM     18  O   UNL     1      33.229  -8.609  33.907  1.00  0.00    -0.387 OA
ATOM     19  H   UNL     1      33.865  -8.823  33.176  1.00  0.00     0.211 HD
ENDBRANCH  14  18
BRANCH  15  20
ATOM     20  O   UNL     1      32.814  -9.113  31.178  1.00  0.00    -0.385 OA
ATOM     21  H   UNL     1      33.599  -8.753  31.661  1.00  0.00     0.211 HD
ENDBRANCH  15  20
ENDBRANCH   8   9
ENDBRANCH   7   8
ENDBRANCH   1   7
BRANCH   2  22
ATOM     22  O   UNL     1      28.707 -10.883  28.869  1.00  0.00    -0.387 OA
ATOM     23  H   UNL     1      28.694  -9.972  29.266  1.00  0.00     0.211 HD
ENDBRANCH   2  22
BRANCH   3  24
ATOM     24  O   UNL     1      26.445 -11.912  27.976  1.00  0.00    -0.387 OA
ATOM     25  H   UNL     1      25.477 -12.015  27.774  1.00  0.00     0.211 HD
ENDBRANCH   3  24
BRANCH   5  26
ATOM     26  O   UNL     1      25.362 -10.197  32.364  1.00  0.00    -0.454 OA
BRANCH  26  27
ATOM     27  C   UNL     1      24.256 -10.190  33.226  1.00  0.00     0.214 A 
ATOM     28  C   UNL     1      23.051  -9.529  32.910  1.00  0.00     0.180 A 
ATOM     29  C   UNL     1      24.352 -10.851  34.456  1.00  0.00     0.239 A 
ATOM     30  O   UNL     1      22.065  -9.478  33.798  1.00  0.00    -0.452 OA
ATOM     31  C   UNL     1      23.281 -10.790  35.371  1.00  0.00     0.111 A 
ATOM     32  O   UNL     1      25.412 -11.475  34.735  1.00  0.00    -0.285 OA
ATOM     33  C   UNL     1      22.130 -10.061  34.989  1.00  0.00     0.146 A 
ATOM     34  C   UNL     1      23.318 -11.403  36.646  1.00  0.00     0.134 A 
ATOM     35  C   UNL     1      21.043  -9.955  35.862  1.00  0.00     0.094 A 
ATOM     36  C   UNL     1      22.218 -11.283  37.507  1.00  0.00     0.093 A 
ATOM     37  C   UNL     1      21.083 -10.562  37.117  1.00  0.00     0.123 A 
BRANCH  28  38
ATOM     38  C   UNL     1      22.829  -8.907  31.596  1.00  0.00     0.025 A 
ATOM     39  C   UNL     1      21.771  -9.343  30.785  1.00  0.00     0.062 A 
ATOM     40  C   UNL     1      23.685  -7.898  31.137  1.00  0.00     0.016 A 
ATOM     41  C   UNL     1      21.534  -8.735  29.548  1.00  0.00     0.158 A 
ATOM     42  C   UNL     1      23.455  -7.291  29.900  1.00  0.00     0.051 A 
ATOM     43  C   UNL     1      22.377  -7.701  29.103  1.00  0.00     0.157 A 
BRANCH  41  44
ATOM     44  O   UNL     1      20.451  -9.163  28.780  1.00  0.00    -0.504 OA
ATOM     45  H   UNL     1      20.266 -10.143  28.610  1.00  0.00     0.293 HD
ENDBRANCH  41  44
BRANCH  43  46
ATOM     46  O   UNL     1      22.141  -7.084  27.875  1.00  0.00    -0.504 OA
ATOM     47  H   UNL     1      22.756  -7.225  27.083  1.00  0.00     0.293 HD
ENDBRANCH  43  46
ENDBRANCH  28  38
BRANCH  34  48
ATOM     48  O   UNL     1      24.438 -12.123  37.065  1.00  0.00    -0.507 OA
ATOM     49  H   UNL     1      24.529 -12.459  38.015  1.00  0.00     0.293 HD
ENDBRANCH  34  48
BRANCH  37  50
ATOM     50  O   UNL     1      19.990 -10.445  37.973  1.00  0.00    -0.508 OA
ATOM     51  H   UNL     1      19.326 -11.201  38.093  1.00  0.00     0.293 HD
ENDBRANCH  37  50
ENDBRANCH  26  27
ENDBRANCH   5  26
BRANCH   4  52
ATOM     52  O   UNL     1      24.292 -11.536  29.797  1.00  0.00    -0.384 OA
ATOM     53  H   UNL     1      23.711 -11.297  30.567  1.00  0.00     0.211 HD
ENDBRANCH   4  52
TORSDOF 16
ENDMDL
