MODEL 1
REMARK VINA RESULT:    -4.988      0.000      0.000
REMARK INTER + INTRA:          -5.761
REMARK INTER:                  -5.571
REMARK INTRA:                  -0.190
REMARK UNBOUND:                -0.190
REMARK SMILES CC(C)c1ccc(C=O)cc1
REMARK SMILES IDX 4 1 5 2 6 3 7 4 10 5 11 6 2 7 1 8 3 9 8 10 9 11
REMARK H PARENT
REMARK Flexibility Score: inf
ROOT
ATOM      1  C   UNL     1       5.473  10.458   6.647  1.00  0.00    -0.045 A 
ATOM      2  C   UNL     1       6.772  10.691   7.133  1.00  0.00     0.005 A 
ATOM      3  C   UNL     1       7.682  11.449   6.390  1.00  0.00     0.012 A 
ATOM      4  C   UNL     1       7.311  11.988   5.150  1.00  0.00     0.014 A 
ATOM      5  C   UNL     1       6.015  11.758   4.662  1.00  0.00     0.012 A 
ATOM      6  C   UNL     1       5.104  11.000   5.404  1.00  0.00     0.005 A 
ENDROOT
BRANCH   1   7
ATOM      7  C   UNL     1       4.474   9.636   7.443  1.00  0.00     0.013 C 
ATOM      8  C   UNL     1       4.964   9.411   8.878  1.00  0.00     0.012 C 
ATOM      9  C   UNL     1       3.086  10.288   7.430  1.00  0.00     0.012 C 
ENDBRANCH   1   7
BRANCH   4  10
ATOM     10  C   UNL     1       8.285  12.786   4.382  1.00  0.00     0.260 C 
ATOM     11  O   UNL     1       8.666  12.421   3.237  1.00  0.00    -0.298 OA
ENDBRANCH   4  10
TORSDOF 2
ENDMDL
MODEL 2
REMARK VINA RESULT:    -4.951      3.392      5.419
REMARK INTER + INTRA:          -5.720
REMARK INTER:                  -5.539
REMARK INTRA:                  -0.182
REMARK UNBOUND:                -0.190
REMARK SMILES CC(C)c1ccc(C=O)cc1
REMARK SMILES IDX 4 1 5 2 6 3 7 4 10 5 11 6 2 7 1 8 3 9 8 10 9 11
REMARK H PARENT
REMARK Flexibility Score: inf
ROOT
ATOM      1  C   UNL     1       5.224  10.975   7.169  1.00  0.00    -0.045 A 
ATOM      2  C   UNL     1       4.079  10.178   6.988  1.00  0.00     0.005 A 
ATOM      3  C   UNL     1       2.986  10.299   7.852  1.00  0.00     0.012 A 
ATOM      4  C   UNL     1       3.016  11.218   8.910  1.00  0.00     0.014 A 
ATOM      5  C   UNL     1       4.157  12.016   9.094  1.00  0.00     0.012 A 
ATOM      6  C   UNL     1       5.251  11.895   8.231  1.00  0.00     0.005 A 
ENDROOT
BRANCH   1   7
ATOM      7  C   UNL     1       6.418  10.854   6.240  1.00  0.00     0.013 C 
ATOM      8  C   UNL     1       6.386  11.937   5.156  1.00  0.00     0.012 C 
ATOM      9  C   UNL     1       7.736  10.896   7.024  1.00  0.00     0.012 C 
ENDBRANCH   1   7
BRANCH   4  10
ATOM     10  C   UNL     1       1.854  11.332   9.810  1.00  0.00     0.260 C 
ATOM     11  O   UNL     1       1.251  12.429   9.959  1.00  0.00    -0.298 OA
ENDBRANCH   4  10
TORSDOF 2
ENDMDL
MODEL 3
REMARK VINA RESULT:    -4.941      3.383      5.291
REMARK INTER + INTRA:          -5.709
REMARK INTER:                  -5.529
REMARK INTRA:                  -0.180
REMARK UNBOUND:                -0.190
REMARK SMILES CC(C)c1ccc(C=O)cc1
REMARK SMILES IDX 4 1 5 2 6 3 7 4 10 5 11 6 2 7 1 8 3 9 8 10 9 11
REMARK H PARENT
REMARK Flexibility Score: inf
ROOT
ATOM      1  C   UNL     1       5.229  10.947   7.207  1.00  0.00    -0.045 A 
ATOM      2  C   UNL     1       5.247  11.859   8.278  1.00  0.00     0.005 A 
ATOM      3  C   UNL     1       4.134  11.994   9.114  1.00  0.00     0.012 A 
ATOM      4  C   UNL     1       2.984  11.223   8.895  1.00  0.00     0.014 A 
ATOM      5  C   UNL     1       2.962  10.311   7.827  1.00  0.00     0.012 A 
ATOM      6  C   UNL     1       4.074  10.176   6.991  1.00  0.00     0.005 A 
ENDROOT
BRANCH   1   7
ATOM      7  C   UNL     1       6.429  10.789   6.291  1.00  0.00     0.013 C 
ATOM      8  C   UNL     1       6.373  11.788   5.130  1.00  0.00     0.012 C 
ATOM      9  C   UNL     1       7.742  10.924   7.073  1.00  0.00     0.012 C 
ENDBRANCH   1   7
BRANCH   4  10
ATOM     10  C   UNL     1       1.821  11.380   9.788  1.00  0.00     0.260 C 
ATOM     11  O   UNL     1       1.201  12.474   9.862  1.00  0.00    -0.298 OA
ENDBRANCH   4  10
TORSDOF 2
ENDMDL
MODEL 4
REMARK VINA RESULT:    -4.858      2.538      3.674
REMARK INTER + INTRA:          -5.616
REMARK INTER:                  -5.433
REMARK INTRA:                  -0.183
REMARK UNBOUND:                -0.190
REMARK SMILES CC(C)c1ccc(C=O)cc1
REMARK SMILES IDX 4 1 5 2 6 3 7 4 10 5 11 6 2 7 1 8 3 9 8 10 9 11
REMARK H PARENT
REMARK Flexibility Score: inf
ROOT
ATOM      1  C   UNL     1       3.188  11.155   8.774  1.00  0.00    -0.045 A 
ATOM      2  C   UNL     1       3.385  10.203   7.756  1.00  0.00     0.005 A 
ATOM      3  C   UNL     1       4.622  10.098   7.113  1.00  0.00     0.012 A 
ATOM      4  C   UNL     1       5.683  10.940   7.473  1.00  0.00     0.014 A 
ATOM      5  C   UNL     1       5.492  11.890   8.489  1.00  0.00     0.012 A 
ATOM      6  C   UNL     1       4.255  11.996   9.132  1.00  0.00     0.005 A 
ENDROOT
BRANCH   1   7
ATOM      7  C   UNL     1       1.851  11.280   9.481  1.00  0.00     0.013 C 
ATOM      8  C   UNL     1       1.796  10.381  10.721  1.00  0.00     0.012 C 
ATOM      9  C   UNL     1       1.553  12.740   9.845  1.00  0.00     0.012 C 
ENDBRANCH   1   7
BRANCH   4  10
ATOM     10  C   UNL     1       6.980  10.813   6.783  1.00  0.00     0.260 C 
ATOM     11  O   UNL     1       8.050  10.661   7.431  1.00  0.00    -0.298 OA
ENDBRANCH   4  10
TORSDOF 2
ENDMDL
MODEL 5
REMARK VINA RESULT:    -4.809      0.855      1.707
REMARK INTER + INTRA:          -5.561
REMARK INTER:                  -5.376
REMARK INTRA:                  -0.184
REMARK UNBOUND:                -0.190
REMARK SMILES CC(C)c1ccc(C=O)cc1
REMARK SMILES IDX 4 1 5 2 6 3 7 4 10 5 11 6 2 7 1 8 3 9 8 10 9 11
REMARK H PARENT
REMARK Flexibility Score: inf
ROOT
ATOM      1  C   UNL     1       5.844  10.602   7.147  1.00  0.00    -0.045 A 
ATOM      2  C   UNL     1       5.230  10.923   5.923  1.00  0.00     0.005 A 
ATOM      3  C   UNL     1       5.987  11.420   4.857  1.00  0.00     0.012 A 
ATOM      4  C   UNL     1       7.370  11.605   4.995  1.00  0.00     0.014 A 
ATOM      5  C   UNL     1       7.987  11.284   6.215  1.00  0.00     0.012 A 
ATOM      6  C   UNL     1       7.230  10.788   7.280  1.00  0.00     0.005 A 
ENDROOT
BRANCH   1   7
ATOM      7  C   UNL     1       5.035  10.061   8.312  1.00  0.00     0.013 C 
ATOM      8  C   UNL     1       4.745  11.161   9.340  1.00  0.00     0.012 C 
ATOM      9  C   UNL     1       3.737   9.404   7.826  1.00  0.00     0.012 C 
ENDBRANCH   1   7
BRANCH   4  10
ATOM     10  C   UNL     1       8.151  12.129   3.860  1.00  0.00     0.260 C 
ATOM     11  O   UNL     1       9.256  12.707   4.042  1.00  0.00    -0.298 OA
ENDBRANCH   4  10
TORSDOF 2
ENDMDL
MODEL 6
REMARK VINA RESULT:    -4.760      2.848      5.080
REMARK INTER + INTRA:          -5.506
REMARK INTER:                  -5.312
REMARK INTRA:                  -0.194
REMARK UNBOUND:                -0.190
REMARK SMILES CC(C)c1ccc(C=O)cc1
REMARK SMILES IDX 4 1 5 2 6 3 7 4 10 5 11 6 2 7 1 8 3 9 8 10 9 11
REMARK H PARENT
REMARK Flexibility Score: inf
ROOT
ATOM      1  C   UNL     1       7.083  10.897   6.267  1.00  0.00    -0.045 A 
ATOM      2  C   UNL     1       5.752  10.795   5.822  1.00  0.00     0.005 A 
ATOM      3  C   UNL     1       4.711  10.598   6.735  1.00  0.00     0.012 A 
ATOM      4  C   UNL     1       4.980  10.500   8.107  1.00  0.00     0.014 A 
ATOM      5  C   UNL     1       6.306  10.602   8.556  1.00  0.00     0.012 A 
ATOM      6  C   UNL     1       7.348  10.799   7.644  1.00  0.00     0.005 A 
ENDROOT
BRANCH   1   7
ATOM      7  C   UNL     1       8.223  11.111   5.288  1.00  0.00     0.013 C 
ATOM      8  C   UNL     1       7.784  11.995   4.115  1.00  0.00     0.012 C 
ATOM      9  C   UNL     1       9.453  11.698   5.991  1.00  0.00     0.012 C 
ENDBRANCH   1   7
BRANCH   4  10
ATOM     10  C   UNL     1       3.869  10.293   9.054  1.00  0.00     0.260 C 
ATOM     11  O   UNL     1       4.025  10.474  10.291  1.00  0.00    -0.298 OA
ENDBRANCH   4  10
TORSDOF 2
ENDMDL
MODEL 7
REMARK VINA RESULT:    -4.508      1.798      2.299
REMARK INTER + INTRA:          -5.225
REMARK INTER:                  -5.039
REMARK INTRA:                  -0.185
REMARK UNBOUND:                -0.190
REMARK SMILES CC(C)c1ccc(C=O)cc1
REMARK SMILES IDX 4 1 5 2 6 3 7 4 10 5 11 6 2 7 1 8 3 9 8 10 9 11
REMARK H PARENT
REMARK Flexibility Score: inf
ROOT
ATOM      1  C   UNL     1       4.721  11.614   8.167  1.00  0.00    -0.045 A 
ATOM      2  C   UNL     1       5.715  12.561   7.859  1.00  0.00     0.005 A 
ATOM      3  C   UNL     1       6.317  12.572   6.597  1.00  0.00     0.012 A 
ATOM      4  C   UNL     1       5.939  11.639   5.621  1.00  0.00     0.014 A 
ATOM      5  C   UNL     1       4.946  10.693   5.925  1.00  0.00     0.012 A 
ATOM      6  C   UNL     1       4.344  10.681   7.187  1.00  0.00     0.005 A 
ENDROOT
BRANCH   1   7
ATOM      7  C   UNL     1       4.058  11.590   9.533  1.00  0.00     0.013 C 
ATOM      8  C   UNL     1       2.775  12.428   9.538  1.00  0.00     0.012 C 
ATOM      9  C   UNL     1       3.781  10.152   9.988  1.00  0.00     0.012 C 
ENDBRANCH   1   7
BRANCH   4  10
ATOM     10  C   UNL     1       6.585  11.668   4.297  1.00  0.00     0.260 C 
ATOM     11  O   UNL     1       7.683  12.261   4.121  1.00  0.00    -0.298 OA
ENDBRANCH   4  10
TORSDOF 2
ENDMDL
MODEL 8
REMARK VINA RESULT:    -4.466     17.568     18.454
REMARK INTER + INTRA:          -5.178
REMARK INTER:                  -4.990
REMARK INTRA:                  -0.188
REMARK UNBOUND:                -0.190
REMARK SMILES CC(C)c1ccc(C=O)cc1
REMARK SMILES IDX 4 1 5 2 6 3 7 4 10 5 11 6 2 7 1 8 3 9 8 10 9 11
REMARK H PARENT
REMARK Flexibility Score: inf
ROOT
ATOM      1  C   UNL     1      -7.229   9.746  -6.547  1.00  0.00    -0.045 A 
ATOM      2  C   UNL     1      -6.938   9.011  -7.711  1.00  0.00     0.005 A 
ATOM      3  C   UNL     1      -5.852   9.361  -8.518  1.00  0.00     0.012 A 
ATOM      4  C   UNL     1      -5.036  10.450  -8.178  1.00  0.00     0.014 A 
ATOM      5  C   UNL     1      -5.323  11.185  -7.016  1.00  0.00     0.012 A 
ATOM      6  C   UNL     1      -6.410  10.836  -6.209  1.00  0.00     0.005 A 
ENDROOT
BRANCH   1   7
ATOM      7  C   UNL     1      -8.405   9.377  -5.661  1.00  0.00     0.013 C 
ATOM      8  C   UNL     1      -9.448  10.501  -5.632  1.00  0.00     0.012 C 
ATOM      9  C   UNL     1      -9.036   8.051  -6.102  1.00  0.00     0.012 C 
ENDBRANCH   1   7
BRANCH   4  10
ATOM     10  C   UNL     1      -3.895  10.803  -9.042  1.00  0.00     0.260 C 
ATOM     11  O   UNL     1      -3.466  11.986  -9.102  1.00  0.00    -0.298 OA
ENDBRANCH   4  10
TORSDOF 2
ENDMDL
MODEL 9
REMARK VINA RESULT:    -4.248      3.675      5.481
REMARK INTER + INTRA:          -4.934
REMARK INTER:                  -4.746
REMARK INTRA:                  -0.188
REMARK UNBOUND:                -0.190
REMARK SMILES CC(C)c1ccc(C=O)cc1
REMARK SMILES IDX 4 1 5 2 6 3 7 4 10 5 11 6 2 7 1 8 3 9 8 10 9 11
REMARK H PARENT
REMARK Flexibility Score: inf
ROOT
ATOM      1  C   UNL     1       6.433  11.890   8.262  1.00  0.00    -0.045 A 
ATOM      2  C   UNL     1       6.140  10.518   8.359  1.00  0.00     0.005 A 
ATOM      3  C   UNL     1       4.924  10.088   8.900  1.00  0.00     0.012 A 
ATOM      4  C   UNL     1       3.980  11.020   9.354  1.00  0.00     0.014 A 
ATOM      5  C   UNL     1       4.269  12.391   9.258  1.00  0.00     0.012 A 
ATOM      6  C   UNL     1       5.484  12.821   8.718  1.00  0.00     0.005 A 
ENDROOT
BRANCH   1   7
ATOM      7  C   UNL     1       7.748  12.371   7.676  1.00  0.00     0.013 C 
ATOM      8  C   UNL     1       8.576  13.125   8.724  1.00  0.00     0.012 C 
ATOM      9  C   UNL     1       8.545  11.207   7.076  1.00  0.00     0.012 C 
ENDBRANCH   1   7
BRANCH   4  10
ATOM     10  C   UNL     1       2.704  10.547   9.921  1.00  0.00     0.260 C 
ATOM     11  O   UNL     1       1.718  11.322  10.040  1.00  0.00    -0.298 OA
ENDBRANCH   4  10
TORSDOF 2
ENDMDL
