MODEL 1
REMARK VINA RESULT:    -4.141      0.000      0.000
REMARK INTER + INTRA:          -5.091
REMARK INTER:                  -4.867
REMARK INTRA:                  -0.224
REMARK UNBOUND:                -0.224
REMARK SMILES C=C[C@@]1(C)CC[C@H](C(=C)C)C[C@@H]1C(=C)C
REMARK SMILES IDX 7 1 6 2 5 3 3 4 12 5 11 6 4 7 8 8 10 9 9 10 13 11 14 12
REMARK SMILES IDX 15 13 2 14 1 15
REMARK H PARENT
REMARK Flexibility Score: inf
ROOT
ATOM      1  C   UNL     1     123.639 131.607 112.190  1.00  0.00     0.015 C 
ATOM      2  C   UNL     1     122.517 132.388 112.896  1.00  0.00     0.009 C 
ATOM      3  C   UNL     1     121.154 132.095 112.253  1.00  0.00     0.012 C 
ATOM      4  C   UNL     1     121.113 132.414 110.728  1.00  0.00    -0.008 C 
ATOM      5  C   UNL     1     122.304 131.662 110.023  1.00  0.00     0.024 C 
ATOM      6  C   UNL     1     123.674 131.938 110.688  1.00  0.00     0.017 C 
ATOM      7  C   UNL     1     121.171 133.948 110.506  1.00  0.00     0.016 C 
ENDROOT
BRANCH   1   8
ATOM      8  C   UNL     1     124.989 131.858 112.848  1.00  0.00    -0.077 C 
ATOM      9  C   UNL     1     125.628 133.222 112.769  1.00  0.00     0.039 C 
ATOM     10  C   UNL     1     125.639 130.883 113.508  1.00  0.00     0.008 C 
ENDBRANCH   1   8
BRANCH   5  11
ATOM     11  C   UNL     1     122.370 131.863 108.504  1.00  0.00    -0.077 C 
ATOM     12  C   UNL     1     123.368 132.548 107.916  1.00  0.00     0.008 C 
ATOM     13  C   UNL     1     121.326 131.235 107.615  1.00  0.00     0.039 C 
ENDBRANCH   5  11
BRANCH   4  14
ATOM     14  C   UNL     1     119.791 131.888 110.168  1.00  0.00    -0.028 C 
ATOM     15  C   UNL     1     118.875 131.256 110.916  1.00  0.00     0.004 C 
ENDBRANCH   4  14
TORSDOF 3
ENDMDL
MODEL 2
REMARK VINA RESULT:    -4.133      1.512      4.611
REMARK INTER + INTRA:          -5.082
REMARK INTER:                  -4.722
REMARK INTRA:                  -0.360
REMARK UNBOUND:                -0.224
REMARK SMILES C=C[C@@]1(C)CC[C@H](C(=C)C)C[C@@H]1C(=C)C
REMARK SMILES IDX 7 1 6 2 5 3 3 4 12 5 11 6 4 7 8 8 10 9 9 10 13 11 14 12
REMARK SMILES IDX 15 13 2 14 1 15
REMARK H PARENT
REMARK Flexibility Score: inf
ROOT
ATOM      1  C   UNL     1     121.150 132.748 111.654  1.00  0.00     0.015 C 
ATOM      2  C   UNL     1     121.915 131.997 112.757  1.00  0.00     0.009 C 
ATOM      3  C   UNL     1     123.269 132.662 113.039  1.00  0.00     0.012 C 
ATOM      4  C   UNL     1     124.176 132.769 111.775  1.00  0.00    -0.008 C 
ATOM      5  C   UNL     1     123.362 133.480 110.629  1.00  0.00     0.024 C 
ATOM      6  C   UNL     1     121.985 132.824 110.364  1.00  0.00     0.017 C 
ATOM      7  C   UNL     1     124.669 131.358 111.358  1.00  0.00     0.016 C 
ENDROOT
BRANCH   1   8
ATOM      8  C   UNL     1     119.786 132.120 111.398  1.00  0.00    -0.077 C 
ATOM      9  C   UNL     1     119.431 131.615 110.022  1.00  0.00     0.039 C 
ATOM     10  C   UNL     1     118.875 132.001 112.380  1.00  0.00     0.008 C 
ENDBRANCH   1   8
BRANCH   5  11
ATOM     11  C   UNL     1     124.145 133.680 109.325  1.00  0.00    -0.077 C 
ATOM     12  C   UNL     1     124.166 132.749 108.354  1.00  0.00     0.008 C 
ATOM     13  C   UNL     1     124.876 134.975 109.076  1.00  0.00     0.039 C 
ENDBRANCH   5  11
BRANCH   4  14
ATOM     14  C   UNL     1     125.389 133.628 112.131  1.00  0.00    -0.028 C 
ATOM     15  C   UNL     1     126.652 133.259 111.876  1.00  0.00     0.004 C 
ENDBRANCH   4  14
TORSDOF 3
ENDMDL
MODEL 3
REMARK VINA RESULT:    -4.102      2.407      4.765
REMARK INTER + INTRA:          -5.046
REMARK INTER:                  -4.627
REMARK INTRA:                  -0.419
REMARK UNBOUND:                -0.224
REMARK SMILES C=C[C@@]1(C)CC[C@H](C(=C)C)C[C@@H]1C(=C)C
REMARK SMILES IDX 7 1 6 2 5 3 3 4 12 5 11 6 4 7 8 8 10 9 9 10 13 11 14 12
REMARK SMILES IDX 15 13 2 14 1 15
REMARK H PARENT
REMARK Flexibility Score: inf
ROOT
ATOM      1  C   UNL     1     126.127 134.649 111.229  1.00  0.00     0.015 C 
ATOM      2  C   UNL     1     124.802 134.672 110.447  1.00  0.00     0.009 C 
ATOM      3  C   UNL     1     123.709 133.895 111.194  1.00  0.00     0.012 C 
ATOM      4  C   UNL     1     124.099 132.414 111.487  1.00  0.00    -0.008 C 
ATOM      5  C   UNL     1     125.488 132.397 112.230  1.00  0.00     0.024 C 
ATOM      6  C   UNL     1     126.583 133.203 111.489  1.00  0.00     0.017 C 
ATOM      7  C   UNL     1     124.128 131.603 110.165  1.00  0.00     0.016 C 
ENDROOT
BRANCH   1   8
ATOM      8  C   UNL     1     127.206 135.453 110.517  1.00  0.00    -0.077 C 
ATOM      9  C   UNL     1     128.559 135.640 111.157  1.00  0.00     0.039 C 
ATOM     10  C   UNL     1     126.984 136.011 109.313  1.00  0.00     0.008 C 
ENDBRANCH   1   8
BRANCH   5  11
ATOM     11  C   UNL     1     125.987 130.996 112.609  1.00  0.00    -0.077 C 
ATOM     12  C   UNL     1     126.626 130.203 111.731  1.00  0.00     0.008 C 
ATOM     13  C   UNL     1     125.817 130.493 114.020  1.00  0.00     0.039 C 
ENDBRANCH   5  11
BRANCH   4  14
ATOM     14  C   UNL     1     123.035 131.816 112.407  1.00  0.00    -0.028 C 
ATOM     15  C   UNL     1     122.616 132.411 113.532  1.00  0.00     0.004 C 
ENDBRANCH   4  14
TORSDOF 3
ENDMDL
MODEL 4
REMARK VINA RESULT:    -4.083      1.680      4.988
REMARK INTER + INTRA:          -5.024
REMARK INTER:                  -4.637
REMARK INTRA:                  -0.387
REMARK UNBOUND:                -0.224
REMARK SMILES C=C[C@@]1(C)CC[C@H](C(=C)C)C[C@@H]1C(=C)C
REMARK SMILES IDX 7 1 6 2 5 3 3 4 12 5 11 6 4 7 8 8 10 9 9 10 13 11 14 12
REMARK SMILES IDX 15 13 2 14 1 15
REMARK H PARENT
REMARK Flexibility Score: inf
ROOT
ATOM      1  C   UNL     1     121.351 132.379 110.403  1.00  0.00     0.015 C 
ATOM      2  C   UNL     1     121.636 133.820 109.944  1.00  0.00     0.009 C 
ATOM      3  C   UNL     1     123.042 133.936 109.338  1.00  0.00     0.012 C 
ATOM      4  C   UNL     1     124.170 133.481 110.313  1.00  0.00    -0.008 C 
ATOM      5  C   UNL     1     123.837 132.030 110.828  1.00  0.00     0.024 C 
ATOM      6  C   UNL     1     122.409 131.908 111.415  1.00  0.00     0.017 C 
ATOM      7  C   UNL     1     124.311 134.501 111.473  1.00  0.00     0.016 C 
ENDROOT
BRANCH   1   8
ATOM      8  C   UNL     1     119.942 132.245 110.966  1.00  0.00    -0.077 C 
ATOM      9  C   UNL     1     119.718 132.261 112.457  1.00  0.00     0.039 C 
ATOM     10  C   UNL     1     118.875 132.111 110.158  1.00  0.00     0.008 C 
ENDBRANCH   1   8
BRANCH   5  11
ATOM     11  C   UNL     1     124.884 131.439 111.781  1.00  0.00    -0.077 C 
ATOM     12  C   UNL     1     124.813 131.606 113.113  1.00  0.00     0.008 C 
ATOM     13  C   UNL     1     126.005 130.592 111.234  1.00  0.00     0.039 C 
ENDBRANCH   5  11
BRANCH   4  14
ATOM     14  C   UNL     1     125.485 133.442 109.532  1.00  0.00    -0.028 C 
ATOM     15  C   UNL     1     126.553 134.183 109.854  1.00  0.00     0.004 C 
ENDBRANCH   4  14
TORSDOF 3
ENDMDL
MODEL 5
REMARK VINA RESULT:    -4.011      1.375      3.373
REMARK INTER + INTRA:          -4.939
REMARK INTER:                  -4.505
REMARK INTRA:                  -0.434
REMARK UNBOUND:                -0.224
REMARK SMILES C=C[C@@]1(C)CC[C@H](C(=C)C)C[C@@H]1C(=C)C
REMARK SMILES IDX 7 1 6 2 5 3 3 4 12 5 11 6 4 7 8 8 10 9 9 10 13 11 14 12
REMARK SMILES IDX 15 13 2 14 1 15
REMARK H PARENT
REMARK Flexibility Score: inf
ROOT
ATOM      1  C   UNL     1     123.347 132.349 111.093  1.00  0.00     0.015 C 
ATOM      2  C   UNL     1     123.733 131.635 109.786  1.00  0.00     0.009 C 
ATOM      3  C   UNL     1     123.079 132.315 108.574  1.00  0.00     0.012 C 
ATOM      4  C   UNL     1     121.526 132.386 108.674  1.00  0.00    -0.008 C 
ATOM      5  C   UNL     1     121.138 133.059 110.045  1.00  0.00     0.024 C 
ATOM      6  C   UNL     1     121.819 132.389 111.263  1.00  0.00     0.017 C 
ATOM      7  C   UNL     1     120.920 130.965 108.524  1.00  0.00     0.016 C 
ENDROOT
BRANCH   1   8
ATOM      8  C   UNL     1     124.025 131.708 112.297  1.00  0.00    -0.077 C 
ATOM      9  C   UNL     1     125.474 131.297 112.220  1.00  0.00     0.039 C 
ATOM     10  C   UNL     1     123.357 131.495 113.445  1.00  0.00     0.008 C 
ENDBRANCH   1   8
BRANCH   5  11
ATOM     11  C   UNL     1     119.629 133.221 110.267  1.00  0.00    -0.077 C 
ATOM     12  C   UNL     1     118.875 132.241 110.796  1.00  0.00     0.008 C 
ATOM     13  C   UNL     1     118.957 134.532 109.944  1.00  0.00     0.039 C 
ENDBRANCH   5  11
BRANCH   4  14
ATOM     14  C   UNL     1     121.015 133.260 107.528  1.00  0.00    -0.028 C 
ATOM     15  C   UNL     1     121.560 134.441 107.206  1.00  0.00     0.004 C 
ENDBRANCH   4  14
TORSDOF 3
ENDMDL
MODEL 6
REMARK VINA RESULT:    -3.986      1.440      2.273
REMARK INTER + INTRA:          -4.909
REMARK INTER:                  -4.575
REMARK INTRA:                  -0.335
REMARK UNBOUND:                -0.224
REMARK SMILES C=C[C@@]1(C)CC[C@H](C(=C)C)C[C@@H]1C(=C)C
REMARK SMILES IDX 7 1 6 2 5 3 3 4 12 5 11 6 4 7 8 8 10 9 9 10 13 11 14 12
REMARK SMILES IDX 15 13 2 14 1 15
REMARK H PARENT
REMARK Flexibility Score: inf
ROOT
ATOM      1  C   UNL     1     125.354 131.304 111.822  1.00  0.00     0.015 C 
ATOM      2  C   UNL     1     124.926 132.548 112.620  1.00  0.00     0.009 C 
ATOM      3  C   UNL     1     123.398 132.702 112.623  1.00  0.00     0.012 C 
ATOM      4  C   UNL     1     122.786 132.781 111.191  1.00  0.00    -0.008 C 
ATOM      5  C   UNL     1     123.282 131.538 110.361  1.00  0.00     0.024 C 
ATOM      6  C   UNL     1     124.821 131.369 110.380  1.00  0.00     0.017 C 
ATOM      7  C   UNL     1     123.174 134.127 110.524  1.00  0.00     0.016 C 
ENDROOT
BRANCH   1   8
ATOM      8  C   UNL     1     126.865 131.120 111.849  1.00  0.00    -0.077 C 
ATOM      9  C   UNL     1     127.469 129.909 112.516  1.00  0.00     0.039 C 
ATOM     10  C   UNL     1     127.690 132.020 111.286  1.00  0.00     0.008 C 
ENDBRANCH   1   8
BRANCH   5  11
ATOM     11  C   UNL     1     122.731 131.470 108.931  1.00  0.00    -0.077 C 
ATOM     12  C   UNL     1     121.558 130.879 108.644  1.00  0.00     0.008 C 
ATOM     13  C   UNL     1     123.483 132.130 107.802  1.00  0.00     0.039 C 
ENDBRANCH   5  11
BRANCH   4  14
ATOM     14  C   UNL     1     121.264 132.718 111.321  1.00  0.00    -0.028 C 
ATOM     15  C   UNL     1     120.638 132.221 112.397  1.00  0.00     0.004 C 
ENDBRANCH   4  14
TORSDOF 3
ENDMDL
MODEL 7
REMARK VINA RESULT:    -3.977      2.226      4.300
REMARK INTER + INTRA:          -4.899
REMARK INTER:                  -4.471
REMARK INTRA:                  -0.428
REMARK UNBOUND:                -0.224
REMARK SMILES C=C[C@@]1(C)CC[C@H](C(=C)C)C[C@@H]1C(=C)C
REMARK SMILES IDX 7 1 6 2 5 3 3 4 12 5 11 6 4 7 8 8 10 9 9 10 13 11 14 12
REMARK SMILES IDX 15 13 2 14 1 15
REMARK H PARENT
REMARK Flexibility Score: inf
ROOT
ATOM      1  C   UNL     1     125.433 135.006 110.561  1.00  0.00     0.015 C 
ATOM      2  C   UNL     1     125.021 134.520 109.161  1.00  0.00     0.009 C 
ATOM      3  C   UNL     1     123.568 134.025 109.156  1.00  0.00     0.012 C 
ATOM      4  C   UNL     1     123.303 132.886 110.187  1.00  0.00    -0.008 C 
ATOM      5  C   UNL     1     123.788 133.368 111.606  1.00  0.00     0.024 C 
ATOM      6  C   UNL     1     125.245 133.891 111.604  1.00  0.00     0.017 C 
ATOM      7  C   UNL     1     124.014 131.585 109.732  1.00  0.00     0.016 C 
ENDROOT
BRANCH   1   8
ATOM      8  C   UNL     1     126.860 135.539 110.566  1.00  0.00    -0.077 C 
ATOM      9  C   UNL     1     127.970 134.724 111.181  1.00  0.00     0.039 C 
ATOM     10  C   UNL     1     127.162 136.734 110.029  1.00  0.00     0.008 C 
ENDBRANCH   1   8
BRANCH   5  11
ATOM     11  C   UNL     1     123.561 132.352 112.732  1.00  0.00    -0.077 C 
ATOM     12  C   UNL     1     124.493 131.444 113.075  1.00  0.00     0.008 C 
ATOM     13  C   UNL     1     122.284 132.389 113.534  1.00  0.00     0.039 C 
ENDBRANCH   5  11
BRANCH   4  14
ATOM     14  C   UNL     1     121.796 132.630 110.235  1.00  0.00    -0.028 C 
ATOM     15  C   UNL     1     120.883 133.611 110.239  1.00  0.00     0.004 C 
ENDBRANCH   4  14
TORSDOF 3
ENDMDL
MODEL 8
REMARK VINA RESULT:    -3.933      1.511      4.834
REMARK INTER + INTRA:          -4.847
REMARK INTER:                  -4.479
REMARK INTRA:                  -0.369
REMARK UNBOUND:                -0.224
REMARK SMILES C=C[C@@]1(C)CC[C@H](C(=C)C)C[C@@H]1C(=C)C
REMARK SMILES IDX 7 1 6 2 5 3 3 4 12 5 11 6 4 7 8 8 10 9 9 10 13 11 14 12
REMARK SMILES IDX 15 13 2 14 1 15
REMARK H PARENT
REMARK Flexibility Score: inf
ROOT
ATOM      1  C   UNL     1     121.254 131.939 110.841  1.00  0.00     0.015 C 
ATOM      2  C   UNL     1     121.522 132.121 109.337  1.00  0.00     0.009 C 
ATOM      3  C   UNL     1     122.804 131.389 108.914  1.00  0.00     0.012 C 
ATOM      4  C   UNL     1     124.063 131.844 109.712  1.00  0.00    -0.008 C 
ATOM      5  C   UNL     1     123.757 131.717 111.252  1.00  0.00     0.024 C 
ATOM      6  C   UNL     1     122.451 132.434 111.672  1.00  0.00     0.017 C 
ATOM      7  C   UNL     1     124.452 133.289 109.306  1.00  0.00     0.016 C 
ENDROOT
BRANCH   1   8
ATOM      8  C   UNL     1     119.962 132.627 111.262  1.00  0.00    -0.077 C 
ATOM      9  C   UNL     1     119.242 133.538 110.301  1.00  0.00     0.039 C 
ATOM     10  C   UNL     1     119.437 132.440 112.486  1.00  0.00     0.008 C 
ENDBRANCH   1   8
BRANCH   5  11
ATOM     11  C   UNL     1     124.927 132.107 112.164  1.00  0.00    -0.077 C 
ATOM     12  C   UNL     1     125.113 133.370 112.587  1.00  0.00     0.008 C 
ATOM     13  C   UNL     1     125.878 131.048 112.663  1.00  0.00     0.039 C 
ENDBRANCH   5  11
BRANCH   4  14
ATOM     14  C   UNL     1     125.217 130.906 109.354  1.00  0.00    -0.028 C 
ATOM     15  C   UNL     1     125.058 129.787 108.634  1.00  0.00     0.004 C 
ENDBRANCH   4  14
TORSDOF 3
ENDMDL
MODEL 9
REMARK VINA RESULT:    -3.923      1.767      3.852
REMARK INTER + INTRA:          -4.836
REMARK INTER:                  -4.514
REMARK INTRA:                  -0.322
REMARK UNBOUND:                -0.224
REMARK SMILES C=C[C@@]1(C)CC[C@H](C(=C)C)C[C@@H]1C(=C)C
REMARK SMILES IDX 7 1 6 2 5 3 3 4 12 5 11 6 4 7 8 8 10 9 9 10 13 11 14 12
REMARK SMILES IDX 15 13 2 14 1 15
REMARK H PARENT
REMARK Flexibility Score: inf
ROOT
ATOM      1  C   UNL     1     124.026 130.684 108.924  1.00  0.00     0.015 C 
ATOM      2  C   UNL     1     124.809 131.518 109.953  1.00  0.00     0.009 C 
ATOM      3  C   UNL     1     123.984 131.733 111.230  1.00  0.00     0.012 C 
ATOM      4  C   UNL     1     122.608 132.415 110.964  1.00  0.00    -0.008 C 
ATOM      5  C   UNL     1     121.840 131.592 109.863  1.00  0.00     0.024 C 
ATOM      6  C   UNL     1     122.683 131.354 108.586  1.00  0.00     0.017 C 
ATOM      7  C   UNL     1     122.823 133.895 110.551  1.00  0.00     0.016 C 
ENDROOT
BRANCH   1   8
ATOM      8  C   UNL     1     124.853 130.430 107.671  1.00  0.00    -0.077 C 
ATOM      9  C   UNL     1     125.283 129.028 107.319  1.00  0.00     0.039 C 
ATOM     10  C   UNL     1     125.216 131.436 106.856  1.00  0.00     0.008 C 
ENDBRANCH   1   8
BRANCH   5  11
ATOM     11  C   UNL     1     120.448 132.137 109.519  1.00  0.00    -0.077 C 
ATOM     12  C   UNL     1     120.262 133.080 108.578  1.00  0.00     0.008 C 
ATOM     13  C   UNL     1     119.229 131.571 110.203  1.00  0.00     0.039 C 
ENDBRANCH   5  11
BRANCH   4  14
ATOM     14  C   UNL     1     121.802 132.381 112.264  1.00  0.00    -0.028 C 
ATOM     15  C   UNL     1     122.367 132.348 113.478  1.00  0.00     0.004 C 
ENDBRANCH   4  14
TORSDOF 3
ENDMDL
