MODEL 1
REMARK VINA RESULT:    -7.633      0.000      0.000
REMARK INTER + INTRA:          -7.633
REMARK INTER:                  -7.633
REMARK INTRA:                   0.000
REMARK UNBOUND:                 0.000
REMARK SMILES C=C1CCC[C@@]2(C)CC(=O)C(=C(C)C)C[C@H]12
REMARK SMILES IDX 13 1 12 2 11 3 15 4 16 5 2 6 1 7 3 8 4 9 5 10 6 11 8 12 9 13
REMARK SMILES IDX 10 14 7 15 14 16
REMARK H PARENT
REMARK Flexibility Score: inf
ROOT
ATOM      1  C   UNL     1      -7.323  35.043  24.143  1.00  0.00     0.039 C 
ATOM      2  C   UNL     1      -7.657  34.213  22.925  1.00  0.00    -0.070 C 
ATOM      3  C   UNL     1      -7.767  32.853  23.002  1.00  0.00    -0.006 C 
ATOM      4  C   UNL     1      -7.580  32.120  24.323  1.00  0.00     0.047 C 
ATOM      5  C   UNL     1      -8.419  30.822  24.414  1.00  0.00     0.025 C 
ATOM      6  C   UNL     1      -8.241  30.022  25.705  1.00  0.00    -0.073 C 
ATOM      7  C   UNL     1      -7.416  30.382  26.708  1.00  0.00     0.008 C 
ATOM      8  C   UNL     1      -9.093  28.783  25.846  1.00  0.00     0.031 C 
ATOM      9  C   UNL     1      -8.919  27.875  24.625  1.00  0.00     0.005 C 
ATOM     10  C   UNL     1      -9.137  28.644  23.310  1.00  0.00     0.008 C 
ATOM     11  C   UNL     1      -8.217  29.896  23.174  1.00  0.00    -0.018 C 
ATOM     12  C   UNL     1      -8.643  30.671  21.903  1.00  0.00     0.088 C 
ATOM     13  C   UNL     1      -7.953  31.999  21.792  1.00  0.00     0.159 C 
ATOM     14  O   UNL     1      -7.525  32.363  20.664  1.00  0.00    -0.295 OA
ATOM     15  C   UNL     1      -6.739  29.441  23.027  1.00  0.00     0.012 C 
ATOM     16  C   UNL     1      -7.899  34.960  21.634  1.00  0.00     0.039 C 
ENDROOT
TORSDOF 0
ENDMDL
MODEL 2
REMARK VINA RESULT:    -7.396      1.862      3.274
REMARK INTER + INTRA:          -7.396
REMARK INTER:                  -7.396
REMARK INTRA:                   0.000
REMARK UNBOUND:                 0.000
REMARK SMILES C=C1CCC[C@@]2(C)CC(=O)C(=C(C)C)C[C@H]12
REMARK SMILES IDX 13 1 12 2 11 3 15 4 16 5 2 6 1 7 3 8 4 9 5 10 6 11 8 12 9 13
REMARK SMILES IDX 10 14 7 15 14 16
REMARK H PARENT
REMARK Flexibility Score: inf
ROOT
ATOM      1  C   UNL     1      -7.406  35.007  22.668  1.00  0.00     0.039 C 
ATOM      2  C   UNL     1      -7.459  34.461  24.077  1.00  0.00    -0.070 C 
ATOM      3  C   UNL     1      -7.871  33.182  24.327  1.00  0.00    -0.006 C 
ATOM      4  C   UNL     1      -8.272  32.248  23.193  1.00  0.00     0.047 C 
ATOM      5  C   UNL     1      -7.986  30.760  23.512  1.00  0.00     0.025 C 
ATOM      6  C   UNL     1      -8.405  29.770  22.425  1.00  0.00    -0.073 C 
ATOM      7  C   UNL     1      -8.993  30.126  21.266  1.00  0.00     0.008 C 
ATOM      8  C   UNL     1      -8.083  28.317  22.685  1.00  0.00     0.031 C 
ATOM      9  C   UNL     1      -8.636  27.884  24.046  1.00  0.00     0.005 C 
ATOM     10  C   UNL     1      -8.192  28.838  25.168  1.00  0.00     0.008 C 
ATOM     11  C   UNL     1      -8.572  30.324  24.892  1.00  0.00    -0.018 C 
ATOM     12  C   UNL     1      -7.932  31.199  25.999  1.00  0.00     0.088 C 
ATOM     13  C   UNL     1      -8.070  32.666  25.712  1.00  0.00     0.159 C 
ATOM     14  O   UNL     1      -8.371  33.439  26.661  1.00  0.00    -0.295 OA
ATOM     15  C   UNL     1     -10.117  30.485  24.940  1.00  0.00     0.012 C 
ATOM     16  C   UNL     1      -7.001  35.381  25.185  1.00  0.00     0.039 C 
ENDROOT
TORSDOF 0
ENDMDL
MODEL 3
REMARK VINA RESULT:    -7.276      1.260      1.658
REMARK INTER + INTRA:          -7.276
REMARK INTER:                  -7.276
REMARK INTRA:                   0.000
REMARK UNBOUND:                 0.000
REMARK SMILES C=C1CCC[C@@]2(C)CC(=O)C(=C(C)C)C[C@H]12
REMARK SMILES IDX 13 1 12 2 11 3 15 4 16 5 2 6 1 7 3 8 4 9 5 10 6 11 8 12 9 13
REMARK SMILES IDX 10 14 7 15 14 16
REMARK H PARENT
REMARK Flexibility Score: inf
ROOT
ATOM      1  C   UNL     1      -8.210  34.303  26.666  1.00  0.00     0.039 C 
ATOM      2  C   UNL     1      -8.190  34.219  25.157  1.00  0.00    -0.070 C 
ATOM      3  C   UNL     1      -8.083  33.018  24.515  1.00  0.00    -0.006 C 
ATOM      4  C   UNL     1      -8.003  31.712  25.294  1.00  0.00     0.047 C 
ATOM      5  C   UNL     1      -8.618  30.516  24.525  1.00  0.00     0.025 C 
ATOM      6  C   UNL     1      -8.531  29.168  25.242  1.00  0.00    -0.073 C 
ATOM      7  C   UNL     1      -7.959  28.992  26.450  1.00  0.00     0.008 C 
ATOM      8  C   UNL     1      -9.175  27.996  24.542  1.00  0.00     0.031 C 
ATOM      9  C   UNL     1      -8.647  27.875  23.110  1.00  0.00     0.005 C 
ATOM     10  C   UNL     1      -8.764  29.207  22.348  1.00  0.00     0.008 C 
ATOM     11  C   UNL     1      -8.056  30.391  23.074  1.00  0.00    -0.018 C 
ATOM     12  C   UNL     1      -8.383  31.693  22.303  1.00  0.00     0.088 C 
ATOM     13  C   UNL     1      -7.915  32.917  23.036  1.00  0.00     0.159 C 
ATOM     14  O   UNL     1      -7.368  33.842  22.376  1.00  0.00    -0.295 OA
ATOM     15  C   UNL     1      -6.519  30.162  23.067  1.00  0.00     0.012 C 
ATOM     16  C   UNL     1      -8.330  35.519  24.398  1.00  0.00     0.039 C 
ENDROOT
TORSDOF 0
ENDMDL
MODEL 4
REMARK VINA RESULT:    -6.843      1.505      2.072
REMARK INTER + INTRA:          -6.843
REMARK INTER:                  -6.843
REMARK INTRA:                   0.000
REMARK UNBOUND:                 0.000
REMARK SMILES C=C1CCC[C@@]2(C)CC(=O)C(=C(C)C)C[C@H]12
REMARK SMILES IDX 13 1 12 2 11 3 15 4 16 5 2 6 1 7 3 8 4 9 5 10 6 11 8 12 9 13
REMARK SMILES IDX 10 14 7 15 14 16
REMARK H PARENT
REMARK Flexibility Score: inf
ROOT
ATOM      1  C   UNL     1      -7.512  35.006  22.873  1.00  0.00     0.039 C 
ATOM      2  C   UNL     1      -7.846  33.614  22.386  1.00  0.00    -0.070 C 
ATOM      3  C   UNL     1      -7.989  32.573  23.260  1.00  0.00    -0.006 C 
ATOM      4  C   UNL     1      -7.840  32.777  24.761  1.00  0.00     0.047 C 
ATOM      5  C   UNL     1      -8.711  31.800  25.589  1.00  0.00     0.025 C 
ATOM      6  C   UNL     1      -8.573  31.932  27.106  1.00  0.00    -0.073 C 
ATOM      7  C   UNL     1      -7.755  32.814  27.716  1.00  0.00     0.008 C 
ATOM      8  C   UNL     1      -9.455  31.032  27.938  1.00  0.00     0.031 C 
ATOM      9  C   UNL     1      -9.282  29.572  27.510  1.00  0.00     0.005 C 
ATOM     10  C   UNL     1      -9.461  29.402  25.991  1.00  0.00     0.008 C 
ATOM     11  C   UNL     1      -8.510  30.313  25.158  1.00  0.00    -0.018 C 
ATOM     12  C   UNL     1      -8.897  30.175  23.664  1.00  0.00     0.088 C 
ATOM     13  C   UNL     1      -8.174  31.166  22.799  1.00  0.00     0.159 C 
ATOM     14  O   UNL     1      -7.719  30.777  21.689  1.00  0.00    -0.295 OA
ATOM     15  C   UNL     1      -7.040  29.849  25.352  1.00  0.00     0.012 C 
ATOM     16  C   UNL     1      -8.049  33.440  20.899  1.00  0.00     0.039 C 
ENDROOT
TORSDOF 0
ENDMDL
MODEL 5
REMARK VINA RESULT:    -6.685      1.721      3.201
REMARK INTER + INTRA:          -6.685
REMARK INTER:                  -6.685
REMARK INTRA:                   0.000
REMARK UNBOUND:                 0.000
REMARK SMILES C=C1CCC[C@@]2(C)CC(=O)C(=C(C)C)C[C@H]12
REMARK SMILES IDX 13 1 12 2 11 3 15 4 16 5 2 6 1 7 3 8 4 9 5 10 6 11 8 12 9 13
REMARK SMILES IDX 10 14 7 15 14 16
REMARK H PARENT
REMARK Flexibility Score: inf
ROOT
ATOM      1  C   UNL     1      -7.998  32.687  20.577  1.00  0.00     0.039 C 
ATOM      2  C   UNL     1      -7.919  33.568  21.803  1.00  0.00    -0.070 C 
ATOM      3  C   UNL     1      -8.136  33.064  23.055  1.00  0.00    -0.006 C 
ATOM      4  C   UNL     1      -8.443  31.587  23.267  1.00  0.00     0.047 C 
ATOM      5  C   UNL     1      -7.936  31.060  24.632  1.00  0.00     0.025 C 
ATOM      6  C   UNL     1      -8.251  29.591  24.918  1.00  0.00    -0.073 C 
ATOM      7  C   UNL     1      -8.928  28.786  24.075  1.00  0.00     0.008 C 
ATOM      8  C   UNL     1      -7.717  29.034  26.216  1.00  0.00     0.031 C 
ATOM      9  C   UNL     1      -8.150  29.914  27.392  1.00  0.00     0.005 C 
ATOM     10  C   UNL     1      -7.804  31.394  27.151  1.00  0.00     0.008 C 
ATOM     11  C   UNL     1      -8.402  31.953  25.825  1.00  0.00    -0.018 C 
ATOM     12  C   UNL     1      -7.851  33.385  25.614  1.00  0.00     0.088 C 
ATOM     13  C   UNL     1      -8.207  33.935  24.264  1.00  0.00     0.159 C 
ATOM     14  O   UNL     1      -8.578  35.137  24.182  1.00  0.00    -0.295 OA
ATOM     15  C   UNL     1      -9.951  32.009  25.934  1.00  0.00     0.012 C 
ATOM     16  C   UNL     1      -7.555  35.018  21.581  1.00  0.00     0.039 C 
ENDROOT
TORSDOF 0
ENDMDL
MODEL 6
REMARK VINA RESULT:    -6.307     18.117     19.773
REMARK INTER + INTRA:          -6.307
REMARK INTER:                  -6.307
REMARK INTRA:                   0.000
REMARK UNBOUND:                 0.000
REMARK SMILES C=C1CCC[C@@]2(C)CC(=O)C(=C(C)C)C[C@H]12
REMARK SMILES IDX 13 1 12 2 11 3 15 4 16 5 2 6 1 7 3 8 4 9 5 10 6 11 8 12 9 13
REMARK SMILES IDX 10 14 7 15 14 16
REMARK H PARENT
REMARK Flexibility Score: inf
ROOT
ATOM      1  C   UNL     1      -2.642  44.698   9.511  1.00  0.00     0.039 C 
ATOM      2  C   UNL     1      -3.417  45.815  10.173  1.00  0.00    -0.070 C 
ATOM      3  C   UNL     1      -3.166  46.184  11.465  1.00  0.00    -0.006 C 
ATOM      4  C   UNL     1      -2.079  45.500  12.283  1.00  0.00     0.047 C 
ATOM      5  C   UNL     1      -1.438  46.440  13.333  1.00  0.00     0.025 C 
ATOM      6  C   UNL     1      -0.365  45.797  14.213  1.00  0.00    -0.073 C 
ATOM      7  C   UNL     1       0.013  44.507  14.119  1.00  0.00     0.008 C 
ATOM      8  C   UNL     1       0.318  46.706  15.206  1.00  0.00     0.031 C 
ATOM      9  C   UNL     1      -0.719  47.429  16.069  1.00  0.00     0.005 C 
ATOM     10  C   UNL     1      -1.788  48.125  15.208  1.00  0.00     0.008 C 
ATOM     11  C   UNL     1      -2.505  47.155  14.221  1.00  0.00    -0.018 C 
ATOM     12  C   UNL     1      -3.428  47.996  13.305  1.00  0.00     0.088 C 
ATOM     13  C   UNL     1      -4.010  47.180  12.187  1.00  0.00     0.159 C 
ATOM     14  O   UNL     1      -5.223  47.348  11.888  1.00  0.00    -0.295 OA
ATOM     15  C   UNL     1      -3.364  46.138  15.022  1.00  0.00     0.012 C 
ATOM     16  C   UNL     1      -4.451  46.523   9.329  1.00  0.00     0.039 C 
ENDROOT
TORSDOF 0
ENDMDL
MODEL 7
REMARK VINA RESULT:    -6.257      2.333      5.033
REMARK INTER + INTRA:          -6.257
REMARK INTER:                  -6.257
REMARK INTRA:                   0.000
REMARK UNBOUND:                 0.000
REMARK SMILES C=C1CCC[C@@]2(C)CC(=O)C(=C(C)C)C[C@H]12
REMARK SMILES IDX 13 1 12 2 11 3 15 4 16 5 2 6 1 7 3 8 4 9 5 10 6 11 8 12 9 13
REMARK SMILES IDX 10 14 7 15 14 16
REMARK H PARENT
REMARK Flexibility Score: inf
ROOT
ATOM      1  C   UNL     1      -8.628  28.023  27.599  1.00  0.00     0.039 C 
ATOM      2  C   UNL     1      -8.930  29.504  27.559  1.00  0.00    -0.070 C 
ATOM      3  C   UNL     1      -8.791  30.226  26.407  1.00  0.00    -0.006 C 
ATOM      4  C   UNL     1      -8.348  29.562  25.110  1.00  0.00     0.047 C 
ATOM      5  C   UNL     1      -8.933  30.251  23.853  1.00  0.00     0.025 C 
ATOM      6  C   UNL     1      -8.491  29.652  22.517  1.00  0.00    -0.073 C 
ATOM      7  C   UNL     1      -7.647  28.608  22.401  1.00  0.00     0.008 C 
ATOM      8  C   UNL     1      -9.094  30.267  21.277  1.00  0.00     0.031 C 
ATOM      9  C   UNL     1      -8.884  31.784  21.278  1.00  0.00     0.005 C 
ATOM     10  C   UNL     1      -9.362  32.422  22.594  1.00  0.00     0.008 C 
ATOM     11  C   UNL     1      -8.695  31.794  23.856  1.00  0.00    -0.018 C 
ATOM     12  C   UNL     1      -9.373  32.397  25.110  1.00  0.00     0.088 C 
ATOM     13  C   UNL     1      -8.941  31.710  26.373  1.00  0.00     0.159 C 
ATOM     14  O   UNL     1      -8.697  32.415  27.389  1.00  0.00    -0.295 OA
ATOM     15  C   UNL     1      -7.181  32.145  23.872  1.00  0.00     0.012 C 
ATOM     16  C   UNL     1      -9.425  30.136  28.839  1.00  0.00     0.039 C 
ENDROOT
TORSDOF 0
ENDMDL
MODEL 8
REMARK VINA RESULT:    -6.010     18.663     20.623
REMARK INTER + INTRA:          -6.010
REMARK INTER:                  -6.010
REMARK INTRA:                   0.000
REMARK UNBOUND:                 0.000
REMARK SMILES C=C1CCC[C@@]2(C)CC(=O)C(=C(C)C)C[C@H]12
REMARK SMILES IDX 13 1 12 2 11 3 15 4 16 5 2 6 1 7 3 8 4 9 5 10 6 11 8 12 9 13
REMARK SMILES IDX 10 14 7 15 14 16
REMARK H PARENT
REMARK Flexibility Score: inf
ROOT
ATOM      1  C   UNL     1       1.453  48.125  13.773  1.00  0.00     0.039 C 
ATOM      2  C   UNL     1       0.259  47.437  14.395  1.00  0.00    -0.070 C 
ATOM      3  C   UNL     1      -0.880  47.204  13.675  1.00  0.00    -0.006 C 
ATOM      4  C   UNL     1      -0.982  47.608  12.211  1.00  0.00     0.047 C 
ATOM      5  C   UNL     1      -1.916  46.679  11.396  1.00  0.00     0.025 C 
ATOM      6  C   UNL     1      -2.090  47.060   9.925  1.00  0.00    -0.073 C 
ATOM      7  C   UNL     1      -1.500  48.125   9.347  1.00  0.00     0.008 C 
ATOM      8  C   UNL     1      -2.947  46.136   9.093  1.00  0.00     0.031 C 
ATOM      9  C   UNL     1      -4.311  45.932   9.758  1.00  0.00     0.005 C 
ATOM     10  C   UNL     1      -4.167  45.504  11.229  1.00  0.00     0.008 C 
ATOM     11  C   UNL     1      -3.311  46.496  12.073  1.00  0.00    -0.018 C 
ATOM     12  C   UNL     1      -3.101  45.877  13.477  1.00  0.00     0.088 C 
ATOM     13  C   UNL     1      -2.120  46.660  14.300  1.00  0.00     0.159 C 
ATOM     14  O   UNL     1      -2.379  46.857  15.518  1.00  0.00    -0.295 OA
ATOM     15  C   UNL     1      -4.066  47.846  12.215  1.00  0.00     0.012 C 
ATOM     16  C   UNL     1       0.398  46.988  15.831  1.00  0.00     0.039 C 
ENDROOT
TORSDOF 0
ENDMDL
MODEL 9
REMARK VINA RESULT:    -5.766      2.325      3.799
REMARK INTER + INTRA:          -5.766
REMARK INTER:                  -5.766
REMARK INTRA:                   0.000
REMARK UNBOUND:                 0.000
REMARK SMILES C=C1CCC[C@@]2(C)CC(=O)C(=C(C)C)C[C@H]12
REMARK SMILES IDX 13 1 12 2 11 3 15 4 16 5 2 6 1 7 3 8 4 9 5 10 6 11 8 12 9 13
REMARK SMILES IDX 10 14 7 15 14 16
REMARK H PARENT
REMARK Flexibility Score: inf
ROOT
ATOM      1  C   UNL     1      -7.735  35.354  24.985  1.00  0.00     0.039 C 
ATOM      2  C   UNL     1      -7.808  34.245  26.009  1.00  0.00    -0.070 C 
ATOM      3  C   UNL     1      -8.110  32.963  25.645  1.00  0.00    -0.006 C 
ATOM      4  C   UNL     1      -8.364  32.595  24.189  1.00  0.00     0.047 C 
ATOM      5  C   UNL     1      -7.956  31.139  23.858  1.00  0.00     0.025 C 
ATOM      6  C   UNL     1      -8.224  30.700  22.418  1.00  0.00    -0.073 C 
ATOM      7  C   UNL     1      -8.784  31.490  21.481  1.00  0.00     0.008 C 
ATOM      8  C   UNL     1      -7.782  29.303  22.052  1.00  0.00     0.031 C 
ATOM      9  C   UNL     1      -8.360  28.285  23.039  1.00  0.00     0.005 C 
ATOM     10  C   UNL     1      -8.065  28.678  24.497  1.00  0.00     0.008 C 
ATOM     11  C   UNL     1      -8.568  30.108  24.859  1.00  0.00    -0.018 C 
ATOM     12  C   UNL     1      -8.071  30.448  26.285  1.00  0.00     0.088 C 
ATOM     13  C   UNL     1      -8.331  31.881  26.649  1.00  0.00     0.159 C 
ATOM     14  O   UNL     1      -8.750  32.141  27.809  1.00  0.00    -0.295 OA
ATOM     15  C   UNL     1     -10.122  30.135  24.837  1.00  0.00     0.012 C 
ATOM     16  C   UNL     1      -7.495  34.614  27.441  1.00  0.00     0.039 C 
ENDROOT
TORSDOF 0
ENDMDL
