MODEL 1
REMARK VINA RESULT:     0.000      0.000      0.000
REMARK INTER + INTRA:           0.141
REMARK INTER:                   0.000
REMARK INTRA:                   0.141
REMARK UNBOUND:                 0.141
REMARK SMILES CC1=CCC(=C(C)C)C(=O)CC(C)=CCC1
REMARK SMILES IDX 12 1 14 2 13 3 15 4 16 5 2 6 1 7 3 8 11 10 9 11 10 12 5 13
REMARK SMILES IDX 6 14 7 15 8 16 4 17
REMARK H PARENT
REMARK Flexibility Score: 60.00
ROOT
ATOM      1  C   UNL     1      -4.080  -2.702  18.244  1.00  0.00    -0.070 C 
ATOM      2  C   UNL     1      -5.244  -2.972  17.614  1.00  0.00    -0.027 C 
ATOM      3  C   UNL     1      -3.339  -3.851  18.879  1.00  0.00     0.039 C 
ENDROOT
BRANCH   2   4
ATOM      4  C   UNL     1      -6.177  -1.948  17.002  1.00  0.00     0.032 C 
BRANCH   4   5
ATOM      5  C   UNL     1      -7.190  -1.327  17.986  1.00  0.00     0.034 C 
BRANCH   5   6
ATOM      6  C   UNL     1      -7.232   0.189  17.920  1.00  0.00    -0.077 C 
ATOM      7  C   UNL     1      -7.878   0.822  16.714  1.00  0.00     0.039 C 
ATOM      8  C   UNL     1      -6.668   1.009  18.841  1.00  0.00    -0.023 CG0
ATOM      9  G   UNL     1      -5.988   0.602  20.132  1.00  0.00     0.000 G0
ENDBRANCH   5   6
ENDBRANCH   4   5
ENDBRANCH   2   4
BRANCH   1  10
ATOM     10  C   UNL     1      -3.537  -1.298  18.422  1.00  0.00     0.111 C 
BRANCH  10  11
ATOM     11  C   UNL     1      -3.825  -0.762  19.799  1.00  0.00     0.163 C 
ATOM     12  O   UNL     1      -3.558  -1.494  20.790  1.00  0.00    -0.294 OA
BRANCH  11  13
ATOM     13  C   UNL     1      -4.468   0.567  20.022  1.00  0.00    -0.002 C 
ATOM     14  C   UNL     1      -3.709   1.692  20.194  1.00  0.00    -0.069 C 
ATOM     15  C   UNL     1      -2.207   1.658  20.009  1.00  0.00     0.039 C 
ATOM     16  C   UNL     1      -4.320   3.020  20.579  1.00  0.00     0.039 C 
BRANCH  13  17
ATOM     17  C   UNL     1      -5.984   0.596  20.145  1.00  0.00     0.066 CG0
ATOM     18  G   UNL     1      -6.658   1.007  18.852  1.00  0.00     0.000 G0
ENDBRANCH  13  17
ENDBRANCH  11  13
ENDBRANCH  10  11
ENDBRANCH   1  10
TORSDOF 0
ENDMDL
MODEL 2
REMARK VINA RESULT:     0.011     10.949     12.953
REMARK INTER + INTRA:           0.155
REMARK INTER:                   0.000
REMARK INTRA:                   0.155
REMARK UNBOUND:                 0.141
REMARK SMILES CC1=CCC(=C(C)C)C(=O)CC(C)=CCC1
REMARK SMILES IDX 12 1 14 2 13 3 15 4 16 5 2 6 1 7 3 8 11 10 9 11 10 12 5 13
REMARK SMILES IDX 6 14 7 15 8 16 4 17
REMARK H PARENT
REMARK Flexibility Score: 60.00
ROOT
ATOM      1  C   UNL     1     -10.835   6.293  11.403  1.00  0.00    -0.070 C 
ATOM      2  C   UNL     1     -10.737   6.561  12.723  1.00  0.00    -0.027 C 
ATOM      3  C   UNL     1     -10.218   7.272  10.437  1.00  0.00     0.039 C 
ENDROOT
BRANCH   2   4
ATOM      4  C   UNL     1     -11.371   5.756  13.838  1.00  0.00     0.032 C 
BRANCH   4   5
ATOM      5  C   UNL     1     -12.808   6.179  14.206  1.00  0.00     0.034 C 
BRANCH   5   6
ATOM      6  C   UNL     1     -13.771   5.008  14.295  1.00  0.00    -0.077 C 
ATOM      7  C   UNL     1     -13.672   4.109  15.501  1.00  0.00     0.039 C 
ATOM      8  C   UNL     1     -14.664   4.679  13.330  1.00  0.00    -0.023 CG0
ATOM      9  G   UNL     1     -14.951   5.441  12.051  1.00  0.00     0.000 G0
ENDBRANCH   5   6
ENDBRANCH   4   5
ENDBRANCH   2   4
BRANCH   1  10
ATOM     10  C   UNL     1     -11.611   5.115  10.848  1.00  0.00     0.111 C 
BRANCH  10  11
ATOM     11  C   UNL     1     -12.981   5.524  10.377  1.00  0.00     0.163 C 
ATOM     12  O   UNL     1     -13.071   6.516   9.604  1.00  0.00    -0.294 OA
BRANCH  11  13
ATOM     13  C   UNL     1     -14.225   4.841  10.840  1.00  0.00    -0.002 C 
ATOM     14  C   UNL     1     -14.733   3.772  10.155  1.00  0.00    -0.069 C 
ATOM     15  C   UNL     1     -13.975   3.149   9.003  1.00  0.00     0.039 C 
ATOM     16  C   UNL     1     -16.071   3.160  10.503  1.00  0.00     0.039 C 
BRANCH  13  17
ATOM     17  C   UNL     1     -14.944   5.442  12.038  1.00  0.00     0.066 CG0
ATOM     18  G   UNL     1     -14.665   4.681  13.318  1.00  0.00     0.000 G0
ENDBRANCH  13  17
ENDBRANCH  11  13
ENDBRANCH  10  11
ENDBRANCH   1  10
TORSDOF 0
ENDMDL
MODEL 3
REMARK VINA RESULT:     0.011     13.832     15.464
REMARK INTER + INTRA:           0.155
REMARK INTER:                   0.000
REMARK INTRA:                   0.155
REMARK UNBOUND:                 0.141
REMARK SMILES CC1=CCC(=C(C)C)C(=O)CC(C)=CCC1
REMARK SMILES IDX 12 1 14 2 13 3 15 4 16 5 2 6 1 7 3 8 11 10 9 11 10 12 5 13
REMARK SMILES IDX 6 14 7 15 8 16 4 17
REMARK H PARENT
REMARK Flexibility Score: 60.00
ROOT
ATOM      1  C   UNL     1     -13.048   7.696  12.003  1.00  0.00    -0.070 C 
ATOM      2  C   UNL     1     -13.011   8.397  13.157  1.00  0.00    -0.027 C 
ATOM      3  C   UNL     1     -12.035   8.035  10.939  1.00  0.00     0.039 C 
ENDROOT
BRANCH   2   4
ATOM      4  C   UNL     1     -13.997   8.273  14.299  1.00  0.00     0.032 C 
BRANCH   4   5
ATOM      5  C   UNL     1     -15.240   9.180  14.183  1.00  0.00     0.034 C 
BRANCH   5   6
ATOM      6  C   UNL     1     -16.544   8.440  14.423  1.00  0.00    -0.077 C 
ATOM      7  C   UNL     1     -16.887   8.064  15.842  1.00  0.00     0.039 C 
ATOM      8  C   UNL     1     -17.384   8.035  13.439  1.00  0.00    -0.023 CG0
ATOM      9  G   UNL     1     -17.255   8.313  11.955  1.00  0.00     0.000 G0
ENDBRANCH   5   6
ENDBRANCH   4   5
ENDBRANCH   2   4
BRANCH   1  10
ATOM     10  C   UNL     1     -14.108   6.659  11.694  1.00  0.00     0.111 C 
BRANCH  10  11
ATOM     11  C   UNL     1     -15.200   7.223  10.823  1.00  0.00     0.163 C 
ATOM     12  O   UNL     1     -14.865   7.840   9.776  1.00  0.00    -0.294 OA
BRANCH  11  13
ATOM     13  C   UNL     1     -16.644   7.132  11.190  1.00  0.00    -0.002 C 
ATOM     14  C   UNL     1     -17.403   6.069  10.785  1.00  0.00    -0.069 C 
ATOM     15  C   UNL     1     -16.777   4.880  10.090  1.00  0.00     0.039 C 
ATOM     16  C   UNL     1     -18.899   6.024  11.002  1.00  0.00     0.039 C 
BRANCH  13  17
ATOM     17  C   UNL     1     -17.247   8.308  11.943  1.00  0.00     0.066 CG0
ATOM     18  G   UNL     1     -17.383   8.032  13.427  1.00  0.00     0.000 G0
ENDBRANCH  13  17
ENDBRANCH  11  13
ENDBRANCH  10  11
ENDBRANCH   1  10
TORSDOF 0
ENDMDL
MODEL 4
REMARK VINA RESULT:     0.011      7.411      9.223
REMARK INTER + INTRA:           0.156
REMARK INTER:                   0.000
REMARK INTRA:                   0.156
REMARK UNBOUND:                 0.141
REMARK SMILES CC1=CCC(=C(C)C)C(=O)CC(C)=CCC1
REMARK SMILES IDX 12 1 14 2 13 3 15 4 16 5 2 6 1 7 3 8 11 10 9 11 10 12 5 13
REMARK SMILES IDX 6 14 7 15 8 16 4 17
REMARK H PARENT
REMARK Flexibility Score: 60.00
ROOT
ATOM      1  C   UNL     1      -2.561   0.113  13.462  1.00  0.00    -0.070 C 
ATOM      2  C   UNL     1      -2.694  -0.787  14.461  1.00  0.00    -0.027 C 
ATOM      3  C   UNL     1      -3.223   1.457  13.629  1.00  0.00     0.039 C 
ENDROOT
BRANCH   2   4
ATOM      4  C   UNL     1      -2.188  -2.213  14.441  1.00  0.00     0.032 C 
BRANCH   4   5
ATOM      5  C   UNL     1      -3.152  -3.232  13.798  1.00  0.00     0.034 C 
BRANCH   5   6
ATOM      6  C   UNL     1      -2.483  -4.113  12.758  1.00  0.00    -0.077 C 
ATOM      7  C   UNL     1      -1.539  -5.182  13.246  1.00  0.00     0.039 C 
ATOM      8  C   UNL     1      -2.626  -3.955  11.419  1.00  0.00    -0.023 CG0
ATOM      9  G   UNL     1      -3.528  -2.969  10.705  1.00  0.00     0.000 G0
ENDBRANCH   5   6
ENDBRANCH   4   5
ENDBRANCH   2   4
BRANCH   1  10
ATOM     10  C   UNL     1      -1.862  -0.197  12.153  1.00  0.00     0.111 C 
BRANCH  10  11
ATOM     11  C   UNL     1      -2.848  -0.502  11.056  1.00  0.00     0.163 C 
ATOM     12  O   UNL     1      -3.812   0.292  10.886  1.00  0.00    -0.294 OA
BRANCH  11  13
ATOM     13  C   UNL     1      -2.757  -1.734  10.217  1.00  0.00    -0.002 C 
ATOM     14  C   UNL     1      -2.083  -1.722   9.028  1.00  0.00    -0.069 C 
ATOM     15  C   UNL     1      -1.278  -0.516   8.596  1.00  0.00     0.039 C 
ATOM     16  C   UNL     1      -2.106  -2.903   8.082  1.00  0.00     0.039 C 
BRANCH  13  17
ATOM     17  C   UNL     1      -3.521  -2.960  10.695  1.00  0.00     0.066 CG0
ATOM     18  G   UNL     1      -2.629  -3.948  11.419  1.00  0.00     0.000 G0
ENDBRANCH  13  17
ENDBRANCH  11  13
ENDBRANCH  10  11
ENDBRANCH   1  10
TORSDOF 0
ENDMDL
MODEL 5
REMARK VINA RESULT:     0.020     13.716     16.176
REMARK INTER + INTRA:           0.169
REMARK INTER:                   0.000
REMARK INTRA:                   0.169
REMARK UNBOUND:                 0.141
REMARK SMILES CC1=CCC(=C(C)C)C(=O)CC(C)=CCC1
REMARK SMILES IDX 12 1 14 2 13 3 15 4 16 5 2 6 1 7 3 8 11 10 9 11 10 12 5 13
REMARK SMILES IDX 6 14 7 15 8 16 4 17
REMARK H PARENT
REMARK Flexibility Score: 60.00
ROOT
ATOM      1  C   UNL     1     -13.015  -5.562   9.083  1.00  0.00    -0.070 C 
ATOM      2  C   UNL     1     -12.994  -5.240  10.395  1.00  0.00    -0.027 C 
ATOM      3  C   UNL     1     -12.350  -4.617   8.114  1.00  0.00     0.039 C 
ENDROOT
BRANCH   2   4
ATOM      4  C   UNL     1     -13.685  -6.005  11.504  1.00  0.00     0.032 C 
BRANCH   4   5
ATOM      5  C   UNL     1     -15.188  -5.695  11.665  1.00  0.00     0.034 C 
BRANCH   5   6
ATOM      6  C   UNL     1     -16.053  -6.943  11.712  1.00  0.00    -0.077 C 
ATOM      7  C   UNL     1     -15.932  -7.835  12.922  1.00  0.00     0.039 C 
ATOM      8  C   UNL     1     -16.873  -7.342  10.709  1.00  0.00    -0.023 CG0
ATOM      9  G   UNL     1     -17.166  -6.602   9.419  1.00  0.00     0.000 G0
ENDBRANCH   5   6
ENDBRANCH   4   5
ENDBRANCH   2   4
BRANCH   1  10
ATOM     10  C   UNL     1     -13.750  -6.769   8.534  1.00  0.00     0.111 C 
BRANCH  10  11
ATOM     11  C   UNL     1     -15.077  -6.386   7.934  1.00  0.00     0.163 C 
ATOM     12  O   UNL     1     -15.119  -5.375   7.181  1.00  0.00    -0.294 OA
BRANCH  11  13
ATOM     13  C   UNL     1     -16.340  -7.117   8.249  1.00  0.00    -0.002 C 
ATOM     14  C   UNL     1     -16.764  -8.151   7.462  1.00  0.00    -0.069 C 
ATOM     15  C   UNL     1     -15.900  -8.691   6.344  1.00  0.00     0.039 C 
ATOM     16  C   UNL     1     -18.113  -8.807   7.659  1.00  0.00     0.039 C 
BRANCH  13  17
ATOM     17  C   UNL     1     -17.170  -6.602   9.416  1.00  0.00     0.066 CG0
ATOM     18  G   UNL     1     -16.880  -7.348  10.702  1.00  0.00     0.000 G0
ENDBRANCH  13  17
ENDBRANCH  11  13
ENDBRANCH  10  11
ENDBRANCH   1  10
TORSDOF 0
ENDMDL
MODEL 6
REMARK VINA RESULT:     0.020     13.176     15.664
REMARK INTER + INTRA:           0.169
REMARK INTER:                   0.000
REMARK INTRA:                   0.169
REMARK UNBOUND:                 0.141
REMARK SMILES CC1=CCC(=C(C)C)C(=O)CC(C)=CCC1
REMARK SMILES IDX 12 1 14 2 13 3 15 4 16 5 2 6 1 7 3 8 11 10 9 11 10 12 5 13
REMARK SMILES IDX 6 14 7 15 8 16 4 17
REMARK H PARENT
REMARK Flexibility Score: 60.00
ROOT
ATOM      1  C   UNL     1     -12.084  -5.095   9.674  1.00  0.00    -0.070 C 
ATOM      2  C   UNL     1     -12.694  -5.032  10.878  1.00  0.00    -0.027 C 
ATOM      3  C   UNL     1     -11.466  -3.833   9.129  1.00  0.00     0.039 C 
ENDROOT
BRANCH   2   4
ATOM      4  C   UNL     1     -13.452  -6.159  11.546  1.00  0.00     0.032 C 
BRANCH   4   5
ATOM      5  C   UNL     1     -14.902  -6.345  11.053  1.00  0.00     0.034 C 
BRANCH   5   6
ATOM      6  C   UNL     1     -15.222  -7.779  10.669  1.00  0.00    -0.077 C 
ATOM      7  C   UNL     1     -15.285  -8.804  11.774  1.00  0.00     0.039 C 
ATOM      8  C   UNL     1     -15.388  -8.209   9.394  1.00  0.00    -0.023 CG0
ATOM      9  G   UNL     1     -15.387  -7.364   8.137  1.00  0.00     0.000 G0
ENDBRANCH   5   6
ENDBRANCH   4   5
ENDBRANCH   2   4
BRANCH   1  10
ATOM     10  C   UNL     1     -12.073  -6.342   8.812  1.00  0.00     0.111 C 
BRANCH  10  11
ATOM     11  C   UNL     1     -13.101  -6.265   7.713  1.00  0.00     0.163 C 
ATOM     12  O   UNL     1     -13.192  -5.191   7.059  1.00  0.00    -0.294 OA
BRANCH  11  13
ATOM     13  C   UNL     1     -14.045  -7.383   7.420  1.00  0.00    -0.002 C 
ATOM     14  C   UNL     1     -13.738  -8.332   6.484  1.00  0.00    -0.069 C 
ATOM     15  C   UNL     1     -12.374  -8.372   5.829  1.00  0.00     0.039 C 
ATOM     16  C   UNL     1     -14.735  -9.383   6.051  1.00  0.00     0.039 C 
BRANCH  13  17
ATOM     17  C   UNL     1     -15.389  -7.365   8.133  1.00  0.00     0.066 CG0
ATOM     18  G   UNL     1     -15.388  -8.217   9.385  1.00  0.00     0.000 G0
ENDBRANCH  13  17
ENDBRANCH  11  13
ENDBRANCH  10  11
ENDBRANCH   1  10
TORSDOF 0
ENDMDL
MODEL 7
REMARK VINA RESULT:     0.020     10.744     13.158
REMARK INTER + INTRA:           0.169
REMARK INTER:                   0.000
REMARK INTRA:                   0.169
REMARK UNBOUND:                 0.141
REMARK SMILES CC1=CCC(=C(C)C)C(=O)CC(C)=CCC1
REMARK SMILES IDX 12 1 14 2 13 3 15 4 16 5 2 6 1 7 3 8 11 10 9 11 10 12 5 13
REMARK SMILES IDX 6 14 7 15 8 16 4 17
REMARK H PARENT
REMARK Flexibility Score: 60.00
ROOT
ATOM      1  C   UNL     1      -7.871   8.963   8.341  1.00  0.00    -0.070 C 
ATOM      2  C   UNL     1      -7.132   9.431   9.371  1.00  0.00    -0.027 C 
ATOM      3  C   UNL     1      -9.074   9.766   7.914  1.00  0.00     0.039 C 
ENDROOT
BRANCH   2   4
ATOM      4  C   UNL     1      -5.953   8.726  10.005  1.00  0.00     0.032 C 
BRANCH   4   5
ATOM      5  C   UNL     1      -6.326   7.636  11.032  1.00  0.00     0.034 C 
BRANCH   5   6
ATOM      6  C   UNL     1      -5.539   6.350  10.850  1.00  0.00    -0.077 C 
ATOM      7  C   UNL     1      -4.060   6.386  11.139  1.00  0.00     0.039 C 
ATOM      8  C   UNL     1      -6.066   5.193  10.381  1.00  0.00    -0.023 CG0
ATOM      9  G   UNL     1      -7.519   4.919  10.046  1.00  0.00     0.000 G0
ENDBRANCH   5   6
ENDBRANCH   4   5
ENDBRANCH   2   4
BRANCH   1  10
ATOM     10  C   UNL     1      -7.605   7.634   7.663  1.00  0.00     0.111 C 
BRANCH  10  11
ATOM     11  C   UNL     1      -8.431   6.528   8.266  1.00  0.00     0.163 C 
ATOM     12  O   UNL     1      -9.636   6.772   8.545  1.00  0.00    -0.294 OA
BRANCH  11  13
ATOM     13  C   UNL     1      -7.858   5.190   8.597  1.00  0.00    -0.002 C 
ATOM     14  C   UNL     1      -7.727   4.227   7.635  1.00  0.00    -0.069 C 
ATOM     15  C   UNL     1      -8.007   4.532   6.179  1.00  0.00     0.039 C 
ATOM     16  C   UNL     1      -7.300   2.815   7.967  1.00  0.00     0.039 C 
BRANCH  13  17
ATOM     17  C   UNL     1      -7.522   4.918  10.055  1.00  0.00     0.066 CG0
ATOM     18  G   UNL     1      -6.063   5.181  10.368  1.00  0.00     0.000 G0
ENDBRANCH  13  17
ENDBRANCH  11  13
ENDBRANCH  10  11
ENDBRANCH   1  10
TORSDOF 0
ENDMDL
MODEL 8
REMARK VINA RESULT:     0.021      7.599      9.948
REMARK INTER + INTRA:           0.170
REMARK INTER:                   0.000
REMARK INTRA:                   0.170
REMARK UNBOUND:                 0.141
REMARK SMILES CC1=CCC(=C(C)C)C(=O)CC(C)=CCC1
REMARK SMILES IDX 12 1 14 2 13 3 15 4 16 5 2 6 1 7 3 8 11 10 9 11 10 12 5 13
REMARK SMILES IDX 6 14 7 15 8 16 4 17
REMARK H PARENT
REMARK Flexibility Score: 60.00
ROOT
ATOM      1  C   UNL     1      -8.257   4.552  15.033  1.00  0.00    -0.070 C 
ATOM      2  C   UNL     1      -9.273   3.665  15.102  1.00  0.00    -0.027 C 
ATOM      3  C   UNL     1      -7.306   4.628  16.200  1.00  0.00     0.039 C 
ENDROOT
BRANCH   2   4
ATOM      4  C   UNL     1     -10.380   3.508  14.082  1.00  0.00     0.032 C 
BRANCH   4   5
ATOM      5  C   UNL     1     -11.596   4.434  14.297  1.00  0.00     0.034 C 
BRANCH   5   6
ATOM      6  C   UNL     1     -11.986   5.206  13.049  1.00  0.00    -0.077 C 
ATOM      7  C   UNL     1     -12.686   4.452  11.947  1.00  0.00     0.039 C 
ATOM      8  C   UNL     1     -11.685   6.511  12.833  1.00  0.00    -0.023 CG0
ATOM      9  G   UNL     1     -11.009   7.465  13.797  1.00  0.00     0.000 G0
ENDBRANCH   5   6
ENDBRANCH   4   5
ENDBRANCH   2   4
BRANCH   1  10
ATOM     10  C   UNL     1      -8.083   5.531  13.888  1.00  0.00     0.111 C 
BRANCH  10  11
ATOM     11  C   UNL     1      -8.539   6.915  14.268  1.00  0.00     0.163 C 
ATOM     12  O   UNL     1      -8.097   7.413  15.338  1.00  0.00    -0.294 OA
BRANCH  11  13
ATOM     13  C   UNL     1      -9.534   7.680  13.460  1.00  0.00    -0.002 C 
ATOM     14  C   UNL     1      -9.125   8.591  12.525  1.00  0.00    -0.069 C 
ATOM     15  C   UNL     1      -7.663   8.742  12.167  1.00  0.00     0.039 C 
ATOM     16  C   UNL     1     -10.101   9.494  11.805  1.00  0.00     0.039 C 
BRANCH  13  17
ATOM     17  C   UNL     1     -11.005   7.473  13.788  1.00  0.00     0.066 CG0
ATOM     18  G   UNL     1     -11.678   6.510  12.831  1.00  0.00     0.000 G0
ENDBRANCH  13  17
ENDBRANCH  11  13
ENDBRANCH  10  11
ENDBRANCH   1  10
TORSDOF 0
ENDMDL
MODEL 9
REMARK VINA RESULT:     0.033     14.213     16.141
REMARK INTER + INTRA:           0.187
REMARK INTER:                   0.000
REMARK INTRA:                   0.187
REMARK UNBOUND:                 0.141
REMARK SMILES CC1=CCC(=C(C)C)C(=O)CC(C)=CCC1
REMARK SMILES IDX 12 1 14 2 13 3 15 4 16 5 2 6 1 7 3 8 11 10 9 11 10 12 5 13
REMARK SMILES IDX 6 14 7 15 8 16 4 17
REMARK H PARENT
REMARK Flexibility Score: 60.00
ROOT
ATOM      1  C   UNL     1     -16.320   0.617   9.651  1.00  0.00    -0.070 C 
ATOM      2  C   UNL     1     -16.694   1.651  10.436  1.00  0.00    -0.027 C 
ATOM      3  C   UNL     1     -15.678  -0.575  10.313  1.00  0.00     0.039 C 
ENDROOT
BRANCH   2   4
ATOM      4  C   UNL     1     -17.262   2.968   9.953  1.00  0.00     0.032 C 
BRANCH   4   5
ATOM      5  C   UNL     1     -16.216   4.076   9.714  1.00  0.00     0.034 C 
BRANCH   5   6
ATOM      6  C   UNL     1     -16.399   4.794   8.388  1.00  0.00    -0.077 C 
ATOM      7  C   UNL     1     -17.485   5.836   8.299  1.00  0.00     0.039 C 
ATOM      8  C   UNL     1     -15.696   4.511   7.263  1.00  0.00    -0.023 CG0
ATOM      9  G   UNL     1     -14.555   3.525   7.122  1.00  0.00     0.000 G0
ENDBRANCH   5   6
ENDBRANCH   4   5
ENDBRANCH   2   4
BRANCH   1  10
ATOM     10  C   UNL     1     -16.429   0.639   8.139  1.00  0.00     0.111 C 
BRANCH  10  11
ATOM     11  C   UNL     1     -15.126   1.034   7.495  1.00  0.00     0.163 C 
ATOM     12  O   UNL     1     -14.088   0.395   7.815  1.00  0.00    -0.294 OA
BRANCH  11  13
ATOM     13  C   UNL     1     -15.017   2.184   6.549  1.00  0.00    -0.002 C 
ATOM     14  C   UNL     1     -15.236   2.012   5.210  1.00  0.00    -0.069 C 
ATOM     15  C   UNL     1     -15.748   0.698   4.663  1.00  0.00     0.039 C 
ATOM     16  C   UNL     1     -14.979   3.116   4.208  1.00  0.00     0.039 C 
BRANCH  13  17
ATOM     17  C   UNL     1     -14.560   3.516   7.124  1.00  0.00     0.066 CG0
ATOM     18  G   UNL     1     -15.700   4.506   7.256  1.00  0.00     0.000 G0
ENDBRANCH  13  17
ENDBRANCH  11  13
ENDBRANCH  10  11
ENDBRANCH   1  10
TORSDOF 0
ENDMDL
