MODEL 1
REMARK VINA RESULT:    -5.403      0.000      0.000
REMARK INTER + INTRA:          -5.817
REMARK INTER:                  -5.719
REMARK INTRA:                  -0.099
REMARK UNBOUND:                -0.099
REMARK SMILES C=C(C)[C@H]1CC=C(C)C(=O)C1
REMARK SMILES IDX 8 1 7 2 6 3 5 4 4 5 11 6 9 7 10 8 2 9 1 10 3 11
REMARK H PARENT
REMARK Flexibility Score: inf
ROOT
ATOM      1  C   UNL     1     -16.373 -36.762  -3.616  1.00  0.00     0.048 C 
ATOM      2  C   UNL     1     -17.731 -37.223  -4.066  1.00  0.00    -0.012 C 
ATOM      3  C   UNL     1     -18.783 -36.390  -3.987  1.00  0.00    -0.019 C 
ATOM      4  C   UNL     1     -20.167 -36.807  -4.406  1.00  0.00     0.036 C 
ATOM      5  C   UNL     1     -20.113 -37.811  -5.573  1.00  0.00     0.025 C 
ATOM      6  C   UNL     1     -19.229 -39.015  -5.203  1.00  0.00     0.089 C 
ATOM      7  C   UNL     1     -17.885 -38.552  -4.711  1.00  0.00     0.158 C 
ATOM      8  O   UNL     1     -16.893 -39.322  -4.819  1.00  0.00    -0.295 OA
ENDROOT
BRANCH   5   9
ATOM      9  C   UNL     1     -21.508 -38.253  -5.992  1.00  0.00    -0.077 C 
ATOM     10  C   UNL     1     -21.782 -39.559  -6.154  1.00  0.00     0.008 C 
ATOM     11  C   UNL     1     -22.611 -37.252  -6.234  1.00  0.00     0.039 C 
ENDBRANCH   5   9
TORSDOF 1
ENDMDL
MODEL 2
REMARK VINA RESULT:    -5.398      2.445      4.750
REMARK INTER + INTRA:          -5.812
REMARK INTER:                  -5.714
REMARK INTRA:                  -0.098
REMARK UNBOUND:                -0.099
REMARK SMILES C=C(C)[C@H]1CC=C(C)C(=O)C1
REMARK SMILES IDX 8 1 7 2 6 3 5 4 4 5 11 6 9 7 10 8 2 9 1 10 3 11
REMARK H PARENT
REMARK Flexibility Score: inf
ROOT
ATOM      1  C   UNL     1     -19.748 -36.703  -3.594  1.00  0.00     0.048 C 
ATOM      2  C   UNL     1     -18.527 -37.502  -3.956  1.00  0.00    -0.012 C 
ATOM      3  C   UNL     1     -18.648 -38.800  -4.283  1.00  0.00    -0.019 C 
ATOM      4  C   UNL     1     -17.457 -39.650  -4.636  1.00  0.00     0.036 C 
ATOM      5  C   UNL     1     -16.369 -38.815  -5.337  1.00  0.00     0.025 C 
ATOM      6  C   UNL     1     -15.984 -37.602  -4.471  1.00  0.00     0.089 C 
ATOM      7  C   UNL     1     -17.210 -36.827  -4.072  1.00  0.00     0.158 C 
ATOM      8  O   UNL     1     -17.099 -35.602  -3.800  1.00  0.00    -0.295 OA
ENDROOT
BRANCH   5   9
ATOM      9  C   UNL     1     -15.151 -39.662  -5.681  1.00  0.00    -0.077 C 
ATOM     10  C   UNL     1     -15.204 -40.999  -5.560  1.00  0.00     0.008 C 
ATOM     11  C   UNL     1     -13.867 -39.034  -6.162  1.00  0.00     0.039 C 
ENDBRANCH   5   9
TORSDOF 1
ENDMDL
MODEL 3
REMARK VINA RESULT:    -5.354      1.623      4.365
REMARK INTER + INTRA:          -5.766
REMARK INTER:                  -5.667
REMARK INTRA:                  -0.098
REMARK UNBOUND:                -0.099
REMARK SMILES C=C(C)[C@H]1CC=C(C)C(=O)C1
REMARK SMILES IDX 8 1 7 2 6 3 5 4 4 5 11 6 9 7 10 8 2 9 1 10 3 11
REMARK H PARENT
REMARK Flexibility Score: inf
ROOT
ATOM      1  C   UNL     1     -22.730 -37.439  -5.093  1.00  0.00     0.048 C 
ATOM      2  C   UNL     1     -21.230 -37.345  -5.027  1.00  0.00    -0.012 C 
ATOM      3  C   UNL     1     -20.652 -36.378  -4.295  1.00  0.00    -0.019 C 
ATOM      4  C   UNL     1     -19.156 -36.227  -4.209  1.00  0.00     0.036 C 
ATOM      5  C   UNL     1     -18.456 -37.595  -4.302  1.00  0.00     0.025 C 
ATOM      6  C   UNL     1     -18.894 -38.336  -5.577  1.00  0.00     0.089 C 
ATOM      7  C   UNL     1     -20.395 -38.392  -5.666  1.00  0.00     0.158 C 
ATOM      8  O   UNL     1     -20.936 -39.321  -6.324  1.00  0.00    -0.295 OA
ENDROOT
BRANCH   5   9
ATOM      9  C   UNL     1     -16.941 -37.451  -4.234  1.00  0.00    -0.077 C 
ATOM     10  C   UNL     1     -16.392 -36.306  -3.796  1.00  0.00     0.008 C 
ATOM     11  C   UNL     1     -16.026 -38.575  -4.652  1.00  0.00     0.039 C 
ENDBRANCH   5   9
TORSDOF 1
ENDMDL
MODEL 4
REMARK VINA RESULT:    -5.349      1.296      1.681
REMARK INTER + INTRA:          -5.760
REMARK INTER:                  -5.662
REMARK INTRA:                  -0.098
REMARK UNBOUND:                -0.099
REMARK SMILES C=C(C)[C@H]1CC=C(C)C(=O)C1
REMARK SMILES IDX 8 1 7 2 6 3 5 4 4 5 11 6 9 7 10 8 2 9 1 10 3 11
REMARK H PARENT
REMARK Flexibility Score: inf
ROOT
ATOM      1  C   UNL     1     -15.994 -38.232  -4.623  1.00  0.00     0.048 C 
ATOM      2  C   UNL     1     -17.488 -38.068  -4.607  1.00  0.00    -0.012 C 
ATOM      3  C   UNL     1     -18.065 -37.267  -3.694  1.00  0.00    -0.019 C 
ATOM      4  C   UNL     1     -19.557 -37.081  -3.622  1.00  0.00     0.036 C 
ATOM      5  C   UNL     1     -20.195 -37.178  -5.020  1.00  0.00     0.025 C 
ATOM      6  C   UNL     1     -19.805 -38.504  -5.696  1.00  0.00     0.089 C 
ATOM      7  C   UNL     1     -18.312 -38.690  -5.674  1.00  0.00     0.158 C 
ATOM      8  O   UNL     1     -17.770 -39.413  -6.552  1.00  0.00    -0.295 OA
ENDROOT
BRANCH   5   9
ATOM      9  C   UNL     1     -21.707 -37.010  -4.956  1.00  0.00    -0.077 C 
ATOM     10  C   UNL     1     -22.278 -36.455  -3.874  1.00  0.00     0.008 C 
ATOM     11  C   UNL     1     -22.597 -37.456  -6.090  1.00  0.00     0.039 C 
ENDBRANCH   5   9
TORSDOF 1
ENDMDL
MODEL 5
REMARK VINA RESULT:    -5.307      1.492      2.172
REMARK INTER + INTRA:          -5.715
REMARK INTER:                  -5.628
REMARK INTRA:                  -0.088
REMARK UNBOUND:                -0.099
REMARK SMILES C=C(C)[C@H]1CC=C(C)C(=O)C1
REMARK SMILES IDX 8 1 7 2 6 3 5 4 4 5 11 6 9 7 10 8 2 9 1 10 3 11
REMARK H PARENT
REMARK Flexibility Score: inf
ROOT
ATOM      1  C   UNL     1     -16.498 -39.093  -4.918  1.00  0.00     0.048 C 
ATOM      2  C   UNL     1     -17.879 -38.656  -5.318  1.00  0.00    -0.012 C 
ATOM      3  C   UNL     1     -18.488 -39.236  -6.366  1.00  0.00    -0.019 C 
ATOM      4  C   UNL     1     -19.863 -38.824  -6.821  1.00  0.00     0.036 C 
ATOM      5  C   UNL     1     -20.727 -38.369  -5.630  1.00  0.00     0.025 C 
ATOM      6  C   UNL     1     -20.013 -37.253  -4.846  1.00  0.00     0.089 C 
ATOM      7  C   UNL     1     -18.615 -37.674  -4.483  1.00  0.00     0.158 C 
ATOM      8  O   UNL     1     -18.059 -37.154  -3.479  1.00  0.00    -0.295 OA
ENDROOT
BRANCH   5   9
ATOM      9  C   UNL     1     -22.113 -37.931  -6.082  1.00  0.00    -0.077 C 
ATOM     10  C   UNL     1     -23.124 -38.816  -6.111  1.00  0.00     0.008 C 
ATOM     11  C   UNL     1     -22.390 -36.510  -6.504  1.00  0.00     0.039 C 
ENDBRANCH   5   9
TORSDOF 1
ENDMDL
MODEL 6
REMARK VINA RESULT:    -5.269      3.310      5.673
REMARK INTER + INTRA:          -5.675
REMARK INTER:                  -5.579
REMARK INTRA:                  -0.096
REMARK UNBOUND:                -0.099
REMARK SMILES C=C(C)[C@H]1CC=C(C)C(=O)C1
REMARK SMILES IDX 8 1 7 2 6 3 5 4 4 5 11 6 9 7 10 8 2 9 1 10 3 11
REMARK H PARENT
REMARK Flexibility Score: inf
ROOT
ATOM      1  C   UNL     1     -19.364 -38.861  -5.018  1.00  0.00     0.048 C 
ATOM      2  C   UNL     1     -17.925 -38.862  -5.454  1.00  0.00    -0.012 C 
ATOM      3  C   UNL     1     -16.978 -38.361  -4.641  1.00  0.00    -0.019 C 
ATOM      4  C   UNL     1     -15.526 -38.321  -5.036  1.00  0.00     0.036 C 
ATOM      5  C   UNL     1     -15.163 -39.516  -5.937  1.00  0.00     0.025 C 
ATOM      6  C   UNL     1     -16.098 -39.570  -7.158  1.00  0.00     0.089 C 
ATOM      7  C   UNL     1     -17.538 -39.525  -6.724  1.00  0.00     0.158 C 
ATOM      8  O   UNL     1     -18.420 -40.026  -7.472  1.00  0.00    -0.295 OA
ENDROOT
BRANCH   5   9
ATOM      9  C   UNL     1     -13.701 -39.473  -6.357  1.00  0.00    -0.077 C 
ATOM     10  C   UNL     1     -13.279 -38.551  -7.238  1.00  0.00     0.008 C 
ATOM     11  C   UNL     1     -12.694 -40.451  -5.803  1.00  0.00     0.039 C 
ENDBRANCH   5   9
TORSDOF 1
ENDMDL
MODEL 7
REMARK VINA RESULT:    -5.264      3.150      5.457
REMARK INTER + INTRA:          -5.671
REMARK INTER:                  -5.573
REMARK INTRA:                  -0.098
REMARK UNBOUND:                -0.099
REMARK SMILES C=C(C)[C@H]1CC=C(C)C(=O)C1
REMARK SMILES IDX 8 1 7 2 6 3 5 4 4 5 11 6 9 7 10 8 2 9 1 10 3 11
REMARK H PARENT
REMARK Flexibility Score: inf
ROOT
ATOM      1  C   UNL     1     -20.309 -41.095  -8.666  1.00  0.00     0.048 C 
ATOM      2  C   UNL     1     -19.171 -40.365  -8.009  1.00  0.00    -0.012 C 
ATOM      3  C   UNL     1     -19.352 -39.783  -6.811  1.00  0.00    -0.019 C 
ATOM      4  C   UNL     1     -18.253 -39.024  -6.117  1.00  0.00     0.036 C 
ATOM      5  C   UNL     1     -16.874 -39.630  -6.437  1.00  0.00     0.025 C 
ATOM      6  C   UNL     1     -16.661 -39.702  -7.960  1.00  0.00     0.089 C 
ATOM      7  C   UNL     1     -17.821 -40.395  -8.623  1.00  0.00     0.158 C 
ATOM      8  O   UNL     1     -17.640 -40.970  -9.730  1.00  0.00    -0.295 OA
ENDROOT
BRANCH   5   9
ATOM      9  C   UNL     1     -15.753 -38.857  -5.755  1.00  0.00    -0.077 C 
ATOM     10  C   UNL     1     -14.489 -38.972  -6.196  1.00  0.00     0.008 C 
ATOM     11  C   UNL     1     -16.025 -37.951  -4.580  1.00  0.00     0.039 C 
ENDBRANCH   5   9
TORSDOF 1
ENDMDL
MODEL 8
REMARK VINA RESULT:    -5.263      2.453      3.196
REMARK INTER + INTRA:          -5.669
REMARK INTER:                  -5.577
REMARK INTRA:                  -0.092
REMARK UNBOUND:                -0.099
REMARK SMILES C=C(C)[C@H]1CC=C(C)C(=O)C1
REMARK SMILES IDX 8 1 7 2 6 3 5 4 4 5 11 6 9 7 10 8 2 9 1 10 3 11
REMARK H PARENT
REMARK Flexibility Score: inf
ROOT
ATOM      1  C   UNL     1     -16.389 -37.175  -3.644  1.00  0.00     0.048 C 
ATOM      2  C   UNL     1     -16.940 -38.073  -4.717  1.00  0.00    -0.012 C 
ATOM      3  C   UNL     1     -18.268 -38.158  -4.902  1.00  0.00    -0.019 C 
ATOM      4  C   UNL     1     -18.873 -39.055  -5.949  1.00  0.00     0.036 C 
ATOM      5  C   UNL     1     -17.952 -39.173  -7.177  1.00  0.00     0.025 C 
ATOM      6  C   UNL     1     -16.548 -39.639  -6.752  1.00  0.00     0.089 C 
ATOM      7  C   UNL     1     -16.014 -38.767  -5.648  1.00  0.00     0.158 C 
ATOM      8  O   UNL     1     -14.768 -38.661  -5.498  1.00  0.00    -0.295 OA
ENDROOT
BRANCH   5   9
ATOM      9  C   UNL     1     -18.547 -40.094  -8.234  1.00  0.00    -0.077 C 
ATOM     10  C   UNL     1     -18.073 -40.073  -9.491  1.00  0.00     0.008 C 
ATOM     11  C   UNL     1     -19.671 -41.045  -7.905  1.00  0.00     0.039 C 
ENDBRANCH   5   9
TORSDOF 1
ENDMDL
MODEL 9
REMARK VINA RESULT:    -5.178      2.096      2.573
REMARK INTER + INTRA:          -5.579
REMARK INTER:                  -5.482
REMARK INTRA:                  -0.097
REMARK UNBOUND:                -0.099
REMARK SMILES C=C(C)[C@H]1CC=C(C)C(=O)C1
REMARK SMILES IDX 8 1 7 2 6 3 5 4 4 5 11 6 9 7 10 8 2 9 1 10 3 11
REMARK H PARENT
REMARK Flexibility Score: inf
ROOT
ATOM      1  C   UNL     1     -14.649 -39.003  -5.771  1.00  0.00     0.048 C 
ATOM      2  C   UNL     1     -16.143 -39.136  -5.874  1.00  0.00    -0.012 C 
ATOM      3  C   UNL     1     -16.919 -38.814  -4.824  1.00  0.00    -0.019 C 
ATOM      4  C   UNL     1     -18.418 -38.946  -4.868  1.00  0.00     0.036 C 
ATOM      5  C   UNL     1     -18.956 -38.682  -6.286  1.00  0.00     0.025 C 
ATOM      6  C   UNL     1     -18.260 -39.604  -7.303  1.00  0.00     0.089 C 
ATOM      7  C   UNL     1     -16.765 -39.503  -7.171  1.00  0.00     0.158 C 
ATOM      8  O   UNL     1     -16.041 -39.772  -8.167  1.00  0.00    -0.295 OA
ENDROOT
BRANCH   5   9
ATOM      9  C   UNL     1     -20.470 -38.832  -6.344  1.00  0.00    -0.077 C 
ATOM     10  C   UNL     1     -21.020 -40.036  -6.573  1.00  0.00     0.008 C 
ATOM     11  C   UNL     1     -21.385 -37.648  -6.148  1.00  0.00     0.039 C 
ENDBRANCH   5   9
TORSDOF 1
ENDMDL
