MODEL 1
REMARK VINA RESULT:    -5.235      0.000      0.000
REMARK INTER + INTRA:          -8.141
REMARK INTER:                  -7.684
REMARK INTRA:                  -0.458
REMARK UNBOUND:                -0.458
REMARK SMILES O=C([O-])CCCCCCCC(=O)[O-]
REMARK SMILES IDX 7 1 6 2 5 3 4 4 2 5 1 6 3 7 8 8 9 9 10 10 11 11 12 12 13 13
REMARK H PARENT
REMARK Flexibility Score: inf
ROOT
ATOM      1  C   UNL     1     -14.032   0.125 -10.595  1.00  0.00     0.000 C 
ENDROOT
BRANCH   1   2
ATOM      2  C   UNL     1     -14.365   0.885  -9.299  1.00  0.00     0.000 C 
BRANCH   2   3
ATOM      3  C   UNL     1     -14.020   2.381  -9.388  1.00  0.00     0.006 C 
BRANCH   3   4
ATOM      4  C   UNL     1     -12.510   2.639  -9.461  1.00  0.00     0.053 C 
BRANCH   4   5
ATOM      5  C   UNL     1     -12.146   3.840  -8.646  1.00  0.00     0.041 C 
ATOM      6  O   UNL     1     -12.979   4.770  -8.481  1.00  0.00    -0.550 OA
ATOM      7  O   UNL     1     -10.905   3.910  -8.026  1.00  0.00    -0.550 OA
ENDBRANCH   4   5
ENDBRANCH   3   4
ENDBRANCH   2   3
ENDBRANCH   1   2
BRANCH   1   8
ATOM      8  C   UNL     1     -13.019  -1.009 -10.369  1.00  0.00     0.000 C 
BRANCH   8   9
ATOM      9  C   UNL     1     -11.572  -0.577 -10.653  1.00  0.00     0.006 C 
BRANCH   9  10
ATOM     10  C   UNL     1     -10.666  -0.881  -9.457  1.00  0.00     0.053 C 
BRANCH  10  11
ATOM     11  C   UNL     1     -10.201  -2.303  -9.498  1.00  0.00     0.041 C 
ATOM     12  O   UNL     1     -10.823  -3.192  -8.860  1.00  0.00    -0.550 OA
ATOM     13  O   UNL     1      -9.051  -2.638 -10.201  1.00  0.00    -0.550 OA
ENDBRANCH  10  11
ENDBRANCH   9  10
ENDBRANCH   8   9
ENDBRANCH   1   8
TORSDOF 8
ENDMDL
MODEL 2
REMARK VINA RESULT:    -5.233      0.630      5.514
REMARK INTER + INTRA:          -8.138
REMARK INTER:                  -7.638
REMARK INTRA:                  -0.500
REMARK UNBOUND:                -0.458
REMARK SMILES O=C([O-])CCCCCCCC(=O)[O-]
REMARK SMILES IDX 7 1 6 2 5 3 4 4 2 5 1 6 3 7 8 8 9 9 10 10 11 11 12 12 13 13
REMARK H PARENT
REMARK Flexibility Score: inf
ROOT
ATOM      1  C   UNL     1     -14.008   0.090 -10.601  1.00  0.00     0.000 C 
ENDROOT
BRANCH   1   2
ATOM      2  C   UNL     1     -13.009  -1.047 -10.327  1.00  0.00     0.000 C 
BRANCH   2   3
ATOM      3  C   UNL     1     -11.561  -0.652 -10.659  1.00  0.00     0.006 C 
BRANCH   3   4
ATOM      4  C   UNL     1     -10.666  -0.576  -9.415  1.00  0.00     0.053 C 
BRANCH   4   5
ATOM      5  C   UNL     1     -10.154  -1.936  -9.058  1.00  0.00     0.041 C 
ATOM      6  O   UNL     1      -9.737  -2.171  -7.893  1.00  0.00    -0.550 OA
ATOM      7  O   UNL     1     -10.183  -2.959  -9.996  1.00  0.00    -0.550 OA
ENDBRANCH   4   5
ENDBRANCH   3   4
ENDBRANCH   2   3
ENDBRANCH   1   2
BRANCH   1   8
ATOM      8  C   UNL     1     -14.374   0.872  -9.329  1.00  0.00     0.000 C 
BRANCH   8   9
ATOM      9  C   UNL     1     -14.063   2.372  -9.445  1.00  0.00     0.006 C 
BRANCH   9  10
ATOM     10  C   UNL     1     -12.553   2.622  -9.412  1.00  0.00     0.053 C 
BRANCH  10  11
ATOM     11  C   UNL     1     -12.240   3.851  -8.619  1.00  0.00     0.041 C 
ATOM     12  O   UNL     1     -11.097   4.005  -8.112  1.00  0.00    -0.550 OA
ATOM     13  O   UNL     1     -13.225   4.804  -8.397  1.00  0.00    -0.550 OA
ENDBRANCH  10  11
ENDBRANCH   9  10
ENDBRANCH   8   9
ENDBRANCH   1   8
TORSDOF 8
ENDMDL
MODEL 3
REMARK VINA RESULT:    -5.069      0.892      5.894
REMARK INTER + INTRA:          -7.897
REMARK INTER:                  -7.590
REMARK INTRA:                  -0.307
REMARK UNBOUND:                -0.458
REMARK SMILES O=C([O-])CCCCCCCC(=O)[O-]
REMARK SMILES IDX 7 1 6 2 5 3 4 4 2 5 1 6 3 7 8 8 9 9 10 10 11 11 12 12 13 13
REMARK H PARENT
REMARK Flexibility Score: inf
ROOT
ATOM      1  C   UNL     1     -12.674   0.171 -10.008  1.00  0.00     0.000 C 
ENDROOT
BRANCH   1   2
ATOM      2  C   UNL     1     -12.800  -1.175 -10.743  1.00  0.00     0.000 C 
BRANCH   2   3
ATOM      3  C   UNL     1     -11.986  -2.292 -10.071  1.00  0.00     0.006 C 
BRANCH   3   4
ATOM      4  C   UNL     1     -10.616  -1.811  -9.573  1.00  0.00     0.053 C 
BRANCH   4   5
ATOM      5  C   UNL     1      -9.887  -2.928  -8.894  1.00  0.00     0.041 C 
ATOM      6  O   UNL     1      -9.967  -3.071  -7.646  1.00  0.00    -0.550 OA
ATOM      7  O   UNL     1      -9.158  -3.840  -9.645  1.00  0.00    -0.550 OA
ENDBRANCH   4   5
ENDBRANCH   3   4
ENDBRANCH   2   3
ENDBRANCH   1   2
BRANCH   1   8
ATOM      8  C   UNL     1     -14.038   0.830  -9.748  1.00  0.00     0.000 C 
BRANCH   8   9
ATOM      9  C   UNL     1     -13.913   2.298  -9.310  1.00  0.00     0.006 C 
BRANCH   9  10
ATOM     10  C   UNL     1     -12.491   2.818  -9.539  1.00  0.00     0.053 C 
BRANCH  10  11
ATOM     11  C   UNL     1     -12.176   3.924  -8.582  1.00  0.00     0.041 C 
ATOM     12  O   UNL     1     -13.008   4.850  -8.387  1.00  0.00    -0.550 OA
ATOM     13  O   UNL     1     -10.943   3.961  -7.942  1.00  0.00    -0.550 OA
ENDBRANCH  10  11
ENDBRANCH   9  10
ENDBRANCH   8   9
ENDBRANCH   1   8
TORSDOF 8
ENDMDL
MODEL 4
REMARK VINA RESULT:    -5.047      0.904      1.398
REMARK INTER + INTRA:          -7.865
REMARK INTER:                  -7.507
REMARK INTRA:                  -0.358
REMARK UNBOUND:                -0.458
REMARK SMILES O=C([O-])CCCCCCCC(=O)[O-]
REMARK SMILES IDX 7 1 6 2 5 3 4 4 2 5 1 6 3 7 8 8 9 9 10 10 11 11 12 12 13 13
REMARK H PARENT
REMARK Flexibility Score: inf
ROOT
ATOM      1  C   UNL     1     -12.970   0.108 -10.035  1.00  0.00     0.000 C 
ENDROOT
BRANCH   1   2
ATOM      2  C   UNL     1     -14.252   0.883  -9.686  1.00  0.00     0.000 C 
BRANCH   2   3
ATOM      3  C   UNL     1     -13.980   2.364  -9.377  1.00  0.00     0.006 C 
BRANCH   3   4
ATOM      4  C   UNL     1     -12.489   2.719  -9.440  1.00  0.00     0.053 C 
BRANCH   4   5
ATOM      5  C   UNL     1     -12.184   3.853  -8.513  1.00  0.00     0.041 C 
ATOM      6  O   UNL     1     -10.997   4.080  -8.157  1.00  0.00    -0.550 OA
ATOM      7  O   UNL     1     -13.203   4.692  -8.081  1.00  0.00    -0.550 OA
ENDBRANCH   4   5
ENDBRANCH   3   4
ENDBRANCH   2   3
ENDBRANCH   1   2
BRANCH   1   8
ATOM      8  C   UNL     1     -13.261  -1.295 -10.592  1.00  0.00     0.000 C 
BRANCH   8   9
ATOM      9  C   UNL     1     -12.163  -2.311 -10.243  1.00  0.00     0.006 C 
BRANCH   9  10
ATOM     10  C   UNL     1     -10.932  -1.610  -9.663  1.00  0.00     0.053 C 
BRANCH  10  11
ATOM     11  C   UNL     1     -10.015  -2.603  -9.021  1.00  0.00     0.041 C 
ATOM     12  O   UNL     1      -9.669  -3.641  -9.644  1.00  0.00    -0.550 OA
ATOM     13  O   UNL     1      -9.583  -2.407  -7.715  1.00  0.00    -0.550 OA
ENDBRANCH  10  11
ENDBRANCH   9  10
ENDBRANCH   8   9
ENDBRANCH   1   8
TORSDOF 8
ENDMDL
MODEL 5
REMARK VINA RESULT:    -4.540      2.509      3.960
REMARK INTER + INTRA:          -7.120
REMARK INTER:                  -6.706
REMARK INTRA:                  -0.414
REMARK UNBOUND:                -0.458
REMARK SMILES O=C([O-])CCCCCCCC(=O)[O-]
REMARK SMILES IDX 7 1 6 2 5 3 4 4 2 5 1 6 3 7 8 8 9 9 10 10 11 11 12 12 13 13
REMARK H PARENT
REMARK Flexibility Score: inf
ROOT
ATOM      1  C   UNL     1     -11.116  -2.648  -9.605  1.00  0.00     0.000 C 
ENDROOT
BRANCH   1   2
ATOM      2  C   UNL     1     -10.578  -1.210  -9.524  1.00  0.00     0.000 C 
BRANCH   2   3
ATOM      3  C   UNL     1     -11.374  -0.232 -10.403  1.00  0.00     0.006 C 
BRANCH   3   4
ATOM      4  C   UNL     1     -12.888  -0.320 -10.167  1.00  0.00     0.053 C 
BRANCH   4   5
ATOM      5  C   UNL     1     -13.421   1.000  -9.702  1.00  0.00     0.041 C 
ATOM      6  O   UNL     1     -14.637   1.121  -9.401  1.00  0.00    -0.550 OA
ATOM      7  O   UNL     1     -12.564   2.083  -9.555  1.00  0.00    -0.550 OA
ENDBRANCH   4   5
ENDBRANCH   3   4
ENDBRANCH   2   3
ENDBRANCH   1   2
BRANCH   1   8
ATOM      8  C   UNL     1      -9.997  -3.701  -9.555  1.00  0.00     0.000 C 
BRANCH   8   9
ATOM      9  C   UNL     1      -9.137  -3.592  -8.286  1.00  0.00     0.006 C 
BRANCH   9  10
ATOM     10  C   UNL     1      -9.970  -3.880  -7.034  1.00  0.00     0.053 C 
BRANCH  10  11
ATOM     11  C   UNL     1     -10.463  -5.293  -7.044  1.00  0.00     0.041 C 
ATOM     12  O   UNL     1      -9.648  -6.249  -6.956  1.00  0.00    -0.550 OA
ATOM     13  O   UNL     1     -11.818  -5.555  -7.203  1.00  0.00    -0.550 OA
ENDBRANCH  10  11
ENDBRANCH   9  10
ENDBRANCH   8   9
ENDBRANCH   1   8
TORSDOF 8
ENDMDL
MODEL 6
REMARK VINA RESULT:    -4.509      2.505      6.758
REMARK INTER + INTRA:          -7.075
REMARK INTER:                  -6.786
REMARK INTRA:                  -0.289
REMARK UNBOUND:                -0.458
REMARK SMILES O=C([O-])CCCCCCCC(=O)[O-]
REMARK SMILES IDX 7 1 6 2 5 3 4 4 2 5 1 6 3 7 8 8 9 9 10 10 11 11 12 12 13 13
REMARK H PARENT
REMARK Flexibility Score: inf
ROOT
ATOM      1  C   UNL     1     -11.023  -2.624  -9.577  1.00  0.00     0.000 C 
ENDROOT
BRANCH   1   2
ATOM      2  C   UNL     1      -9.837  -3.604  -9.588  1.00  0.00     0.000 C 
BRANCH   2   3
ATOM      3  C   UNL     1      -9.061  -3.606  -8.260  1.00  0.00     0.006 C 
BRANCH   3   4
ATOM      4  C   UNL     1      -9.983  -3.659  -7.035  1.00  0.00     0.053 C 
BRANCH   4   5
ATOM      5  C   UNL     1     -10.209  -5.078  -6.614  1.00  0.00     0.041 C 
ATOM      6  O   UNL     1      -9.553  -6.010  -7.150  1.00  0.00    -0.550 OA
ATOM      7  O   UNL     1     -11.107  -5.367  -5.595  1.00  0.00    -0.550 OA
ENDBRANCH   4   5
ENDBRANCH   3   4
ENDBRANCH   2   3
ENDBRANCH   1   2
BRANCH   1   8
ATOM      8  C   UNL     1     -10.574  -1.156  -9.514  1.00  0.00     0.000 C 
BRANCH   8   9
ATOM      9  C   UNL     1     -11.341  -0.258 -10.497  1.00  0.00     0.006 C 
BRANCH   9  10
ATOM     10  C   UNL     1     -12.804  -0.104 -10.071  1.00  0.00     0.053 C 
BRANCH  10  11
ATOM     11  C   UNL     1     -13.103   1.320  -9.724  1.00  0.00     0.041 C 
ATOM     12  O   UNL     1     -12.174   2.096  -9.376  1.00  0.00    -0.550 OA
ATOM     13  O   UNL     1     -14.414   1.778  -9.736  1.00  0.00    -0.550 OA
ENDBRANCH  10  11
ENDBRANCH   9  10
ENDBRANCH   8   9
ENDBRANCH   1   8
TORSDOF 8
ENDMDL
MODEL 7
REMARK VINA RESULT:    -4.501      2.565      3.944
REMARK INTER + INTRA:          -7.063
REMARK INTER:                  -6.771
REMARK INTRA:                  -0.292
REMARK UNBOUND:                -0.458
REMARK SMILES O=C([O-])CCCCCCCC(=O)[O-]
REMARK SMILES IDX 7 1 6 2 5 3 4 4 2 5 1 6 3 7 8 8 9 9 10 10 11 11 12 12 13 13
REMARK H PARENT
REMARK Flexibility Score: inf
ROOT
ATOM      1  C   UNL     1     -10.212  -2.235  -9.612  1.00  0.00     0.000 C 
ENDROOT
BRANCH   1   2
ATOM      2  C   UNL     1     -10.637  -0.791  -9.295  1.00  0.00     0.000 C 
BRANCH   2   3
ATOM      3  C   UNL     1     -11.485  -0.166 -10.415  1.00  0.00     0.006 C 
BRANCH   3   4
ATOM      4  C   UNL     1     -12.950   0.034 -10.008  1.00  0.00     0.053 C 
BRANCH   4   5
ATOM      5  C   UNL     1     -13.216   1.477  -9.712  1.00  0.00     0.041 C 
ATOM      6  O   UNL     1     -12.268   2.247  -9.408  1.00  0.00    -0.550 OA
ATOM      7  O   UNL     1     -14.505   1.983  -9.821  1.00  0.00    -0.550 OA
ENDBRANCH   4   5
ENDBRANCH   3   4
ENDBRANCH   2   3
ENDBRANCH   1   2
BRANCH   1   8
ATOM      8  C   UNL     1     -11.397  -3.213  -9.612  1.00  0.00     0.000 C 
BRANCH   8   9
ATOM      9  C   UNL     1     -11.090  -4.517  -8.861  1.00  0.00     0.006 C 
BRANCH   9  10
ATOM     10  C   UNL     1     -10.165  -4.258  -7.668  1.00  0.00     0.053 C 
BRANCH  10  11
ATOM     11  C   UNL     1     -10.275  -5.364  -6.667  1.00  0.00     0.041 C 
ATOM     12  O   UNL     1      -9.679  -6.456  -6.862  1.00  0.00    -0.550 OA
ATOM     13  O   UNL     1     -11.077  -5.208  -5.544  1.00  0.00    -0.550 OA
ENDBRANCH  10  11
ENDBRANCH   9  10
ENDBRANCH   8   9
ENDBRANCH   1   8
TORSDOF 8
ENDMDL
MODEL 8
REMARK VINA RESULT:    -4.432      1.527      2.331
REMARK INTER + INTRA:          -6.962
REMARK INTER:                  -6.648
REMARK INTRA:                  -0.314
REMARK UNBOUND:                -0.458
REMARK SMILES O=C([O-])CCCCCCCC(=O)[O-]
REMARK SMILES IDX 7 1 6 2 5 3 4 4 2 5 1 6 3 7 8 8 9 9 10 10 11 11 12 12 13 13
REMARK H PARENT
REMARK Flexibility Score: inf
ROOT
ATOM      1  C   UNL     1     -12.368  -1.743 -10.274  1.00  0.00     0.000 C 
ENDROOT
BRANCH   1   2
ATOM      2  C   UNL     1     -13.423  -0.623 -10.290  1.00  0.00     0.000 C 
BRANCH   2   3
ATOM      3  C   UNL     1     -12.845   0.737  -9.866  1.00  0.00     0.006 C 
BRANCH   3   4
ATOM      4  C   UNL     1     -13.932   1.750  -9.483  1.00  0.00     0.053 C 
BRANCH   4   5
ATOM      5  C   UNL     1     -13.312   3.044  -9.059  1.00  0.00     0.041 C 
ATOM      6  O   UNL     1     -13.810   3.705  -8.110  1.00  0.00    -0.550 OA
ATOM      7  O   UNL     1     -12.155   3.498  -9.679  1.00  0.00    -0.550 OA
ENDBRANCH   4   5
ENDBRANCH   3   4
ENDBRANCH   2   3
ENDBRANCH   1   2
BRANCH   1   8
ATOM      8  C   UNL     1     -10.989  -1.247  -9.810  1.00  0.00     0.000 C 
BRANCH   8   9
ATOM      9  C   UNL     1      -9.964  -2.384  -9.676  1.00  0.00     0.006 C 
BRANCH   9  10
ATOM     10  C   UNL     1      -9.666  -2.681  -8.204  1.00  0.00     0.053 C 
BRANCH  10  11
ATOM     11  C   UNL     1      -9.962  -4.113  -7.886  1.00  0.00     0.041 C 
ATOM     12  O   UNL     1     -10.148  -4.943  -8.815  1.00  0.00    -0.550 OA
ATOM     13  O   UNL     1     -10.083  -4.522  -6.564  1.00  0.00    -0.550 OA
ENDBRANCH  10  11
ENDBRANCH   9  10
ENDBRANCH   8   9
ENDBRANCH   1   8
TORSDOF 8
ENDMDL
MODEL 9
REMARK VINA RESULT:    -4.417      1.684      6.150
REMARK INTER + INTRA:          -6.940
REMARK INTER:                  -6.723
REMARK INTRA:                  -0.218
REMARK UNBOUND:                -0.458
REMARK SMILES O=C([O-])CCCCCCCC(=O)[O-]
REMARK SMILES IDX 7 1 6 2 5 3 4 4 2 5 1 6 3 7 8 8 9 9 10 10 11 11 12 12 13 13
REMARK H PARENT
REMARK Flexibility Score: inf
ROOT
ATOM      1  C   UNL     1     -13.174  -2.024 -10.386  1.00  0.00     0.000 C 
ENDROOT
BRANCH   1   2
ATOM      2  C   UNL     1     -11.690  -1.979  -9.983  1.00  0.00     0.000 C 
BRANCH   2   3
ATOM      3  C   UNL     1     -11.131  -3.369  -9.637  1.00  0.00     0.006 C 
BRANCH   3   4
ATOM      4  C   UNL     1      -9.611  -3.460  -9.824  1.00  0.00     0.053 C 
BRANCH   4   5
ATOM      5  C   UNL     1      -8.961  -3.960  -8.573  1.00  0.00     0.041 C 
ATOM      6  O   UNL     1      -7.964  -3.360  -8.092  1.00  0.00    -0.550 OA
ATOM      7  O   UNL     1      -9.485  -5.061  -7.908  1.00  0.00    -0.550 OA
ENDBRANCH   4   5
ENDBRANCH   3   4
ENDBRANCH   2   3
ENDBRANCH   1   2
BRANCH   1   8
ATOM      8  C   UNL     1     -13.716  -0.645 -10.796  1.00  0.00     0.000 C 
BRANCH   8   9
ATOM      9  C   UNL     1     -14.285   0.146  -9.608  1.00  0.00     0.006 C 
BRANCH   9  10
ATOM     10  C   UNL     1     -14.321   1.646  -9.916  1.00  0.00     0.053 C 
BRANCH  10  11
ATOM     11  C   UNL     1     -13.139   2.335  -9.311  1.00  0.00     0.041 C 
ATOM     12  O   UNL     1     -13.260   3.489  -8.822  1.00  0.00    -0.550 OA
ATOM     13  O   UNL     1     -11.892   1.724  -9.333  1.00  0.00    -0.550 OA
ENDBRANCH  10  11
ENDBRANCH   9  10
ENDBRANCH   8   9
ENDBRANCH   1   8
TORSDOF 8
ENDMDL
