MODEL 1
REMARK VINA RESULT:    -4.116      0.000      0.000
REMARK INTER + INTRA:          -8.808
REMARK INTER:                  -7.244
REMARK INTRA:                  -1.564
REMARK UNBOUND:                -1.564
REMARK SMILES CCCCCCC=CCCCCCCCC(=O)[O-]
REMARK SMILES IDX 10 1 11 2 12 3 13 4 14 5 15 6 16 7 17 8 18 9 9 10 8 11 7 12
REMARK SMILES IDX 6 13 5 14 4 15 3 16 2 17 1 18
REMARK H PARENT
REMARK Flexibility Score: inf
ROOT
ATOM      1  C   UNL     1       4.566  13.063   6.325  1.00  0.00     0.004 C 
ENDROOT
BRANCH   1   2
ATOM      2  C   UNL     1       5.159  14.071   7.329  1.00  0.00     0.000 C 
BRANCH   2   3
ATOM      3  C   UNL     1       6.679  13.917   7.506  1.00  0.00     0.000 C 
BRANCH   3   4
ATOM      4  C   UNL     1       7.044  12.923   8.621  1.00  0.00     0.000 C 
BRANCH   4   5
ATOM      5  C   UNL     1       8.119  11.912   8.186  1.00  0.00     0.006 C 
BRANCH   5   6
ATOM      6  C   UNL     1       8.087  11.648   6.675  1.00  0.00     0.053 C 
BRANCH   6   7
ATOM      7  C   UNL     1       9.217  10.766   6.241  1.00  0.00     0.041 C 
ATOM      8  O   UNL     1       9.786  10.008   7.071  1.00  0.00    -0.550 OA
ATOM      9  O   UNL     1       9.622  10.758   4.913  1.00  0.00    -0.550 OA
ENDBRANCH   6   7
ENDBRANCH   5   6
ENDBRANCH   4   5
ENDBRANCH   3   4
ENDBRANCH   2   3
ENDBRANCH   1   2
BRANCH   1  10
ATOM     10  C   UNL     1       3.885  11.838   6.959  1.00  0.00     0.027 C 
BRANCH  10  11
ATOM     11  C   UNL     1       4.751  10.603   6.883  1.00  0.00    -0.031 C 
ATOM     12  C   UNL     1       5.030   9.779   7.912  1.00  0.00    -0.031 C 
BRANCH  12  13
ATOM     13  C   UNL     1       4.505   9.929   9.317  1.00  0.00     0.027 C 
BRANCH  13  14
ATOM     14  C   UNL     1       3.921   8.613   9.846  1.00  0.00     0.004 C 
BRANCH  14  15
ATOM     15  C   UNL     1       4.161   7.468   8.855  1.00  0.00     0.000 C 
BRANCH  15  16
ATOM     16  C   UNL     1       3.755   6.120   9.462  1.00  0.00    -0.000 C 
BRANCH  16  17
ATOM     17  C   UNL     1       3.697   5.028   8.388  1.00  0.00    -0.003 C 
ATOM     18  C   UNL     1       2.299   4.425   8.290  1.00  0.00     0.004 C 
ENDBRANCH  16  17
ENDBRANCH  15  16
ENDBRANCH  14  15
ENDBRANCH  13  14
ENDBRANCH  12  13
ENDBRANCH  10  11
ENDBRANCH   1  10
TORSDOF 13
ENDMDL
MODEL 2
REMARK VINA RESULT:    -3.986      3.273      6.970
REMARK INTER + INTRA:          -8.580
REMARK INTER:                  -7.128
REMARK INTRA:                  -1.452
REMARK UNBOUND:                -1.564
REMARK SMILES CCCCCCC=CCCCCCCCC(=O)[O-]
REMARK SMILES IDX 10 1 11 2 12 3 13 4 14 5 15 6 16 7 17 8 18 9 9 10 8 11 7 12
REMARK SMILES IDX 6 13 5 14 4 15 3 16 2 17 1 18
REMARK H PARENT
REMARK Flexibility Score: inf
ROOT
ATOM      1  C   UNL     1       5.690   9.537   8.635  1.00  0.00     0.004 C 
ENDROOT
BRANCH   1   2
ATOM      2  C   UNL     1       4.721   9.442   9.830  1.00  0.00     0.000 C 
BRANCH   2   3
ATOM      3  C   UNL     1       4.169   8.022  10.043  1.00  0.00     0.000 C 
BRANCH   3   4
ATOM      4  C   UNL     1       4.074   7.225   8.731  1.00  0.00     0.000 C 
BRANCH   4   5
ATOM      5  C   UNL     1       4.121   5.704   8.958  1.00  0.00     0.006 C 
BRANCH   5   6
ATOM      6  C   UNL     1       2.796   5.023   8.589  1.00  0.00     0.053 C 
BRANCH   6   7
ATOM      7  C   UNL     1       2.984   3.972   7.539  1.00  0.00     0.041 C 
ATOM      8  O   UNL     1       3.126   2.764   7.868  1.00  0.00    -0.550 OA
ATOM      9  O   UNL     1       2.972   4.321   6.196  1.00  0.00    -0.550 OA
ENDBRANCH   6   7
ENDBRANCH   5   6
ENDBRANCH   4   5
ENDBRANCH   3   4
ENDBRANCH   2   3
ENDBRANCH   1   2
BRANCH   1  10
ATOM     10  C   UNL     1       7.043  10.199   8.947  1.00  0.00     0.027 C 
BRANCH  10  11
ATOM     11  C   UNL     1       7.774  10.616   7.692  1.00  0.00    -0.031 C 
ATOM     12  C   UNL     1       8.096  11.881   7.359  1.00  0.00    -0.031 C 
BRANCH  12  13
ATOM     13  C   UNL     1       7.806  13.104   8.193  1.00  0.00     0.027 C 
BRANCH  13  14
ATOM     14  C   UNL     1       6.964  14.127   7.421  1.00  0.00     0.004 C 
BRANCH  14  15
ATOM     15  C   UNL     1       5.497  14.075   7.861  1.00  0.00     0.000 C 
BRANCH  15  16
ATOM     16  C   UNL     1       4.582  13.709   6.686  1.00  0.00    -0.000 C 
BRANCH  16  17
ATOM     17  C   UNL     1       4.105  12.256   6.793  1.00  0.00    -0.003 C 
ATOM     18  C   UNL     1       4.794  11.372   5.759  1.00  0.00     0.004 C 
ENDBRANCH  16  17
ENDBRANCH  15  16
ENDBRANCH  14  15
ENDBRANCH  13  14
ENDBRANCH  12  13
ENDBRANCH  10  11
ENDBRANCH   1  10
TORSDOF 13
ENDMDL
MODEL 3
REMARK VINA RESULT:    -3.859      3.595      7.321
REMARK INTER + INTRA:          -8.355
REMARK INTER:                  -6.881
REMARK INTRA:                  -1.474
REMARK UNBOUND:                -1.564
REMARK SMILES CCCCCCC=CCCCCCCCC(=O)[O-]
REMARK SMILES IDX 10 1 11 2 12 3 13 4 14 5 15 6 16 7 17 8 18 9 9 10 8 11 7 12
REMARK SMILES IDX 6 13 5 14 4 15 3 16 2 17 1 18
REMARK H PARENT
REMARK Flexibility Score: inf
ROOT
ATOM      1  C   UNL     1       6.113  10.370   9.674  1.00  0.00     0.004 C 
ENDROOT
BRANCH   1   2
ATOM      2  C   UNL     1       4.734   9.720   9.898  1.00  0.00     0.000 C 
BRANCH   2   3
ATOM      3  C   UNL     1       4.805   8.188  10.006  1.00  0.00     0.000 C 
BRANCH   3   4
ATOM      4  C   UNL     1       3.961   7.482   8.932  1.00  0.00     0.000 C 
BRANCH   4   5
ATOM      5  C   UNL     1       3.571   6.049   9.331  1.00  0.00     0.006 C 
BRANCH   5   6
ATOM      6  C   UNL     1       3.714   5.063   8.164  1.00  0.00     0.053 C 
BRANCH   6   7
ATOM      7  C   UNL     1       2.719   3.948   8.251  1.00  0.00     0.041 C 
ATOM      8  O   UNL     1       2.994   2.813   7.779  1.00  0.00    -0.550 OA
ATOM      9  O   UNL     1       1.499   4.152   8.881  1.00  0.00    -0.550 OA
ENDBRANCH   6   7
ENDBRANCH   5   6
ENDBRANCH   4   5
ENDBRANCH   3   4
ENDBRANCH   2   3
ENDBRANCH   1   2
BRANCH   1  10
ATOM     10  C   UNL     1       6.946   9.751   8.538  1.00  0.00     0.027 C 
BRANCH  10  11
ATOM     11  C   UNL     1       7.317  10.769   7.486  1.00  0.00    -0.031 C 
ATOM     12  C   UNL     1       6.491  11.246   6.534  1.00  0.00    -0.031 C 
BRANCH  12  13
ATOM     13  C   UNL     1       5.041  10.867   6.367  1.00  0.00     0.027 C 
BRANCH  13  14
ATOM     14  C   UNL     1       4.106  11.963   6.894  1.00  0.00     0.004 C 
BRANCH  14  15
ATOM     15  C   UNL     1       4.515  13.339   6.356  1.00  0.00     0.000 C 
BRANCH  15  16
ATOM     16  C   UNL     1       4.905  14.283   7.500  1.00  0.00    -0.000 C 
BRANCH  16  17
ATOM     17  C   UNL     1       6.344  14.782   7.334  1.00  0.00    -0.003 C 
ATOM     18  C   UNL     1       7.201  14.405   8.538  1.00  0.00     0.004 C 
ENDBRANCH  16  17
ENDBRANCH  15  16
ENDBRANCH  14  15
ENDBRANCH  13  14
ENDBRANCH  12  13
ENDBRANCH  10  11
ENDBRANCH   1  10
TORSDOF 13
ENDMDL
MODEL 4
REMARK VINA RESULT:    -3.815      2.820      7.109
REMARK INTER + INTRA:          -8.279
REMARK INTER:                  -6.793
REMARK INTRA:                  -1.486
REMARK UNBOUND:                -1.564
REMARK SMILES CCCCCCC=CCCCCCCCC(=O)[O-]
REMARK SMILES IDX 10 1 11 2 12 3 13 4 14 5 15 6 16 7 17 8 18 9 9 10 8 11 7 12
REMARK SMILES IDX 6 13 5 14 4 15 3 16 2 17 1 18
REMARK H PARENT
REMARK Flexibility Score: inf
ROOT
ATOM      1  C   UNL     1       4.197   9.329   9.693  1.00  0.00     0.004 C 
ENDROOT
BRANCH   1   2
ATOM      2  C   UNL     1       4.131   8.004   8.909  1.00  0.00     0.000 C 
BRANCH   2   3
ATOM      3  C   UNL     1       4.435   6.775   9.782  1.00  0.00     0.000 C 
BRANCH   3   4
ATOM      4  C   UNL     1       3.228   5.832   9.912  1.00  0.00     0.000 C 
BRANCH   4   5
ATOM      5  C   UNL     1       3.477   4.458   9.265  1.00  0.00     0.006 C 
BRANCH   5   6
ATOM      6  C   UNL     1       4.965   4.212   8.984  1.00  0.00     0.053 C 
BRANCH   6   7
ATOM      7  C   UNL     1       5.223   3.959   7.531  1.00  0.00     0.041 C 
ATOM      8  O   UNL     1       6.212   3.266   7.173  1.00  0.00    -0.550 OA
ATOM      9  O   UNL     1       4.355   4.464   6.572  1.00  0.00    -0.550 OA
ENDBRANCH   6   7
ENDBRANCH   5   6
ENDBRANCH   4   5
ENDBRANCH   3   4
ENDBRANCH   2   3
ENDBRANCH   1   2
BRANCH   1  10
ATOM     10  C   UNL     1       5.091  10.412   9.065  1.00  0.00     0.027 C 
BRANCH  10  11
ATOM     11  C   UNL     1       5.294  10.192   7.584  1.00  0.00    -0.031 C 
ATOM     12  C   UNL     1       4.798  10.972   6.603  1.00  0.00    -0.031 C 
BRANCH  12  13
ATOM     13  C   UNL     1       3.975  12.218   6.811  1.00  0.00     0.027 C 
BRANCH  13  14
ATOM     14  C   UNL     1       4.728  13.475   6.359  1.00  0.00     0.004 C 
BRANCH  14  15
ATOM     15  C   UNL     1       5.164  14.318   7.563  1.00  0.00     0.000 C 
BRANCH  15  16
ATOM     16  C   UNL     1       6.687  14.488   7.594  1.00  0.00    -0.000 C 
BRANCH  16  17
ATOM     17  C   UNL     1       7.359  13.300   8.292  1.00  0.00    -0.003 C 
ATOM     18  C   UNL     1       8.229  12.509   7.321  1.00  0.00     0.004 C 
ENDBRANCH  16  17
ENDBRANCH  15  16
ENDBRANCH  14  15
ENDBRANCH  13  14
ENDBRANCH  12  13
ENDBRANCH  10  11
ENDBRANCH   1  10
TORSDOF 13
ENDMDL
MODEL 5
REMARK VINA RESULT:    -3.771      3.719      7.427
REMARK INTER + INTRA:          -8.200
REMARK INTER:                  -7.324
REMARK INTRA:                  -0.876
REMARK UNBOUND:                -1.564
REMARK SMILES CCCCCCC=CCCCCCCCC(=O)[O-]
REMARK SMILES IDX 10 1 11 2 12 3 13 4 14 5 15 6 16 7 17 8 18 9 9 10 8 11 7 12
REMARK SMILES IDX 6 13 5 14 4 15 3 16 2 17 1 18
REMARK H PARENT
REMARK Flexibility Score: inf
ROOT
ATOM      1  C   UNL     1       4.416   4.755   7.810  1.00  0.00     0.004 C 
ENDROOT
BRANCH   1   2
ATOM      2  C   UNL     1       5.614   4.196   8.602  1.00  0.00     0.000 C 
BRANCH   2   3
ATOM      3  C   UNL     1       5.992   2.765   8.185  1.00  0.00     0.000 C 
BRANCH   3   4
ATOM      4  C   UNL     1       7.499   2.607   7.924  1.00  0.00     0.000 C 
BRANCH   4   5
ATOM      5  C   UNL     1       8.022   3.585   6.857  1.00  0.00     0.006 C 
BRANCH   5   6
ATOM      6  C   UNL     1       7.446   3.287   5.467  1.00  0.00     0.053 C 
BRANCH   6   7
ATOM      7  C   UNL     1       8.525   3.125   4.441  1.00  0.00     0.041 C 
ATOM      8  O   UNL     1       8.962   1.978   4.154  1.00  0.00    -0.550 OA
ATOM      9  O   UNL     1       9.027   4.237   3.778  1.00  0.00    -0.550 OA
ENDBRANCH   6   7
ENDBRANCH   5   6
ENDBRANCH   4   5
ENDBRANCH   3   4
ENDBRANCH   2   3
ENDBRANCH   1   2
BRANCH   1  10
ATOM     10  C   UNL     1       3.310   5.393   8.669  1.00  0.00     0.027 C 
BRANCH  10  11
ATOM     11  C   UNL     1       3.875   6.199   9.815  1.00  0.00    -0.031 C 
ATOM     12  C   UNL     1       4.203   7.505   9.764  1.00  0.00    -0.031 C 
BRANCH  12  13
ATOM     13  C   UNL     1       4.041   8.400   8.561  1.00  0.00     0.027 C 
BRANCH  13  14
ATOM     14  C   UNL     1       4.555   9.818   8.839  1.00  0.00     0.004 C 
BRANCH  14  15
ATOM     15  C   UNL     1       5.615  10.230   7.811  1.00  0.00     0.000 C 
BRANCH  15  16
ATOM     16  C   UNL     1       4.963  10.834   6.561  1.00  0.00    -0.000 C 
BRANCH  16  17
ATOM     17  C   UNL     1       3.929  11.900   6.940  1.00  0.00    -0.003 C 
ATOM     18  C   UNL     1       4.490  13.305   6.752  1.00  0.00     0.004 C 
ENDBRANCH  16  17
ENDBRANCH  15  16
ENDBRANCH  14  15
ENDBRANCH  13  14
ENDBRANCH  12  13
ENDBRANCH  10  11
ENDBRANCH   1  10
TORSDOF 13
ENDMDL
MODEL 6
REMARK VINA RESULT:    -3.768     18.749     22.565
REMARK INTER + INTRA:          -8.195
REMARK INTER:                  -6.287
REMARK INTRA:                  -1.908
REMARK UNBOUND:                -1.564
REMARK SMILES CCCCCCC=CCCCCCCCC(=O)[O-]
REMARK SMILES IDX 10 1 11 2 12 3 13 4 14 5 15 6 16 7 17 8 18 9 9 10 8 11 7 12
REMARK SMILES IDX 6 13 5 14 4 15 3 16 2 17 1 18
REMARK H PARENT
REMARK Flexibility Score: inf
ROOT
ATOM      1  C   UNL     1      -6.391  -4.494  -6.971  1.00  0.00     0.004 C 
ENDROOT
BRANCH   1   2
ATOM      2  C   UNL     1      -6.830  -3.317  -7.864  1.00  0.00     0.000 C 
BRANCH   2   3
ATOM      3  C   UNL     1      -8.351  -3.093  -7.856  1.00  0.00     0.000 C 
BRANCH   3   4
ATOM      4  C   UNL     1      -8.736  -1.680  -7.389  1.00  0.00     0.000 C 
BRANCH   4   5
ATOM      5  C   UNL     1      -7.510  -0.805  -7.073  1.00  0.00     0.006 C 
BRANCH   5   6
ATOM      6  C   UNL     1      -7.845   0.692  -7.095  1.00  0.00     0.053 C 
BRANCH   6   7
ATOM      7  C   UNL     1      -6.861   1.495  -6.302  1.00  0.00     0.041 C 
ATOM      8  O   UNL     1      -5.664   1.115  -6.205  1.00  0.00    -0.550 OA
ATOM      9  O   UNL     1      -7.258   2.679  -5.696  1.00  0.00    -0.550 OA
ENDBRANCH   6   7
ENDBRANCH   5   6
ENDBRANCH   4   5
ENDBRANCH   3   4
ENDBRANCH   2   3
ENDBRANCH   1   2
BRANCH   1  10
ATOM     10  C   UNL     1      -7.505  -5.097  -6.099  1.00  0.00     0.027 C 
BRANCH  10  11
ATOM     11  C   UNL     1      -7.195  -4.985  -4.624  1.00  0.00    -0.031 C 
ATOM     12  C   UNL     1      -7.821  -4.168  -3.754  1.00  0.00    -0.031 C 
BRANCH  12  13
ATOM     13  C   UNL     1      -8.961  -3.241  -4.093  1.00  0.00     0.027 C 
BRANCH  13  14
ATOM     14  C   UNL     1      -9.064  -2.084  -3.091  1.00  0.00     0.004 C 
BRANCH  14  15
ATOM     15  C   UNL     1      -8.884  -0.732  -3.791  1.00  0.00     0.000 C 
BRANCH  15  16
ATOM     16  C   UNL     1      -7.872   0.145  -3.044  1.00  0.00    -0.000 C 
BRANCH  16  17
ATOM     17  C   UNL     1      -7.367  -0.555  -1.777  1.00  0.00    -0.003 C 
ATOM     18  C   UNL     1      -7.176   0.440  -0.637  1.00  0.00     0.004 C 
ENDBRANCH  16  17
ENDBRANCH  15  16
ENDBRANCH  14  15
ENDBRANCH  13  14
ENDBRANCH  12  13
ENDBRANCH  10  11
ENDBRANCH   1  10
TORSDOF 13
ENDMDL
MODEL 7
REMARK VINA RESULT:    -3.765     15.278     17.103
REMARK INTER + INTRA:          -8.190
REMARK INTER:                  -6.887
REMARK INTRA:                  -1.303
REMARK UNBOUND:                -1.564
REMARK SMILES CCCCCCC=CCCCCCCCC(=O)[O-]
REMARK SMILES IDX 10 1 11 2 12 3 13 4 14 5 15 6 16 7 17 8 18 9 9 10 8 11 7 12
REMARK SMILES IDX 6 13 5 14 4 15 3 16 2 17 1 18
REMARK H PARENT
REMARK Flexibility Score: inf
ROOT
ATOM      1  C   UNL     1       1.940   6.601  -9.361  1.00  0.00     0.004 C 
ENDROOT
BRANCH   1   2
ATOM      2  C   UNL     1       2.162   5.197  -9.956  1.00  0.00     0.000 C 
BRANCH   2   3
ATOM      3  C   UNL     1       2.867   4.238  -8.982  1.00  0.00     0.000 C 
BRANCH   3   4
ATOM      4  C   UNL     1       4.290   3.877  -9.438  1.00  0.00     0.000 C 
BRANCH   4   5
ATOM      5  C   UNL     1       5.173   3.372  -8.283  1.00  0.00     0.006 C 
BRANCH   5   6
ATOM      6  C   UNL     1       4.881   1.907  -7.930  1.00  0.00     0.053 C 
BRANCH   6   7
ATOM      7  C   UNL     1       4.838   1.690  -6.449  1.00  0.00     0.041 C 
ATOM      8  O   UNL     1       5.682   2.249  -5.700  1.00  0.00    -0.550 OA
ATOM      9  O   UNL     1       3.846   0.893  -5.892  1.00  0.00    -0.550 OA
ENDBRANCH   6   7
ENDBRANCH   5   6
ENDBRANCH   4   5
ENDBRANCH   3   4
ENDBRANCH   2   3
ENDBRANCH   1   2
BRANCH   1  10
ATOM     10  C   UNL     1       3.120   7.573  -9.535  1.00  0.00     0.027 C 
BRANCH  10  11
ATOM     11  C   UNL     1       3.433   8.320  -8.260  1.00  0.00    -0.031 C 
ATOM     12  C   UNL     1       4.557   8.182  -7.529  1.00  0.00    -0.031 C 
BRANCH  12  13
ATOM     13  C   UNL     1       5.713   7.276  -7.870  1.00  0.00     0.027 C 
BRANCH  13  14
ATOM     14  C   UNL     1       7.047   7.856  -7.384  1.00  0.00     0.004 C 
BRANCH  14  15
ATOM     15  C   UNL     1       7.043   9.387  -7.466  1.00  0.00     0.000 C 
BRANCH  15  16
ATOM     16  C   UNL     1       7.700  10.006  -6.226  1.00  0.00    -0.000 C 
BRANCH  16  17
ATOM     17  C   UNL     1       7.660   9.036  -5.040  1.00  0.00    -0.003 C 
ATOM     18  C   UNL     1       8.873   9.224  -4.134  1.00  0.00     0.004 C 
ENDBRANCH  16  17
ENDBRANCH  15  16
ENDBRANCH  14  15
ENDBRANCH  13  14
ENDBRANCH  12  13
ENDBRANCH  10  11
ENDBRANCH   1  10
TORSDOF 13
ENDMDL
MODEL 8
REMARK VINA RESULT:    -3.756      3.874      7.599
REMARK INTER + INTRA:          -8.175
REMARK INTER:                  -7.463
REMARK INTRA:                  -0.712
REMARK UNBOUND:                -1.564
REMARK SMILES CCCCCCC=CCCCCCCCC(=O)[O-]
REMARK SMILES IDX 10 1 11 2 12 3 13 4 14 5 15 6 16 7 17 8 18 9 9 10 8 11 7 12
REMARK SMILES IDX 6 13 5 14 4 15 3 16 2 17 1 18
REMARK H PARENT
REMARK Flexibility Score: inf
ROOT
ATOM      1  C   UNL     1       3.794   6.098   8.624  1.00  0.00     0.004 C 
ENDROOT
BRANCH   1   2
ATOM      2  C   UNL     1       4.154   4.600   8.633  1.00  0.00     0.000 C 
BRANCH   2   3
ATOM      3  C   UNL     1       5.666   4.347   8.508  1.00  0.00     0.000 C 
BRANCH   3   4
ATOM      4  C   UNL     1       6.008   3.369   7.372  1.00  0.00     0.000 C 
BRANCH   4   5
ATOM      5  C   UNL     1       7.459   3.512   6.883  1.00  0.00     0.006 C 
BRANCH   5   6
ATOM      6  C   UNL     1       7.592   3.248   5.377  1.00  0.00     0.053 C 
BRANCH   6   7
ATOM      7  C   UNL     1       8.356   1.991   5.098  1.00  0.00     0.041 C 
ATOM      8  O   UNL     1       8.385   1.063   5.950  1.00  0.00    -0.550 OA
ATOM      9  O   UNL     1       9.012   1.831   3.885  1.00  0.00    -0.550 OA
ENDBRANCH   6   7
ENDBRANCH   5   6
ENDBRANCH   4   5
ENDBRANCH   3   4
ENDBRANCH   2   3
ENDBRANCH   1   2
BRANCH   1  10
ATOM     10  C   UNL     1       4.630   6.973   9.574  1.00  0.00     0.027 C 
BRANCH  10  11
ATOM     11  C   UNL     1       3.963   8.298   9.860  1.00  0.00    -0.031 C 
ATOM     12  C   UNL     1       4.050   9.399   9.087  1.00  0.00    -0.031 C 
BRANCH  12  13
ATOM     13  C   UNL     1       4.807   9.495   7.786  1.00  0.00     0.027 C 
BRANCH  13  14
ATOM     14  C   UNL     1       5.931  10.535   7.862  1.00  0.00     0.004 C 
BRANCH  14  15
ATOM     15  C   UNL     1       5.838  11.531   6.701  1.00  0.00     0.000 C 
BRANCH  15  16
ATOM     16  C   UNL     1       4.421  12.102   6.578  1.00  0.00    -0.000 C 
BRANCH  16  17
ATOM     17  C   UNL     1       4.428  13.628   6.728  1.00  0.00    -0.003 C 
ATOM     18  C   UNL     1       5.807  14.136   7.136  1.00  0.00     0.004 C 
ENDBRANCH  16  17
ENDBRANCH  15  16
ENDBRANCH  14  15
ENDBRANCH  13  14
ENDBRANCH  12  13
ENDBRANCH  10  11
ENDBRANCH   1  10
TORSDOF 13
ENDMDL
MODEL 9
REMARK VINA RESULT:    -3.734     15.842     17.461
REMARK INTER + INTRA:          -8.135
REMARK INTER:                  -6.467
REMARK INTRA:                  -1.668
REMARK UNBOUND:                -1.564
REMARK SMILES CCCCCCC=CCCCCCCCC(=O)[O-]
REMARK SMILES IDX 10 1 11 2 12 3 13 4 14 5 15 6 16 7 17 8 18 9 9 10 8 11 7 12
REMARK SMILES IDX 6 13 5 14 4 15 3 16 2 17 1 18
REMARK H PARENT
REMARK Flexibility Score: inf
ROOT
ATOM      1  C   UNL     1       1.919   6.018  -9.441  1.00  0.00     0.004 C 
ENDROOT
BRANCH   1   2
ATOM      2  C   UNL     1       2.325   4.532  -9.412  1.00  0.00     0.000 C 
BRANCH   2   3
ATOM      3  C   UNL     1       3.833   4.328  -9.190  1.00  0.00     0.000 C 
BRANCH   3   4
ATOM      4  C   UNL     1       4.286   2.893  -9.506  1.00  0.00     0.000 C 
BRANCH   4   5
ATOM      5  C   UNL     1       5.165   2.291  -8.396  1.00  0.00     0.006 C 
BRANCH   5   6
ATOM      6  C   UNL     1       4.352   1.925  -7.148  1.00  0.00     0.053 C 
BRANCH   6   7
ATOM      7  C   UNL     1       5.228   1.732  -5.949  1.00  0.00     0.041 C 
ATOM      8  O   UNL     1       5.264   0.619  -5.361  1.00  0.00    -0.550 OA
ATOM      9  O   UNL     1       6.028   2.774  -5.498  1.00  0.00    -0.550 OA
ENDBRANCH   6   7
ENDBRANCH   5   6
ENDBRANCH   4   5
ENDBRANCH   3   4
ENDBRANCH   2   3
ENDBRANCH   1   2
BRANCH   1  10
ATOM     10  C   UNL     1       3.071   7.002  -9.711  1.00  0.00     0.027 C 
BRANCH  10  11
ATOM     11  C   UNL     1       3.027   8.196  -8.787  1.00  0.00    -0.031 C 
ATOM     12  C   UNL     1       3.933   8.476  -7.829  1.00  0.00    -0.031 C 
BRANCH  12  13
ATOM     13  C   UNL     1       5.166   7.661  -7.528  1.00  0.00     0.027 C 
BRANCH  13  14
ATOM     14  C   UNL     1       6.347   8.076  -8.415  1.00  0.00     0.004 C 
BRANCH  14  15
ATOM     15  C   UNL     1       7.264   6.882  -8.702  1.00  0.00     0.000 C 
BRANCH  15  16
ATOM     16  C   UNL     1       6.817   5.643  -7.918  1.00  0.00    -0.000 C 
BRANCH  16  17
ATOM     17  C   UNL     1       7.985   4.673  -7.709  1.00  0.00    -0.003 C 
ATOM     18  C   UNL     1       9.054   5.282  -6.808  1.00  0.00     0.004 C 
ENDBRANCH  16  17
ENDBRANCH  15  16
ENDBRANCH  14  15
ENDBRANCH  13  14
ENDBRANCH  12  13
ENDBRANCH  10  11
ENDBRANCH   1  10
TORSDOF 13
ENDMDL
