MODEL 1
REMARK VINA RESULT:    -5.469      0.000      0.000
REMARK INTER + INTRA:         -13.410
REMARK INTER:                 -10.584
REMARK INTRA:                  -2.826
REMARK UNBOUND:                -2.826
REMARK SMILES CCCCCCCCCCCCCCCCCC(=O)[O-]
REMARK SMILES IDX 10 1 11 2 12 3 13 4 14 5 15 6 16 7 17 8 18 9 19 10 20 11
REMARK SMILES IDX 9 12 8 13 7 14 6 15 5 16 4 17 3 18 2 19 1 20
REMARK H PARENT
REMARK Flexibility Score: inf
ROOT
ATOM      1  C   UNL     1      18.300  -6.943  36.091  1.00  0.00     0.000 C 
ENDROOT
BRANCH   1   2
ATOM      2  C   UNL     1      19.366  -7.503  35.133  1.00  0.00     0.000 C 
BRANCH   2   3
ATOM      3  C   UNL     1      19.076  -7.289  33.633  1.00  0.00     0.000 C 
BRANCH   3   4
ATOM      4  C   UNL     1      19.974  -6.254  32.931  1.00  0.00     0.000 C 
BRANCH   4   5
ATOM      5  C   UNL     1      19.373  -4.838  32.943  1.00  0.00     0.000 C 
BRANCH   5   6
ATOM      6  C   UNL     1      20.278  -3.820  33.655  1.00  0.00     0.000 C 
BRANCH   6   7
ATOM      7  C   UNL     1      19.510  -2.577  34.133  1.00  0.00     0.006 C 
BRANCH   7   8
ATOM      8  C   UNL     1      19.966  -2.160  35.535  1.00  0.00     0.053 C 
BRANCH   8   9
ATOM      9  C   UNL     1      19.598  -0.735  35.803  1.00  0.00     0.041 C 
ATOM     10  O   UNL     1      18.592  -0.224  35.242  1.00  0.00    -0.550 OA
ATOM     11  O   UNL     1      20.390   0.044  36.637  1.00  0.00    -0.550 OA
ENDBRANCH   8   9
ENDBRANCH   7   8
ENDBRANCH   6   7
ENDBRANCH   5   6
ENDBRANCH   4   5
ENDBRANCH   3   4
ENDBRANCH   2   3
ENDBRANCH   1   2
BRANCH   1  12
ATOM     12  C   UNL     1      18.584  -5.495  36.519  1.00  0.00     0.000 C 
BRANCH  12  13
ATOM     13  C   UNL     1      17.361  -4.602  36.279  1.00  0.00    -0.000 C 
BRANCH  13  14
ATOM     14  C   UNL     1      16.240  -5.379  35.578  1.00  0.00    -0.000 C 
BRANCH  14  15
ATOM     15  C   UNL     1      16.004  -4.846  34.159  1.00  0.00    -0.000 C 
BRANCH  15  16
ATOM     16  C   UNL     1      15.861  -5.999  33.156  1.00  0.00    -0.000 C 
BRANCH  16  17
ATOM     17  C   UNL     1      15.529  -7.342  33.831  1.00  0.00    -0.000 C 
BRANCH  17  18
ATOM     18  C   UNL     1      15.388  -8.540  32.871  1.00  0.00    -0.000 C 
BRANCH  18  19
ATOM     19  C   UNL     1      16.170  -8.412  31.552  1.00  0.00    -0.003 C 
ATOM     20  C   UNL     1      17.291  -9.443  31.423  1.00  0.00     0.004 C 
ENDBRANCH  18  19
ENDBRANCH  17  18
ENDBRANCH  16  17
ENDBRANCH  15  16
ENDBRANCH  14  15
ENDBRANCH  13  14
ENDBRANCH  12  13
ENDBRANCH   1  12
TORSDOF 16
ENDMDL
MODEL 2
REMARK VINA RESULT:    -5.013      3.495      6.540
REMARK INTER + INTRA:         -12.527
REMARK INTER:                  -9.751
REMARK INTRA:                  -2.776
REMARK UNBOUND:                -2.826
REMARK SMILES CCCCCCCCCCCCCCCCCC(=O)[O-]
REMARK SMILES IDX 10 1 11 2 12 3 13 4 14 5 15 6 16 7 17 8 18 9 19 10 20 11
REMARK SMILES IDX 9 12 8 13 7 14 6 15 5 16 4 17 3 18 2 19 1 20
REMARK H PARENT
REMARK Flexibility Score: inf
ROOT
ATOM      1  C   UNL     1      16.555  -5.868  35.873  1.00  0.00     0.000 C 
ENDROOT
BRANCH   1   2
ATOM      2  C   UNL     1      17.814  -5.351  36.590  1.00  0.00     0.000 C 
BRANCH   2   3
ATOM      3  C   UNL     1      19.054  -6.262  36.473  1.00  0.00     0.000 C 
BRANCH   3   4
ATOM      4  C   UNL     1      19.028  -7.259  35.300  1.00  0.00     0.000 C 
BRANCH   4   5
ATOM      5  C   UNL     1      19.702  -6.707  34.033  1.00  0.00     0.000 C 
BRANCH   5   6
ATOM      6  C   UNL     1      19.173  -7.368  32.749  1.00  0.00     0.000 C 
BRANCH   6   7
ATOM      7  C   UNL     1      18.015  -8.342  33.018  1.00  0.00     0.006 C 
BRANCH   7   8
ATOM      8  C   UNL     1      17.587  -9.050  31.729  1.00  0.00     0.053 C 
BRANCH   8   9
ATOM      9  C   UNL     1      16.099  -8.996  31.571  1.00  0.00     0.041 C 
ATOM     10  O   UNL     1      15.351  -9.148  32.572  1.00  0.00    -0.550 OA
ATOM     11  O   UNL     1      15.539  -8.824  30.312  1.00  0.00    -0.550 OA
ENDBRANCH   8   9
ENDBRANCH   7   8
ENDBRANCH   6   7
ENDBRANCH   5   6
ENDBRANCH   4   5
ENDBRANCH   3   4
ENDBRANCH   2   3
ENDBRANCH   1   2
BRANCH   1  12
ATOM     12  C   UNL     1      15.984  -4.858  34.866  1.00  0.00     0.000 C 
BRANCH  12  13
ATOM     13  C   UNL     1      16.118  -5.379  33.430  1.00  0.00    -0.000 C 
BRANCH  13  14
ATOM     14  C   UNL     1      17.073  -4.501  32.612  1.00  0.00    -0.000 C 
BRANCH  14  15
ATOM     15  C   UNL     1      17.579  -3.314  33.443  1.00  0.00    -0.000 C 
BRANCH  15  16
ATOM     16  C   UNL     1      19.112  -3.318  33.529  1.00  0.00    -0.000 C 
BRANCH  16  17
ATOM     17  C   UNL     1      19.637  -2.805  34.881  1.00  0.00    -0.000 C 
BRANCH  17  18
ATOM     18  C   UNL     1      18.643  -1.942  35.684  1.00  0.00    -0.000 C 
BRANCH  18  19
ATOM     19  C   UNL     1      18.904  -0.427  35.630  1.00  0.00    -0.003 C 
ATOM     20  C   UNL     1      20.171  -0.014  36.379  1.00  0.00     0.004 C 
ENDBRANCH  18  19
ENDBRANCH  17  18
ENDBRANCH  16  17
ENDBRANCH  15  16
ENDBRANCH  14  15
ENDBRANCH  13  14
ENDBRANCH  12  13
ENDBRANCH   1  12
TORSDOF 16
ENDMDL
MODEL 3
REMARK VINA RESULT:    -4.779      1.059      2.721
REMARK INTER + INTRA:         -12.075
REMARK INTER:                  -9.468
REMARK INTRA:                  -2.607
REMARK UNBOUND:                -2.826
REMARK SMILES CCCCCCCCCCCCCCCCCC(=O)[O-]
REMARK SMILES IDX 10 1 11 2 12 3 13 4 14 5 15 6 16 7 17 8 18 9 19 10 20 11
REMARK SMILES IDX 9 12 8 13 7 14 6 15 5 16 4 17 3 18 2 19 1 20
REMARK H PARENT
REMARK Flexibility Score: inf
ROOT
ATOM      1  C   UNL     1      16.124  -5.016  35.566  1.00  0.00     0.000 C 
ENDROOT
BRANCH   1   2
ATOM      2  C   UNL     1      16.164  -5.665  34.171  1.00  0.00     0.000 C 
BRANCH   2   3
ATOM      3  C   UNL     1      16.958  -4.880  33.106  1.00  0.00     0.000 C 
BRANCH   3   4
ATOM      4  C   UNL     1      16.754  -3.354  33.128  1.00  0.00     0.000 C 
BRANCH   4   5
ATOM      5  C   UNL     1      18.076  -2.578  33.263  1.00  0.00     0.000 C 
BRANCH   5   6
ATOM      6  C   UNL     1      19.207  -3.440  33.848  1.00  0.00     0.000 C 
BRANCH   6   7
ATOM      7  C   UNL     1      19.839  -2.816  35.102  1.00  0.00     0.006 C 
BRANCH   7   8
ATOM      8  C   UNL     1      18.848  -1.886  35.808  1.00  0.00     0.053 C 
BRANCH   8   9
ATOM      9  C   UNL     1      19.402  -0.499  35.896  1.00  0.00     0.041 C 
ATOM     10  O   UNL     1      20.330  -0.238  36.706  1.00  0.00    -0.550 OA
ATOM     11  O   UNL     1      18.863   0.516  35.116  1.00  0.00    -0.550 OA
ENDBRANCH   8   9
ENDBRANCH   7   8
ENDBRANCH   6   7
ENDBRANCH   5   6
ENDBRANCH   4   5
ENDBRANCH   3   4
ENDBRANCH   2   3
ENDBRANCH   1   2
BRANCH   1  12
ATOM     12  C   UNL     1      17.366  -5.341  36.410  1.00  0.00     0.000 C 
BRANCH  12  13
ATOM     13  C   UNL     1      17.897  -6.742  36.089  1.00  0.00    -0.000 C 
BRANCH  13  14
ATOM     14  C   UNL     1      19.398  -6.704  35.775  1.00  0.00    -0.000 C 
BRANCH  14  15
ATOM     15  C   UNL     1      19.657  -6.994  34.291  1.00  0.00    -0.000 C 
BRANCH  15  16
ATOM     16  C   UNL     1      18.718  -8.092  33.773  1.00  0.00    -0.000 C 
BRANCH  16  17
ATOM     17  C   UNL     1      18.656  -8.152  32.236  1.00  0.00    -0.000 C 
BRANCH  17  18
ATOM     18  C   UNL     1      17.788  -9.288  31.661  1.00  0.00    -0.000 C 
BRANCH  18  19
ATOM     19  C   UNL     1      16.371  -8.871  31.229  1.00  0.00    -0.003 C 
ATOM     20  C   UNL     1      15.275  -9.657  31.948  1.00  0.00     0.004 C 
ENDBRANCH  18  19
ENDBRANCH  17  18
ENDBRANCH  16  17
ENDBRANCH  15  16
ENDBRANCH  14  15
ENDBRANCH  13  14
ENDBRANCH  12  13
ENDBRANCH   1  12
TORSDOF 16
ENDMDL
MODEL 4
REMARK VINA RESULT:    -4.754     19.053     21.031
REMARK INTER + INTRA:         -12.026
REMARK INTER:                  -9.681
REMARK INTRA:                  -2.346
REMARK UNBOUND:                -2.826
REMARK SMILES CCCCCCCCCCCCCCCCCC(=O)[O-]
REMARK SMILES IDX 10 1 11 2 12 3 13 4 14 5 15 6 16 7 17 8 18 9 19 10 20 11
REMARK SMILES IDX 9 12 8 13 7 14 6 15 5 16 4 17 3 18 2 19 1 20
REMARK H PARENT
REMARK Flexibility Score: inf
ROOT
ATOM      1  C   UNL     1       8.024   5.361  19.135  1.00  0.00     0.000 C 
ENDROOT
BRANCH   1   2
ATOM      2  C   UNL     1       8.756   5.973  20.343  1.00  0.00     0.000 C 
BRANCH   2   3
ATOM      3  C   UNL     1       9.304   4.952  21.361  1.00  0.00     0.000 C 
BRANCH   3   4
ATOM      4  C   UNL     1      10.601   4.236  20.939  1.00  0.00     0.000 C 
BRANCH   4   5
ATOM      5  C   UNL     1      10.339   2.972  20.102  1.00  0.00     0.000 C 
BRANCH   5   6
ATOM      6  C   UNL     1      10.985   3.044  18.709  1.00  0.00     0.000 C 
BRANCH   6   7
ATOM      7  C   UNL     1       9.964   2.875  17.573  1.00  0.00     0.006 C 
BRANCH   7   8
ATOM      8  C   UNL     1       9.767   1.395  17.231  1.00  0.00     0.053 C 
BRANCH   8   9
ATOM      9  C   UNL     1       8.403   0.938  17.643  1.00  0.00     0.041 C 
ATOM     10  O   UNL     1       7.702   1.650  18.410  1.00  0.00    -0.550 OA
ATOM     11  O   UNL     1       7.923  -0.293  17.217  1.00  0.00    -0.550 OA
ENDBRANCH   8   9
ENDBRANCH   7   8
ENDBRANCH   6   7
ENDBRANCH   5   6
ENDBRANCH   4   5
ENDBRANCH   3   4
ENDBRANCH   2   3
ENDBRANCH   1   2
BRANCH   1  12
ATOM     12  C   UNL     1       8.410   6.026  17.805  1.00  0.00     0.000 C 
BRANCH  12  13
ATOM     13  C   UNL     1       9.288   7.260  18.042  1.00  0.00    -0.000 C 
BRANCH  13  14
ATOM     14  C   UNL     1      10.620   7.141  17.293  1.00  0.00    -0.000 C 
BRANCH  14  15
ATOM     15  C   UNL     1      11.695   6.498  18.178  1.00  0.00    -0.000 C 
BRANCH  15  16
ATOM     16  C   UNL     1      12.342   7.540  19.101  1.00  0.00    -0.000 C 
BRANCH  16  17
ATOM     17  C   UNL     1      12.139   7.227  20.594  1.00  0.00    -0.000 C 
BRANCH  17  18
ATOM     18  C   UNL     1      11.444   8.337  21.407  1.00  0.00    -0.000 C 
BRANCH  18  19
ATOM     19  C   UNL     1      12.352   9.510  21.815  1.00  0.00    -0.003 C 
ATOM     20  C   UNL     1      13.751   9.061  22.236  1.00  0.00     0.004 C 
ENDBRANCH  18  19
ENDBRANCH  17  18
ENDBRANCH  16  17
ENDBRANCH  15  16
ENDBRANCH  14  15
ENDBRANCH  13  14
ENDBRANCH  12  13
ENDBRANCH   1  12
TORSDOF 16
ENDMDL
MODEL 5
REMARK VINA RESULT:    -4.475     19.190     21.172
REMARK INTER + INTRA:         -11.487
REMARK INTER:                  -9.506
REMARK INTRA:                  -1.981
REMARK UNBOUND:                -2.826
REMARK SMILES CCCCCCCCCCCCCCCCCC(=O)[O-]
REMARK SMILES IDX 10 1 11 2 12 3 13 4 14 5 15 6 16 7 17 8 18 9 19 10 20 11
REMARK SMILES IDX 9 12 8 13 7 14 6 15 5 16 4 17 3 18 2 19 1 20
REMARK H PARENT
REMARK Flexibility Score: inf
ROOT
ATOM      1  C   UNL     1       9.327   7.495  18.162  1.00  0.00     0.000 C 
ENDROOT
BRANCH   1   2
ATOM      2  C   UNL     1       8.460   6.321  17.673  1.00  0.00     0.000 C 
BRANCH   2   3
ATOM      3  C   UNL     1       8.191   5.224  18.723  1.00  0.00     0.000 C 
BRANCH   3   4
ATOM      4  C   UNL     1       8.492   5.622  20.180  1.00  0.00     0.000 C 
BRANCH   4   5
ATOM      5  C   UNL     1       9.364   4.587  20.913  1.00  0.00     0.000 C 
BRANCH   5   6
ATOM      6  C   UNL     1      10.421   3.953  19.995  1.00  0.00     0.000 C 
BRANCH   6   7
ATOM      7  C   UNL     1      10.141   2.469  19.706  1.00  0.00     0.006 C 
BRANCH   7   8
ATOM      8  C   UNL     1       9.877   2.243  18.214  1.00  0.00     0.053 C 
BRANCH   8   9
ATOM      9  C   UNL     1       8.659   1.397  18.020  1.00  0.00     0.041 C 
ATOM     10  O   UNL     1       8.707   0.377  17.282  1.00  0.00    -0.550 OA
ATOM     11  O   UNL     1       7.458   1.758  18.616  1.00  0.00    -0.550 OA
ENDBRANCH   8   9
ENDBRANCH   7   8
ENDBRANCH   6   7
ENDBRANCH   5   6
ENDBRANCH   4   5
ENDBRANCH   3   4
ENDBRANCH   2   3
ENDBRANCH   1   2
BRANCH   1  12
ATOM     12  C   UNL     1      10.722   7.514  17.521  1.00  0.00     0.000 C 
BRANCH  12  13
ATOM     13  C   UNL     1      11.583   6.358  18.045  1.00  0.00    -0.000 C 
BRANCH  13  14
ATOM     14  C   UNL     1      12.531   6.834  19.152  1.00  0.00    -0.000 C 
BRANCH  14  15
ATOM     15  C   UNL     1      13.184   8.172  18.781  1.00  0.00    -0.000 C 
BRANCH  15  16
ATOM     16  C   UNL     1      13.641   8.927  20.037  1.00  0.00    -0.000 C 
BRANCH  16  17
ATOM     17  C   UNL     1      13.137   8.282  21.341  1.00  0.00    -0.000 C 
BRANCH  17  18
ATOM     18  C   UNL     1      11.857   8.909  21.928  1.00  0.00    -0.000 C 
BRANCH  18  19
ATOM     19  C   UNL     1      10.541   8.262  21.458  1.00  0.00    -0.003 C 
ATOM     20  C   UNL     1       9.476   8.220  22.552  1.00  0.00     0.004 C 
ENDBRANCH  18  19
ENDBRANCH  17  18
ENDBRANCH  16  17
ENDBRANCH  15  16
ENDBRANCH  14  15
ENDBRANCH  13  14
ENDBRANCH  12  13
ENDBRANCH   1  12
TORSDOF 16
ENDMDL
MODEL 6
REMARK VINA RESULT:    -4.325     18.969     20.115
REMARK INTER + INTRA:         -11.197
REMARK INTER:                  -9.706
REMARK INTRA:                  -1.491
REMARK UNBOUND:                -2.826
REMARK SMILES CCCCCCCCCCCCCCCCCC(=O)[O-]
REMARK SMILES IDX 10 1 11 2 12 3 13 4 14 5 15 6 16 7 17 8 18 9 19 10 20 11
REMARK SMILES IDX 9 12 8 13 7 14 6 15 5 16 4 17 3 18 2 19 1 20
REMARK H PARENT
REMARK Flexibility Score: inf
ROOT
ATOM      1  C   UNL     1       9.856   5.917  17.682  1.00  0.00     0.000 C 
ENDROOT
BRANCH   1   2
ATOM      2  C   UNL     1       8.680   6.520  18.471  1.00  0.00     0.000 C 
BRANCH   2   3
ATOM      3  C   UNL     1       8.280   5.745  19.744  1.00  0.00     0.000 C 
BRANCH   3   4
ATOM      4  C   UNL     1       9.411   4.930  20.399  1.00  0.00     0.000 C 
BRANCH   4   5
ATOM      5  C   UNL     1      10.254   5.762  21.380  1.00  0.00     0.000 C 
BRANCH   5   6
ATOM      6  C   UNL     1       9.656   7.155  21.636  1.00  0.00     0.000 C 
BRANCH   6   7
ATOM      7  C   UNL     1      10.642   8.290  21.317  1.00  0.00     0.006 C 
BRANCH   7   8
ATOM      8  C   UNL     1      12.090   7.818  21.481  1.00  0.00     0.053 C 
BRANCH   8   9
ATOM      9  C   UNL     1      13.038   8.961  21.302  1.00  0.00     0.041 C 
ATOM     10  O   UNL     1      13.973   8.883  20.462  1.00  0.00    -0.550 OA
ATOM     11  O   UNL     1      12.917  10.096  22.093  1.00  0.00    -0.550 OA
ENDBRANCH   8   9
ENDBRANCH   7   8
ENDBRANCH   6   7
ENDBRANCH   5   6
ENDBRANCH   4   5
ENDBRANCH   3   4
ENDBRANCH   2   3
ENDBRANCH   1   2
BRANCH   1  12
ATOM     12  C   UNL     1      11.074   6.849  17.621  1.00  0.00     0.000 C 
BRANCH  12  13
ATOM     13  C   UNL     1      12.198   6.344  18.533  1.00  0.00    -0.000 C 
BRANCH  13  14
ATOM     14  C   UNL     1      12.756   5.007  18.031  1.00  0.00    -0.000 C 
BRANCH  14  15
ATOM     15  C   UNL     1      11.874   3.836  18.484  1.00  0.00    -0.000 C 
BRANCH  15  16
ATOM     16  C   UNL     1      11.662   2.834  17.341  1.00  0.00    -0.000 C 
BRANCH  16  17
ATOM     17  C   UNL     1      10.212   2.327  17.250  1.00  0.00    -0.000 C 
BRANCH  17  18
ATOM     18  C   UNL     1       9.501   2.134  18.604  1.00  0.00    -0.000 C 
BRANCH  18  19
ATOM     19  C   UNL     1       8.233   1.262  18.555  1.00  0.00    -0.003 C 
ATOM     20  C   UNL     1       8.197   0.332  17.344  1.00  0.00     0.004 C 
ENDBRANCH  18  19
ENDBRANCH  17  18
ENDBRANCH  16  17
ENDBRANCH  15  16
ENDBRANCH  14  15
ENDBRANCH  13  14
ENDBRANCH  12  13
ENDBRANCH   1  12
TORSDOF 16
ENDMDL
MODEL 7
REMARK VINA RESULT:    -4.201      5.384      6.829
REMARK INTER + INTRA:         -10.957
REMARK INTER:                  -9.291
REMARK INTRA:                  -1.666
REMARK UNBOUND:                -2.826
REMARK SMILES CCCCCCCCCCCCCCCCCC(=O)[O-]
REMARK SMILES IDX 10 1 11 2 12 3 13 4 14 5 15 6 16 7 17 8 18 9 19 10 20 11
REMARK SMILES IDX 9 12 8 13 7 14 6 15 5 16 4 17 3 18 2 19 1 20
REMARK H PARENT
REMARK Flexibility Score: inf
ROOT
ATOM      1  C   UNL     1      16.093  -6.043  31.923  1.00  0.00     0.000 C 
ENDROOT
BRANCH   1   2
ATOM      2  C   UNL     1      16.294  -4.871  30.947  1.00  0.00     0.000 C 
BRANCH   2   3
ATOM      3  C   UNL     1      15.571  -5.016  29.592  1.00  0.00     0.000 C 
BRANCH   3   4
ATOM      4  C   UNL     1      15.315  -3.697  28.839  1.00  0.00     0.000 C 
BRANCH   4   5
ATOM      5  C   UNL     1      16.179  -3.555  27.574  1.00  0.00     0.000 C 
BRANCH   5   6
ATOM      6  C   UNL     1      16.038  -2.173  26.917  1.00  0.00     0.000 C 
BRANCH   6   7
ATOM      7  C   UNL     1      14.816  -1.395  27.431  1.00  0.00     0.006 C 
BRANCH   7   8
ATOM      8  C   UNL     1      14.053  -0.748  26.271  1.00  0.00     0.053 C 
BRANCH   8   9
ATOM      9  C   UNL     1      14.279   0.731  26.254  1.00  0.00     0.041 C 
ATOM     10  O   UNL     1      14.835   1.298  27.231  1.00  0.00    -0.550 OA
ATOM     11  O   UNL     1      13.835   1.490  25.180  1.00  0.00    -0.550 OA
ENDBRANCH   8   9
ENDBRANCH   7   8
ENDBRANCH   6   7
ENDBRANCH   5   6
ENDBRANCH   4   5
ENDBRANCH   3   4
ENDBRANCH   2   3
ENDBRANCH   1   2
BRANCH   1  12
ATOM     12  C   UNL     1      16.207  -5.620  33.395  1.00  0.00     0.000 C 
BRANCH  12  13
ATOM     13  C   UNL     1      16.764  -4.197  33.516  1.00  0.00    -0.000 C 
BRANCH  13  14
ATOM     14  C   UNL     1      17.607  -4.041  34.788  1.00  0.00    -0.000 C 
BRANCH  14  15
ATOM     15  C   UNL     1      17.024  -4.871  35.940  1.00  0.00    -0.000 C 
BRANCH  15  16
ATOM     16  C   UNL     1      18.104  -5.753  36.582  1.00  0.00    -0.000 C 
BRANCH  16  17
ATOM     17  C   UNL     1      19.263  -6.076  35.621  1.00  0.00    -0.000 C 
BRANCH  17  18
ATOM     18  C   UNL     1      19.166  -7.444  34.917  1.00  0.00    -0.000 C 
BRANCH  18  19
ATOM     19  C   UNL     1      19.193  -7.388  33.379  1.00  0.00    -0.003 C 
ATOM     20  C   UNL     1      19.905  -6.147  32.842  1.00  0.00     0.004 C 
ENDBRANCH  18  19
ENDBRANCH  17  18
ENDBRANCH  16  17
ENDBRANCH  15  16
ENDBRANCH  14  15
ENDBRANCH  13  14
ENDBRANCH  12  13
ENDBRANCH   1  12
TORSDOF 16
ENDMDL
MODEL 8
REMARK VINA RESULT:    -4.156      5.542      7.049
REMARK INTER + INTRA:         -10.869
REMARK INTER:                  -9.258
REMARK INTRA:                  -1.612
REMARK UNBOUND:                -2.826
REMARK SMILES CCCCCCCCCCCCCCCCCC(=O)[O-]
REMARK SMILES IDX 10 1 11 2 12 3 13 4 14 5 15 6 16 7 17 8 18 9 19 10 20 11
REMARK SMILES IDX 9 12 8 13 7 14 6 15 5 16 4 17 3 18 2 19 1 20
REMARK H PARENT
REMARK Flexibility Score: inf
ROOT
ATOM      1  C   UNL     1      16.546  -5.266  31.868  1.00  0.00     0.000 C 
ENDROOT
BRANCH   1   2
ATOM      2  C   UNL     1      15.902  -5.147  30.475  1.00  0.00     0.000 C 
BRANCH   2   3
ATOM      3  C   UNL     1      15.926  -3.731  29.862  1.00  0.00     0.000 C 
BRANCH   3   4
ATOM      4  C   UNL     1      15.255  -3.602  28.481  1.00  0.00     0.000 C 
BRANCH   4   5
ATOM      5  C   UNL     1      15.384  -2.189  27.887  1.00  0.00     0.000 C 
BRANCH   5   6
ATOM      6  C   UNL     1      15.169  -1.087  28.937  1.00  0.00     0.000 C 
BRANCH   6   7
ATOM      7  C   UNL     1      14.107  -0.061  28.510  1.00  0.00     0.006 C 
BRANCH   7   8
ATOM      8  C   UNL     1      14.728   1.039  27.644  1.00  0.00     0.053 C 
BRANCH   8   9
ATOM      9  C   UNL     1      14.197   0.969  26.247  1.00  0.00     0.041 C 
ATOM     10  O   UNL     1      13.344   0.097  25.937  1.00  0.00    -0.550 OA
ATOM     11  O   UNL     1      14.677   1.838  25.276  1.00  0.00    -0.550 OA
ENDBRANCH   8   9
ENDBRANCH   7   8
ENDBRANCH   6   7
ENDBRANCH   5   6
ENDBRANCH   4   5
ENDBRANCH   3   4
ENDBRANCH   2   3
ENDBRANCH   1   2
BRANCH   1  12
ATOM     12  C   UNL     1      16.231  -6.602  32.558  1.00  0.00     0.000 C 
BRANCH  12  13
ATOM     13  C   UNL     1      15.500  -6.375  33.886  1.00  0.00    -0.000 C 
BRANCH  13  14
ATOM     14  C   UNL     1      15.916  -5.044  34.524  1.00  0.00    -0.000 C 
BRANCH  14  15
ATOM     15  C   UNL     1      16.883  -5.272  35.693  1.00  0.00    -0.000 C 
BRANCH  15  16
ATOM     16  C   UNL     1      17.774  -4.042  35.916  1.00  0.00    -0.000 C 
BRANCH  16  17
ATOM     17  C   UNL     1      18.294  -3.432  34.602  1.00  0.00    -0.000 C 
BRANCH  17  18
ATOM     18  C   UNL     1      19.742  -3.812  34.234  1.00  0.00    -0.000 C 
BRANCH  18  19
ATOM     19  C   UNL     1      19.881  -4.754  33.025  1.00  0.00    -0.003 C 
ATOM     20  C   UNL     1      19.730  -6.228  33.399  1.00  0.00     0.004 C 
ENDBRANCH  18  19
ENDBRANCH  17  18
ENDBRANCH  16  17
ENDBRANCH  15  16
ENDBRANCH  14  15
ENDBRANCH  13  14
ENDBRANCH  12  13
ENDBRANCH   1  12
TORSDOF 16
ENDMDL
MODEL 9
REMARK VINA RESULT:    -4.133     15.922     17.273
REMARK INTER + INTRA:         -10.825
REMARK INTER:                  -9.250
REMARK INTRA:                  -1.575
REMARK UNBOUND:                -2.826
REMARK SMILES CCCCCCCCCCCCCCCCCC(=O)[O-]
REMARK SMILES IDX 10 1 11 2 12 3 13 4 14 5 15 6 16 7 17 8 18 9 19 10 20 11
REMARK SMILES IDX 9 12 8 13 7 14 6 15 5 16 4 17 3 18 2 19 1 20
REMARK H PARENT
REMARK Flexibility Score: inf
ROOT
ATOM      1  C   UNL     1      11.537   5.647  21.327  1.00  0.00     0.000 C 
ENDROOT
BRANCH   1   2
ATOM      2  C   UNL     1      12.581   5.552  22.454  1.00  0.00     0.000 C 
BRANCH   2   3
ATOM      3  C   UNL     1      12.878   4.122  22.952  1.00  0.00     0.000 C 
BRANCH   3   4
ATOM      4  C   UNL     1      13.736   4.036  24.228  1.00  0.00     0.000 C 
BRANCH   4   5
ATOM      5  C   UNL     1      13.797   2.614  24.811  1.00  0.00     0.000 C 
BRANCH   5   6
ATOM      6  C   UNL     1      15.209   2.011  24.745  1.00  0.00     0.000 C 
BRANCH   6   7
ATOM      7  C   UNL     1      15.505   1.066  25.920  1.00  0.00     0.006 C 
BRANCH   7   8
ATOM      8  C   UNL     1      14.744   1.501  27.176  1.00  0.00     0.053 C 
BRANCH   8   9
ATOM      9  C   UNL     1      13.944   0.362  27.726  1.00  0.00     0.041 C 
ATOM     10  O   UNL     1      12.810   0.096  27.249  1.00  0.00    -0.550 OA
ATOM     11  O   UNL     1      14.431  -0.377  28.796  1.00  0.00    -0.550 OA
ENDBRANCH   8   9
ENDBRANCH   7   8
ENDBRANCH   6   7
ENDBRANCH   5   6
ENDBRANCH   4   5
ENDBRANCH   3   4
ENDBRANCH   2   3
ENDBRANCH   1   2
BRANCH   1  12
ATOM     12  C   UNL     1      10.756   6.969  21.348  1.00  0.00     0.000 C 
BRANCH  12  13
ATOM     13  C   UNL     1      10.998   7.770  20.063  1.00  0.00    -0.000 C 
BRANCH  13  14
ATOM     14  C   UNL     1      11.646   6.896  18.982  1.00  0.00    -0.000 C 
BRANCH  14  15
ATOM     15  C   UNL     1      10.793   6.872  17.708  1.00  0.00    -0.000 C 
BRANCH  15  16
ATOM     16  C   UNL     1       9.330   7.218  18.020  1.00  0.00    -0.000 C 
BRANCH  16  17
ATOM     17  C   UNL     1       8.386   6.011  17.877  1.00  0.00    -0.000 C 
BRANCH  17  18
ATOM     18  C   UNL     1       8.369   5.048  19.081  1.00  0.00    -0.000 C 
BRANCH  18  19
ATOM     19  C   UNL     1       8.721   3.587  18.751  1.00  0.00    -0.003 C 
ATOM     20  C   UNL     1      10.214   3.290  18.885  1.00  0.00     0.004 C 
ENDBRANCH  18  19
ENDBRANCH  17  18
ENDBRANCH  16  17
ENDBRANCH  15  16
ENDBRANCH  14  15
ENDBRANCH  13  14
ENDBRANCH  12  13
ENDBRANCH   1  12
TORSDOF 16
ENDMDL
