MODEL 1
REMARK VINA RESULT:    -3.787      0.000      0.000
REMARK INTER + INTRA:          -4.754
REMARK INTER:                  -4.673
REMARK INTRA:                  -0.082
REMARK UNBOUND:                -0.082
REMARK SMILES CCCCCC(=O)[O-]
REMARK SMILES IDX 4 1 5 2 6 3 7 4 8 5 3 6 2 7 1 8
REMARK H PARENT
REMARK Flexibility Score: inf
ROOT
ATOM      1  C   UNL     1      12.360 -29.410  22.828  1.00  0.00     0.006 C 
ENDROOT
BRANCH   1   2
ATOM      2  C   UNL     1      12.052 -30.506  21.799  1.00  0.00     0.053 C 
BRANCH   2   3
ATOM      3  C   UNL     1      13.303 -30.942  21.106  1.00  0.00     0.041 C 
ATOM      4  O   UNL     1      13.330 -32.030  20.472  1.00  0.00    -0.550 OA
ATOM      5  O   UNL     1      14.456 -30.172  21.201  1.00  0.00    -0.550 OA
ENDBRANCH   2   3
ENDBRANCH   1   2
BRANCH   1   6
ATOM      6  C   UNL     1      11.156 -28.473  23.063  1.00  0.00     0.000 C 
BRANCH   6   7
ATOM      7  C   UNL     1      11.476 -27.278  23.977  1.00  0.00    -0.003 C 
ATOM      8  C   UNL     1      12.742 -27.480  24.805  1.00  0.00     0.004 C 
ENDBRANCH   6   7
ENDBRANCH   1   6
TORSDOF 4
ENDMDL
MODEL 2
REMARK VINA RESULT:    -3.724      2.780      4.305
REMARK INTER + INTRA:          -4.676
REMARK INTER:                  -4.452
REMARK INTRA:                  -0.225
REMARK UNBOUND:                -0.082
REMARK SMILES CCCCCC(=O)[O-]
REMARK SMILES IDX 4 1 5 2 6 3 7 4 8 5 3 6 2 7 1 8
REMARK H PARENT
REMARK Flexibility Score: inf
ROOT
ATOM      1  C   UNL     1      13.724 -30.040  23.635  1.00  0.00     0.006 C 
ENDROOT
BRANCH   1   2
ATOM      2  C   UNL     1      13.411 -28.616  23.157  1.00  0.00     0.053 C 
BRANCH   2   3
ATOM      3  C   UNL     1      12.379 -27.984  24.035  1.00  0.00     0.041 C 
ATOM      4  O   UNL     1      12.718 -27.430  25.115  1.00  0.00    -0.550 OA
ATOM      5  O   UNL     1      11.035 -28.048  23.687  1.00  0.00    -0.550 OA
ENDBRANCH   2   3
ENDBRANCH   1   2
BRANCH   1   6
ATOM      6  C   UNL     1      12.896 -31.104  22.884  1.00  0.00     0.000 C 
BRANCH   6   7
ATOM      7  C   UNL     1      12.504 -30.684  21.457  1.00  0.00    -0.003 C 
ATOM      8  C   UNL     1      10.993 -30.601  21.251  1.00  0.00     0.004 C 
ENDBRANCH   6   7
ENDBRANCH   1   6
TORSDOF 4
ENDMDL
MODEL 3
REMARK VINA RESULT:    -3.715      0.263      1.156
REMARK INTER + INTRA:          -4.666
REMARK INTER:                  -4.576
REMARK INTRA:                  -0.090
REMARK UNBOUND:                -0.082
REMARK SMILES CCCCCC(=O)[O-]
REMARK SMILES IDX 4 1 5 2 6 3 7 4 8 5 3 6 2 7 1 8
REMARK H PARENT
REMARK Flexibility Score: inf
ROOT
ATOM      1  C   UNL     1      12.333 -29.573  22.844  1.00  0.00     0.006 C 
ENDROOT
BRANCH   1   2
ATOM      2  C   UNL     1      12.132 -30.624  21.745  1.00  0.00     0.053 C 
BRANCH   2   3
ATOM      3  C   UNL     1      13.450 -31.077  21.205  1.00  0.00     0.041 C 
ATOM      4  O   UNL     1      14.403 -30.261  21.090  1.00  0.00    -0.550 OA
ATOM      5  O   UNL     1      13.614 -32.390  20.780  1.00  0.00    -0.550 OA
ENDBRANCH   2   3
ENDBRANCH   1   2
BRANCH   1   6
ATOM      6  C   UNL     1      11.220 -28.504  22.842  1.00  0.00     0.000 C 
BRANCH   6   7
ATOM      7  C   UNL     1      11.375 -27.452  23.953  1.00  0.00    -0.003 C 
ATOM      8  C   UNL     1      12.661 -27.618  24.760  1.00  0.00     0.004 C 
ENDBRANCH   6   7
ENDBRANCH   1   6
TORSDOF 4
ENDMDL
MODEL 4
REMARK VINA RESULT:    -3.679      1.568      1.970
REMARK INTER + INTRA:          -4.621
REMARK INTER:                  -4.347
REMARK INTRA:                  -0.274
REMARK UNBOUND:                -0.082
REMARK SMILES CCCCCC(=O)[O-]
REMARK SMILES IDX 4 1 5 2 6 3 7 4 8 5 3 6 2 7 1 8
REMARK H PARENT
REMARK Flexibility Score: inf
ROOT
ATOM      1  C   UNL     1      14.227 -30.018  23.244  1.00  0.00     0.006 C 
ENDROOT
BRANCH   1   2
ATOM      2  C   UNL     1      13.085 -31.020  23.030  1.00  0.00     0.053 C 
BRANCH   2   3
ATOM      3  C   UNL     1      12.544 -30.910  21.641  1.00  0.00     0.041 C 
ATOM      4  O   UNL     1      13.266 -31.214  20.654  1.00  0.00    -0.550 OA
ATOM      5  O   UNL     1      11.259 -30.425  21.431  1.00  0.00    -0.550 OA
ENDBRANCH   2   3
ENDBRANCH   1   2
BRANCH   1   6
ATOM      6  C   UNL     1      13.732 -28.555  23.224  1.00  0.00     0.000 C 
BRANCH   6   7
ATOM      7  C   UNL     1      12.671 -28.250  24.294  1.00  0.00    -0.003 C 
ATOM      8  C   UNL     1      11.374 -27.695  23.711  1.00  0.00     0.004 C 
ENDBRANCH   6   7
ENDBRANCH   1   6
TORSDOF 4
ENDMDL
MODEL 5
REMARK VINA RESULT:    -3.636      1.830      1.991
REMARK INTER + INTRA:          -4.567
REMARK INTER:                  -4.459
REMARK INTRA:                  -0.109
REMARK UNBOUND:                -0.082
REMARK SMILES CCCCCC(=O)[O-]
REMARK SMILES IDX 4 1 5 2 6 3 7 4 8 5 3 6 2 7 1 8
REMARK H PARENT
REMARK Flexibility Score: inf
ROOT
ATOM      1  C   UNL     1      12.281 -29.268  22.897  1.00  0.00     0.006 C 
ENDROOT
BRANCH   1   2
ATOM      2  C   UNL     1      13.241 -30.045  23.806  1.00  0.00     0.053 C 
BRANCH   2   3
ATOM      3  C   UNL     1      13.463 -31.425  23.277  1.00  0.00     0.041 C 
ATOM      4  O   UNL     1      13.317 -31.664  22.048  1.00  0.00    -0.550 OA
ATOM      5  O   UNL     1      13.782 -32.462  24.146  1.00  0.00    -0.550 OA
ENDBRANCH   2   3
ENDBRANCH   1   2
BRANCH   1   6
ATOM      6  C   UNL     1      11.467 -28.210  23.674  1.00  0.00     0.000 C 
BRANCH   6   7
ATOM      7  C   UNL     1      12.317 -27.372  24.644  1.00  0.00    -0.003 C 
ATOM      8  C   UNL     1      13.074 -26.241  23.953  1.00  0.00     0.004 C 
ENDBRANCH   6   7
ENDBRANCH   1   6
TORSDOF 4
ENDMDL
MODEL 6
REMARK VINA RESULT:    -3.610     10.309     11.132
REMARK INTER + INTRA:          -4.536
REMARK INTER:                  -4.428
REMARK INTRA:                  -0.107
REMARK UNBOUND:                -0.082
REMARK SMILES CCCCCC(=O)[O-]
REMARK SMILES IDX 4 1 5 2 6 3 7 4 8 5 3 6 2 7 1 8
REMARK H PARENT
REMARK Flexibility Score: inf
ROOT
ATOM      1  C   UNL     1      21.633 -25.488  19.808  1.00  0.00     0.006 C 
ENDROOT
BRANCH   1   2
ATOM      2  C   UNL     1      22.483 -24.554  20.679  1.00  0.00     0.053 C 
BRANCH   2   3
ATOM      3  C   UNL     1      23.534 -23.881  19.856  1.00  0.00     0.041 C 
ATOM      4  O   UNL     1      23.739 -24.247  18.668  1.00  0.00    -0.550 OA
ATOM      5  O   UNL     1      24.323 -22.883  20.414  1.00  0.00    -0.550 OA
ENDBRANCH   2   3
ENDBRANCH   1   2
BRANCH   1   6
ATOM      6  C   UNL     1      20.163 -25.547  20.276  1.00  0.00     0.000 C 
BRANCH   6   7
ATOM      7  C   UNL     1      19.617 -26.978  20.411  1.00  0.00    -0.003 C 
ATOM      8  C   UNL     1      20.691 -27.996  20.789  1.00  0.00     0.004 C 
ENDBRANCH   6   7
ENDBRANCH   1   6
TORSDOF 4
ENDMDL
MODEL 7
REMARK VINA RESULT:    -3.605      1.262      1.859
REMARK INTER + INTRA:          -4.530
REMARK INTER:                  -4.405
REMARK INTRA:                  -0.125
REMARK UNBOUND:                -0.082
REMARK SMILES CCCCCC(=O)[O-]
REMARK SMILES IDX 4 1 5 2 6 3 7 4 8 5 3 6 2 7 1 8
REMARK H PARENT
REMARK Flexibility Score: inf
ROOT
ATOM      1  C   UNL     1      12.001 -30.626  22.044  1.00  0.00     0.006 C 
ENDROOT
BRANCH   1   2
ATOM      2  C   UNL     1      13.184 -30.892  21.104  1.00  0.00     0.053 C 
BRANCH   2   3
ATOM      3  C   UNL     1      13.875 -32.163  21.478  1.00  0.00     0.041 C 
ATOM      4  O   UNL     1      14.228 -32.366  22.671  1.00  0.00    -0.550 OA
ATOM      5  O   UNL     1      14.178 -33.105  20.502  1.00  0.00    -0.550 OA
ENDBRANCH   2   3
ENDBRANCH   1   2
BRANCH   1   6
ATOM      6  C   UNL     1      12.028 -29.196  22.628  1.00  0.00     0.000 C 
BRANCH   6   7
ATOM      7  C   UNL     1      12.809 -29.086  23.948  1.00  0.00    -0.003 C 
ATOM      8  C   UNL     1      12.630 -27.736  24.639  1.00  0.00     0.004 C 
ENDBRANCH   6   7
ENDBRANCH   1   6
TORSDOF 4
ENDMDL
MODEL 8
REMARK VINA RESULT:    -3.593      3.007      4.358
REMARK INTER + INTRA:          -4.515
REMARK INTER:                  -4.358
REMARK INTRA:                  -0.157
REMARK UNBOUND:                -0.082
REMARK SMILES CCCCCC(=O)[O-]
REMARK SMILES IDX 4 1 5 2 6 3 7 4 8 5 3 6 2 7 1 8
REMARK H PARENT
REMARK Flexibility Score: inf
ROOT
ATOM      1  C   UNL     1      13.964 -29.119  23.103  1.00  0.00     0.006 C 
ENDROOT
BRANCH   1   2
ATOM      2  C   UNL     1      12.801 -28.983  24.095  1.00  0.00     0.053 C 
BRANCH   2   3
ATOM      3  C   UNL     1      11.657 -28.255  23.465  1.00  0.00     0.041 C 
ATOM      4  O   UNL     1      11.326 -27.113  23.881  1.00  0.00    -0.550 OA
ATOM      5  O   UNL     1      10.923 -28.857  22.451  1.00  0.00    -0.550 OA
ENDBRANCH   2   3
ENDBRANCH   1   2
BRANCH   1   6
ATOM      6  C   UNL     1      14.482 -30.570  23.005  1.00  0.00     0.000 C 
BRANCH   6   7
ATOM      7  C   UNL     1      13.499 -31.612  23.563  1.00  0.00    -0.003 C 
ATOM      8  C   UNL     1      14.193 -32.854  24.117  1.00  0.00     0.004 C 
ENDBRANCH   6   7
ENDBRANCH   1   6
TORSDOF 4
ENDMDL
MODEL 9
REMARK VINA RESULT:    -3.503      1.633      2.115
REMARK INTER + INTRA:          -4.404
REMARK INTER:                  -4.273
REMARK INTRA:                  -0.131
REMARK UNBOUND:                -0.082
REMARK SMILES CCCCCC(=O)[O-]
REMARK SMILES IDX 4 1 5 2 6 3 7 4 8 5 3 6 2 7 1 8
REMARK H PARENT
REMARK Flexibility Score: inf
ROOT
ATOM      1  C   UNL     1      14.675 -30.392  23.261  1.00  0.00     0.006 C 
ENDROOT
BRANCH   1   2
ATOM      2  C   UNL     1      13.710 -31.565  23.044  1.00  0.00     0.053 C 
BRANCH   2   3
ATOM      3  C   UNL     1      13.832 -32.093  21.651  1.00  0.00     0.041 C 
ATOM      4  O   UNL     1      13.177 -31.564  20.713  1.00  0.00    -0.550 OA
ATOM      5  O   UNL     1      14.630 -33.202  21.394  1.00  0.00    -0.550 OA
ENDBRANCH   2   3
ENDBRANCH   1   2
BRANCH   1   6
ATOM      6  C   UNL     1      13.976 -29.024  23.105  1.00  0.00     0.000 C 
BRANCH   6   7
ATOM      7  C   UNL     1      12.664 -28.910  23.900  1.00  0.00    -0.003 C 
ATOM      8  C   UNL     1      12.560 -27.615  24.702  1.00  0.00     0.004 C 
ENDBRANCH   6   7
ENDBRANCH   1   6
TORSDOF 4
ENDMDL
