MODEL 1
REMARK VINA RESULT:    -7.424      0.000      0.000
REMARK INTER + INTRA:         -13.939
REMARK INTER:                 -12.198
REMARK INTRA:                  -1.741
REMARK UNBOUND:                -1.741
REMARK SMILES COc1ccc([C@H]2CC(=O)c3c(O)cc(O[C@H]4O[C@H](CO[C@@H]5O[C@@H](C)[C@H](O)[C@@H](O)[C@@H]5O)[C@H](O)[C@H](O)[C@H]4O)cc3O2)cc1O
REMARK SMILES IDX 19 1 32 2 34 3 36 4 17 5 18 6 20 7 21 8 22 9 25 10 24 11
REMARK SMILES IDX 26 12 23 13 28 14 30 15 27 16 29 18 31 20 33 22 35 24 16 26
REMARK SMILES IDX 15 27 14 28 38 29 12 30 39 31 11 32 40 33 9 34 7 35 10 36
REMARK SMILES IDX 8 37 13 38 6 40 41 41 5 42 42 43 4 44 3 45 43 46 2 48 1 49
REMARK SMILES IDX 37 50
REMARK H PARENT 27 17 29 19 31 21 33 23 35 25 13 39 43 47 37 51
REMARK Flexibility Score: inf
ROOT
ATOM      1  C   UNL     1      10.382  52.199  21.820  1.00  0.00     0.180 C 
ATOM      2  C   UNL     1      10.965  51.551  23.097  1.00  0.00     0.177 C 
ATOM      3  C   UNL     1      12.166  50.657  22.722  1.00  0.00     0.180 C 
ATOM      4  C   UNL     1      13.154  51.426  21.820  1.00  0.00     0.214 C 
ATOM      5  C   UNL     1      12.412  52.113  20.640  1.00  0.00     0.339 C 
ATOM      6  O   UNL     1      11.385  52.953  21.144  1.00  0.00    -0.332 OA
ENDROOT
BRANCH   1   7
ATOM      7  C   UNL     1       9.176  53.095  22.115  1.00  0.00     0.198 C 
BRANCH   7   8
ATOM      8  O   UNL     1       8.011  52.478  21.600  1.00  0.00    -0.347 OA
BRANCH   8   9
ATOM      9  C   UNL     1       7.392  53.193  20.539  1.00  0.00     0.281 C 
ATOM     10  C   UNL     1       4.436  55.382  21.031  1.00  0.00     0.041 C 
ATOM     11  C   UNL     1       5.116  54.032  20.807  1.00  0.00     0.150 C 
ATOM     12  C   UNL     1       4.756  53.458  19.422  1.00  0.00     0.174 C 
ATOM     13  O   UNL     1       6.516  54.226  20.997  1.00  0.00    -0.344 OA
ATOM     14  C   UNL     1       5.424  52.104  19.270  1.00  0.00     0.179 C 
ATOM     15  C   UNL     1       6.940  52.286  19.351  1.00  0.00     0.202 C 
BRANCH  12  16
ATOM     16  O   UNL     1       3.364  53.270  19.321  1.00  0.00    -0.388 OA
ATOM     17  H   UNL     1       2.942  53.811  20.044  1.00  0.00     0.211 HD
ENDBRANCH  12  16
BRANCH  14  18
ATOM     18  O   UNL     1       5.066  51.545  18.030  1.00  0.00    -0.387 OA
ATOM     19  H   UNL     1       4.082  51.414  18.044  1.00  0.00     0.211 HD
ENDBRANCH  14  18
BRANCH  15  20
ATOM     20  O   UNL     1       7.562  51.027  19.442  1.00  0.00    -0.385 OA
ATOM     21  H   UNL     1       8.459  51.109  19.023  1.00  0.00     0.211 HD
ENDBRANCH  15  20
ENDBRANCH   8   9
ENDBRANCH   7   8
ENDBRANCH   1   7
BRANCH   2  22
ATOM     22  O   UNL     1      11.325  52.504  24.066  1.00  0.00    -0.387 OA
ATOM     23  H   UNL     1      10.520  52.710  24.611  1.00  0.00     0.211 HD
ENDBRANCH   2  22
BRANCH   3  24
ATOM     24  O   UNL     1      12.833  50.212  23.876  1.00  0.00    -0.387 OA
ATOM     25  H   UNL     1      13.083  51.028  24.386  1.00  0.00     0.211 HD
ENDBRANCH   3  24
BRANCH   5  26
ATOM     26  O   UNL     1      11.852  51.181  19.706  1.00  0.00    -0.462 OA
BRANCH  26  27
ATOM     27  C   UNL     1      11.457  51.425  18.385  1.00  0.00     0.130 A 
ATOM     28  C   UNL     1      10.327  52.190  18.047  1.00  0.00     0.093 A 
ATOM     29  C   UNL     1      12.249  50.897  17.368  1.00  0.00     0.094 A 
ATOM     30  C   UNL     1      10.029  52.470  16.706  1.00  0.00     0.133 A 
ATOM     31  C   UNL     1      11.952  51.146  16.031  1.00  0.00     0.138 A 
ATOM     32  C   UNL     1      10.859  51.957  15.687  1.00  0.00     0.102 A 
ATOM     33  O   UNL     1      12.771  50.588  15.043  1.00  0.00    -0.484 OA
ATOM     34  C   UNL     1      10.663  52.278  14.255  1.00  0.00     0.174 C 
ATOM     35  C   UNL     1      12.508  50.686  13.638  1.00  0.00     0.211 C 
ATOM     36  O   UNL     1       9.621  52.857  13.846  1.00  0.00    -0.294 OA
ATOM     37  C   UNL     1      11.770  51.994  13.285  1.00  0.00     0.131 C 
BRANCH  30  38
ATOM     38  O   UNL     1       8.931  53.273  16.394  1.00  0.00    -0.507 OA
ATOM     39  H   UNL     1       8.850  53.737  15.497  1.00  0.00     0.293 HD
ENDBRANCH  30  38
BRANCH  35  40
ATOM     40  C   UNL     1      11.763  49.461  13.133  1.00  0.00    -0.003 A 
ATOM     41  C   UNL     1      11.129  49.500  11.878  1.00  0.00     0.057 A 
ATOM     42  C   UNL     1      11.633  48.300  13.914  1.00  0.00     0.011 A 
ATOM     43  C   UNL     1      10.371  48.420  11.421  1.00  0.00     0.158 A 
ATOM     44  C   UNL     1      10.879  47.213  13.456  1.00  0.00     0.051 A 
ATOM     45  C   UNL     1      10.238  47.266  12.206  1.00  0.00     0.160 A 
BRANCH  43  46
ATOM     46  O   UNL     1       9.732  48.491  10.183  1.00  0.00    -0.504 OA
ATOM     47  H   UNL     1       9.443  49.375   9.787  1.00  0.00     0.293 HD
ENDBRANCH  43  46
BRANCH  45  48
ATOM     48  O   UNL     1       9.469  46.202  11.709  1.00  0.00    -0.493 OA
ATOM     49  C   UNL     1       8.983  45.117  12.502  1.00  0.00     0.278 C 
ENDBRANCH  45  48
ENDBRANCH  35  40
ENDBRANCH  26  27
ENDBRANCH   5  26
BRANCH   4  50
ATOM     50  O   UNL     1      14.195  50.601  21.374  1.00  0.00    -0.384 OA
ATOM     51  H   UNL     1      13.821  49.699  21.184  1.00  0.00     0.211 HD
ENDBRANCH   4  50
TORSDOF 15
ENDMDL
MODEL 2
REMARK VINA RESULT:    -7.244      2.199      3.841
REMARK INTER + INTRA:         -13.644
REMARK INTER:                 -11.766
REMARK INTRA:                  -1.878
REMARK UNBOUND:                -1.741
REMARK SMILES COc1ccc([C@H]2CC(=O)c3c(O)cc(O[C@H]4O[C@H](CO[C@@H]5O[C@@H](C)[C@H](O)[C@@H](O)[C@@H]5O)[C@H](O)[C@H](O)[C@H]4O)cc3O2)cc1O
REMARK SMILES IDX 19 1 32 2 34 3 36 4 17 5 18 6 20 7 21 8 22 9 25 10 24 11
REMARK SMILES IDX 26 12 23 13 28 14 30 15 27 16 29 18 31 20 33 22 35 24 16 26
REMARK SMILES IDX 15 27 14 28 38 29 12 30 39 31 11 32 40 33 9 34 7 35 10 36
REMARK SMILES IDX 8 37 13 38 6 40 41 41 5 42 42 43 4 44 3 45 43 46 2 48 1 49
REMARK SMILES IDX 37 50
REMARK H PARENT 27 17 29 19 31 21 33 23 35 25 13 39 43 47 37 51
REMARK Flexibility Score: inf
ROOT
ATOM      1  C   UNL     1       9.782  52.302  19.248  1.00  0.00     0.180 C 
ATOM      2  C   UNL     1      10.664  53.067  20.262  1.00  0.00     0.177 C 
ATOM      3  C   UNL     1      12.041  53.363  19.631  1.00  0.00     0.180 C 
ATOM      4  C   UNL     1      11.872  54.001  18.237  1.00  0.00     0.214 C 
ATOM      5  C   UNL     1      10.877  53.184  17.367  1.00  0.00     0.339 C 
ATOM      6  O   UNL     1       9.639  53.055  18.047  1.00  0.00    -0.332 OA
ENDROOT
BRANCH   1   7
ATOM      7  C   UNL     1       8.399  51.964  19.812  1.00  0.00     0.198 C 
BRANCH   7   8
ATOM      8  O   UNL     1       7.505  53.013  19.489  1.00  0.00    -0.347 OA
BRANCH   8   9
ATOM      9  C   UNL     1       6.262  52.577  18.955  1.00  0.00     0.281 C 
ATOM     10  C   UNL     1       5.708  52.008  15.330  1.00  0.00     0.041 C 
ATOM     11  C   UNL     1       5.788  52.883  16.580  1.00  0.00     0.150 C 
ATOM     12  C   UNL     1       4.402  53.450  16.943  1.00  0.00     0.174 C 
ATOM     13  O   UNL     1       6.369  52.091  17.614  1.00  0.00    -0.344 OA
ATOM     14  C   UNL     1       4.547  54.339  18.165  1.00  0.00     0.179 C 
ATOM     15  C   UNL     1       5.059  53.497  19.334  1.00  0.00     0.202 C 
BRANCH  12  16
ATOM     16  O   UNL     1       3.908  54.239  15.887  1.00  0.00    -0.388 OA
ATOM     17  H   UNL     1       3.536  55.070  16.292  1.00  0.00     0.211 HD
ENDBRANCH  12  16
BRANCH  14  18
ATOM     18  O   UNL     1       3.298  54.903  18.480  1.00  0.00    -0.387 OA
ATOM     19  H   UNL     1       2.665  54.621  17.770  1.00  0.00     0.211 HD
ENDBRANCH  14  18
BRANCH  15  20
ATOM     20  O   UNL     1       5.415  54.342  20.403  1.00  0.00    -0.385 OA
ATOM     21  H   UNL     1       6.243  54.822  20.137  1.00  0.00     0.211 HD
ENDBRANCH  15  20
ENDBRANCH   8   9
ENDBRANCH   7   8
ENDBRANCH   1   7
BRANCH   2  22
ATOM     22  O   UNL     1      10.052  54.247  20.722  1.00  0.00    -0.387 OA
ATOM     23  H   UNL     1       9.692  54.735  19.935  1.00  0.00     0.211 HD
ENDBRANCH   2  22
BRANCH   3  24
ATOM     24  O   UNL     1      12.789  54.223  20.453  1.00  0.00    -0.387 OA
ATOM     25  H   UNL     1      12.171  54.950  20.732  1.00  0.00     0.211 HD
ENDBRANCH   3  24
BRANCH   5  26
ATOM     26  O   UNL     1      11.369  51.883  17.019  1.00  0.00    -0.462 OA
BRANCH  26  27
ATOM     27  C   UNL     1      11.225  51.211  15.798  1.00  0.00     0.130 A 
ATOM     28  C   UNL     1      10.377  51.655  14.769  1.00  0.00     0.093 A 
ATOM     29  C   UNL     1      11.989  50.062  15.602  1.00  0.00     0.094 A 
ATOM     30  C   UNL     1      10.339  50.987  13.537  1.00  0.00     0.133 A 
ATOM     31  C   UNL     1      11.943  49.374  14.392  1.00  0.00     0.138 A 
ATOM     32  C   UNL     1      11.142  49.844  13.340  1.00  0.00     0.102 A 
ATOM     33  O   UNL     1      12.721  48.220  14.244  1.00  0.00    -0.484 OA
ATOM     34  C   UNL     1      11.224  49.134  12.042  1.00  0.00     0.174 C 
ATOM     35  C   UNL     1      12.679  47.373  13.090  1.00  0.00     0.211 C 
ATOM     36  O   UNL     1      10.422  49.386  11.103  1.00  0.00    -0.294 OA
ATOM     37  C   UNL     1      12.344  48.165  11.810  1.00  0.00     0.131 C 
BRANCH  30  38
ATOM     38  O   UNL     1       9.527  51.472  12.511  1.00  0.00    -0.507 OA
ATOM     39  H   UNL     1       9.876  51.591  11.568  1.00  0.00     0.293 HD
ENDBRANCH  30  38
BRANCH  35  40
ATOM     40  C   UNL     1      11.726  46.207  13.300  1.00  0.00    -0.003 A 
ATOM     41  C   UNL     1      11.626  45.609  14.568  1.00  0.00     0.057 A 
ATOM     42  C   UNL     1      10.978  45.663  12.241  1.00  0.00     0.011 A 
ATOM     43  C   UNL     1      10.820  44.487  14.773  1.00  0.00     0.158 A 
ATOM     44  C   UNL     1      10.164  44.543  12.445  1.00  0.00     0.051 A 
ATOM     45  C   UNL     1      10.081  43.943  13.714  1.00  0.00     0.160 A 
BRANCH  43  46
ATOM     46  O   UNL     1      10.755  43.897  16.036  1.00  0.00    -0.504 OA
ATOM     47  H   UNL     1      10.005  44.107  16.680  1.00  0.00     0.293 HD
ENDBRANCH  43  46
BRANCH  45  48
ATOM     48  O   UNL     1       9.281  42.817  13.962  1.00  0.00    -0.493 OA
ATOM     49  C   UNL     1       8.140  42.448  13.185  1.00  0.00     0.278 C 
ENDBRANCH  45  48
ENDBRANCH  35  40
ENDBRANCH  26  27
ENDBRANCH   5  26
BRANCH   4  50
ATOM     50  O   UNL     1      13.106  54.176  17.595  1.00  0.00    -0.384 OA
ATOM     51  H   UNL     1      12.936  54.516  16.676  1.00  0.00     0.211 HD
ENDBRANCH   4  50
TORSDOF 15
ENDMDL
MODEL 3
REMARK VINA RESULT:    -7.140      2.677      5.622
REMARK INTER + INTRA:         -13.472
REMARK INTER:                 -11.146
REMARK INTRA:                  -2.326
REMARK UNBOUND:                -1.741
REMARK SMILES COc1ccc([C@H]2CC(=O)c3c(O)cc(O[C@H]4O[C@H](CO[C@@H]5O[C@@H](C)[C@H](O)[C@@H](O)[C@@H]5O)[C@H](O)[C@H](O)[C@H]4O)cc3O2)cc1O
REMARK SMILES IDX 19 1 32 2 34 3 36 4 17 5 18 6 20 7 21 8 22 9 25 10 24 11
REMARK SMILES IDX 26 12 23 13 28 14 30 15 27 16 29 18 31 20 33 22 35 24 16 26
REMARK SMILES IDX 15 27 14 28 38 29 12 30 39 31 11 32 40 33 9 34 7 35 10 36
REMARK SMILES IDX 8 37 13 38 6 40 41 41 5 42 42 43 4 44 3 45 43 46 2 48 1 49
REMARK SMILES IDX 37 50
REMARK H PARENT 27 17 29 19 31 21 33 23 35 25 13 39 43 47 37 51
REMARK Flexibility Score: inf
ROOT
ATOM      1  C   UNL     1      13.245  51.960  22.887  1.00  0.00     0.180 C 
ATOM      2  C   UNL     1      12.467  52.081  24.217  1.00  0.00     0.177 C 
ATOM      3  C   UNL     1      10.952  52.123  23.929  1.00  0.00     0.180 C 
ATOM      4  C   UNL     1      10.547  50.967  22.990  1.00  0.00     0.214 C 
ATOM      5  C   UNL     1      11.482  50.903  21.750  1.00  0.00     0.339 C 
ATOM      6  O   UNL     1      12.832  50.798  22.174  1.00  0.00    -0.332 OA
ENDROOT
BRANCH   1   7
ATOM      7  C   UNL     1      14.762  51.924  23.096  1.00  0.00     0.198 C 
BRANCH   7   8
ATOM      8  O   UNL     1      15.373  52.793  22.160  1.00  0.00    -0.347 OA
BRANCH   8   9
ATOM      9  C   UNL     1      14.756  52.802  20.881  1.00  0.00     0.281 C 
ATOM     10  C   UNL     1      16.238  51.149  17.908  1.00  0.00     0.041 C 
ATOM     11  C   UNL     1      16.079  52.308  18.890  1.00  0.00     0.150 C 
ATOM     12  C   UNL     1      15.466  53.539  18.194  1.00  0.00     0.174 C 
ATOM     13  O   UNL     1      15.304  51.829  19.988  1.00  0.00    -0.344 OA
ATOM     14  C   UNL     1      15.367  54.668  19.203  1.00  0.00     0.179 C 
ATOM     15  C   UNL     1      14.445  54.235  20.344  1.00  0.00     0.202 C 
BRANCH  12  16
ATOM     16  O   UNL     1      16.299  53.967  17.142  1.00  0.00    -0.388 OA
ATOM     17  H   UNL     1      15.792  54.654  16.628  1.00  0.00     0.211 HD
ENDBRANCH  12  16
BRANCH  14  18
ATOM     18  O   UNL     1      14.853  55.814  18.569  1.00  0.00    -0.387 OA
ATOM     19  H   UNL     1      15.617  56.429  18.419  1.00  0.00     0.211 HD
ENDBRANCH  14  18
BRANCH  15  20
ATOM     20  O   UNL     1      14.522  55.171  21.393  1.00  0.00    -0.385 OA
ATOM     21  H   UNL     1      15.102  54.779  22.098  1.00  0.00     0.211 HD
ENDBRANCH  15  20
ENDBRANCH   8   9
ENDBRANCH   7   8
ENDBRANCH   1   7
BRANCH   2  22
ATOM     22  O   UNL     1      12.784  51.050  25.120  1.00  0.00    -0.387 OA
ATOM     23  H   UNL     1      12.153  50.299  24.965  1.00  0.00     0.211 HD
ENDBRANCH   2  22
BRANCH   3  24
ATOM     24  O   UNL     1      10.216  52.035  25.124  1.00  0.00    -0.387 OA
ATOM     25  H   UNL     1       9.266  52.196  24.879  1.00  0.00     0.211 HD
ENDBRANCH   3  24
BRANCH   5  26
ATOM     26  O   UNL     1      11.342  52.032  20.878  1.00  0.00    -0.462 OA
BRANCH  26  27
ATOM     27  C   UNL     1      11.086  52.024  19.501  1.00  0.00     0.130 A 
ATOM     28  C   UNL     1       9.959  52.632  18.922  1.00  0.00     0.093 A 
ATOM     29  C   UNL     1      12.020  51.400  18.677  1.00  0.00     0.094 A 
ATOM     30  C   UNL     1       9.800  52.663  17.530  1.00  0.00     0.133 A 
ATOM     31  C   UNL     1      11.864  51.402  17.293  1.00  0.00     0.138 A 
ATOM     32  C   UNL     1      10.771  52.057  16.705  1.00  0.00     0.102 A 
ATOM     33  O   UNL     1      12.824  50.756  16.506  1.00  0.00    -0.484 OA
ATOM     34  C   UNL     1      10.722  52.122  15.226  1.00  0.00     0.174 C 
ATOM     35  C   UNL     1      12.718  50.601  15.086  1.00  0.00     0.211 C 
ATOM     36  O   UNL     1       9.700  52.541  14.619  1.00  0.00    -0.294 OA
ATOM     37  C   UNL     1      11.948  51.770  14.439  1.00  0.00     0.131 C 
BRANCH  30  38
ATOM     38  O   UNL     1       8.699  53.314  16.973  1.00  0.00    -0.507 OA
ATOM     39  H   UNL     1       7.931  53.643  17.544  1.00  0.00     0.293 HD
ENDBRANCH  30  38
BRANCH  35  40
ATOM     40  C   UNL     1      12.111  49.255  14.725  1.00  0.00    -0.003 A 
ATOM     41  C   UNL     1      12.032  48.243  15.698  1.00  0.00     0.057 A 
ATOM     42  C   UNL     1      11.678  48.965  13.419  1.00  0.00     0.011 A 
ATOM     43  C   UNL     1      11.553  46.971  15.376  1.00  0.00     0.158 A 
ATOM     44  C   UNL     1      11.191  47.693  13.095  1.00  0.00     0.051 A 
ATOM     45  C   UNL     1      11.128  46.683  14.072  1.00  0.00     0.160 A 
BRANCH  43  46
ATOM     46  O   UNL     1      11.506  45.976  16.353  1.00  0.00    -0.504 OA
ATOM     47  H   UNL     1      10.956  46.087  17.195  1.00  0.00     0.293 HD
ENDBRANCH  43  46
BRANCH  45  48
ATOM     48  O   UNL     1      10.652  45.394  13.790  1.00  0.00    -0.493 OA
ATOM     49  C   UNL     1       9.325  45.101  13.348  1.00  0.00     0.278 C 
ENDBRANCH  45  48
ENDBRANCH  35  40
ENDBRANCH  26  27
ENDBRANCH   5  26
BRANCH   4  50
ATOM     50  O   UNL     1       9.197  51.049  22.622  1.00  0.00    -0.384 OA
ATOM     51  H   UNL     1       9.148  51.330  21.668  1.00  0.00     0.211 HD
ENDBRANCH   4  50
TORSDOF 15
ENDMDL
MODEL 4
REMARK VINA RESULT:    -7.087      1.898      3.263
REMARK INTER + INTRA:         -13.386
REMARK INTER:                 -11.954
REMARK INTRA:                  -1.432
REMARK UNBOUND:                -1.741
REMARK SMILES COc1ccc([C@H]2CC(=O)c3c(O)cc(O[C@H]4O[C@H](CO[C@@H]5O[C@@H](C)[C@H](O)[C@@H](O)[C@@H]5O)[C@H](O)[C@H](O)[C@H]4O)cc3O2)cc1O
REMARK SMILES IDX 19 1 32 2 34 3 36 4 17 5 18 6 20 7 21 8 22 9 25 10 24 11
REMARK SMILES IDX 26 12 23 13 28 14 30 15 27 16 29 18 31 20 33 22 35 24 16 26
REMARK SMILES IDX 15 27 14 28 38 29 12 30 39 31 11 32 40 33 9 34 7 35 10 36
REMARK SMILES IDX 8 37 13 38 6 40 41 41 5 42 42 43 4 44 3 45 43 46 2 48 1 49
REMARK SMILES IDX 37 50
REMARK H PARENT 27 17 29 19 31 21 33 23 35 25 13 39 43 47 37 51
REMARK Flexibility Score: inf
ROOT
ATOM      1  C   UNL     1       9.361  52.136  19.479  1.00  0.00     0.180 C 
ATOM      2  C   UNL     1      10.216  52.404  20.739  1.00  0.00     0.177 C 
ATOM      3  C   UNL     1      11.710  52.430  20.356  1.00  0.00     0.180 C 
ATOM      4  C   UNL     1      11.944  53.360  19.147  1.00  0.00     0.214 C 
ATOM      5  C   UNL     1      10.943  53.044  18.000  1.00  0.00     0.339 C 
ATOM      6  O   UNL     1       9.614  53.127  18.487  1.00  0.00    -0.332 OA
ENDROOT
BRANCH   1   7
ATOM      7  C   UNL     1       7.862  52.086  19.787  1.00  0.00     0.198 C 
BRANCH   7   8
ATOM      8  O   UNL     1       7.170  52.849  18.815  1.00  0.00    -0.347 OA
BRANCH   8   9
ATOM      9  C   UNL     1       5.859  52.380  18.530  1.00  0.00     0.281 C 
ATOM     10  C   UNL     1       4.909  50.898  15.263  1.00  0.00     0.041 C 
ATOM     11  C   UNL     1       5.159  52.069  16.212  1.00  0.00     0.150 C 
ATOM     12  C   UNL     1       3.847  52.816  16.522  1.00  0.00     0.174 C 
ATOM     13  O   UNL     1       5.804  51.544  17.371  1.00  0.00    -0.344 OA
ATOM     14  C   UNL     1       4.161  53.988  17.434  1.00  0.00     0.179 C 
ATOM     15  C   UNL     1       4.748  53.456  18.742  1.00  0.00     0.202 C 
BRANCH  12  16
ATOM     16  O   UNL     1       3.287  53.327  15.335  1.00  0.00    -0.388 OA
ATOM     17  H   UNL     1       2.346  53.581  15.542  1.00  0.00     0.211 HD
ENDBRANCH  12  16
BRANCH  14  18
ATOM     18  O   UNL     1       2.979  54.709  17.687  1.00  0.00    -0.387 OA
ATOM     19  H   UNL     1       3.250  55.627  17.947  1.00  0.00     0.211 HD
ENDBRANCH  14  18
BRANCH  15  20
ATOM     20  O   UNL     1       5.253  54.528  19.502  1.00  0.00    -0.385 OA
ATOM     21  H   UNL     1       4.476  54.996  19.908  1.00  0.00     0.211 HD
ENDBRANCH  15  20
ENDBRANCH   8   9
ENDBRANCH   7   8
ENDBRANCH   1   7
BRANCH   2  22
ATOM     22  O   UNL     1       9.840  53.588  21.400  1.00  0.00    -0.387 OA
ATOM     23  H   UNL     1       8.915  53.470  21.743  1.00  0.00     0.211 HD
ENDBRANCH   2  22
BRANCH   3  24
ATOM     24  O   UNL     1      12.493  52.863  21.439  1.00  0.00    -0.387 OA
ATOM     25  H   UNL     1      12.243  52.290  22.212  1.00  0.00     0.211 HD
ENDBRANCH   3  24
BRANCH   5  26
ATOM     26  O   UNL     1      11.155  51.757  17.404  1.00  0.00    -0.462 OA
BRANCH  26  27
ATOM     27  C   UNL     1      11.062  51.415  16.049  1.00  0.00     0.130 A 
ATOM     28  C   UNL     1      10.507  52.263  15.076  1.00  0.00     0.093 A 
ATOM     29  C   UNL     1      11.573  50.178  15.662  1.00  0.00     0.094 A 
ATOM     30  C   UNL     1      10.517  51.900  13.722  1.00  0.00     0.133 A 
ATOM     31  C   UNL     1      11.569  49.793  14.324  1.00  0.00     0.138 A 
ATOM     32  C   UNL     1      11.069  50.659  13.339  1.00  0.00     0.102 A 
ATOM     33  O   UNL     1      12.085  48.538  13.983  1.00  0.00    -0.484 OA
ATOM     34  C   UNL     1      11.197  50.239  11.924  1.00  0.00     0.174 C 
ATOM     35  C   UNL     1      12.041  47.989  12.660  1.00  0.00     0.211 C 
ATOM     36  O   UNL     1      10.629  50.875  10.996  1.00  0.00    -0.294 OA
ATOM     37  C   UNL     1      12.097  49.091  11.582  1.00  0.00     0.131 C 
BRANCH  30  38
ATOM     38  O   UNL     1      10.006  52.777  12.766  1.00  0.00    -0.507 OA
ATOM     39  H   UNL     1      10.309  52.746  11.800  1.00  0.00     0.293 HD
ENDBRANCH  30  38
BRANCH  35  40
ATOM     40  C   UNL     1      10.832  47.084  12.482  1.00  0.00    -0.003 A 
ATOM     41  C   UNL     1       9.915  47.342  11.449  1.00  0.00     0.057 A 
ATOM     42  C   UNL     1      10.568  46.022  13.365  1.00  0.00     0.011 A 
ATOM     43  C   UNL     1       8.755  46.577  11.309  1.00  0.00     0.158 A 
ATOM     44  C   UNL     1       9.409  45.250  13.224  1.00  0.00     0.051 A 
ATOM     45  C   UNL     1       8.490  45.523  12.195  1.00  0.00     0.160 A 
BRANCH  43  46
ATOM     46  O   UNL     1       7.847  46.867  10.290  1.00  0.00    -0.504 OA
ATOM     47  H   UNL     1       8.097  47.465   9.513  1.00  0.00     0.293 HD
ENDBRANCH  43  46
BRANCH  45  48
ATOM     48  O   UNL     1       7.314  44.778  12.019  1.00  0.00    -0.493 OA
ATOM     49  C   UNL     1       6.263  44.686  12.982  1.00  0.00     0.278 C 
ENDBRANCH  45  48
ENDBRANCH  35  40
ENDBRANCH  26  27
ENDBRANCH   5  26
BRANCH   4  50
ATOM     50  O   UNL     1      13.274  53.313  18.708  1.00  0.00    -0.384 OA
ATOM     51  H   UNL     1      13.286  53.479  17.727  1.00  0.00     0.211 HD
ENDBRANCH   4  50
TORSDOF 15
ENDMDL
MODEL 5
REMARK VINA RESULT:    -7.080      2.887      5.754
REMARK INTER + INTRA:         -13.375
REMARK INTER:                 -10.922
REMARK INTRA:                  -2.453
REMARK UNBOUND:                -1.741
REMARK SMILES COc1ccc([C@H]2CC(=O)c3c(O)cc(O[C@H]4O[C@H](CO[C@@H]5O[C@@H](C)[C@H](O)[C@@H](O)[C@@H]5O)[C@H](O)[C@H](O)[C@H]4O)cc3O2)cc1O
REMARK SMILES IDX 19 1 32 2 34 3 36 4 17 5 18 6 20 7 21 8 22 9 25 10 24 11
REMARK SMILES IDX 26 12 23 13 28 14 30 15 27 16 29 18 31 20 33 22 35 24 16 26
REMARK SMILES IDX 15 27 14 28 38 29 12 30 39 31 11 32 40 33 9 34 7 35 10 36
REMARK SMILES IDX 8 37 13 38 6 40 41 41 5 42 42 43 4 44 3 45 43 46 2 48 1 49
REMARK SMILES IDX 37 50
REMARK H PARENT 27 17 29 19 31 21 33 23 35 25 13 39 43 47 37 51
REMARK Flexibility Score: inf
ROOT
ATOM      1  C   UNL     1      14.170  52.500  23.009  1.00  0.00     0.180 C 
ATOM      2  C   UNL     1      13.397  52.198  24.313  1.00  0.00     0.177 C 
ATOM      3  C   UNL     1      11.968  51.726  23.972  1.00  0.00     0.180 C 
ATOM      4  C   UNL     1      12.006  50.606  22.911  1.00  0.00     0.214 C 
ATOM      5  C   UNL     1      12.905  51.008  21.708  1.00  0.00     0.339 C 
ATOM      6  O   UNL     1      14.202  51.347  22.172  1.00  0.00    -0.332 OA
ENDROOT
BRANCH   1   7
ATOM      7  C   UNL     1      15.598  52.985  23.272  1.00  0.00     0.198 C 
BRANCH   7   8
ATOM      8  O   UNL     1      16.472  52.357  22.352  1.00  0.00    -0.347 OA
BRANCH   8   9
ATOM      9  C   UNL     1      16.952  53.213  21.325  1.00  0.00     0.281 C 
ATOM     10  C   UNL     1      16.262  56.858  21.242  1.00  0.00     0.041 C 
ATOM     11  C   UNL     1      15.914  55.394  20.977  1.00  0.00     0.150 C 
ATOM     12  C   UNL     1      15.852  55.109  19.464  1.00  0.00     0.174 C 
ATOM     13  O   UNL     1      16.874  54.599  21.669  1.00  0.00    -0.344 OA
ATOM     14  C   UNL     1      15.465  53.656  19.260  1.00  0.00     0.179 C 
ATOM     15  C   UNL     1      16.537  52.764  19.888  1.00  0.00     0.202 C 
BRANCH  12  16
ATOM     16  O   UNL     1      14.866  55.911  18.858  1.00  0.00    -0.388 OA
ATOM     17  H   UNL     1      15.318  56.737  18.534  1.00  0.00     0.211 HD
ENDBRANCH  12  16
BRANCH  14  18
ATOM     18  O   UNL     1      15.358  53.392  17.882  1.00  0.00    -0.387 OA
ATOM     19  H   UNL     1      15.243  54.267  17.428  1.00  0.00     0.211 HD
ENDBRANCH  14  18
BRANCH  15  20
ATOM     20  O   UNL     1      16.086  51.430  19.911  1.00  0.00    -0.385 OA
ATOM     21  H   UNL     1      15.946  51.149  18.969  1.00  0.00     0.211 HD
ENDBRANCH  15  20
ENDBRANCH   8   9
ENDBRANCH   7   8
ENDBRANCH   1   7
BRANCH   2  22
ATOM     22  O   UNL     1      14.061  51.260  25.125  1.00  0.00    -0.387 OA
ATOM     23  H   UNL     1      13.819  51.444  26.071  1.00  0.00     0.211 HD
ENDBRANCH   2  22
BRANCH   3  24
ATOM     24  O   UNL     1      11.310  51.260  25.123  1.00  0.00    -0.387 OA
ATOM     25  H   UNL     1      11.698  50.366  25.323  1.00  0.00     0.211 HD
ENDBRANCH   3  24
BRANCH   5  26
ATOM     26  O   UNL     1      12.371  52.096  20.943  1.00  0.00    -0.462 OA
BRANCH  26  27
ATOM     27  C   UNL     1      11.865  52.059  19.637  1.00  0.00     0.130 A 
ATOM     28  C   UNL     1      10.627  52.616  19.274  1.00  0.00     0.093 A 
ATOM     29  C   UNL     1      12.654  51.458  18.659  1.00  0.00     0.094 A 
ATOM     30  C   UNL     1      10.212  52.622  17.935  1.00  0.00     0.133 A 
ATOM     31  C   UNL     1      12.244  51.434  17.329  1.00  0.00     0.138 A 
ATOM     32  C   UNL     1      11.036  52.040  16.949  1.00  0.00     0.102 A 
ATOM     33  O   UNL     1      13.065  50.812  16.382  1.00  0.00    -0.484 OA
ATOM     34  C   UNL     1      10.711  52.081  15.504  1.00  0.00     0.174 C 
ATOM     35  C   UNL     1      12.704  50.633  15.007  1.00  0.00     0.211 C 
ATOM     36  O   UNL     1       9.579  52.454  15.095  1.00  0.00    -0.294 OA
ATOM     37  C   UNL     1      11.783  51.764  14.505  1.00  0.00     0.131 C 
BRANCH  30  38
ATOM     38  O   UNL     1       9.003  53.224  17.587  1.00  0.00    -0.507 OA
ATOM     39  H   UNL     1       8.953  53.951  16.885  1.00  0.00     0.293 HD
ENDBRANCH  30  38
BRANCH  35  40
ATOM     40  C   UNL     1      12.093  49.260  14.775  1.00  0.00    -0.003 A 
ATOM     41  C   UNL     1      12.027  48.339  15.835  1.00  0.00     0.057 A 
ATOM     42  C   UNL     1      11.643  48.856  13.506  1.00  0.00     0.011 A 
ATOM     43  C   UNL     1      11.545  47.044  15.634  1.00  0.00     0.158 A 
ATOM     44  C   UNL     1      11.154  47.560  13.303  1.00  0.00     0.051 A 
ATOM     45  C   UNL     1      11.103  46.641  14.366  1.00  0.00     0.160 A 
BRANCH  43  46
ATOM     46  O   UNL     1      11.511  46.140  16.696  1.00  0.00    -0.504 OA
ATOM     47  H   UNL     1      11.467  46.454  17.657  1.00  0.00     0.293 HD
ENDBRANCH  43  46
BRANCH  45  48
ATOM     48  O   UNL     1      10.624  45.332  14.207  1.00  0.00    -0.493 OA
ATOM     49  C   UNL     1       9.434  44.988  13.494  1.00  0.00     0.278 C 
ENDBRANCH  45  48
ENDBRANCH  35  40
ENDBRANCH  26  27
ENDBRANCH   5  26
BRANCH   4  50
ATOM     50  O   UNL     1      10.717  50.239  22.500  1.00  0.00    -0.384 OA
ATOM     51  H   UNL     1      10.118  51.026  22.610  1.00  0.00     0.211 HD
ENDBRANCH   4  50
TORSDOF 15
ENDMDL
MODEL 6
REMARK VINA RESULT:    -7.010      4.041      5.881
REMARK INTER + INTRA:         -13.259
REMARK INTER:                 -11.476
REMARK INTRA:                  -1.782
REMARK UNBOUND:                -1.741
REMARK SMILES COc1ccc([C@H]2CC(=O)c3c(O)cc(O[C@H]4O[C@H](CO[C@@H]5O[C@@H](C)[C@H](O)[C@@H](O)[C@@H]5O)[C@H](O)[C@H](O)[C@H]4O)cc3O2)cc1O
REMARK SMILES IDX 19 1 32 2 34 3 36 4 17 5 18 6 20 7 21 8 22 9 25 10 24 11
REMARK SMILES IDX 26 12 23 13 28 14 30 15 27 16 29 18 31 20 33 22 35 24 16 26
REMARK SMILES IDX 15 27 14 28 38 29 12 30 39 31 11 32 40 33 9 34 7 35 10 36
REMARK SMILES IDX 8 37 13 38 6 40 41 41 5 42 42 43 4 44 3 45 43 46 2 48 1 49
REMARK SMILES IDX 37 50
REMARK H PARENT 27 17 29 19 31 21 33 23 35 25 13 39 43 47 37 51
REMARK Flexibility Score: inf
ROOT
ATOM      1  C   UNL     1       8.683  52.276  21.860  1.00  0.00     0.180 C 
ATOM      2  C   UNL     1       7.757  51.673  22.942  1.00  0.00     0.177 C 
ATOM      3  C   UNL     1       8.540  50.637  23.776  1.00  0.00     0.180 C 
ATOM      4  C   UNL     1       9.879  51.232  24.261  1.00  0.00     0.214 C 
ATOM      5  C   UNL     1      10.650  51.897  23.087  1.00  0.00     0.339 C 
ATOM      6  O   UNL     1       9.829  52.871  22.463  1.00  0.00    -0.332 OA
ENDROOT
BRANCH   1   7
ATOM      7  C   UNL     1       7.967  53.307  20.984  1.00  0.00     0.198 C 
BRANCH   7   8
ATOM      8  O   UNL     1       6.588  52.992  20.940  1.00  0.00    -0.347 OA
BRANCH   8   9
ATOM      9  C   UNL     1       6.176  52.333  19.751  1.00  0.00     0.281 C 
ATOM     10  C   UNL     1       7.646  53.064  16.423  1.00  0.00     0.041 C 
ATOM     11  C   UNL     1       6.681  53.324  17.578  1.00  0.00     0.150 C 
ATOM     12  C   UNL     1       5.224  53.076  17.142  1.00  0.00     0.174 C 
ATOM     13  O   UNL     1       7.096  52.505  18.669  1.00  0.00    -0.344 OA
ATOM     14  C   UNL     1       4.308  53.386  18.312  1.00  0.00     0.179 C 
ATOM     15  C   UNL     1       4.645  52.445  19.469  1.00  0.00     0.202 C 
BRANCH  12  16
ATOM     16  O   UNL     1       4.880  53.938  16.082  1.00  0.00    -0.388 OA
ATOM     17  H   UNL     1       5.499  53.735  15.328  1.00  0.00     0.211 HD
ENDBRANCH  12  16
BRANCH  14  18
ATOM     18  O   UNL     1       2.970  53.211  17.915  1.00  0.00    -0.387 OA
ATOM     19  H   UNL     1       2.706  52.293  18.181  1.00  0.00     0.211 HD
ENDBRANCH  14  18
BRANCH  15  20
ATOM     20  O   UNL     1       3.970  52.865  20.631  1.00  0.00    -0.385 OA
ATOM     21  H   UNL     1       3.408  53.645  20.381  1.00  0.00     0.211 HD
ENDBRANCH  15  20
ENDBRANCH   8   9
ENDBRANCH   7   8
ENDBRANCH   1   7
BRANCH   2  22
ATOM     22  O   UNL     1       7.181  52.658  23.765  1.00  0.00    -0.387 OA
ATOM     23  H   UNL     1       6.643  52.200  24.464  1.00  0.00     0.211 HD
ENDBRANCH   2  22
BRANCH   3  24
ATOM     24  O   UNL     1       7.784  50.219  24.884  1.00  0.00    -0.387 OA
ATOM     25  H   UNL     1       7.918  50.907  25.589  1.00  0.00     0.211 HD
ENDBRANCH   3  24
BRANCH   5  26
ATOM     26  O   UNL     1      11.104  50.955  22.105  1.00  0.00    -0.462 OA
BRANCH  26  27
ATOM     27  C   UNL     1      11.954  51.194  21.018  1.00  0.00     0.130 A 
ATOM     28  C   UNL     1      11.490  51.401  19.707  1.00  0.00     0.093 A 
ATOM     29  C   UNL     1      13.323  51.252  21.271  1.00  0.00     0.094 A 
ATOM     30  C   UNL     1      12.384  51.719  18.675  1.00  0.00     0.133 A 
ATOM     31  C   UNL     1      14.225  51.543  20.252  1.00  0.00     0.138 A 
ATOM     32  C   UNL     1      13.764  51.807  18.952  1.00  0.00     0.102 A 
ATOM     33  O   UNL     1      15.591  51.582  20.552  1.00  0.00    -0.484 OA
ATOM     34  C   UNL     1      14.762  52.222  17.939  1.00  0.00     0.174 C 
ATOM     35  C   UNL     1      16.619  51.767  19.570  1.00  0.00     0.211 C 
ATOM     36  O   UNL     1      14.460  52.316  16.719  1.00  0.00    -0.294 OA
ATOM     37  C   UNL     1      16.133  52.630  18.388  1.00  0.00     0.131 C 
BRANCH  30  38
ATOM     38  O   UNL     1      11.898  51.969  17.391  1.00  0.00    -0.507 OA
ATOM     39  H   UNL     1      12.229  51.449  16.587  1.00  0.00     0.293 HD
ENDBRANCH  30  38
BRANCH  35  40
ATOM     40  C   UNL     1      17.178  50.432  19.104  1.00  0.00    -0.003 A 
ATOM     41  C   UNL     1      17.074  49.304  19.937  1.00  0.00     0.057 A 
ATOM     42  C   UNL     1      17.857  50.301  17.880  1.00  0.00     0.011 A 
ATOM     43  C   UNL     1      17.647  48.084  19.571  1.00  0.00     0.158 A 
ATOM     44  C   UNL     1      18.427  49.078  17.508  1.00  0.00     0.051 A 
ATOM     45  C   UNL     1      18.330  47.959  18.354  1.00  0.00     0.160 A 
BRANCH  43  46
ATOM     46  O   UNL     1      17.552  46.985  20.426  1.00  0.00    -0.504 OA
ATOM     47  H   UNL     1      16.990  46.178  20.188  1.00  0.00     0.293 HD
ENDBRANCH  43  46
BRANCH  45  48
ATOM     48  O   UNL     1      18.889  46.715  18.023  1.00  0.00    -0.493 OA
ATOM     49  C   UNL     1      19.030  46.221  16.689  1.00  0.00     0.278 C 
ENDBRANCH  45  48
ENDBRANCH  35  40
ENDBRANCH  26  27
ENDBRANCH   5  26
BRANCH   4  50
ATOM     50  O   UNL     1      10.659  50.276  24.924  1.00  0.00    -0.384 OA
ATOM     51  H   UNL     1      11.432  50.740  25.347  1.00  0.00     0.211 HD
ENDBRANCH   4  50
TORSDOF 15
ENDMDL
MODEL 7
REMARK VINA RESULT:    -6.990      2.848      6.326
REMARK INTER + INTRA:         -13.226
REMARK INTER:                 -11.003
REMARK INTRA:                  -2.223
REMARK UNBOUND:                -1.741
REMARK SMILES COc1ccc([C@H]2CC(=O)c3c(O)cc(O[C@H]4O[C@H](CO[C@@H]5O[C@@H](C)[C@H](O)[C@@H](O)[C@@H]5O)[C@H](O)[C@H](O)[C@H]4O)cc3O2)cc1O
REMARK SMILES IDX 19 1 32 2 34 3 36 4 17 5 18 6 20 7 21 8 22 9 25 10 24 11
REMARK SMILES IDX 26 12 23 13 28 14 30 15 27 16 29 18 31 20 33 22 35 24 16 26
REMARK SMILES IDX 15 27 14 28 38 29 12 30 39 31 11 32 40 33 9 34 7 35 10 36
REMARK SMILES IDX 8 37 13 38 6 40 41 41 5 42 42 43 4 44 3 45 43 46 2 48 1 49
REMARK SMILES IDX 37 50
REMARK H PARENT 27 17 29 19 31 21 33 23 35 25 13 39 43 47 37 51
REMARK Flexibility Score: inf
ROOT
ATOM      1  C   UNL     1      14.116  52.609  22.593  1.00  0.00     0.180 C 
ATOM      2  C   UNL     1      13.546  52.325  24.002  1.00  0.00     0.177 C 
ATOM      3  C   UNL     1      12.109  51.777  23.879  1.00  0.00     0.180 C 
ATOM      4  C   UNL     1      12.056  50.618  22.860  1.00  0.00     0.214 C 
ATOM      5  C   UNL     1      12.760  51.012  21.532  1.00  0.00     0.339 C 
ATOM      6  O   UNL     1      14.090  51.427  21.798  1.00  0.00    -0.332 OA
ENDROOT
BRANCH   1   7
ATOM      7  C   UNL     1      15.541  53.168  22.638  1.00  0.00     0.198 C 
BRANCH   7   8
ATOM      8  O   UNL     1      16.418  52.148  23.079  1.00  0.00    -0.347 OA
BRANCH   8   9
ATOM      9  C   UNL     1      17.357  51.723  22.102  1.00  0.00     0.281 C 
ATOM     10  C   UNL     1      17.369  52.998  18.617  1.00  0.00     0.041 C 
ATOM     11  C   UNL     1      16.887  52.071  19.732  1.00  0.00     0.150 C 
ATOM     12  C   UNL     1      17.297  50.613  19.450  1.00  0.00     0.174 C 
ATOM     13  O   UNL     1      17.405  52.582  20.959  1.00  0.00    -0.344 OA
ATOM     14  C   UNL     1      16.761  49.734  20.565  1.00  0.00     0.179 C 
ATOM     15  C   UNL     1      17.386  50.176  21.889  1.00  0.00     0.202 C 
BRANCH  12  16
ATOM     16  O   UNL     1      16.727  50.174  18.239  1.00  0.00    -0.388 OA
ATOM     17  H   UNL     1      15.760  50.011  18.413  1.00  0.00     0.211 HD
ENDBRANCH  12  16
BRANCH  14  18
ATOM     18  O   UNL     1      17.086  48.392  20.297  1.00  0.00    -0.387 OA
ATOM     19  H   UNL     1      17.830  48.147  20.906  1.00  0.00     0.211 HD
ENDBRANCH  14  18
BRANCH  15  20
ATOM     20  O   UNL     1      16.734  49.530  22.957  1.00  0.00    -0.385 OA
ATOM     21  H   UNL     1      16.274  50.231  23.490  1.00  0.00     0.211 HD
ENDBRANCH  15  20
ENDBRANCH   8   9
ENDBRANCH   7   8
ENDBRANCH   1   7
BRANCH   2  22
ATOM     22  O   UNL     1      14.361  51.451  24.743  1.00  0.00    -0.387 OA
ATOM     23  H   UNL     1      14.837  50.856  24.105  1.00  0.00     0.211 HD
ENDBRANCH   2  22
BRANCH   3  24
ATOM     24  O   UNL     1      11.640  51.328  25.125  1.00  0.00    -0.387 OA
ATOM     25  H   UNL     1      12.226  51.746  25.811  1.00  0.00     0.211 HD
ENDBRANCH   3  24
BRANCH   5  26
ATOM     26  O   UNL     1      12.072  52.044  20.813  1.00  0.00    -0.462 OA
BRANCH  26  27
ATOM     27  C   UNL     1      11.626  52.013  19.485  1.00  0.00     0.130 A 
ATOM     28  C   UNL     1      10.417  52.593  19.065  1.00  0.00     0.093 A 
ATOM     29  C   UNL     1      12.447  51.394  18.546  1.00  0.00     0.094 A 
ATOM     30  C   UNL     1      10.064  52.603  17.708  1.00  0.00     0.133 A 
ATOM     31  C   UNL     1      12.098  51.374  17.198  1.00  0.00     0.138 A 
ATOM     32  C   UNL     1      10.920  52.002  16.762  1.00  0.00     0.102 A 
ATOM     33  O   UNL     1      12.949  50.734  16.291  1.00  0.00    -0.484 OA
ATOM     34  C   UNL     1      10.663  52.046  15.304  1.00  0.00     0.174 C 
ATOM     35  C   UNL     1      12.648  50.558  14.901  1.00  0.00     0.211 C 
ATOM     36  O   UNL     1       9.558  52.439  14.842  1.00  0.00    -0.294 OA
ATOM     37  C   UNL     1      11.773  51.705  14.356  1.00  0.00     0.131 C 
BRANCH  30  38
ATOM     38  O   UNL     1       8.883  53.226  17.304  1.00  0.00    -0.507 OA
ATOM     39  H   UNL     1       8.837  54.225  17.145  1.00  0.00     0.293 HD
ENDBRANCH  30  38
BRANCH  35  40
ATOM     40  C   UNL     1      12.022  49.197  14.644  1.00  0.00    -0.003 A 
ATOM     41  C   UNL     1      12.027  48.225  15.660  1.00  0.00     0.057 A 
ATOM     42  C   UNL     1      11.488  48.854  13.390  1.00  0.00     0.011 A 
ATOM     43  C   UNL     1      11.531  46.940  15.429  1.00  0.00     0.158 A 
ATOM     44  C   UNL     1      10.985  47.568  13.157  1.00  0.00     0.051 A 
ATOM     45  C   UNL     1      11.005  46.598  14.175  1.00  0.00     0.160 A 
BRANCH  43  46
ATOM     46  O   UNL     1      11.569  45.985  16.446  1.00  0.00    -0.504 OA
ATOM     47  H   UNL     1      12.150  46.107  17.264  1.00  0.00     0.293 HD
ENDBRANCH  43  46
BRANCH  45  48
ATOM     48  O   UNL     1      10.516  45.297  13.985  1.00  0.00    -0.493 OA
ATOM     49  C   UNL     1      10.667  44.545  12.779  1.00  0.00     0.278 C 
ENDBRANCH  45  48
ENDBRANCH  35  40
ENDBRANCH  26  27
ENDBRANCH   5  26
BRANCH   4  50
ATOM     50  O   UNL     1      10.743  50.178  22.646  1.00  0.00    -0.384 OA
ATOM     51  H   UNL     1      10.758  49.190  22.529  1.00  0.00     0.211 HD
ENDBRANCH   4  50
TORSDOF 15
ENDMDL
MODEL 8
REMARK VINA RESULT:    -6.949      2.632      4.561
REMARK INTER + INTRA:         -13.159
REMARK INTER:                 -11.525
REMARK INTRA:                  -1.634
REMARK UNBOUND:                -1.741
REMARK SMILES COc1ccc([C@H]2CC(=O)c3c(O)cc(O[C@H]4O[C@H](CO[C@@H]5O[C@@H](C)[C@H](O)[C@@H](O)[C@@H]5O)[C@H](O)[C@H](O)[C@H]4O)cc3O2)cc1O
REMARK SMILES IDX 19 1 32 2 34 3 36 4 17 5 18 6 20 7 21 8 22 9 25 10 24 11
REMARK SMILES IDX 26 12 23 13 28 14 30 15 27 16 29 18 31 20 33 22 35 24 16 26
REMARK SMILES IDX 15 27 14 28 38 29 12 30 39 31 11 32 40 33 9 34 7 35 10 36
REMARK SMILES IDX 8 37 13 38 6 40 41 41 5 42 42 43 4 44 3 45 43 46 2 48 1 49
REMARK SMILES IDX 37 50
REMARK H PARENT 27 17 29 19 31 21 33 23 35 25 13 39 43 47 37 51
REMARK Flexibility Score: inf
ROOT
ATOM      1  C   UNL     1      13.006  52.257  19.471  1.00  0.00     0.180 C 
ATOM      2  C   UNL     1      13.981  53.435  19.700  1.00  0.00     0.177 C 
ATOM      3  C   UNL     1      14.444  53.997  18.340  1.00  0.00     0.180 C 
ATOM      4  C   UNL     1      13.232  54.266  17.423  1.00  0.00     0.214 C 
ATOM      5  C   UNL     1      12.287  53.033  17.374  1.00  0.00     0.339 C 
ATOM      6  O   UNL     1      11.892  52.679  18.690  1.00  0.00    -0.332 OA
ENDROOT
BRANCH   1   7
ATOM      7  C   UNL     1      12.512  51.641  20.783  1.00  0.00     0.198 C 
BRANCH   7   8
ATOM      8  O   UNL     1      11.102  51.523  20.730  1.00  0.00    -0.347 OA
BRANCH   8   9
ATOM      9  C   UNL     1      10.410  52.378  21.629  1.00  0.00     0.281 C 
ATOM     10  C   UNL     1       9.614  51.417  25.124  1.00  0.00     0.041 C 
ATOM     11  C   UNL     1       9.350  51.444  23.619  1.00  0.00     0.150 C 
ATOM     12  C   UNL     1       8.073  52.246  23.300  1.00  0.00     0.174 C 
ATOM     13  O   UNL     1      10.522  51.963  22.994  1.00  0.00    -0.344 OA
ATOM     14  C   UNL     1       7.839  52.206  21.800  1.00  0.00     0.179 C 
ATOM     15  C   UNL     1       9.026  52.863  21.095  1.00  0.00     0.202 C 
BRANCH  12  16
ATOM     16  O   UNL     1       6.959  51.658  23.929  1.00  0.00    -0.388 OA
ATOM     17  H   UNL     1       6.146  52.015  23.478  1.00  0.00     0.211 HD
ENDBRANCH  12  16
BRANCH  14  18
ATOM     18  O   UNL     1       6.650  52.895  21.497  1.00  0.00    -0.387 OA
ATOM     19  H   UNL     1       6.501  53.551  22.226  1.00  0.00     0.211 HD
ENDBRANCH  14  18
BRANCH  15  20
ATOM     20  O   UNL     1       8.937  52.634  19.709  1.00  0.00    -0.385 OA
ATOM     21  H   UNL     1       8.444  53.400  19.313  1.00  0.00     0.211 HD
ENDBRANCH  15  20
ENDBRANCH   8   9
ENDBRANCH   7   8
ENDBRANCH   1   7
BRANCH   2  22
ATOM     22  O   UNL     1      13.420  54.446  20.503  1.00  0.00    -0.387 OA
ATOM     23  H   UNL     1      12.930  54.011  21.250  1.00  0.00     0.211 HD
ENDBRANCH   2  22
BRANCH   3  24
ATOM     24  O   UNL     1      15.172  55.187  18.516  1.00  0.00    -0.387 OA
ATOM     25  H   UNL     1      14.534  55.931  18.349  1.00  0.00     0.211 HD
ENDBRANCH   3  24
BRANCH   5  26
ATOM     26  O   UNL     1      12.876  51.896  16.729  1.00  0.00    -0.462 OA
BRANCH  26  27
ATOM     27  C   UNL     1      12.311  51.087  15.734  1.00  0.00     0.130 A 
ATOM     28  C   UNL     1      11.111  51.403  15.074  1.00  0.00     0.093 A 
ATOM     29  C   UNL     1      13.000  49.931  15.377  1.00  0.00     0.094 A 
ATOM     30  C   UNL     1      10.638  50.598  14.029  1.00  0.00     0.133 A 
ATOM     31  C   UNL     1      12.531  49.108  14.356  1.00  0.00     0.138 A 
ATOM     32  C   UNL     1      11.363  49.447  13.654  1.00  0.00     0.102 A 
ATOM     33  O   UNL     1      13.252  47.953  14.037  1.00  0.00    -0.484 OA
ATOM     34  C   UNL     1      10.979  48.594  12.505  1.00  0.00     0.174 C 
ATOM     35  C   UNL     1      12.816  46.978  13.082  1.00  0.00     0.211 C 
ATOM     36  O   UNL     1       9.866  48.729  11.930  1.00  0.00    -0.294 OA
ATOM     37  C   UNL     1      11.974  47.616  11.958  1.00  0.00     0.131 C 
BRANCH  30  38
ATOM     38  O   UNL     1       9.470  50.954  13.354  1.00  0.00    -0.507 OA
ATOM     39  H   UNL     1       9.138  51.910  13.334  1.00  0.00     0.293 HD
ENDBRANCH  30  38
BRANCH  35  40
ATOM     40  C   UNL     1      12.079  45.835  13.762  1.00  0.00    -0.003 A 
ATOM     41  C   UNL     1      11.711  45.951  15.114  1.00  0.00     0.057 A 
ATOM     42  C   UNL     1      11.804  44.630  13.093  1.00  0.00     0.011 A 
ATOM     43  C   UNL     1      11.104  44.888  15.788  1.00  0.00     0.158 A 
ATOM     44  C   UNL     1      11.191  43.565  13.764  1.00  0.00     0.051 A 
ATOM     45  C   UNL     1      10.839  43.685  15.120  1.00  0.00     0.160 A 
BRANCH  43  46
ATOM     46  O   UNL     1      10.770  45.019  17.137  1.00  0.00    -0.504 OA
ATOM     47  H   UNL     1      11.317  45.593  17.764  1.00  0.00     0.293 HD
ENDBRANCH  43  46
BRANCH  45  48
ATOM     48  O   UNL     1      10.226  42.643  15.833  1.00  0.00    -0.493 OA
ATOM     49  C   UNL     1      10.221  41.275  15.420  1.00  0.00     0.278 C 
ENDBRANCH  45  48
ENDBRANCH  35  40
ENDBRANCH  26  27
ENDBRANCH   5  26
BRANCH   4  50
ATOM     50  O   UNL     1      13.632  54.669  16.142  1.00  0.00    -0.384 OA
ATOM     51  H   UNL     1      14.595  54.443  16.029  1.00  0.00     0.211 HD
ENDBRANCH   4  50
TORSDOF 15
ENDMDL
MODEL 9
REMARK VINA RESULT:    -6.855      2.667      4.542
REMARK INTER + INTRA:         -13.005
REMARK INTER:                 -11.096
REMARK INTRA:                  -1.908
REMARK UNBOUND:                -1.741
REMARK SMILES COc1ccc([C@H]2CC(=O)c3c(O)cc(O[C@H]4O[C@H](CO[C@@H]5O[C@@H](C)[C@H](O)[C@@H](O)[C@@H]5O)[C@H](O)[C@H](O)[C@H]4O)cc3O2)cc1O
REMARK SMILES IDX 19 1 32 2 34 3 36 4 17 5 18 6 20 7 21 8 22 9 25 10 24 11
REMARK SMILES IDX 26 12 23 13 28 14 30 15 27 16 29 18 31 20 33 22 35 24 16 26
REMARK SMILES IDX 15 27 14 28 38 29 12 30 39 31 11 32 40 33 9 34 7 35 10 36
REMARK SMILES IDX 8 37 13 38 6 40 41 41 5 42 42 43 4 44 3 45 43 46 2 48 1 49
REMARK SMILES IDX 37 50
REMARK H PARENT 27 17 29 19 31 21 33 23 35 25 13 39 43 47 37 51
REMARK Flexibility Score: inf
ROOT
ATOM      1  C   UNL     1       9.720  52.203  19.079  1.00  0.00     0.180 C 
ATOM      2  C   UNL     1      10.500  53.150  20.019  1.00  0.00     0.177 C 
ATOM      3  C   UNL     1      11.934  53.344  19.487  1.00  0.00     0.180 C 
ATOM      4  C   UNL     1      11.911  53.717  17.989  1.00  0.00     0.214 C 
ATOM      5  C   UNL     1      11.004  52.742  17.187  1.00  0.00     0.339 C 
ATOM      6  O   UNL     1       9.703  52.723  17.752  1.00  0.00    -0.332 OA
ENDROOT
BRANCH   1   7
ATOM      7  C   UNL     1       8.286  51.955  19.553  1.00  0.00     0.198 C 
BRANCH   7   8
ATOM      8  O   UNL     1       7.436  52.923  18.966  1.00  0.00    -0.347 OA
BRANCH   8   9
ATOM      9  C   UNL     1       6.129  52.451  18.670  1.00  0.00     0.281 C 
ATOM     10  C   UNL     1       5.102  51.325  15.287  1.00  0.00     0.041 C 
ATOM     11  C   UNL     1       5.356  52.386  16.356  1.00  0.00     0.150 C 
ATOM     12  C   UNL     1       4.036  53.053  16.792  1.00  0.00     0.174 C 
ATOM     13  O   UNL     1       6.055  51.752  17.425  1.00  0.00    -0.344 OA
ATOM     14  C   UNL     1       4.351  54.122  17.823  1.00  0.00     0.179 C 
ATOM     15  C   UNL     1       4.998  53.461  19.041  1.00  0.00     0.202 C 
BRANCH  12  16
ATOM     16  O   UNL     1       3.421  53.679  15.691  1.00  0.00    -0.388 OA
ATOM     17  H   UNL     1       3.158  54.594  15.984  1.00  0.00     0.211 HD
ENDBRANCH  12  16
BRANCH  14  18
ATOM     18  O   UNL     1       3.161  54.772  18.196  1.00  0.00    -0.387 OA
ATOM     19  H   UNL     1       3.086  54.697  19.183  1.00  0.00     0.211 HD
ENDBRANCH  14  18
BRANCH  15  20
ATOM     20  O   UNL     1       5.501  54.454  19.904  1.00  0.00    -0.385 OA
ATOM     21  H   UNL     1       6.096  55.040  19.366  1.00  0.00     0.211 HD
ENDBRANCH  15  20
ENDBRANCH   8   9
ENDBRANCH   7   8
ENDBRANCH   1   7
BRANCH   2  22
ATOM     22  O   UNL     1       9.851  54.386  20.193  1.00  0.00    -0.387 OA
ATOM     23  H   UNL     1      10.308  54.874  20.928  1.00  0.00     0.211 HD
ENDBRANCH   2  22
BRANCH   3  24
ATOM     24  O   UNL     1      12.601  54.349  20.209  1.00  0.00    -0.387 OA
ATOM     25  H   UNL     1      12.328  54.238  21.158  1.00  0.00     0.211 HD
ENDBRANCH   3  24
BRANCH   5  26
ATOM     26  O   UNL     1      11.521  51.405  17.133  1.00  0.00    -0.462 OA
BRANCH  26  27
ATOM     27  C   UNL     1      11.462  50.507  16.060  1.00  0.00     0.130 A 
ATOM     28  C   UNL     1      11.830  49.155  16.166  1.00  0.00     0.093 A 
ATOM     29  C   UNL     1      10.989  50.989  14.842  1.00  0.00     0.094 A 
ATOM     30  C   UNL     1      11.670  48.284  15.079  1.00  0.00     0.133 A 
ATOM     31  C   UNL     1      10.847  50.142  13.746  1.00  0.00     0.138 A 
ATOM     32  C   UNL     1      11.157  48.778  13.861  1.00  0.00     0.102 A 
ATOM     33  O   UNL     1      10.375  50.673  12.541  1.00  0.00    -0.484 OA
ATOM     34  C   UNL     1      10.877  47.907  12.696  1.00  0.00     0.174 C 
ATOM     35  C   UNL     1      10.285  49.926  11.321  1.00  0.00     0.211 C 
ATOM     36  O   UNL     1      11.277  46.713  12.656  1.00  0.00    -0.294 OA
ATOM     37  C   UNL     1      10.019  48.430  11.584  1.00  0.00     0.131 C 
BRANCH  30  38
ATOM     38  O   UNL     1      11.995  46.934  15.219  1.00  0.00    -0.507 OA
ATOM     39  H   UNL     1      12.468  46.584  16.043  1.00  0.00     0.293 HD
ENDBRANCH  30  38
BRANCH  35  40
ATOM     40  C   UNL     1      11.518  50.139  10.457  1.00  0.00    -0.003 A 
ATOM     41  C   UNL     1      11.831  49.209   9.450  1.00  0.00     0.057 A 
ATOM     42  C   UNL     1      12.398  51.213  10.675  1.00  0.00     0.011 A 
ATOM     43  C   UNL     1      12.998  49.334   8.693  1.00  0.00     0.158 A 
ATOM     44  C   UNL     1      13.566  51.344   9.914  1.00  0.00     0.051 A 
ATOM     45  C   UNL     1      13.877  50.402   8.917  1.00  0.00     0.160 A 
BRANCH  43  46
ATOM     46  O   UNL     1      13.299  48.385   7.714  1.00  0.00    -0.504 OA
ATOM     47  H   UNL     1      13.001  48.503   6.755  1.00  0.00     0.293 HD
ENDBRANCH  43  46
BRANCH  45  48
ATOM     48  O   UNL     1      15.038  50.492   8.134  1.00  0.00    -0.493 OA
ATOM     49  C   UNL     1      15.179  51.340   6.993  1.00  0.00     0.278 C 
ENDBRANCH  45  48
ENDBRANCH  35  40
ENDBRANCH  26  27
ENDBRANCH   5  26
BRANCH   4  50
ATOM     50  O   UNL     1      13.204  53.787  17.454  1.00  0.00    -0.384 OA
ATOM     51  H   UNL     1      13.131  54.015  16.487  1.00  0.00     0.211 HD
ENDBRANCH   4  50
TORSDOF 15
ENDMDL
