MODEL 1
REMARK VINA RESULT:    -4.437      0.000      0.000
REMARK INTER + INTRA:         -15.749
REMARK INTER:                 -11.180
REMARK INTRA:                  -4.569
REMARK UNBOUND:                -4.569
REMARK SMILES CCCCCCCCCCCCCCCCCCCCCCCCCCCC(=O)[O-]
REMARK SMILES IDX 15 1 16 2 17 3 18 4 19 5 20 6 21 7 22 8 23 9 24 10 25 11
REMARK SMILES IDX 26 12 27 13 28 14 29 15 30 16 14 17 13 18 12 19 11 20 10 21
REMARK SMILES IDX 9 22 8 23 7 24 6 25 5 26 4 27 3 28 2 29 1 30
REMARK H PARENT
REMARK Flexibility Score: inf
ROOT
ATOM      1  C   UNL     1     -23.909  -1.251  30.747  1.00  0.00     0.000 C 
ENDROOT
BRANCH   1   2
ATOM      2  C   UNL     1     -23.795  -2.753  30.425  1.00  0.00     0.000 C 
BRANCH   2   3
ATOM      3  C   UNL     1     -22.368  -3.243  30.119  1.00  0.00     0.000 C 
BRANCH   3   4
ATOM      4  C   UNL     1     -21.736  -4.007  31.296  1.00  0.00     0.000 C 
BRANCH   4   5
ATOM      5  C   UNL     1     -20.412  -4.696  30.905  1.00  0.00     0.000 C 
BRANCH   5   6
ATOM      6  C   UNL     1     -20.362  -5.157  29.438  1.00  0.00     0.000 C 
BRANCH   6   7
ATOM      7  C   UNL     1     -20.020  -6.649  29.290  1.00  0.00     0.000 C 
BRANCH   7   8
ATOM      8  C   UNL     1     -21.073  -7.422  28.482  1.00  0.00     0.000 C 
BRANCH   8   9
ATOM      9  C   UNL     1     -22.480  -6.812  28.609  1.00  0.00     0.000 C 
BRANCH   9  10
ATOM     10  C   UNL     1     -23.389  -7.624  29.544  1.00  0.00     0.000 C 
BRANCH  10  11
ATOM     11  C   UNL     1     -23.361  -7.106  30.992  1.00  0.00     0.000 C 
BRANCH  11  12
ATOM     12  C   UNL     1     -22.758  -8.120  31.982  1.00  0.00     0.006 C 
BRANCH  12  13
ATOM     13  C   UNL     1     -21.400  -7.692  32.565  1.00  0.00     0.053 C 
BRANCH  13  14
ATOM     14  C   UNL     1     -21.521  -7.090  33.932  1.00  0.00     0.041 C 
ATOM     15  O   UNL     1     -22.625  -6.635  34.332  1.00  0.00    -0.550 OA
ATOM     16  O   UNL     1     -20.407  -7.012  34.758  1.00  0.00    -0.550 OA
ENDBRANCH  13  14
ENDBRANCH  12  13
ENDBRANCH  11  12
ENDBRANCH  10  11
ENDBRANCH   9  10
ENDBRANCH   8   9
ENDBRANCH   7   8
ENDBRANCH   6   7
ENDBRANCH   5   6
ENDBRANCH   4   5
ENDBRANCH   3   4
ENDBRANCH   2   3
ENDBRANCH   1   2
BRANCH   1  17
ATOM     17  C   UNL     1     -23.131  -0.313  29.803  1.00  0.00     0.000 C 
BRANCH  17  18
ATOM     18  C   UNL     1     -23.570  -0.398  28.325  1.00  0.00     0.000 C 
BRANCH  18  19
ATOM     19  C   UNL     1     -22.429  -0.839  27.391  1.00  0.00     0.000 C 
BRANCH  19  20
ATOM     20  C   UNL     1     -22.317   0.063  26.142  1.00  0.00     0.000 C 
BRANCH  20  21
ATOM     21  C   UNL     1     -21.028   0.902  26.110  1.00  0.00     0.000 C 
BRANCH  21  22
ATOM     22  C   UNL     1     -19.737   0.097  26.355  1.00  0.00    -0.000 C 
BRANCH  22  23
ATOM     23  C   UNL     1     -18.867   0.603  27.525  1.00  0.00    -0.000 C 
BRANCH  23  24
ATOM     24  C   UNL     1     -19.627   0.890  28.836  1.00  0.00    -0.000 C 
BRANCH  24  25
ATOM     25  C   UNL     1     -19.516  -0.212  29.907  1.00  0.00    -0.000 C 
BRANCH  25  26
ATOM     26  C   UNL     1     -19.011  -1.550  29.339  1.00  0.00    -0.000 C 
BRANCH  26  27
ATOM     27  C   UNL     1     -17.790  -2.085  30.118  1.00  0.00    -0.000 C 
BRANCH  27  28
ATOM     28  C   UNL     1     -18.017  -2.182  31.636  1.00  0.00    -0.000 C 
BRANCH  28  29
ATOM     29  C   UNL     1     -17.035  -1.322  32.441  1.00  0.00    -0.003 C 
ATOM     30  C   UNL     1     -15.830  -0.921  31.594  1.00  0.00     0.004 C 
ENDBRANCH  28  29
ENDBRANCH  27  28
ENDBRANCH  26  27
ENDBRANCH  25  26
ENDBRANCH  24  25
ENDBRANCH  23  24
ENDBRANCH  22  23
ENDBRANCH  21  22
ENDBRANCH  20  21
ENDBRANCH  19  20
ENDBRANCH  18  19
ENDBRANCH  17  18
ENDBRANCH   1  17
TORSDOF 26
ENDMDL
MODEL 2
REMARK VINA RESULT:    -4.335      2.007      6.507
REMARK INTER + INTRA:         -15.494
REMARK INTER:                 -11.128
REMARK INTRA:                  -4.366
REMARK UNBOUND:                -4.569
REMARK SMILES CCCCCCCCCCCCCCCCCCCCCCCCCCCC(=O)[O-]
REMARK SMILES IDX 15 1 16 2 17 3 18 4 19 5 20 6 21 7 22 8 23 9 24 10 25 11
REMARK SMILES IDX 26 12 27 13 28 14 29 15 30 16 14 17 13 18 12 19 11 20 10 21
REMARK SMILES IDX 9 22 8 23 7 24 6 25 5 26 4 27 3 28 2 29 1 30
REMARK H PARENT
REMARK Flexibility Score: inf
ROOT
ATOM      1  C   UNL     1     -22.865  -1.239  29.483  1.00  0.00     0.000 C 
ENDROOT
BRANCH   1   2
ATOM      2  C   UNL     1     -23.464   0.145  29.170  1.00  0.00     0.000 C 
BRANCH   2   3
ATOM      3  C   UNL     1     -23.482   0.521  27.677  1.00  0.00     0.000 C 
BRANCH   3   4
ATOM      4  C   UNL     1     -23.265  -0.693  26.755  1.00  0.00     0.000 C 
BRANCH   4   5
ATOM      5  C   UNL     1     -21.907  -0.638  26.023  1.00  0.00     0.000 C 
BRANCH   5   6
ATOM      6  C   UNL     1     -21.188   0.717  26.150  1.00  0.00     0.000 C 
BRANCH   6   7
ATOM      7  C   UNL     1     -19.706   0.574  26.530  1.00  0.00     0.000 C 
BRANCH   7   8
ATOM      8  C   UNL     1     -19.352   1.314  27.829  1.00  0.00     0.000 C 
BRANCH   8   9
ATOM      9  C   UNL     1     -19.585   0.453  29.082  1.00  0.00     0.000 C 
BRANCH   9  10
ATOM     10  C   UNL     1     -18.794  -0.863  29.045  1.00  0.00     0.000 C 
BRANCH  10  11
ATOM     11  C   UNL     1     -19.326  -1.901  30.048  1.00  0.00     0.000 C 
BRANCH  11  12
ATOM     12  C   UNL     1     -18.402  -3.124  30.196  1.00  0.00     0.006 C 
BRANCH  12  13
ATOM     13  C   UNL     1     -17.127  -2.847  31.013  1.00  0.00     0.053 C 
BRANCH  13  14
ATOM     14  C   UNL     1     -17.413  -2.186  32.326  1.00  0.00     0.041 C 
ATOM     15  O   UNL     1     -17.970  -2.828  33.255  1.00  0.00    -0.550 OA
ATOM     16  O   UNL     1     -17.083  -0.850  32.518  1.00  0.00    -0.550 OA
ENDBRANCH  13  14
ENDBRANCH  12  13
ENDBRANCH  11  12
ENDBRANCH  10  11
ENDBRANCH   9  10
ENDBRANCH   8   9
ENDBRANCH   7   8
ENDBRANCH   6   7
ENDBRANCH   5   6
ENDBRANCH   4   5
ENDBRANCH   3   4
ENDBRANCH   2   3
ENDBRANCH   1   2
BRANCH   1  17
ATOM     17  C   UNL     1     -23.645  -2.078  30.514  1.00  0.00     0.000 C 
BRANCH  17  18
ATOM     18  C   UNL     1     -23.943  -3.522  30.056  1.00  0.00     0.000 C 
BRANCH  18  19
ATOM     19  C   UNL     1     -23.411  -3.818  28.643  1.00  0.00     0.000 C 
BRANCH  19  20
ATOM     20  C   UNL     1     -23.865  -5.202  28.127  1.00  0.00     0.000 C 
BRANCH  20  21
ATOM     21  C   UNL     1     -23.061  -5.692  26.910  1.00  0.00     0.000 C 
BRANCH  21  22
ATOM     22  C   UNL     1     -22.292  -7.007  27.140  1.00  0.00    -0.000 C 
BRANCH  22  23
ATOM     23  C   UNL     1     -21.067  -6.890  28.072  1.00  0.00    -0.000 C 
BRANCH  23  24
ATOM     24  C   UNL     1     -21.140  -7.727  29.365  1.00  0.00    -0.000 C 
BRANCH  24  25
ATOM     25  C   UNL     1     -21.751  -7.000  30.577  1.00  0.00    -0.000 C 
BRANCH  25  26
ATOM     26  C   UNL     1     -21.018  -5.692  30.923  1.00  0.00    -0.000 C 
BRANCH  26  27
ATOM     27  C   UNL     1     -21.419  -5.153  32.313  1.00  0.00    -0.000 C 
BRANCH  27  28
ATOM     28  C   UNL     1     -22.639  -5.864  32.924  1.00  0.00    -0.000 C 
BRANCH  28  29
ATOM     29  C   UNL     1     -22.330  -6.522  34.274  1.00  0.00    -0.003 C 
ATOM     30  C   UNL     1     -20.911  -7.083  34.302  1.00  0.00     0.004 C 
ENDBRANCH  28  29
ENDBRANCH  27  28
ENDBRANCH  26  27
ENDBRANCH  25  26
ENDBRANCH  24  25
ENDBRANCH  23  24
ENDBRANCH  22  23
ENDBRANCH  21  22
ENDBRANCH  20  21
ENDBRANCH  19  20
ENDBRANCH  18  19
ENDBRANCH  17  18
ENDBRANCH   1  17
TORSDOF 26
ENDMDL
MODEL 3
REMARK VINA RESULT:    -4.244      3.341      7.167
REMARK INTER + INTRA:         -15.264
REMARK INTER:                 -11.631
REMARK INTRA:                  -3.634
REMARK UNBOUND:                -4.569
REMARK SMILES CCCCCCCCCCCCCCCCCCCCCCCCCCCC(=O)[O-]
REMARK SMILES IDX 15 1 16 2 17 3 18 4 19 5 20 6 21 7 22 8 23 9 24 10 25 11
REMARK SMILES IDX 26 12 27 13 28 14 29 15 30 16 14 17 13 18 12 19 11 20 10 21
REMARK SMILES IDX 9 22 8 23 7 24 6 25 5 26 4 27 3 28 2 29 1 30
REMARK H PARENT
REMARK Flexibility Score: inf
ROOT
ATOM      1  C   UNL     1     -21.942  -0.020  25.656  1.00  0.00     0.000 C 
ENDROOT
BRANCH   1   2
ATOM      2  C   UNL     1     -20.903   0.927  26.285  1.00  0.00     0.000 C 
BRANCH   2   3
ATOM      3  C   UNL     1     -19.479   0.351  26.388  1.00  0.00     0.000 C 
BRANCH   3   4
ATOM      4  C   UNL     1     -18.740   0.814  27.656  1.00  0.00     0.000 C 
BRANCH   4   5
ATOM      5  C   UNL     1     -18.472  -0.348  28.635  1.00  0.00     0.000 C 
BRANCH   5   6
ATOM      6  C   UNL     1     -19.605  -0.580  29.650  1.00  0.00     0.000 C 
BRANCH   6   7
ATOM      7  C   UNL     1     -20.011  -2.058  29.766  1.00  0.00     0.000 C 
BRANCH   7   8
ATOM      8  C   UNL     1     -18.857  -2.956  30.237  1.00  0.00     0.000 C 
BRANCH   8   9
ATOM      9  C   UNL     1     -18.741  -3.013  31.770  1.00  0.00     0.000 C 
BRANCH   9  10
ATOM     10  C   UNL     1     -17.440  -2.378  32.284  1.00  0.00     0.000 C 
BRANCH  10  11
ATOM     11  C   UNL     1     -16.465  -2.027  31.148  1.00  0.00     0.000 C 
BRANCH  11  12
ATOM     12  C   UNL     1     -15.903  -0.597  31.256  1.00  0.00     0.006 C 
BRANCH  12  13
ATOM     13  C   UNL     1     -14.399  -0.541  31.576  1.00  0.00     0.053 C 
BRANCH  13  14
ATOM     14  C   UNL     1     -13.627   0.277  30.587  1.00  0.00     0.041 C 
ATOM     15  O   UNL     1     -14.142   1.303  30.070  1.00  0.00    -0.550 OA
ATOM     16  O   UNL     1     -12.343  -0.104  30.220  1.00  0.00    -0.550 OA
ENDBRANCH  13  14
ENDBRANCH  12  13
ENDBRANCH  11  12
ENDBRANCH  10  11
ENDBRANCH   9  10
ENDBRANCH   8   9
ENDBRANCH   7   8
ENDBRANCH   6   7
ENDBRANCH   5   6
ENDBRANCH   4   5
ENDBRANCH   3   4
ENDBRANCH   2   3
ENDBRANCH   1   2
BRANCH   1  17
ATOM     17  C   UNL     1     -23.172  -0.327  26.533  1.00  0.00     0.000 C 
BRANCH  17  18
ATOM     18  C   UNL     1     -22.894  -0.276  28.051  1.00  0.00     0.000 C 
BRANCH  18  19
ATOM     19  C   UNL     1     -23.584  -1.415  28.820  1.00  0.00     0.000 C 
BRANCH  19  20
ATOM     20  C   UNL     1     -23.842  -2.650  27.928  1.00  0.00     0.000 C 
BRANCH  20  21
ATOM     21  C   UNL     1     -23.329  -3.963  28.543  1.00  0.00     0.000 C 
BRANCH  21  22
ATOM     22  C   UNL     1     -23.084  -5.092  27.524  1.00  0.00    -0.000 C 
BRANCH  22  23
ATOM     23  C   UNL     1     -22.140  -6.213  28.008  1.00  0.00    -0.000 C 
BRANCH  23  24
ATOM     24  C   UNL     1     -21.047  -5.771  29.003  1.00  0.00    -0.000 C 
BRANCH  24  25
ATOM     25  C   UNL     1     -20.770  -6.763  30.148  1.00  0.00    -0.000 C 
BRANCH  25  26
ATOM     26  C   UNL     1     -21.878  -6.768  31.216  1.00  0.00    -0.000 C 
BRANCH  26  27
ATOM     27  C   UNL     1     -21.899  -5.460  32.035  1.00  0.00    -0.000 C 
BRANCH  27  28
ATOM     28  C   UNL     1     -21.287  -5.598  33.439  1.00  0.00    -0.000 C 
BRANCH  28  29
ATOM     29  C   UNL     1     -20.935  -7.047  33.796  1.00  0.00    -0.003 C 
ATOM     30  C   UNL     1     -21.946  -7.634  34.777  1.00  0.00     0.004 C 
ENDBRANCH  28  29
ENDBRANCH  27  28
ENDBRANCH  26  27
ENDBRANCH  25  26
ENDBRANCH  24  25
ENDBRANCH  23  24
ENDBRANCH  22  23
ENDBRANCH  21  22
ENDBRANCH  20  21
ENDBRANCH  19  20
ENDBRANCH  18  19
ENDBRANCH  17  18
ENDBRANCH   1  17
TORSDOF 26
ENDMDL
MODEL 4
REMARK VINA RESULT:    -4.214      1.493      2.568
REMARK INTER + INTRA:         -15.188
REMARK INTER:                 -11.299
REMARK INTRA:                  -3.889
REMARK UNBOUND:                -4.569
REMARK SMILES CCCCCCCCCCCCCCCCCCCCCCCCCCCC(=O)[O-]
REMARK SMILES IDX 15 1 16 2 17 3 18 4 19 5 20 6 21 7 22 8 23 9 24 10 25 11
REMARK SMILES IDX 26 12 27 13 28 14 29 15 30 16 14 17 13 18 12 19 11 20 10 21
REMARK SMILES IDX 9 22 8 23 7 24 6 25 5 26 4 27 3 28 2 29 1 30
REMARK H PARENT
REMARK Flexibility Score: inf
ROOT
ATOM      1  C   UNL     1     -23.094  -1.261  27.484  1.00  0.00     0.000 C 
ENDROOT
BRANCH   1   2
ATOM      2  C   UNL     1     -23.722  -1.501  28.870  1.00  0.00     0.000 C 
BRANCH   2   3
ATOM      3  C   UNL     1     -23.938  -2.981  29.235  1.00  0.00     0.000 C 
BRANCH   3   4
ATOM      4  C   UNL     1     -23.946  -3.903  28.002  1.00  0.00     0.000 C 
BRANCH   4   5
ATOM      5  C   UNL     1     -23.657  -5.374  28.369  1.00  0.00     0.000 C 
BRANCH   5   6
ATOM      6  C   UNL     1     -22.873  -6.140  27.289  1.00  0.00     0.000 C 
BRANCH   6   7
ATOM      7  C   UNL     1     -21.578  -6.771  27.825  1.00  0.00     0.000 C 
BRANCH   7   8
ATOM      8  C   UNL     1     -20.996  -6.006  29.023  1.00  0.00     0.000 C 
BRANCH   8   9
ATOM      9  C   UNL     1     -19.972  -6.838  29.814  1.00  0.00     0.000 C 
BRANCH   9  10
ATOM     10  C   UNL     1     -20.615  -8.043  30.519  1.00  0.00     0.000 C 
BRANCH  10  11
ATOM     11  C   UNL     1     -21.824  -7.646  31.382  1.00  0.00     0.000 C 
BRANCH  11  12
ATOM     12  C   UNL     1     -21.446  -7.343  32.844  1.00  0.00     0.006 C 
BRANCH  12  13
ATOM     13  C   UNL     1     -22.327  -6.268  33.506  1.00  0.00     0.053 C 
BRANCH  13  14
ATOM     14  C   UNL     1     -21.939  -4.877  33.110  1.00  0.00     0.041 C 
ATOM     15  O   UNL     1     -22.789  -4.098  32.606  1.00  0.00    -0.550 OA
ATOM     16  O   UNL     1     -20.629  -4.445  33.279  1.00  0.00    -0.550 OA
ENDBRANCH  13  14
ENDBRANCH  12  13
ENDBRANCH  11  12
ENDBRANCH  10  11
ENDBRANCH   9  10
ENDBRANCH   8   9
ENDBRANCH   7   8
ENDBRANCH   6   7
ENDBRANCH   5   6
ENDBRANCH   4   5
ENDBRANCH   3   4
ENDBRANCH   2   3
ENDBRANCH   1   2
BRANCH   1  17
ATOM     17  C   UNL     1     -23.397   0.112  26.851  1.00  0.00     0.000 C 
BRANCH  17  18
ATOM     18  C   UNL     1     -22.526   0.446  25.621  1.00  0.00     0.000 C 
BRANCH  18  19
ATOM     19  C   UNL     1     -21.063  -0.000  25.790  1.00  0.00     0.000 C 
BRANCH  19  20
ATOM     20  C   UNL     1     -20.131   1.180  26.142  1.00  0.00     0.000 C 
BRANCH  20  21
ATOM     21  C   UNL     1     -19.404   1.002  27.486  1.00  0.00     0.000 C 
BRANCH  21  22
ATOM     22  C   UNL     1     -20.301   1.182  28.725  1.00  0.00    -0.000 C 
BRANCH  22  23
ATOM     23  C   UNL     1     -20.318  -0.017  29.697  1.00  0.00    -0.000 C 
BRANCH  23  24
ATOM     24  C   UNL     1     -19.653  -1.304  29.168  1.00  0.00    -0.000 C 
BRANCH  24  25
ATOM     25  C   UNL     1     -19.846  -2.548  30.055  1.00  0.00    -0.000 C 
BRANCH  25  26
ATOM     26  C   UNL     1     -18.520  -3.106  30.600  1.00  0.00    -0.000 C 
BRANCH  26  27
ATOM     27  C   UNL     1     -17.401  -2.043  30.597  1.00  0.00    -0.000 C 
BRANCH  27  28
ATOM     28  C   UNL     1     -17.101  -1.455  31.987  1.00  0.00    -0.000 C 
BRANCH  28  29
ATOM     29  C   UNL     1     -17.670  -2.305  33.129  1.00  0.00    -0.003 C 
ATOM     30  C   UNL     1     -16.605  -3.230  33.712  1.00  0.00     0.004 C 
ENDBRANCH  28  29
ENDBRANCH  27  28
ENDBRANCH  26  27
ENDBRANCH  25  26
ENDBRANCH  24  25
ENDBRANCH  23  24
ENDBRANCH  22  23
ENDBRANCH  21  22
ENDBRANCH  20  21
ENDBRANCH  19  20
ENDBRANCH  18  19
ENDBRANCH  17  18
ENDBRANCH   1  17
TORSDOF 26
ENDMDL
MODEL 5
REMARK VINA RESULT:    -4.174      1.976      7.017
REMARK INTER + INTRA:         -15.088
REMARK INTER:                 -11.083
REMARK INTRA:                  -4.005
REMARK UNBOUND:                -4.569
REMARK SMILES CCCCCCCCCCCCCCCCCCCCCCCCCCCC(=O)[O-]
REMARK SMILES IDX 15 1 16 2 17 3 18 4 19 5 20 6 21 7 22 8 23 9 24 10 25 11
REMARK SMILES IDX 26 12 27 13 28 14 29 15 30 16 14 17 13 18 12 19 11 20 10 21
REMARK SMILES IDX 9 22 8 23 7 24 6 25 5 26 4 27 3 28 2 29 1 30
REMARK H PARENT
REMARK Flexibility Score: inf
ROOT
ATOM      1  C   UNL     1     -23.415  -0.355  29.152  1.00  0.00     0.000 C 
ENDROOT
BRANCH   1   2
ATOM      2  C   UNL     1     -23.908   0.471  27.949  1.00  0.00     0.000 C 
BRANCH   2   3
ATOM      3  C   UNL     1     -23.822  -0.248  26.591  1.00  0.00     0.000 C 
BRANCH   3   4
ATOM      4  C   UNL     1     -22.706   0.311  25.691  1.00  0.00     0.000 C 
BRANCH   4   5
ATOM      5  C   UNL     1     -21.503  -0.651  25.583  1.00  0.00     0.000 C 
BRANCH   5   6
ATOM      6  C   UNL     1     -20.185  -0.059  26.113  1.00  0.00     0.000 C 
BRANCH   6   7
ATOM      7  C   UNL     1     -20.330   1.397  26.583  1.00  0.00     0.000 C 
BRANCH   7   8
ATOM      8  C   UNL     1     -19.755   1.628  27.989  1.00  0.00     0.000 C 
BRANCH   8   9
ATOM      9  C   UNL     1     -20.283   0.611  29.016  1.00  0.00     0.000 C 
BRANCH   9  10
ATOM     10  C   UNL     1     -19.151  -0.115  29.759  1.00  0.00     0.000 C 
BRANCH  10  11
ATOM     11  C   UNL     1     -19.010  -1.585  29.329  1.00  0.00     0.000 C 
BRANCH  11  12
ATOM     12  C   UNL     1     -19.305  -2.577  30.469  1.00  0.00     0.006 C 
BRANCH  12  13
ATOM     13  C   UNL     1     -18.045  -3.120  31.165  1.00  0.00     0.053 C 
BRANCH  13  14
ATOM     14  C   UNL     1     -17.686  -2.349  32.397  1.00  0.00     0.041 C 
ATOM     15  O   UNL     1     -17.823  -2.868  33.536  1.00  0.00    -0.550 OA
ATOM     16  O   UNL     1     -17.217  -1.045  32.291  1.00  0.00    -0.550 OA
ENDBRANCH  13  14
ENDBRANCH  12  13
ENDBRANCH  11  12
ENDBRANCH  10  11
ENDBRANCH   9  10
ENDBRANCH   8   9
ENDBRANCH   7   8
ENDBRANCH   6   7
ENDBRANCH   5   6
ENDBRANCH   4   5
ENDBRANCH   3   4
ENDBRANCH   2   3
ENDBRANCH   1   2
BRANCH   1  17
ATOM     17  C   UNL     1     -22.991  -1.802  28.831  1.00  0.00     0.000 C 
BRANCH  17  18
ATOM     18  C   UNL     1     -23.757  -2.876  29.632  1.00  0.00     0.000 C 
BRANCH  18  19
ATOM     19  C   UNL     1     -23.467  -2.810  31.142  1.00  0.00     0.000 C 
BRANCH  19  20
ATOM     20  C   UNL     1     -23.575  -4.195  31.818  1.00  0.00     0.000 C 
BRANCH  20  21
ATOM     21  C   UNL     1     -22.893  -4.255  33.196  1.00  0.00     0.000 C 
BRANCH  21  22
ATOM     22  C   UNL     1     -21.374  -4.507  33.145  1.00  0.00    -0.000 C 
BRANCH  22  23
ATOM     23  C   UNL     1     -20.890  -5.735  33.945  1.00  0.00    -0.000 C 
BRANCH  23  24
ATOM     24  C   UNL     1     -21.979  -6.776  34.277  1.00  0.00    -0.000 C 
BRANCH  24  25
ATOM     25  C   UNL     1     -21.833  -8.125  33.549  1.00  0.00    -0.000 C 
BRANCH  25  26
ATOM     26  C   UNL     1     -22.358  -8.085  32.103  1.00  0.00    -0.000 C 
BRANCH  26  27
ATOM     27  C   UNL     1     -21.265  -7.648  31.103  1.00  0.00    -0.000 C 
BRANCH  27  28
ATOM     28  C   UNL     1     -21.790  -6.765  29.958  1.00  0.00    -0.000 C 
BRANCH  28  29
ATOM     29  C   UNL     1     -20.666  -6.185  29.090  1.00  0.00    -0.003 C 
ATOM     30  C   UNL     1     -19.698  -7.276  28.641  1.00  0.00     0.004 C 
ENDBRANCH  28  29
ENDBRANCH  27  28
ENDBRANCH  26  27
ENDBRANCH  25  26
ENDBRANCH  24  25
ENDBRANCH  23  24
ENDBRANCH  22  23
ENDBRANCH  21  22
ENDBRANCH  20  21
ENDBRANCH  19  20
ENDBRANCH  18  19
ENDBRANCH  17  18
ENDBRANCH   1  17
TORSDOF 26
ENDMDL
MODEL 6
REMARK VINA RESULT:    -4.134      2.234      5.336
REMARK INTER + INTRA:         -14.987
REMARK INTER:                 -10.861
REMARK INTRA:                  -4.126
REMARK UNBOUND:                -4.569
REMARK SMILES CCCCCCCCCCCCCCCCCCCCCCCCCCCC(=O)[O-]
REMARK SMILES IDX 15 1 16 2 17 3 18 4 19 5 20 6 21 7 22 8 23 9 24 10 25 11
REMARK SMILES IDX 26 12 27 13 28 14 29 15 30 16 14 17 13 18 12 19 11 20 10 21
REMARK SMILES IDX 9 22 8 23 7 24 6 25 5 26 4 27 3 28 2 29 1 30
REMARK H PARENT
REMARK Flexibility Score: inf
ROOT
ATOM      1  C   UNL     1     -18.552  -1.083  30.506  1.00  0.00     0.000 C 
ENDROOT
BRANCH   1   2
ATOM      2  C   UNL     1     -17.112  -1.464  30.897  1.00  0.00     0.000 C 
BRANCH   2   3
ATOM      3  C   UNL     1     -16.815  -1.413  32.406  1.00  0.00     0.000 C 
BRANCH   3   4
ATOM      4  C   UNL     1     -17.000  -2.777  33.095  1.00  0.00     0.000 C 
BRANCH   4   5
ATOM      5  C   UNL     1     -18.406  -2.935  33.714  1.00  0.00     0.000 C 
BRANCH   5   6
ATOM      6  C   UNL     1     -18.549  -4.168  34.622  1.00  0.00     0.000 C 
BRANCH   6   7
ATOM      7  C   UNL     1     -19.902  -4.880  34.455  1.00  0.00     0.000 C 
BRANCH   7   8
ATOM      8  C   UNL     1     -19.944  -6.247  35.153  1.00  0.00     0.000 C 
BRANCH   8   9
ATOM      9  C   UNL     1     -20.895  -7.236  34.457  1.00  0.00     0.000 C 
BRANCH   9  10
ATOM     10  C   UNL     1     -21.524  -6.648  33.184  1.00  0.00     0.000 C 
BRANCH  10  11
ATOM     11  C   UNL     1     -22.183  -7.720  32.301  1.00  0.00     0.000 C 
BRANCH  11  12
ATOM     12  C   UNL     1     -21.952  -7.487  30.796  1.00  0.00     0.006 C 
BRANCH  12  13
ATOM     13  C   UNL     1     -20.493  -7.691  30.350  1.00  0.00     0.053 C 
BRANCH  13  14
ATOM     14  C   UNL     1     -20.294  -7.438  28.888  1.00  0.00     0.041 C 
ATOM     15  O   UNL     1     -21.197  -6.883  28.209  1.00  0.00    -0.550 OA
ATOM     16  O   UNL     1     -19.116  -7.835  28.267  1.00  0.00    -0.550 OA
ENDBRANCH  13  14
ENDBRANCH  12  13
ENDBRANCH  11  12
ENDBRANCH  10  11
ENDBRANCH   9  10
ENDBRANCH   8   9
ENDBRANCH   7   8
ENDBRANCH   6   7
ENDBRANCH   5   6
ENDBRANCH   4   5
ENDBRANCH   3   4
ENDBRANCH   2   3
ENDBRANCH   1   2
BRANCH   1  17
ATOM     17  C   UNL     1     -19.281  -2.097  29.602  1.00  0.00     0.000 C 
BRANCH  17  18
ATOM     18  C   UNL     1     -19.132  -3.566  30.055  1.00  0.00     0.000 C 
BRANCH  18  19
ATOM     19  C   UNL     1     -20.347  -4.067  30.855  1.00  0.00     0.000 C 
BRANCH  19  20
ATOM     20  C   UNL     1     -21.632  -3.276  30.522  1.00  0.00     0.000 C 
BRANCH  20  21
ATOM     21  C   UNL     1     -22.558  -4.007  29.534  1.00  0.00     0.000 C 
BRANCH  21  22
ATOM     22  C   UNL     1     -23.853  -3.246  29.192  1.00  0.00    -0.000 C 
BRANCH  22  23
ATOM     23  C   UNL     1     -24.030  -2.902  27.698  1.00  0.00    -0.000 C 
BRANCH  23  24
ATOM     24  C   UNL     1     -23.695  -1.446  27.313  1.00  0.00    -0.000 C 
BRANCH  24  25
ATOM     25  C   UNL     1     -23.229  -0.555  28.480  1.00  0.00    -0.000 C 
BRANCH  25  26
ATOM     26  C   UNL     1     -21.905   0.171  28.187  1.00  0.00    -0.000 C 
BRANCH  26  27
ATOM     27  C   UNL     1     -21.550   0.145  26.684  1.00  0.00    -0.000 C 
BRANCH  27  28
ATOM     28  C   UNL     1     -20.286   0.947  26.331  1.00  0.00    -0.000 C 
BRANCH  28  29
ATOM     29  C   UNL     1     -18.998   0.274  26.822  1.00  0.00    -0.003 C 
ATOM     30  C   UNL     1     -18.174   1.225  27.686  1.00  0.00     0.004 C 
ENDBRANCH  28  29
ENDBRANCH  27  28
ENDBRANCH  26  27
ENDBRANCH  25  26
ENDBRANCH  24  25
ENDBRANCH  23  24
ENDBRANCH  22  23
ENDBRANCH  21  22
ENDBRANCH  20  21
ENDBRANCH  19  20
ENDBRANCH  18  19
ENDBRANCH  17  18
ENDBRANCH   1  17
TORSDOF 26
ENDMDL
MODEL 7
REMARK VINA RESULT:    -4.024      3.158      8.185
REMARK INTER + INTRA:         -14.710
REMARK INTER:                 -11.322
REMARK INTRA:                  -3.388
REMARK UNBOUND:                -4.569
REMARK SMILES CCCCCCCCCCCCCCCCCCCCCCCCCCCC(=O)[O-]
REMARK SMILES IDX 15 1 16 2 17 3 18 4 19 5 20 6 21 7 22 8 23 9 24 10 25 11
REMARK SMILES IDX 26 12 27 13 28 14 29 15 30 16 14 17 13 18 12 19 11 20 10 21
REMARK SMILES IDX 9 22 8 23 7 24 6 25 5 26 4 27 3 28 2 29 1 30
REMARK H PARENT
REMARK Flexibility Score: inf
ROOT
ATOM      1  C   UNL     1     -16.545  -0.918  30.708  1.00  0.00     0.000 C 
ENDROOT
BRANCH   1   2
ATOM      2  C   UNL     1     -18.011  -1.067  30.260  1.00  0.00     0.000 C 
BRANCH   2   3
ATOM      3  C   UNL     1     -18.307  -2.320  29.417  1.00  0.00     0.000 C 
BRANCH   3   4
ATOM      4  C   UNL     1     -19.125  -3.374  30.185  1.00  0.00     0.000 C 
BRANCH   4   5
ATOM      5  C   UNL     1     -20.641  -3.085  30.139  1.00  0.00     0.000 C 
BRANCH   5   6
ATOM      6  C   UNL     1     -20.992  -1.692  29.589  1.00  0.00     0.000 C 
BRANCH   6   7
ATOM      7  C   UNL     1     -22.501  -1.497  29.371  1.00  0.00     0.000 C 
BRANCH   7   8
ATOM      8  C   UNL     1     -22.902  -0.017  29.279  1.00  0.00     0.000 C 
BRANCH   8   9
ATOM      9  C   UNL     1     -23.317   0.395  27.856  1.00  0.00     0.000 C 
BRANCH   9  10
ATOM     10  C   UNL     1     -23.071  -0.720  26.828  1.00  0.00     0.000 C 
BRANCH  10  11
ATOM     11  C   UNL     1     -22.202  -0.254  25.648  1.00  0.00     0.000 C 
BRANCH  11  12
ATOM     12  C   UNL     1     -21.138   0.782  26.055  1.00  0.00     0.006 C 
BRANCH  12  13
ATOM     13  C   UNL     1     -19.853   0.163  26.632  1.00  0.00     0.053 C 
BRANCH  13  14
ATOM     14  C   UNL     1     -19.179   1.054  27.629  1.00  0.00     0.041 C 
ATOM     15  O   UNL     1     -17.953   1.320  27.519  1.00  0.00    -0.550 OA
ATOM     16  O   UNL     1     -19.900   1.577  28.696  1.00  0.00    -0.550 OA
ENDBRANCH  13  14
ENDBRANCH  12  13
ENDBRANCH  11  12
ENDBRANCH  10  11
ENDBRANCH   9  10
ENDBRANCH   8   9
ENDBRANCH   7   8
ENDBRANCH   6   7
ENDBRANCH   5   6
ENDBRANCH   4   5
ENDBRANCH   3   4
ENDBRANCH   2   3
ENDBRANCH   1   2
BRANCH   1  17
ATOM     17  C   UNL     1     -16.192  -1.594  32.048  1.00  0.00     0.000 C 
BRANCH  17  18
ATOM     18  C   UNL     1     -17.378  -1.706  33.029  1.00  0.00     0.000 C 
BRANCH  18  19
ATOM     19  C   UNL     1     -17.534  -3.122  33.613  1.00  0.00     0.000 C 
BRANCH  19  20
ATOM     20  C   UNL     1     -19.014  -3.494  33.853  1.00  0.00     0.000 C 
BRANCH  20  21
ATOM     21  C   UNL     1     -19.193  -4.758  34.711  1.00  0.00     0.000 C 
BRANCH  21  22
ATOM     22  C   UNL     1     -20.531  -5.490  34.498  1.00  0.00    -0.000 C 
BRANCH  22  23
ATOM     23  C   UNL     1     -20.483  -7.016  34.727  1.00  0.00    -0.000 C 
BRANCH  23  24
ATOM     24  C   UNL     1     -21.835  -7.746  34.593  1.00  0.00    -0.000 C 
BRANCH  24  25
ATOM     25  C   UNL     1     -22.269  -8.053  33.148  1.00  0.00    -0.000 C 
BRANCH  25  26
ATOM     26  C   UNL     1     -21.253  -7.564  32.101  1.00  0.00    -0.000 C 
BRANCH  26  27
ATOM     27  C   UNL     1     -21.776  -6.343  31.314  1.00  0.00    -0.000 C 
BRANCH  27  28
ATOM     28  C   UNL     1     -23.298  -6.146  31.414  1.00  0.00    -0.000 C 
BRANCH  28  29
ATOM     29  C   UNL     1     -23.709  -4.668  31.425  1.00  0.00    -0.003 C 
ATOM     30  C   UNL     1     -23.239  -3.975  32.701  1.00  0.00     0.004 C 
ENDBRANCH  28  29
ENDBRANCH  27  28
ENDBRANCH  26  27
ENDBRANCH  25  26
ENDBRANCH  24  25
ENDBRANCH  23  24
ENDBRANCH  22  23
ENDBRANCH  21  22
ENDBRANCH  20  21
ENDBRANCH  19  20
ENDBRANCH  18  19
ENDBRANCH  17  18
ENDBRANCH   1  17
TORSDOF 26
ENDMDL
MODEL 8
REMARK VINA RESULT:    -3.990      1.185      5.113
REMARK INTER + INTRA:         -14.625
REMARK INTER:                 -10.461
REMARK INTRA:                  -4.164
REMARK UNBOUND:                -4.569
REMARK SMILES CCCCCCCCCCCCCCCCCCCCCCCCCCCC(=O)[O-]
REMARK SMILES IDX 15 1 16 2 17 3 18 4 19 5 20 6 21 7 22 8 23 9 24 10 25 11
REMARK SMILES IDX 26 12 27 13 28 14 29 15 30 16 14 17 13 18 12 19 11 20 10 21
REMARK SMILES IDX 9 22 8 23 7 24 6 25 5 26 4 27 3 28 2 29 1 30
REMARK H PARENT
REMARK Flexibility Score: inf
ROOT
ATOM      1  C   UNL     1     -19.580   0.901  27.197  1.00  0.00     0.000 C 
ENDROOT
BRANCH   1   2
ATOM      2  C   UNL     1     -20.255   1.246  28.537  1.00  0.00     0.000 C 
BRANCH   2   3
ATOM      3  C   UNL     1     -19.844   0.350  29.719  1.00  0.00     0.000 C 
BRANCH   3   4
ATOM      4  C   UNL     1     -19.780  -1.141  29.342  1.00  0.00     0.000 C 
BRANCH   4   5
ATOM      5  C   UNL     1     -18.331  -1.670  29.288  1.00  0.00     0.000 C 
BRANCH   5   6
ATOM      6  C   UNL     1     -17.352  -0.891  30.185  1.00  0.00     0.000 C 
BRANCH   6   7
ATOM      7  C   UNL     1     -16.712  -1.768  31.274  1.00  0.00     0.000 C 
BRANCH   7   8
ATOM      8  C   UNL     1     -17.317  -1.524  32.664  1.00  0.00     0.000 C 
BRANCH   8   9
ATOM      9  C   UNL     1     -18.193  -2.696  33.140  1.00  0.00     0.000 C 
BRANCH   9  10
ATOM     10  C   UNL     1     -18.728  -3.541  31.973  1.00  0.00     0.000 C 
BRANCH  10  11
ATOM     11  C   UNL     1     -20.197  -3.953  32.167  1.00  0.00     0.000 C 
BRANCH  11  12
ATOM     12  C   UNL     1     -20.446  -4.689  33.497  1.00  0.00     0.006 C 
BRANCH  12  13
ATOM     13  C   UNL     1     -21.575  -5.732  33.430  1.00  0.00     0.053 C 
BRANCH  13  14
ATOM     14  C   UNL     1     -21.268  -6.968  34.218  1.00  0.00     0.041 C 
ATOM     15  O   UNL     1     -21.956  -8.011  34.059  1.00  0.00    -0.550 OA
ATOM     16  O   UNL     1     -20.234  -6.964  35.145  1.00  0.00    -0.550 OA
ENDBRANCH  13  14
ENDBRANCH  12  13
ENDBRANCH  11  12
ENDBRANCH  10  11
ENDBRANCH   9  10
ENDBRANCH   8   9
ENDBRANCH   7   8
ENDBRANCH   6   7
ENDBRANCH   5   6
ENDBRANCH   4   5
ENDBRANCH   3   4
ENDBRANCH   2   3
ENDBRANCH   1   2
BRANCH   1  17
ATOM     17  C   UNL     1     -20.427   0.048  26.231  1.00  0.00     0.000 C 
BRANCH  17  18
ATOM     18  C   UNL     1     -21.560   0.828  25.529  1.00  0.00     0.000 C 
BRANCH  18  19
ATOM     19  C   UNL     1     -22.939   0.175  25.725  1.00  0.00     0.000 C 
BRANCH  19  20
ATOM     20  C   UNL     1     -22.903  -0.966  26.765  1.00  0.00     0.000 C 
BRANCH  20  21
ATOM     21  C   UNL     1     -23.981  -0.831  27.855  1.00  0.00     0.000 C 
BRANCH  21  22
ATOM     22  C   UNL     1     -23.501  -0.139  29.145  1.00  0.00    -0.000 C 
BRANCH  22  23
ATOM     23  C   UNL     1     -23.342  -1.072  30.364  1.00  0.00    -0.000 C 
BRANCH  23  24
ATOM     24  C   UNL     1     -24.003  -2.458  30.224  1.00  0.00    -0.000 C 
BRANCH  24  25
ATOM     25  C   UNL     1     -23.023  -3.646  30.193  1.00  0.00    -0.000 C 
BRANCH  25  26
ATOM     26  C   UNL     1     -23.726  -4.995  29.962  1.00  0.00    -0.000 C 
BRANCH  26  27
ATOM     27  C   UNL     1     -22.717  -6.151  29.788  1.00  0.00    -0.000 C 
BRANCH  27  28
ATOM     28  C   UNL     1     -21.421  -5.738  29.069  1.00  0.00    -0.000 C 
BRANCH  28  29
ATOM     29  C   UNL     1     -20.191  -6.505  29.573  1.00  0.00    -0.003 C 
ATOM     30  C   UNL     1     -20.594  -7.634  30.516  1.00  0.00     0.004 C 
ENDBRANCH  28  29
ENDBRANCH  27  28
ENDBRANCH  26  27
ENDBRANCH  25  26
ENDBRANCH  24  25
ENDBRANCH  23  24
ENDBRANCH  22  23
ENDBRANCH  21  22
ENDBRANCH  20  21
ENDBRANCH  19  20
ENDBRANCH  18  19
ENDBRANCH  17  18
ENDBRANCH   1  17
TORSDOF 26
ENDMDL
MODEL 9
REMARK VINA RESULT:    -3.962      2.431      5.491
REMARK INTER + INTRA:         -14.554
REMARK INTER:                 -10.262
REMARK INTRA:                  -4.292
REMARK UNBOUND:                -4.569
REMARK SMILES CCCCCCCCCCCCCCCCCCCCCCCCCCCC(=O)[O-]
REMARK SMILES IDX 15 1 16 2 17 3 18 4 19 5 20 6 21 7 22 8 23 9 24 10 25 11
REMARK SMILES IDX 26 12 27 13 28 14 29 15 30 16 14 17 13 18 12 19 11 20 10 21
REMARK SMILES IDX 9 22 8 23 7 24 6 25 5 26 4 27 3 28 2 29 1 30
REMARK H PARENT
REMARK Flexibility Score: inf
ROOT
ATOM      1  C   UNL     1     -17.488  -3.258  33.820  1.00  0.00     0.000 C 
ENDROOT
BRANCH   1   2
ATOM      2  C   UNL     1     -18.930  -3.626  33.422  1.00  0.00     0.000 C 
BRANCH   2   3
ATOM      3  C   UNL     1     -19.734  -4.360  34.510  1.00  0.00     0.000 C 
BRANCH   3   4
ATOM      4  C   UNL     1     -18.881  -5.363  35.307  1.00  0.00     0.000 C 
BRANCH   4   5
ATOM      5  C   UNL     1     -19.657  -6.653  35.647  1.00  0.00     0.000 C 
BRANCH   5   6
ATOM      6  C   UNL     1     -21.058  -6.721  35.013  1.00  0.00     0.000 C 
BRANCH   6   7
ATOM      7  C   UNL     1     -21.151  -7.752  33.877  1.00  0.00     0.000 C 
BRANCH   7   8
ATOM      8  C   UNL     1     -22.207  -7.383  32.825  1.00  0.00     0.000 C 
BRANCH   8   9
ATOM      9  C   UNL     1     -22.583  -5.891  32.864  1.00  0.00     0.000 C 
BRANCH   9  10
ATOM     10  C   UNL     1     -22.190  -5.154  31.574  1.00  0.00     0.000 C 
BRANCH  10  11
ATOM     11  C   UNL     1     -21.078  -5.876  30.796  1.00  0.00     0.000 C 
BRANCH  11  12
ATOM     12  C   UNL     1     -21.297  -5.853  29.272  1.00  0.00     0.006 C 
BRANCH  12  13
ATOM     13  C   UNL     1     -22.759  -6.076  28.848  1.00  0.00     0.053 C 
BRANCH  13  14
ATOM     14  C   UNL     1     -23.289  -4.968  27.991  1.00  0.00     0.041 C 
ATOM     15  O   UNL     1     -23.377  -5.113  26.744  1.00  0.00    -0.550 OA
ATOM     16  O   UNL     1     -23.669  -3.763  28.569  1.00  0.00    -0.550 OA
ENDBRANCH  13  14
ENDBRANCH  12  13
ENDBRANCH  11  12
ENDBRANCH  10  11
ENDBRANCH   9  10
ENDBRANCH   8   9
ENDBRANCH   7   8
ENDBRANCH   6   7
ENDBRANCH   5   6
ENDBRANCH   4   5
ENDBRANCH   3   4
ENDBRANCH   2   3
ENDBRANCH   1   2
BRANCH   1  17
ATOM     17  C   UNL     1     -16.810  -2.194  32.933  1.00  0.00     0.000 C 
BRANCH  17  18
ATOM     18  C   UNL     1     -17.769  -1.487  31.952  1.00  0.00     0.000 C 
BRANCH  18  19
ATOM     19  C   UNL     1     -17.177  -1.348  30.538  1.00  0.00     0.000 C 
BRANCH  19  20
ATOM     20  C   UNL     1     -18.074  -1.997  29.462  1.00  0.00     0.000 C 
BRANCH  20  21
ATOM     21  C   UNL     1     -19.284  -2.746  30.049  1.00  0.00     0.000 C 
BRANCH  21  22
ATOM     22  C   UNL     1     -20.651  -2.230  29.562  1.00  0.00    -0.000 C 
BRANCH  22  23
ATOM     23  C   UNL     1     -20.940  -0.749  29.884  1.00  0.00    -0.000 C 
BRANCH  23  24
ATOM     24  C   UNL     1     -22.429  -0.348  29.865  1.00  0.00    -0.000 C 
BRANCH  24  25
ATOM     25  C   UNL     1     -23.038  -0.169  28.462  1.00  0.00    -0.000 C 
BRANCH  25  26
ATOM     26  C   UNL     1     -22.254   0.829  27.592  1.00  0.00    -0.000 C 
BRANCH  26  27
ATOM     27  C   UNL     1     -21.707   0.171  26.307  1.00  0.00    -0.000 C 
BRANCH  27  28
ATOM     28  C   UNL     1     -20.321   0.689  25.887  1.00  0.00    -0.000 C 
BRANCH  28  29
ATOM     29  C   UNL     1     -19.191   0.156  26.777  1.00  0.00    -0.003 C 
ATOM     30  C   UNL     1     -18.630   1.256  27.673  1.00  0.00     0.004 C 
ENDBRANCH  28  29
ENDBRANCH  27  28
ENDBRANCH  26  27
ENDBRANCH  25  26
ENDBRANCH  24  25
ENDBRANCH  23  24
ENDBRANCH  22  23
ENDBRANCH  21  22
ENDBRANCH  20  21
ENDBRANCH  19  20
ENDBRANCH  18  19
ENDBRANCH  17  18
ENDBRANCH   1  17
TORSDOF 26
ENDMDL
