MODEL 1
REMARK VINA RESULT:    -3.939      0.000      0.000
REMARK INTER + INTRA:          -6.119
REMARK INTER:                  -5.781
REMARK INTRA:                  -0.338
REMARK UNBOUND:                -0.338
REMARK SMILES O=C([O-])CCCCCCCC(=O)[O-]
REMARK SMILES IDX 7 1 6 2 5 3 4 4 2 5 1 6 3 7 8 8 9 9 10 10 11 11 12 12 13 13
REMARK H PARENT
REMARK Flexibility Score: inf
ROOT
ATOM      1  C   UNL     1      46.355  27.824   5.670  1.00  0.00     0.000 C 
ENDROOT
BRANCH   1   2
ATOM      2  C   UNL     1      46.235  26.372   5.173  1.00  0.00     0.000 C 
BRANCH   2   3
ATOM      3  C   UNL     1      45.503  26.274   3.818  1.00  0.00     0.006 C 
BRANCH   3   4
ATOM      4  C   UNL     1      44.956  27.619   3.317  1.00  0.00     0.053 C 
BRANCH   4   5
ATOM      5  C   UNL     1      44.144  27.474   2.068  1.00  0.00     0.041 C 
ATOM      6  O   UNL     1      42.897  27.642   2.099  1.00  0.00    -0.550 OA
ATOM      7  O   UNL     1      44.761  27.125   0.873  1.00  0.00    -0.550 OA
ENDBRANCH   4   5
ENDBRANCH   3   4
ENDBRANCH   2   3
ENDBRANCH   1   2
BRANCH   1   8
ATOM      8  C   UNL     1      46.270  27.934   7.201  1.00  0.00     0.000 C 
BRANCH   8   9
ATOM      9  C   UNL     1      46.006  26.582   7.880  1.00  0.00     0.006 C 
BRANCH   9  10
ATOM     10  C   UNL     1      45.341  26.776   9.246  1.00  0.00     0.053 C 
BRANCH  10  11
ATOM     11  C   UNL     1      46.283  26.402  10.345  1.00  0.00     0.041 C 
ATOM     12  O   UNL     1      46.494  25.190  10.615  1.00  0.00    -0.550 OA
ATOM     13  O   UNL     1      46.893  27.392  11.106  1.00  0.00    -0.550 OA
ENDBRANCH  10  11
ENDBRANCH   9  10
ENDBRANCH   8   9
ENDBRANCH   1   8
TORSDOF 8
ENDMDL
MODEL 2
REMARK VINA RESULT:    -3.898      1.457      6.808
REMARK INTER + INTRA:          -6.059
REMARK INTER:                  -5.683
REMARK INTRA:                  -0.376
REMARK UNBOUND:                -0.338
REMARK SMILES O=C([O-])CCCCCCCC(=O)[O-]
REMARK SMILES IDX 7 1 6 2 5 3 4 4 2 5 1 6 3 7 8 8 9 9 10 10 11 11 12 12 13 13
REMARK H PARENT
REMARK Flexibility Score: inf
ROOT
ATOM      1  C   UNL     1      46.122  26.030   4.636  1.00  0.00     0.000 C 
ENDROOT
BRANCH   1   2
ATOM      2  C   UNL     1      46.680  27.400   5.058  1.00  0.00     0.000 C 
BRANCH   2   3
ATOM      3  C   UNL     1      46.339  27.748   6.522  1.00  0.00     0.006 C 
BRANCH   3   4
ATOM      4  C   UNL     1      46.145  26.515   7.417  1.00  0.00     0.053 C 
BRANCH   4   5
ATOM      5  C   UNL     1      45.656  26.875   8.785  1.00  0.00     0.041 C 
ATOM      6  O   UNL     1      45.680  26.022   9.712  1.00  0.00    -0.550 OA
ATOM      7  O   UNL     1      45.146  28.143   9.031  1.00  0.00    -0.550 OA
ENDBRANCH   4   5
ENDBRANCH   3   4
ENDBRANCH   2   3
ENDBRANCH   1   2
BRANCH   1   8
ATOM      8  C   UNL     1      44.870  26.148   3.751  1.00  0.00     0.000 C 
BRANCH   8   9
ATOM      9  C   UNL     1      44.936  27.343   2.788  1.00  0.00     0.006 C 
BRANCH   9  10
ATOM     10  C   UNL     1      43.726  27.355   1.848  1.00  0.00     0.053 C 
BRANCH  10  11
ATOM     11  C   UNL     1      42.716  28.358   2.307  1.00  0.00     0.041 C 
ATOM     12  O   UNL     1      43.045  29.564   2.461  1.00  0.00    -0.550 OA
ATOM     13  O   UNL     1      41.422  27.954   2.610  1.00  0.00    -0.550 OA
ENDBRANCH  10  11
ENDBRANCH   9  10
ENDBRANCH   8   9
ENDBRANCH   1   8
TORSDOF 8
ENDMDL
MODEL 3
REMARK VINA RESULT:    -3.892      1.132      1.623
REMARK INTER + INTRA:          -6.051
REMARK INTER:                  -5.709
REMARK INTRA:                  -0.342
REMARK UNBOUND:                -0.338
REMARK SMILES O=C([O-])CCCCCCCC(=O)[O-]
REMARK SMILES IDX 7 1 6 2 5 3 4 4 2 5 1 6 3 7 8 8 9 9 10 10 11 11 12 12 13 13
REMARK H PARENT
REMARK Flexibility Score: inf
ROOT
ATOM      1  C   UNL     1      46.400  26.725   5.215  1.00  0.00     0.000 C 
ENDROOT
BRANCH   1   2
ATOM      2  C   UNL     1      46.087  26.812   3.710  1.00  0.00     0.000 C 
BRANCH   2   3
ATOM      3  C   UNL     1      44.680  26.277   3.371  1.00  0.00     0.006 C 
BRANCH   3   4
ATOM      4  C   UNL     1      43.806  27.286   2.611  1.00  0.00     0.053 C 
BRANCH   4   5
ATOM      5  C   UNL     1      44.558  27.986   1.522  1.00  0.00     0.041 C 
ATOM      6  O   UNL     1      44.731  29.232   1.571  1.00  0.00    -0.550 OA
ATOM      7  O   UNL     1      45.043  27.265   0.438  1.00  0.00    -0.550 OA
ENDBRANCH   4   5
ENDBRANCH   3   4
ENDBRANCH   2   3
ENDBRANCH   1   2
BRANCH   1   8
ATOM      8  C   UNL     1      46.393  28.100   5.901  1.00  0.00     0.000 C 
BRANCH   8   9
ATOM      9  C   UNL     1      46.200  28.003   7.422  1.00  0.00     0.006 C 
BRANCH   9  10
ATOM     10  C   UNL     1      46.126  26.541   7.872  1.00  0.00     0.053 C 
BRANCH  10  11
ATOM     11  C   UNL     1      45.713  26.454   9.306  1.00  0.00     0.041 C 
ATOM     12  O   UNL     1      44.875  27.269   9.775  1.00  0.00    -0.550 OA
ATOM     13  O   UNL     1      46.288  25.502  10.140  1.00  0.00    -0.550 OA
ENDBRANCH  10  11
ENDBRANCH   9  10
ENDBRANCH   8   9
ENDBRANCH   1   8
TORSDOF 8
ENDMDL
MODEL 4
REMARK VINA RESULT:    -3.870      1.314      1.873
REMARK INTER + INTRA:          -6.018
REMARK INTER:                  -5.644
REMARK INTRA:                  -0.374
REMARK UNBOUND:                -0.338
REMARK SMILES O=C([O-])CCCCCCCC(=O)[O-]
REMARK SMILES IDX 7 1 6 2 5 3 4 4 2 5 1 6 3 7 8 8 9 9 10 10 11 11 12 12 13 13
REMARK H PARENT
REMARK Flexibility Score: inf
ROOT
ATOM      1  C   UNL     1      46.408  26.212   5.039  1.00  0.00     0.000 C 
ENDROOT
BRANCH   1   2
ATOM      2  C   UNL     1      45.596  26.060   3.740  1.00  0.00     0.000 C 
BRANCH   2   3
ATOM      3  C   UNL     1      44.913  27.377   3.318  1.00  0.00     0.006 C 
BRANCH   3   4
ATOM      4  C   UNL     1      43.775  27.181   2.304  1.00  0.00     0.053 C 
BRANCH   4   5
ATOM      5  C   UNL     1      42.747  28.267   2.383  1.00  0.00     0.041 C 
ATOM      6  O   UNL     1      41.536  27.980   2.575  1.00  0.00    -0.550 OA
ATOM      7  O   UNL     1      43.122  29.594   2.217  1.00  0.00    -0.550 OA
ENDBRANCH   4   5
ENDBRANCH   3   4
ENDBRANCH   2   3
ENDBRANCH   1   2
BRANCH   1   8
ATOM      8  C   UNL     1      46.614  27.682   5.439  1.00  0.00     0.000 C 
BRANCH   8   9
ATOM      9  C   UNL     1      46.275  27.949   6.913  1.00  0.00     0.006 C 
BRANCH   9  10
ATOM     10  C   UNL     1      46.230  26.641   7.709  1.00  0.00     0.053 C 
BRANCH  10  11
ATOM     11  C   UNL     1      45.661  26.877   9.072  1.00  0.00     0.041 C 
ATOM     12  O   UNL     1      45.696  25.965   9.940  1.00  0.00    -0.550 OA
ATOM     13  O   UNL     1      45.048  28.088   9.370  1.00  0.00    -0.550 OA
ENDBRANCH  10  11
ENDBRANCH   9  10
ENDBRANCH   8   9
ENDBRANCH   1   8
TORSDOF 8
ENDMDL
MODEL 5
REMARK VINA RESULT:    -3.850      0.260      7.135
REMARK INTER + INTRA:          -5.989
REMARK INTER:                  -5.634
REMARK INTRA:                  -0.356
REMARK UNBOUND:                -0.338
REMARK SMILES O=C([O-])CCCCCCCC(=O)[O-]
REMARK SMILES IDX 7 1 6 2 5 3 4 4 2 5 1 6 3 7 8 8 9 9 10 10 11 11 12 12 13 13
REMARK H PARENT
REMARK Flexibility Score: inf
ROOT
ATOM      1  C   UNL     1      46.554  27.534   5.450  1.00  0.00     0.000 C 
ENDROOT
BRANCH   1   2
ATOM      2  C   UNL     1      46.671  27.693   6.976  1.00  0.00     0.000 C 
BRANCH   2   3
ATOM      3  C   UNL     1      46.004  26.531   7.740  1.00  0.00     0.006 C 
BRANCH   3   4
ATOM      4  C   UNL     1      45.396  26.951   9.088  1.00  0.00     0.053 C 
BRANCH   4   5
ATOM      5  C   UNL     1      46.256  26.556  10.248  1.00  0.00     0.041 C 
ATOM      6  O   UNL     1      46.342  25.348  10.591  1.00  0.00    -0.550 OA
ATOM      7  O   UNL     1      46.939  27.527  10.970  1.00  0.00    -0.550 OA
ENDBRANCH   4   5
ENDBRANCH   3   4
ENDBRANCH   2   3
ENDBRANCH   1   2
BRANCH   1   8
ATOM      8  C   UNL     1      46.179  26.103   5.031  1.00  0.00     0.000 C 
BRANCH   8   9
ATOM      9  C   UNL     1      45.277  26.064   3.789  1.00  0.00     0.006 C 
BRANCH   9  10
ATOM     10  C   UNL     1      44.987  27.480   3.280  1.00  0.00     0.053 C 
BRANCH  10  11
ATOM     11  C   UNL     1      44.179  27.429   2.023  1.00  0.00     0.041 C 
ATOM     12  O   UNL     1      42.929  27.573   2.066  1.00  0.00    -0.550 OA
ATOM     13  O   UNL     1      44.801  27.175   0.806  1.00  0.00    -0.550 OA
ENDBRANCH  10  11
ENDBRANCH   9  10
ENDBRANCH   8   9
ENDBRANCH   1   8
TORSDOF 8
ENDMDL
MODEL 6
REMARK VINA RESULT:    -3.746      1.415      6.840
REMARK INTER + INTRA:          -5.836
REMARK INTER:                  -5.539
REMARK INTRA:                  -0.297
REMARK UNBOUND:                -0.338
REMARK SMILES O=C([O-])CCCCCCCC(=O)[O-]
REMARK SMILES IDX 7 1 6 2 5 3 4 4 2 5 1 6 3 7 8 8 9 9 10 10 11 11 12 12 13 13
REMARK H PARENT
REMARK Flexibility Score: inf
ROOT
ATOM      1  C   UNL     1      46.418  27.700   5.162  1.00  0.00     0.000 C 
ENDROOT
BRANCH   1   2
ATOM      2  C   UNL     1      46.839  26.431   5.924  1.00  0.00     0.000 C 
BRANCH   2   3
ATOM      3  C   UNL     1      46.563  26.537   7.438  1.00  0.00     0.006 C 
BRANCH   3   4
ATOM      4  C   UNL     1      46.005  27.903   7.867  1.00  0.00     0.053 C 
BRANCH   4   5
ATOM      5  C   UNL     1      45.261  27.834   9.164  1.00  0.00     0.041 C 
ATOM      6  O   UNL     1      44.815  28.884   9.695  1.00  0.00    -0.550 OA
ATOM      7  O   UNL     1      45.084  26.612   9.800  1.00  0.00    -0.550 OA
ENDBRANCH   4   5
ENDBRANCH   3   4
ENDBRANCH   2   3
ENDBRANCH   1   2
BRANCH   1   8
ATOM      8  C   UNL     1      46.168  27.436   3.668  1.00  0.00     0.000 C 
BRANCH   8   9
ATOM      9  C   UNL     1      44.980  26.494   3.422  1.00  0.00     0.006 C 
BRANCH   9  10
ATOM     10  C   UNL     1      43.868  27.207   2.648  1.00  0.00     0.053 C 
BRANCH  10  11
ATOM     11  C   UNL     1      44.433  27.936   1.470  1.00  0.00     0.041 C 
ATOM     12  O   UNL     1      44.999  27.300   0.543  1.00  0.00    -0.550 OA
ATOM     13  O   UNL     1      44.376  29.323   1.418  1.00  0.00    -0.550 OA
ENDBRANCH  10  11
ENDBRANCH   9  10
ENDBRANCH   8   9
ENDBRANCH   1   8
TORSDOF 8
ENDMDL
MODEL 7
REMARK VINA RESULT:    -3.734      1.759      2.281
REMARK INTER + INTRA:          -5.818
REMARK INTER:                  -5.309
REMARK INTRA:                  -0.509
REMARK UNBOUND:                -0.338
REMARK SMILES O=C([O-])CCCCCCCC(=O)[O-]
REMARK SMILES IDX 7 1 6 2 5 3 4 4 2 5 1 6 3 7 8 8 9 9 10 10 11 11 12 12 13 13
REMARK H PARENT
REMARK Flexibility Score: inf
ROOT
ATOM      1  C   UNL     1      45.955  29.099   6.968  1.00  0.00     0.000 C 
ENDROOT
BRANCH   1   2
ATOM      2  C   UNL     1      47.125  28.121   6.759  1.00  0.00     0.000 C 
BRANCH   2   3
ATOM      3  C   UNL     1      46.765  26.971   5.795  1.00  0.00     0.006 C 
BRANCH   3   4
ATOM      4  C   UNL     1      45.923  27.421   4.591  1.00  0.00     0.053 C 
BRANCH   4   5
ATOM      5  C   UNL     1      45.501  26.271   3.730  1.00  0.00     0.041 C 
ATOM      6  O   UNL     1      44.502  26.381   2.971  1.00  0.00    -0.550 OA
ATOM      7  O   UNL     1      46.195  25.069   3.784  1.00  0.00    -0.550 OA
ENDBRANCH   4   5
ENDBRANCH   3   4
ENDBRANCH   2   3
ENDBRANCH   1   2
BRANCH   1   8
ATOM      8  C   UNL     1      45.885  29.639   8.406  1.00  0.00     0.000 C 
BRANCH   8   9
ATOM      9  C   UNL     1      45.151  28.687   9.362  1.00  0.00     0.006 C 
BRANCH   9  10
ATOM     10  C   UNL     1      46.147  27.875  10.196  1.00  0.00     0.053 C 
BRANCH  10  11
ATOM     11  C   UNL     1      45.941  26.410   9.978  1.00  0.00     0.041 C 
ATOM     12  O   UNL     1      45.229  26.004   9.022  1.00  0.00    -0.550 OA
ATOM     13  O   UNL     1      46.497  25.491  10.860  1.00  0.00    -0.550 OA
ENDBRANCH  10  11
ENDBRANCH   9  10
ENDBRANCH   8   9
ENDBRANCH   1   8
TORSDOF 8
ENDMDL
MODEL 8
REMARK VINA RESULT:    -3.707      1.041      1.582
REMARK INTER + INTRA:          -5.778
REMARK INTER:                  -5.486
REMARK INTRA:                  -0.292
REMARK UNBOUND:                -0.338
REMARK SMILES O=C([O-])CCCCCCCC(=O)[O-]
REMARK SMILES IDX 7 1 6 2 5 3 4 4 2 5 1 6 3 7 8 8 9 9 10 10 11 11 12 12 13 13
REMARK H PARENT
REMARK Flexibility Score: inf
ROOT
ATOM      1  C   UNL     1      46.065  26.261   5.108  1.00  0.00     0.000 C 
ENDROOT
BRANCH   1   2
ATOM      2  C   UNL     1      45.511  26.581   3.709  1.00  0.00     0.000 C 
BRANCH   2   3
ATOM      3  C   UNL     1      45.216  28.084   3.523  1.00  0.00     0.006 C 
BRANCH   3   4
ATOM      4  C   UNL     1      44.178  28.376   2.429  1.00  0.00     0.053 C 
BRANCH   4   5
ATOM      5  C   UNL     1      44.263  27.409   1.290  1.00  0.00     0.041 C 
ATOM      6  O   UNL     1      43.388  26.514   1.152  1.00  0.00    -0.550 OA
ATOM      7  O   UNL     1      45.323  27.478   0.395  1.00  0.00    -0.550 OA
ENDBRANCH   4   5
ENDBRANCH   3   4
ENDBRANCH   2   3
ENDBRANCH   1   2
BRANCH   1   8
ATOM      8  C   UNL     1      46.923  27.402   5.680  1.00  0.00     0.000 C 
BRANCH   8   9
ATOM      9  C   UNL     1      46.568  27.738   7.136  1.00  0.00     0.006 C 
BRANCH   9  10
ATOM     10  C   UNL     1      46.230  26.469   7.924  1.00  0.00     0.053 C 
BRANCH  10  11
ATOM     11  C   UNL     1      45.650  26.819   9.257  1.00  0.00     0.041 C 
ATOM     12  O   UNL     1      45.718  26.001  10.213  1.00  0.00    -0.550 OA
ATOM     13  O   UNL     1      44.993  28.031   9.434  1.00  0.00    -0.550 OA
ENDBRANCH  10  11
ENDBRANCH   9  10
ENDBRANCH   8   9
ENDBRANCH   1   8
TORSDOF 8
ENDMDL
MODEL 9
REMARK VINA RESULT:    -3.675      1.857      6.399
REMARK INTER + INTRA:          -5.731
REMARK INTER:                  -5.214
REMARK INTRA:                  -0.517
REMARK UNBOUND:                -0.338
REMARK SMILES O=C([O-])CCCCCCCC(=O)[O-]
REMARK SMILES IDX 7 1 6 2 5 3 4 4 2 5 1 6 3 7 8 8 9 9 10 10 11 11 12 12 13 13
REMARK H PARENT
REMARK Flexibility Score: inf
ROOT
ATOM      1  C   UNL     1      46.537  28.977   7.572  1.00  0.00     0.000 C 
ENDROOT
BRANCH   1   2
ATOM      2  C   UNL     1      45.325  29.107   8.511  1.00  0.00     0.000 C 
BRANCH   2   3
ATOM      3  C   UNL     1      45.148  27.870   9.417  1.00  0.00     0.006 C 
BRANCH   3   4
ATOM      4  C   UNL     1      46.457  27.390  10.063  1.00  0.00     0.053 C 
BRANCH   4   5
ATOM      5  C   UNL     1      46.703  25.931   9.836  1.00  0.00     0.041 C 
ATOM      6  O   UNL     1      47.022  25.513   8.693  1.00  0.00    -0.550 OA
ATOM      7  O   UNL     1      46.552  25.029  10.882  1.00  0.00    -0.550 OA
ENDBRANCH   4   5
ENDBRANCH   3   4
ENDBRANCH   2   3
ENDBRANCH   1   2
BRANCH   1   8
ATOM      8  C   UNL     1      46.133  28.931   6.089  1.00  0.00     0.000 C 
BRANCH   8   9
ATOM      9  C   UNL     1      46.853  27.819   5.312  1.00  0.00     0.006 C 
BRANCH   9  10
ATOM     10  C   UNL     1      46.091  26.495   5.419  1.00  0.00     0.053 C 
BRANCH  10  11
ATOM     11  C   UNL     1      45.904  25.887   4.065  1.00  0.00     0.041 C 
ATOM     12  O   UNL     1      44.807  26.010   3.460  1.00  0.00    -0.550 OA
ATOM     13  O   UNL     1      46.927  25.143   3.490  1.00  0.00    -0.550 OA
ENDBRANCH  10  11
ENDBRANCH   9  10
ENDBRANCH   8   9
ENDBRANCH   1   8
TORSDOF 8
ENDMDL
