MODEL 1
REMARK VINA RESULT:    -7.811      0.000      0.000
REMARK INTER + INTRA:          -9.768
REMARK INTER:                  -9.637
REMARK INTRA:                  -0.131
REMARK UNBOUND:                -0.131
REMARK SMILES Oc1cc(O)c2cc(O)c(-c3cc(O)c(O)c(O)c3)[o+]c2c1
REMARK SMILES IDX 10 1 20 2 21 3 22 4 2 5 3 6 4 7 6 8 7 9 8 10 11 11 12 12
REMARK SMILES IDX 13 13 19 14 15 15 17 16 14 17 16 19 18 21 9 23 1 25 5 27
REMARK H PARENT 14 18 16 20 18 22 9 24 1 26 5 28
REMARK Flexibility Score: inf
ROOT
ATOM      1  C   UNL     1     -13.096 -15.674  32.581  1.00  0.00     0.402 A 
ATOM      2  O   UNL     1     -12.118 -15.777  33.477  1.00  0.00    -0.202 OA
ATOM      3  C   UNL     1     -12.081 -15.070  34.603  1.00  0.00     0.368 A 
ATOM      4  C   UNL     1     -11.012 -15.252  35.484  1.00  0.00     0.162 A 
ATOM      5  C   UNL     1     -10.948 -14.526  36.673  1.00  0.00     0.128 A 
ATOM      6  C   UNL     1     -11.960 -13.611  36.987  1.00  0.00     0.093 A 
ATOM      7  C   UNL     1     -13.041 -13.412  36.120  1.00  0.00     0.136 A 
ATOM      8  C   UNL     1     -13.108 -14.147  34.908  1.00  0.00     0.125 A 
ATOM      9  C   UNL     1     -14.147 -14.002  33.974  1.00  0.00     0.078 A 
ATOM     10  C   UNL     1     -14.142 -14.758  32.798  1.00  0.00     0.223 A 
ENDROOT
BRANCH   1  11
ATOM     11  C   UNL     1     -13.029 -16.523  31.370  1.00  0.00     0.091 A 
ATOM     12  C   UNL     1     -12.991 -15.919  30.104  1.00  0.00     0.068 A 
ATOM     13  C   UNL     1     -12.907 -16.699  28.942  1.00  0.00     0.162 A 
ATOM     14  C   UNL     1     -12.947 -17.924  31.462  1.00  0.00     0.068 A 
ATOM     15  C   UNL     1     -12.846 -18.099  29.043  1.00  0.00     0.200 A 
ATOM     16  C   UNL     1     -12.862 -18.708  30.304  1.00  0.00     0.162 A 
BRANCH  13  17
ATOM     17  O   UNL     1     -12.883 -16.087  27.690  1.00  0.00    -0.504 OA
ATOM     18  H   UNL     1     -13.317 -15.185  27.531  1.00  0.00     0.293 HD
ENDBRANCH  13  17
BRANCH  15  19
ATOM     19  O   UNL     1     -12.765 -18.897  27.902  1.00  0.00    -0.502 OA
ATOM     20  H   UNL     1     -12.371 -18.556  27.033  1.00  0.00     0.293 HD
ENDBRANCH  15  19
BRANCH  16  21
ATOM     21  O   UNL     1     -12.786 -20.097  30.399  1.00  0.00    -0.504 OA
ATOM     22  H   UNL     1     -13.388 -20.700  29.852  1.00  0.00     0.293 HD
ENDBRANCH  16  21
ENDBRANCH   1  11
BRANCH  10  23
ATOM     23  O   UNL     1     -15.147 -14.579  31.846  1.00  0.00    -0.500 OA
ATOM     24  H   UNL     1     -15.343 -13.669  31.444  1.00  0.00     0.294 HD
ENDBRANCH  10  23
BRANCH   5  25
ATOM     25  O   UNL     1      -9.875 -14.721  37.540  1.00  0.00    -0.507 OA
ATOM     26  H   UNL     1      -9.866 -15.481  38.210  1.00  0.00     0.293 HD
ENDBRANCH   5  25
BRANCH   7  27
ATOM     27  O   UNL     1     -14.013 -12.483  36.506  1.00  0.00    -0.507 OA
ATOM     28  H   UNL     1     -14.999 -12.572  36.307  1.00  0.00     0.293 HD
ENDBRANCH   7  27
TORSDOF 7
ENDMDL
MODEL 2
REMARK VINA RESULT:    -7.802      0.095      1.789
REMARK INTER + INTRA:          -9.757
REMARK INTER:                  -9.592
REMARK INTRA:                  -0.165
REMARK UNBOUND:                -0.131
REMARK SMILES Oc1cc(O)c2cc(O)c(-c3cc(O)c(O)c(O)c3)[o+]c2c1
REMARK SMILES IDX 10 1 20 2 21 3 22 4 2 5 3 6 4 7 6 8 7 9 8 10 11 11 12 12
REMARK SMILES IDX 13 13 19 14 15 15 17 16 14 17 16 19 18 21 9 23 1 25 5 27
REMARK H PARENT 14 18 16 20 18 22 9 24 1 26 5 28
REMARK Flexibility Score: inf
ROOT
ATOM      1  C   UNL     1     -13.063 -15.660  32.597  1.00  0.00     0.402 A 
ATOM      2  O   UNL     1     -12.089 -15.745  33.498  1.00  0.00    -0.202 OA
ATOM      3  C   UNL     1     -12.065 -15.030  34.619  1.00  0.00     0.368 A 
ATOM      4  C   UNL     1     -10.997 -15.191  35.506  1.00  0.00     0.162 A 
ATOM      5  C   UNL     1     -10.948 -14.457  36.690  1.00  0.00     0.128 A 
ATOM      6  C   UNL     1     -11.973 -13.553  36.993  1.00  0.00     0.093 A 
ATOM      7  C   UNL     1     -13.053 -13.374  36.121  1.00  0.00     0.136 A 
ATOM      8  C   UNL     1     -13.105 -14.117  34.914  1.00  0.00     0.125 A 
ATOM      9  C   UNL     1     -14.142 -13.993  33.974  1.00  0.00     0.078 A 
ATOM     10  C   UNL     1     -14.123 -14.757  32.804  1.00  0.00     0.223 A 
ENDROOT
BRANCH   1  11
ATOM     11  C   UNL     1     -12.981 -16.517  31.392  1.00  0.00     0.091 A 
ATOM     12  C   UNL     1     -13.004 -17.913  31.535  1.00  0.00     0.068 A 
ATOM     13  C   UNL     1     -12.948 -18.747  30.410  1.00  0.00     0.162 A 
ATOM     14  C   UNL     1     -12.938 -15.962  30.101  1.00  0.00     0.068 A 
ATOM     15  C   UNL     1     -12.884 -18.184  29.125  1.00  0.00     0.200 A 
ATOM     16  C   UNL     1     -12.883 -16.791  28.973  1.00  0.00     0.162 A 
BRANCH  13  17
ATOM     17  O   UNL     1     -12.957 -20.132  30.566  1.00  0.00    -0.504 OA
ATOM     18  H   UNL     1     -13.759 -20.691  30.298  1.00  0.00     0.293 HD
ENDBRANCH  13  17
BRANCH  15  19
ATOM     19  O   UNL     1     -12.825 -18.992  27.990  1.00  0.00    -0.502 OA
ATOM     20  H   UNL     1     -12.039 -18.966  27.350  1.00  0.00     0.293 HD
ENDBRANCH  15  19
BRANCH  16  21
ATOM     21  O   UNL     1     -12.835 -16.237  27.695  1.00  0.00    -0.504 OA
ATOM     22  H   UNL     1     -13.208 -16.726  26.890  1.00  0.00     0.293 HD
ENDBRANCH  16  21
ENDBRANCH   1  11
BRANCH  10  23
ATOM     23  O   UNL     1     -15.126 -14.597  31.847  1.00  0.00    -0.500 OA
ATOM     24  H   UNL     1     -15.057 -13.899  31.116  1.00  0.00     0.294 HD
ENDBRANCH  10  23
BRANCH   5  25
ATOM     25  O   UNL     1      -9.876 -14.631  37.562  1.00  0.00    -0.507 OA
ATOM     26  H   UNL     1      -9.903 -14.281  38.513  1.00  0.00     0.293 HD
ENDBRANCH   5  25
BRANCH   7  27
ATOM     27  O   UNL     1     -14.038 -12.455  36.496  1.00  0.00    -0.507 OA
ATOM     28  H   UNL     1     -14.295 -11.641  35.956  1.00  0.00     0.293 HD
ENDBRANCH   7  27
TORSDOF 7
ENDMDL
MODEL 3
REMARK VINA RESULT:    -6.297      1.018      2.540
REMARK INTER + INTRA:          -7.900
REMARK INTER:                  -7.566
REMARK INTRA:                  -0.334
REMARK UNBOUND:                -0.131
REMARK SMILES Oc1cc(O)c2cc(O)c(-c3cc(O)c(O)c(O)c3)[o+]c2c1
REMARK SMILES IDX 10 1 20 2 21 3 22 4 2 5 3 6 4 7 6 8 7 9 8 10 11 11 12 12
REMARK SMILES IDX 13 13 19 14 15 15 17 16 14 17 16 19 18 21 9 23 1 25 5 27
REMARK H PARENT 14 18 16 20 18 22 9 24 1 26 5 28
REMARK Flexibility Score: inf
ROOT
ATOM      1  C   UNL     1     -12.068 -16.044  32.688  1.00  0.00     0.402 A 
ATOM      2  O   UNL     1     -12.937 -15.244  33.299  1.00  0.00    -0.202 OA
ATOM      3  C   UNL     1     -12.655 -14.571  34.410  1.00  0.00     0.368 A 
ATOM      4  C   UNL     1     -13.635 -13.752  34.977  1.00  0.00     0.162 A 
ATOM      5  C   UNL     1     -13.365 -13.032  36.141  1.00  0.00     0.128 A 
ATOM      6  C   UNL     1     -12.106 -13.130  36.744  1.00  0.00     0.093 A 
ATOM      7  C   UNL     1     -11.107 -13.943  36.195  1.00  0.00     0.136 A 
ATOM      8  C   UNL     1     -11.379 -14.679  35.013  1.00  0.00     0.125 A 
ATOM      9  C   UNL     1     -10.443 -15.529  34.401  1.00  0.00     0.078 A 
ATOM     10  C   UNL     1     -10.786 -16.226  33.238  1.00  0.00     0.223 A 
ENDROOT
BRANCH   1  11
ATOM     11  C   UNL     1     -12.500 -16.733  31.449  1.00  0.00     0.091 A 
ATOM     12  C   UNL     1     -12.489 -16.034  30.232  1.00  0.00     0.068 A 
ATOM     13  C   UNL     1     -12.873 -16.668  29.042  1.00  0.00     0.162 A 
ATOM     14  C   UNL     1     -12.867 -18.090  31.457  1.00  0.00     0.068 A 
ATOM     15  C   UNL     1     -13.259 -18.019  29.062  1.00  0.00     0.200 A 
ATOM     16  C   UNL     1     -13.251 -18.728  30.269  1.00  0.00     0.162 A 
BRANCH  13  17
ATOM     17  O   UNL     1     -12.871 -15.960  27.842  1.00  0.00    -0.504 OA
ATOM     18  H   UNL     1     -13.665 -15.399  27.554  1.00  0.00     0.293 HD
ENDBRANCH  13  17
BRANCH  15  19
ATOM     19  O   UNL     1     -13.647 -18.670  27.892  1.00  0.00    -0.502 OA
ATOM     20  H   UNL     1     -13.082 -18.651  27.051  1.00  0.00     0.293 HD
ENDBRANCH  15  19
BRANCH  16  21
ATOM     21  O   UNL     1     -13.620 -20.072  30.281  1.00  0.00    -0.504 OA
ATOM     22  H   UNL     1     -12.932 -20.812  30.211  1.00  0.00     0.293 HD
ENDBRANCH  16  21
ENDBRANCH   1  11
BRANCH  10  23
ATOM     23  O   UNL     1      -9.875 -17.109  32.658  1.00  0.00    -0.500 OA
ATOM     24  H   UNL     1      -9.726 -17.138  31.656  1.00  0.00     0.294 HD
ENDBRANCH  10  23
BRANCH   5  25
ATOM     25  O   UNL     1     -14.354 -12.221  36.691  1.00  0.00    -0.507 OA
ATOM     26  H   UNL     1     -15.332 -12.344  36.456  1.00  0.00     0.293 HD
ENDBRANCH   5  25
BRANCH   7  27
ATOM     27  O   UNL     1      -9.875 -13.985  36.856  1.00  0.00    -0.507 OA
ATOM     28  H   UNL     1      -9.189 -14.716  36.738  1.00  0.00     0.293 HD
ENDBRANCH   7  27
TORSDOF 7
ENDMDL
MODEL 4
REMARK VINA RESULT:    -6.079      1.018      3.108
REMARK INTER + INTRA:          -7.631
REMARK INTER:                  -7.329
REMARK INTRA:                  -0.302
REMARK UNBOUND:                -0.131
REMARK SMILES Oc1cc(O)c2cc(O)c(-c3cc(O)c(O)c(O)c3)[o+]c2c1
REMARK SMILES IDX 10 1 20 2 21 3 22 4 2 5 3 6 4 7 6 8 7 9 8 10 11 11 12 12
REMARK SMILES IDX 13 13 19 14 15 15 17 16 14 17 16 19 18 21 9 23 1 25 5 27
REMARK H PARENT 14 18 16 20 18 22 9 24 1 26 5 28
REMARK Flexibility Score: inf
ROOT
ATOM      1  C   UNL     1     -12.029 -16.003  32.717  1.00  0.00     0.402 A 
ATOM      2  O   UNL     1     -12.885 -15.185  33.323  1.00  0.00    -0.202 OA
ATOM      3  C   UNL     1     -12.608 -14.546  34.456  1.00  0.00     0.368 A 
ATOM      4  C   UNL     1     -13.573 -13.704  35.015  1.00  0.00     0.162 A 
ATOM      5  C   UNL     1     -13.308 -13.020  36.201  1.00  0.00     0.128 A 
ATOM      6  C   UNL     1     -12.070 -13.176  36.835  1.00  0.00     0.093 A 
ATOM      7  C   UNL     1     -11.087 -14.013  36.294  1.00  0.00     0.136 A 
ATOM      8  C   UNL     1     -11.353 -14.713  35.089  1.00  0.00     0.125 A 
ATOM      9  C   UNL     1     -10.433 -15.584  34.482  1.00  0.00     0.078 A 
ATOM     10  C   UNL     1     -10.769 -16.243  33.296  1.00  0.00     0.223 A 
ENDROOT
BRANCH   1  11
ATOM     11  C   UNL     1     -12.452 -16.649  31.453  1.00  0.00     0.091 A 
ATOM     12  C   UNL     1     -12.811 -18.005  31.457  1.00  0.00     0.068 A 
ATOM     13  C   UNL     1     -13.235 -18.635  30.279  1.00  0.00     0.162 A 
ATOM     14  C   UNL     1     -12.556 -15.917  30.257  1.00  0.00     0.068 A 
ATOM     15  C   UNL     1     -13.316 -17.902  29.084  1.00  0.00     0.200 A 
ATOM     16  C   UNL     1     -12.980 -16.542  29.076  1.00  0.00     0.162 A 
BRANCH  13  17
ATOM     17  O   UNL     1     -13.576 -19.987  30.293  1.00  0.00    -0.504 OA
ATOM     18  H   UNL     1     -14.514 -20.300  30.074  1.00  0.00     0.293 HD
ENDBRANCH  13  17
BRANCH  15  19
ATOM     19  O   UNL     1     -13.732 -18.507  27.898  1.00  0.00    -0.502 OA
ATOM     20  H   UNL     1     -14.024 -17.967  27.091  1.00  0.00     0.293 HD
ENDBRANCH  15  19
BRANCH  16  21
ATOM     21  O   UNL     1     -13.076 -15.815  27.891  1.00  0.00    -0.504 OA
ATOM     22  H   UNL     1     -13.089 -16.272  26.987  1.00  0.00     0.293 HD
ENDBRANCH  16  21
ENDBRANCH   1  11
BRANCH  10  23
ATOM     23  O   UNL     1      -9.875 -17.146  32.720  1.00  0.00    -0.500 OA
ATOM     24  H   UNL     1     -10.181 -18.045  32.366  1.00  0.00     0.294 HD
ENDBRANCH  10  23
BRANCH   5  25
ATOM     25  O   UNL     1     -14.282 -12.185  36.743  1.00  0.00    -0.507 OA
ATOM     26  H   UNL     1     -15.253 -12.249  36.460  1.00  0.00     0.293 HD
ENDBRANCH   5  25
BRANCH   7  27
ATOM     27  O   UNL     1      -9.875 -14.113  36.985  1.00  0.00    -0.507 OA
ATOM     28  H   UNL     1      -9.789 -14.414  37.945  1.00  0.00     0.293 HD
ENDBRANCH   7  27
TORSDOF 7
ENDMDL
MODEL 5
REMARK VINA RESULT:    -5.535      1.539      7.131
REMARK INTER + INTRA:          -6.960
REMARK INTER:                  -6.732
REMARK INTRA:                  -0.228
REMARK UNBOUND:                -0.131
REMARK SMILES Oc1cc(O)c2cc(O)c(-c3cc(O)c(O)c(O)c3)[o+]c2c1
REMARK SMILES IDX 10 1 20 2 21 3 22 4 2 5 3 6 4 7 6 8 7 9 8 10 11 11 12 12
REMARK SMILES IDX 13 13 19 14 15 15 17 16 14 17 16 19 18 21 9 23 1 25 5 27
REMARK H PARENT 14 18 16 20 18 22 9 24 1 26 5 28
REMARK Flexibility Score: inf
ROOT
ATOM      1  C   UNL     1     -12.643 -15.975  32.649  1.00  0.00     0.402 A 
ATOM      2  O   UNL     1     -11.735 -15.877  31.682  1.00  0.00    -0.202 OA
ATOM      3  C   UNL     1     -11.829 -16.521  30.523  1.00  0.00     0.368 A 
ATOM      4  C   UNL     1     -10.824 -16.352  29.567  1.00  0.00     0.162 A 
ATOM      5  C   UNL     1     -10.899 -17.013  28.341  1.00  0.00     0.128 A 
ATOM      6  C   UNL     1     -11.986 -17.851  28.066  1.00  0.00     0.093 A 
ATOM      7  C   UNL     1     -13.005 -18.037  29.008  1.00  0.00     0.136 A 
ATOM      8  C   UNL     1     -12.932 -17.368  30.257  1.00  0.00     0.125 A 
ATOM      9  C   UNL     1     -13.900 -17.505  31.265  1.00  0.00     0.078 A 
ATOM     10  C   UNL     1     -13.757 -16.816  32.473  1.00  0.00     0.223 A 
ENDROOT
BRANCH   1  11
ATOM     11  C   UNL     1     -12.429 -15.198  33.892  1.00  0.00     0.091 A 
ATOM     12  C   UNL     1     -11.265 -15.409  34.647  1.00  0.00     0.068 A 
ATOM     13  C   UNL     1     -11.029 -14.673  35.816  1.00  0.00     0.162 A 
ATOM     14  C   UNL     1     -13.342 -14.212  34.304  1.00  0.00     0.068 A 
ATOM     15  C   UNL     1     -11.956 -13.704  36.232  1.00  0.00     0.200 A 
ATOM     16  C   UNL     1     -13.110 -13.472  35.472  1.00  0.00     0.162 A 
BRANCH  13  17
ATOM     17  O   UNL     1      -9.875 -14.902  36.564  1.00  0.00    -0.504 OA
ATOM     18  H   UNL     1      -9.384 -15.788  36.527  1.00  0.00     0.293 HD
ENDBRANCH  13  17
BRANCH  15  19
ATOM     19  O   UNL     1     -11.745 -12.961  37.392  1.00  0.00    -0.502 OA
ATOM     20  H   UNL     1     -12.467 -12.840  38.094  1.00  0.00     0.293 HD
ENDBRANCH  15  19
BRANCH  16  21
ATOM     21  O   UNL     1     -14.020 -12.499  35.881  1.00  0.00    -0.504 OA
ATOM     22  H   UNL     1     -13.878 -11.518  35.672  1.00  0.00     0.293 HD
ENDBRANCH  16  21
ENDBRANCH   1  11
BRANCH  10  23
ATOM     23  O   UNL     1     -14.692 -16.991  33.494  1.00  0.00    -0.500 OA
ATOM     24  H   UNL     1     -15.214 -17.854  33.595  1.00  0.00     0.294 HD
ENDBRANCH  10  23
BRANCH   5  25
ATOM     25  O   UNL     1      -9.888 -16.832  27.400  1.00  0.00    -0.507 OA
ATOM     26  H   UNL     1      -8.911 -16.823  27.667  1.00  0.00     0.293 HD
ENDBRANCH   5  25
BRANCH   7  27
ATOM     27  O   UNL     1     -14.059 -18.887  28.657  1.00  0.00    -0.507 OA
ATOM     28  H   UNL     1     -14.308 -19.725  29.162  1.00  0.00     0.293 HD
ENDBRANCH   7  27
TORSDOF 7
ENDMDL
MODEL 6
REMARK VINA RESULT:    -5.407      1.542      7.028
REMARK INTER + INTRA:          -6.802
REMARK INTER:                  -6.616
REMARK INTRA:                  -0.186
REMARK UNBOUND:                -0.131
REMARK SMILES Oc1cc(O)c2cc(O)c(-c3cc(O)c(O)c(O)c3)[o+]c2c1
REMARK SMILES IDX 10 1 20 2 21 3 22 4 2 5 3 6 4 7 6 8 7 9 8 10 11 11 12 12
REMARK SMILES IDX 13 13 19 14 15 15 17 16 14 17 16 19 18 21 9 23 1 25 5 27
REMARK H PARENT 14 18 16 20 18 22 9 24 1 26 5 28
REMARK Flexibility Score: inf
ROOT
ATOM      1  C   UNL     1     -12.548 -15.966  32.621  1.00  0.00     0.402 A 
ATOM      2  O   UNL     1     -11.654 -15.873  31.640  1.00  0.00    -0.202 OA
ATOM      3  C   UNL     1     -11.768 -16.518  30.483  1.00  0.00     0.368 A 
ATOM      4  C   UNL     1     -10.777 -16.354  29.512  1.00  0.00     0.162 A 
ATOM      5  C   UNL     1     -10.873 -17.016  28.288  1.00  0.00     0.128 A 
ATOM      6  C   UNL     1     -11.968 -17.849  28.030  1.00  0.00     0.093 A 
ATOM      7  C   UNL     1     -12.974 -18.029  28.987  1.00  0.00     0.136 A 
ATOM      8  C   UNL     1     -12.879 -17.359  30.234  1.00  0.00     0.125 A 
ATOM      9  C   UNL     1     -13.833 -17.491  31.256  1.00  0.00     0.078 A 
ATOM     10  C   UNL     1     -13.668 -16.803  32.462  1.00  0.00     0.223 A 
ENDROOT
BRANCH   1  11
ATOM     11  C   UNL     1     -12.313 -15.190  33.860  1.00  0.00     0.091 A 
ATOM     12  C   UNL     1     -13.259 -14.238  34.268  1.00  0.00     0.068 A 
ATOM     13  C   UNL     1     -13.072 -13.504  35.447  1.00  0.00     0.162 A 
ATOM     14  C   UNL     1     -11.187 -15.426  34.669  1.00  0.00     0.068 A 
ATOM     15  C   UNL     1     -11.934 -13.732  36.239  1.00  0.00     0.200 A 
ATOM     16  C   UNL     1     -10.995 -14.696  35.850  1.00  0.00     0.162 A 
BRANCH  13  17
ATOM     17  O   UNL     1     -14.012 -12.552  35.835  1.00  0.00    -0.504 OA
ATOM     18  H   UNL     1     -14.189 -12.346  36.812  1.00  0.00     0.293 HD
ENDBRANCH  13  17
BRANCH  15  19
ATOM     19  O   UNL     1     -11.723 -13.013  37.416  1.00  0.00    -0.502 OA
ATOM     20  H   UNL     1     -12.236 -13.211  38.267  1.00  0.00     0.293 HD
ENDBRANCH  15  19
BRANCH  16  21
ATOM     21  O   UNL     1      -9.876 -14.929  36.646  1.00  0.00    -0.504 OA
ATOM     22  H   UNL     1      -8.941 -14.944  36.256  1.00  0.00     0.293 HD
ENDBRANCH  16  21
ENDBRANCH   1  11
BRANCH  10  23
ATOM     23  O   UNL     1     -14.589 -16.973  33.496  1.00  0.00    -0.500 OA
ATOM     24  H   UNL     1     -14.753 -17.879  33.919  1.00  0.00     0.294 HD
ENDBRANCH  10  23
BRANCH   5  25
ATOM     25  O   UNL     1      -9.875 -16.840  27.333  1.00  0.00    -0.507 OA
ATOM     26  H   UNL     1      -9.401 -15.951  27.219  1.00  0.00     0.293 HD
ENDBRANCH   5  25
BRANCH   7  27
ATOM     27  O   UNL     1     -14.036 -18.875  28.652  1.00  0.00    -0.507 OA
ATOM     28  H   UNL     1     -13.928 -19.814  28.297  1.00  0.00     0.293 HD
ENDBRANCH   7  27
TORSDOF 7
ENDMDL
MODEL 7
REMARK VINA RESULT:    -5.353      1.552      7.414
REMARK INTER + INTRA:          -6.736
REMARK INTER:                  -6.960
REMARK INTRA:                   0.224
REMARK UNBOUND:                -0.131
REMARK SMILES Oc1cc(O)c2cc(O)c(-c3cc(O)c(O)c(O)c3)[o+]c2c1
REMARK SMILES IDX 10 1 20 2 21 3 22 4 2 5 3 6 4 7 6 8 7 9 8 10 11 11 12 12
REMARK SMILES IDX 13 13 19 14 15 15 17 16 14 17 16 19 18 21 9 23 1 25 5 27
REMARK H PARENT 14 18 16 20 18 22 9 24 1 26 5 28
REMARK Flexibility Score: inf
ROOT
ATOM      1  C   UNL     1     -12.386 -15.932  31.959  1.00  0.00     0.402 A 
ATOM      2  O   UNL     1     -12.991 -15.203  31.025  1.00  0.00    -0.202 OA
ATOM      3  C   UNL     1     -13.158 -15.614  29.772  1.00  0.00     0.368 A 
ATOM      4  C   UNL     1     -13.810 -14.777  28.862  1.00  0.00     0.162 A 
ATOM      5  C   UNL     1     -14.002 -15.184  27.542  1.00  0.00     0.128 A 
ATOM      6  C   UNL     1     -13.540 -16.438  27.125  1.00  0.00     0.093 A 
ATOM      7  C   UNL     1     -12.884 -17.294  28.017  1.00  0.00     0.136 A 
ATOM      8  C   UNL     1     -12.685 -16.883  29.360  1.00  0.00     0.125 A 
ATOM      9  C   UNL     1     -12.027 -17.671  30.320  1.00  0.00     0.078 A 
ATOM     10  C   UNL     1     -11.864 -17.195  31.624  1.00  0.00     0.223 A 
ENDROOT
BRANCH   1  11
ATOM     11  C   UNL     1     -12.270 -15.367  33.323  1.00  0.00     0.091 A 
ATOM     12  C   UNL     1     -11.140 -15.665  34.100  1.00  0.00     0.068 A 
ATOM     13  C   UNL     1     -10.995 -15.127  35.386  1.00  0.00     0.162 A 
ATOM     14  C   UNL     1     -13.242 -14.490  33.837  1.00  0.00     0.068 A 
ATOM     15  C   UNL     1     -11.982 -14.268  35.900  1.00  0.00     0.200 A 
ATOM     16  C   UNL     1     -13.101 -13.948  35.122  1.00  0.00     0.162 A 
BRANCH  13  17
ATOM     17  O   UNL     1      -9.875 -15.441  36.153  1.00  0.00    -0.504 OA
ATOM     18  H   UNL     1      -8.939 -15.403  35.767  1.00  0.00     0.293 HD
ENDBRANCH  13  17
BRANCH  15  19
ATOM     19  O   UNL     1     -11.862 -13.722  37.177  1.00  0.00    -0.502 OA
ATOM     20  H   UNL     1     -11.788 -14.301  38.006  1.00  0.00     0.293 HD
ENDBRANCH  15  19
BRANCH  16  21
ATOM     21  O   UNL     1     -14.070 -13.084  35.630  1.00  0.00    -0.504 OA
ATOM     22  H   UNL     1     -15.015 -13.397  35.815  1.00  0.00     0.293 HD
ENDBRANCH  16  21
ENDBRANCH   1  11
BRANCH  10  23
ATOM     23  O   UNL     1     -11.167 -17.955  32.564  1.00  0.00    -0.500 OA
ATOM     24  H   UNL     1     -10.887 -18.910  32.374  1.00  0.00     0.294 HD
ENDBRANCH  10  23
BRANCH   5  25
ATOM     25  O   UNL     1     -14.654 -14.336  26.650  1.00  0.00    -0.507 OA
ATOM     26  H   UNL     1     -15.184 -14.697  25.866  1.00  0.00     0.293 HD
ENDBRANCH   5  25
BRANCH   7  27
ATOM     27  O   UNL     1     -12.456 -18.531  27.525  1.00  0.00    -0.507 OA
ATOM     28  H   UNL     1     -12.792 -19.424  27.855  1.00  0.00     0.293 HD
ENDBRANCH   7  27
TORSDOF 7
ENDMDL
MODEL 8
REMARK VINA RESULT:    -5.090      1.567      7.356
REMARK INTER + INTRA:          -6.411
REMARK INTER:                  -6.091
REMARK INTRA:                  -0.320
REMARK UNBOUND:                -0.131
REMARK SMILES Oc1cc(O)c2cc(O)c(-c3cc(O)c(O)c(O)c3)[o+]c2c1
REMARK SMILES IDX 10 1 20 2 21 3 22 4 2 5 3 6 4 7 6 8 7 9 8 10 11 11 12 12
REMARK SMILES IDX 13 13 19 14 15 15 17 16 14 17 16 19 18 21 9 23 1 25 5 27
REMARK H PARENT 14 18 16 20 18 22 9 24 1 26 5 28
REMARK Flexibility Score: inf
ROOT
ATOM      1  C   UNL     1     -11.630 -15.858  32.893  1.00  0.00     0.402 A 
ATOM      2  O   UNL     1     -12.440 -16.872  32.601  1.00  0.00    -0.202 OA
ATOM      3  C   UNL     1     -12.403 -17.527  31.444  1.00  0.00     0.368 A 
ATOM      4  C   UNL     1     -13.294 -18.582  31.232  1.00  0.00     0.162 A 
ATOM      5  C   UNL     1     -13.275 -19.289  30.029  1.00  0.00     0.128 A 
ATOM      6  C   UNL     1     -12.359 -18.941  29.030  1.00  0.00     0.093 A 
ATOM      7  C   UNL     1     -11.455 -17.888  29.220  1.00  0.00     0.136 A 
ATOM      8  C   UNL     1     -11.473 -17.165  30.441  1.00  0.00     0.125 A 
ATOM      9  C   UNL     1     -10.614 -16.088  30.713  1.00  0.00     0.078 A 
ATOM     10  C   UNL     1     -10.694 -15.420  31.939  1.00  0.00     0.223 A 
ENDROOT
BRANCH   1  11
ATOM     11  C   UNL     1     -11.763 -15.215  34.221  1.00  0.00     0.091 A 
ATOM     12  C   UNL     1     -10.791 -15.454  35.204  1.00  0.00     0.068 A 
ATOM     13  C   UNL     1     -10.881 -14.841  36.461  1.00  0.00     0.162 A 
ATOM     14  C   UNL     1     -12.814 -14.324  34.500  1.00  0.00     0.068 A 
ATOM     15  C   UNL     1     -11.946 -13.968  36.739  1.00  0.00     0.200 A 
ATOM     16  C   UNL     1     -12.909 -13.708  35.755  1.00  0.00     0.162 A 
BRANCH  13  17
ATOM     17  O   UNL     1      -9.917 -15.096  37.434  1.00  0.00    -0.504 OA
ATOM     18  H   UNL     1      -9.407 -15.972  37.460  1.00  0.00     0.293 HD
ENDBRANCH  13  17
BRANCH  15  19
ATOM     19  O   UNL     1     -12.060 -13.348  37.983  1.00  0.00    -0.502 OA
ATOM     20  H   UNL     1     -11.940 -12.349  38.100  1.00  0.00     0.293 HD
ENDBRANCH  15  19
BRANCH  16  21
ATOM     21  O   UNL     1     -13.955 -12.829  36.030  1.00  0.00    -0.504 OA
ATOM     22  H   UNL     1     -14.913 -13.052  35.785  1.00  0.00     0.293 HD
ENDBRANCH  16  21
ENDBRANCH   1  11
BRANCH  10  23
ATOM     23  O   UNL     1      -9.876 -14.318  32.189  1.00  0.00    -0.500 OA
ATOM     24  H   UNL     1      -8.903 -14.302  31.908  1.00  0.00     0.294 HD
ENDBRANCH  10  23
BRANCH   5  25
ATOM     25  O   UNL     1     -14.171 -20.337  29.835  1.00  0.00    -0.507 OA
ATOM     26  H   UNL     1     -14.343 -20.724  28.914  1.00  0.00     0.293 HD
ENDBRANCH   5  25
BRANCH   7  27
ATOM     27  O   UNL     1     -10.569 -17.604  28.176  1.00  0.00    -0.507 OA
ATOM     28  H   UNL     1      -9.778 -18.180  27.926  1.00  0.00     0.293 HD
ENDBRANCH   7  27
TORSDOF 7
ENDMDL
MODEL 9
REMARK VINA RESULT:    -4.973      1.282      6.986
REMARK INTER + INTRA:          -6.267
REMARK INTER:                  -6.247
REMARK INTRA:                  -0.019
REMARK UNBOUND:                -0.131
REMARK SMILES Oc1cc(O)c2cc(O)c(-c3cc(O)c(O)c(O)c3)[o+]c2c1
REMARK SMILES IDX 10 1 20 2 21 3 22 4 2 5 3 6 4 7 6 8 7 9 8 10 11 11 12 12
REMARK SMILES IDX 13 13 19 14 15 15 17 16 14 17 16 19 18 21 9 23 1 25 5 27
REMARK H PARENT 14 18 16 20 18 22 9 24 1 26 5 28
REMARK Flexibility Score: inf
ROOT
ATOM      1  C   UNL     1     -12.865 -16.045  32.661  1.00  0.00     0.402 A 
ATOM      2  O   UNL     1     -12.546 -17.331  32.777  1.00  0.00    -0.202 OA
ATOM      3  C   UNL     1     -12.704 -18.215  31.796  1.00  0.00     0.368 A 
ATOM      4  C   UNL     1     -12.336 -19.545  32.014  1.00  0.00     0.162 A 
ATOM      5  C   UNL     1     -12.487 -20.493  31.002  1.00  0.00     0.128 A 
ATOM      6  C   UNL     1     -13.011 -20.111  29.762  1.00  0.00     0.093 A 
ATOM      7  C   UNL     1     -13.387 -18.784  29.519  1.00  0.00     0.136 A 
ATOM      8  C   UNL     1     -13.236 -17.817  30.547  1.00  0.00     0.125 A 
ATOM      9  C   UNL     1     -13.598 -16.468  30.397  1.00  0.00     0.078 A 
ATOM     10  C   UNL     1     -13.425 -15.574  31.458  1.00  0.00     0.223 A 
ENDROOT
BRANCH   1  11
ATOM     11  C   UNL     1     -12.633 -15.157  33.823  1.00  0.00     0.091 A 
ATOM     12  C   UNL     1     -11.376 -15.153  34.448  1.00  0.00     0.068 A 
ATOM     13  C   UNL     1     -11.123 -14.307  35.536  1.00  0.00     0.162 A 
ATOM     14  C   UNL     1     -13.627 -14.275  34.280  1.00  0.00     0.068 A 
ATOM     15  C   UNL     1     -12.129 -13.443  36.000  1.00  0.00     0.200 A 
ATOM     16  C   UNL     1     -13.379 -13.426  35.367  1.00  0.00     0.162 A 
BRANCH  13  17
ATOM     17  O   UNL     1      -9.875 -14.322  36.157  1.00  0.00    -0.504 OA
ATOM     18  H   UNL     1      -9.758 -14.032  37.121  1.00  0.00     0.293 HD
ENDBRANCH  13  17
BRANCH  15  19
ATOM     19  O   UNL     1     -11.903 -12.594  37.083  1.00  0.00    -0.502 OA
ATOM     20  H   UNL     1     -12.542 -11.845  37.323  1.00  0.00     0.293 HD
ENDBRANCH  15  19
BRANCH  16  21
ATOM     21  O   UNL     1     -14.369 -12.557  35.821  1.00  0.00    -0.504 OA
ATOM     22  H   UNL     1     -14.727 -11.810  35.238  1.00  0.00     0.293 HD
ENDBRANCH  16  21
ENDBRANCH   1  11
BRANCH  10  23
ATOM     23  O   UNL     1     -13.831 -14.246  31.328  1.00  0.00    -0.500 OA
ATOM     24  H   UNL     1     -13.322 -13.488  31.768  1.00  0.00     0.294 HD
ENDBRANCH  10  23
BRANCH   5  25
ATOM     25  O   UNL     1     -12.115 -21.814  31.238  1.00  0.00    -0.507 OA
ATOM     26  H   UNL     1     -12.519 -22.581  30.713  1.00  0.00     0.293 HD
ENDBRANCH   5  25
BRANCH   7  27
ATOM     27  O   UNL     1     -13.898 -18.481  28.253  1.00  0.00    -0.507 OA
ATOM     28  H   UNL     1     -14.829 -18.720  27.941  1.00  0.00     0.293 HD
ENDBRANCH   7  27
TORSDOF 7
ENDMDL
