MODEL 1
REMARK VINA RESULT:    -6.990      0.000      0.000
REMARK INTER + INTRA:          -8.331
REMARK INTER:                  -8.012
REMARK INTRA:                  -0.319
REMARK UNBOUND:                -0.319
REMARK SMILES O=C1C[C@H](c2ccc(O)cc2)Oc2cc(O)cc(O)c21
REMARK SMILES IDX 3 1 4 2 12 3 13 4 14 5 15 6 17 7 18 8 20 9 2 10 1 11 5 12
REMARK SMILES IDX 6 13 11 14 7 15 10 16 8 17 9 18 19 20 16 22
REMARK H PARENT 9 19 19 21 16 23
REMARK Flexibility Score: inf
ROOT
ATOM      1  C   UNL     1     -15.989  26.891  50.772  1.00  0.00     0.131 C 
ATOM      2  C   UNL     1     -15.247  27.705  51.844  1.00  0.00     0.211 C 
ATOM      3  O   UNL     1     -15.801  29.019  51.951  1.00  0.00    -0.484 OA
ATOM      4  C   UNL     1     -16.148  29.772  50.823  1.00  0.00     0.138 A 
ATOM      5  C   UNL     1     -16.379  31.143  50.956  1.00  0.00     0.093 A 
ATOM      6  C   UNL     1     -16.703  31.917  49.835  1.00  0.00     0.123 A 
ATOM      7  C   UNL     1     -16.802  31.312  48.579  1.00  0.00     0.093 A 
ATOM      8  C   UNL     1     -16.593  29.932  48.433  1.00  0.00     0.133 A 
ATOM      9  C   UNL     1     -16.268  29.151  49.564  1.00  0.00     0.102 A 
ATOM     10  C   UNL     1     -16.082  27.681  49.498  1.00  0.00     0.174 C 
ATOM     11  O   UNL     1     -16.053  27.076  48.392  1.00  0.00    -0.294 OA
ENDROOT
BRANCH   2  12
ATOM     12  C   UNL     1     -15.309  27.007  53.181  1.00  0.00    -0.007 A 
ATOM     13  C   UNL     1     -15.134  25.615  53.261  1.00  0.00     0.011 A 
ATOM     14  C   UNL     1     -15.595  27.730  54.352  1.00  0.00     0.011 A 
ATOM     15  C   UNL     1     -15.220  24.962  54.494  1.00  0.00     0.046 A 
ATOM     16  C   UNL     1     -15.681  27.074  55.584  1.00  0.00     0.046 A 
ATOM     17  C   UNL     1     -15.492  25.687  55.658  1.00  0.00     0.115 A 
BRANCH  17  18
ATOM     18  O   UNL     1     -15.575  25.023  56.880  1.00  0.00    -0.508 OA
ATOM     19  H   UNL     1     -16.468  24.800  57.302  1.00  0.00     0.293 HD
ENDBRANCH  17  18
ENDBRANCH   2  12
BRANCH   8  20
ATOM     20  O   UNL     1     -16.715  29.345  47.174  1.00  0.00    -0.507 OA
ATOM     21  H   UNL     1     -16.960  29.889  46.356  1.00  0.00     0.293 HD
ENDBRANCH   8  20
BRANCH   6  22
ATOM     22  O   UNL     1     -16.926  33.287  49.958  1.00  0.00    -0.508 OA
ATOM     23  H   UNL     1     -17.431  33.672  50.747  1.00  0.00     0.293 HD
ENDBRANCH   6  22
TORSDOF 4
ENDMDL
MODEL 2
REMARK VINA RESULT:    -6.784     15.535     16.720
REMARK INTER + INTRA:          -8.095
REMARK INTER:                  -7.793
REMARK INTRA:                  -0.302
REMARK UNBOUND:                -0.319
REMARK SMILES O=C1C[C@H](c2ccc(O)cc2)Oc2cc(O)cc(O)c21
REMARK SMILES IDX 3 1 4 2 12 3 13 4 14 5 15 6 17 7 18 8 20 9 2 10 1 11 5 12
REMARK SMILES IDX 6 13 11 14 7 15 10 16 8 17 9 18 19 20 16 22
REMARK H PARENT 9 19 19 21 16 23
REMARK Flexibility Score: inf
ROOT
ATOM      1  C   UNL     1      -6.283  36.155  59.413  1.00  0.00     0.131 C 
ATOM      2  C   UNL     1      -4.785  36.413  59.642  1.00  0.00     0.211 C 
ATOM      3  O   UNL     1      -4.594  37.441  60.618  1.00  0.00    -0.484 OA
ATOM      4  C   UNL     1      -5.366  38.608  60.628  1.00  0.00     0.138 A 
ATOM      5  C   UNL     1      -4.943  39.706  61.381  1.00  0.00     0.093 A 
ATOM      6  C   UNL     1      -5.689  40.890  61.383  1.00  0.00     0.123 A 
ATOM      7  C   UNL     1      -6.867  40.971  60.633  1.00  0.00     0.093 A 
ATOM      8  C   UNL     1      -7.314  39.869  59.887  1.00  0.00     0.133 A 
ATOM      9  C   UNL     1      -6.563  38.674  59.887  1.00  0.00     0.102 A 
ATOM     10  C   UNL     1      -6.997  37.454  59.165  1.00  0.00     0.174 C 
ATOM     11  O   UNL     1      -7.988  37.474  58.386  1.00  0.00    -0.294 OA
ENDROOT
BRANCH   2  12
ATOM     12  C   UNL     1      -4.087  35.148  60.078  1.00  0.00    -0.007 A 
ATOM     13  C   UNL     1      -3.866  34.897  61.443  1.00  0.00     0.011 A 
ATOM     14  C   UNL     1      -3.601  34.234  59.126  1.00  0.00     0.011 A 
ATOM     15  C   UNL     1      -3.193  33.741  61.849  1.00  0.00     0.046 A 
ATOM     16  C   UNL     1      -2.928  33.079  59.535  1.00  0.00     0.046 A 
ATOM     17  C   UNL     1      -2.724  32.829  60.899  1.00  0.00     0.115 A 
BRANCH  17  18
ATOM     18  O   UNL     1      -2.054  31.681  61.317  1.00  0.00    -0.508 OA
ATOM     19  H   UNL     1      -2.395  31.121  62.089  1.00  0.00     0.293 HD
ENDBRANCH  17  18
ENDBRANCH   2  12
BRANCH   8  20
ATOM     20  O   UNL     1      -8.500  39.965  59.160  1.00  0.00    -0.507 OA
ATOM     21  H   UNL     1      -9.168  39.204  59.129  1.00  0.00     0.293 HD
ENDBRANCH   8  20
BRANCH   6  22
ATOM     22  O   UNL     1      -5.270  41.992  62.125  1.00  0.00    -0.508 OA
ATOM     23  H   UNL     1      -4.593  41.901  62.872  1.00  0.00     0.293 HD
ENDBRANCH   6  22
TORSDOF 4
ENDMDL
MODEL 3
REMARK VINA RESULT:    -6.557      1.954      6.927
REMARK INTER + INTRA:          -7.834
REMARK INTER:                  -7.527
REMARK INTRA:                  -0.307
REMARK UNBOUND:                -0.319
REMARK SMILES O=C1C[C@H](c2ccc(O)cc2)Oc2cc(O)cc(O)c21
REMARK SMILES IDX 3 1 4 2 12 3 13 4 14 5 15 6 17 7 18 8 20 9 2 10 1 11 5 12
REMARK SMILES IDX 6 13 11 14 7 15 10 16 8 17 9 18 19 20 16 22
REMARK H PARENT 9 19 19 21 16 23
REMARK Flexibility Score: inf
ROOT
ATOM      1  C   UNL     1     -15.366  26.824  52.858  1.00  0.00     0.131 C 
ATOM      2  C   UNL     1     -16.752  27.393  52.514  1.00  0.00     0.211 C 
ATOM      3  O   UNL     1     -17.343  28.007  53.663  1.00  0.00    -0.484 OA
ATOM      4  C   UNL     1     -17.283  27.420  54.932  1.00  0.00     0.138 A 
ATOM      5  C   UNL     1     -18.130  27.880  55.943  1.00  0.00     0.093 A 
ATOM      6  C   UNL     1     -18.102  27.289  57.211  1.00  0.00     0.123 A 
ATOM      7  C   UNL     1     -17.216  26.238  57.468  1.00  0.00     0.093 A 
ATOM      8  C   UNL     1     -16.345  25.779  56.468  1.00  0.00     0.133 A 
ATOM      9  C   UNL     1     -16.372  26.376  55.189  1.00  0.00     0.102 A 
ATOM     10  C   UNL     1     -15.449  25.980  54.098  1.00  0.00     0.174 C 
ATOM     11  O   UNL     1     -14.694  24.977  54.214  1.00  0.00    -0.294 OA
ENDROOT
BRANCH   2  12
ATOM     12  C   UNL     1     -16.654  28.391  51.386  1.00  0.00    -0.007 A 
ATOM     13  C   UNL     1     -16.463  27.949  50.066  1.00  0.00     0.011 A 
ATOM     14  C   UNL     1     -16.697  29.772  51.647  1.00  0.00     0.011 A 
ATOM     15  C   UNL     1     -16.342  28.872  49.023  1.00  0.00     0.046 A 
ATOM     16  C   UNL     1     -16.575  30.692  50.602  1.00  0.00     0.046 A 
ATOM     17  C   UNL     1     -16.399  30.244  49.286  1.00  0.00     0.115 A 
BRANCH  17  18
ATOM     18  O   UNL     1     -16.277  31.153  48.237  1.00  0.00    -0.508 OA
ATOM     19  H   UNL     1     -15.376  31.376  47.832  1.00  0.00     0.293 HD
ENDBRANCH  17  18
ENDBRANCH   2  12
BRANCH   8  20
ATOM     20  O   UNL     1     -15.457  24.741  56.750  1.00  0.00    -0.507 OA
ATOM     21  H   UNL     1     -15.730  23.947  57.317  1.00  0.00     0.293 HD
ENDBRANCH   8  20
BRANCH   6  22
ATOM     22  O   UNL     1     -18.950  27.735  58.222  1.00  0.00    -0.508 OA
ATOM     23  H   UNL     1     -18.767  27.527  59.196  1.00  0.00     0.293 HD
ENDBRANCH   6  22
TORSDOF 4
ENDMDL
MODEL 4
REMARK VINA RESULT:    -6.420      2.596      6.697
REMARK INTER + INTRA:          -7.677
REMARK INTER:                  -7.363
REMARK INTRA:                  -0.314
REMARK UNBOUND:                -0.319
REMARK SMILES O=C1C[C@H](c2ccc(O)cc2)Oc2cc(O)cc(O)c21
REMARK SMILES IDX 3 1 4 2 12 3 13 4 14 5 15 6 17 7 18 8 20 9 2 10 1 11 5 12
REMARK SMILES IDX 6 13 11 14 7 15 10 16 8 17 9 18 19 20 16 22
REMARK H PARENT 9 19 19 21 16 23
REMARK Flexibility Score: inf
ROOT
ATOM      1  C   UNL     1     -17.652  27.871  52.184  1.00  0.00     0.131 C 
ATOM      2  C   UNL     1     -16.134  28.050  52.340  1.00  0.00     0.211 C 
ATOM      3  O   UNL     1     -15.625  27.181  53.356  1.00  0.00    -0.484 OA
ATOM      4  C   UNL     1     -16.291  26.994  54.573  1.00  0.00     0.138 A 
ATOM      5  C   UNL     1     -15.614  26.403  55.643  1.00  0.00     0.093 A 
ATOM      6  C   UNL     1     -16.255  26.231  56.875  1.00  0.00     0.123 A 
ATOM      7  C   UNL     1     -17.580  26.647  57.033  1.00  0.00     0.093 A 
ATOM      8  C   UNL     1     -18.279  27.225  55.961  1.00  0.00     0.133 A 
ATOM      9  C   UNL     1     -17.633  27.396  54.717  1.00  0.00     0.102 A 
ATOM     10  C   UNL     1     -18.320  27.952  53.527  1.00  0.00     0.174 C 
ATOM     11  O   UNL     1     -19.478  28.444  53.611  1.00  0.00    -0.294 OA
ENDROOT
BRANCH   2  12
ATOM     12  C   UNL     1     -15.428  27.784  51.032  1.00  0.00    -0.007 A 
ATOM     13  C   UNL     1     -14.188  27.122  51.018  1.00  0.00     0.011 A 
ATOM     14  C   UNL     1     -15.973  28.243  49.819  1.00  0.00     0.011 A 
ATOM     15  C   UNL     1     -13.519  26.901  49.811  1.00  0.00     0.046 A 
ATOM     16  C   UNL     1     -15.300  28.021  48.614  1.00  0.00     0.046 A 
ATOM     17  C   UNL     1     -14.071  27.347  48.607  1.00  0.00     0.115 A 
BRANCH  17  18
ATOM     18  O   UNL     1     -13.392  27.120  47.412  1.00  0.00    -0.508 OA
ATOM     19  H   UNL     1     -13.848  27.231  46.514  1.00  0.00     0.293 HD
ENDBRANCH  17  18
ENDBRANCH   2  12
BRANCH   8  20
ATOM     20  O   UNL     1     -19.606  27.617  56.135  1.00  0.00    -0.507 OA
ATOM     21  H   UNL     1     -19.991  27.798  57.054  1.00  0.00     0.293 HD
ENDBRANCH   8  20
BRANCH   6  22
ATOM     22  O   UNL     1     -15.584  25.650  57.949  1.00  0.00    -0.508 OA
ATOM     23  H   UNL     1     -14.919  24.899  57.814  1.00  0.00     0.293 HD
ENDBRANCH   6  22
TORSDOF 4
ENDMDL
MODEL 5
REMARK VINA RESULT:    -6.419      1.434      2.036
REMARK INTER + INTRA:          -7.677
REMARK INTER:                  -7.395
REMARK INTRA:                  -0.281
REMARK UNBOUND:                -0.319
REMARK SMILES O=C1C[C@H](c2ccc(O)cc2)Oc2cc(O)cc(O)c21
REMARK SMILES IDX 3 1 4 2 12 3 13 4 14 5 15 6 17 7 18 8 20 9 2 10 1 11 5 12
REMARK SMILES IDX 6 13 11 14 7 15 10 16 8 17 9 18 19 20 16 22
REMARK H PARENT 9 19 19 21 16 23
REMARK Flexibility Score: inf
ROOT
ATOM      1  C   UNL     1     -16.650  27.752  49.060  1.00  0.00     0.131 C 
ATOM      2  C   UNL     1     -15.900  28.209  50.321  1.00  0.00     0.211 C 
ATOM      3  O   UNL     1     -16.322  29.519  50.712  1.00  0.00    -0.484 OA
ATOM      4  C   UNL     1     -16.518  30.544  49.780  1.00  0.00     0.138 A 
ATOM      5  C   UNL     1     -16.615  31.866  50.222  1.00  0.00     0.093 A 
ATOM      6  C   UNL     1     -16.785  32.908  49.302  1.00  0.00     0.123 A 
ATOM      7  C   UNL     1     -16.866  32.621  47.936  1.00  0.00     0.093 A 
ATOM      8  C   UNL     1     -16.789  31.296  47.479  1.00  0.00     0.133 A 
ATOM      9  C   UNL     1     -16.619  30.245  48.406  1.00  0.00     0.102 A 
ATOM     10  C   UNL     1     -16.581  28.819  48.004  1.00  0.00     0.174 C 
ATOM     11  O   UNL     1     -16.543  28.483  46.790  1.00  0.00    -0.294 OA
ENDROOT
BRANCH   2  12
ATOM     12  C   UNL     1     -16.118  27.236  51.454  1.00  0.00    -0.007 A 
ATOM     13  C   UNL     1     -15.112  27.030  52.414  1.00  0.00     0.011 A 
ATOM     14  C   UNL     1     -17.304  26.483  51.532  1.00  0.00     0.011 A 
ATOM     15  C   UNL     1     -15.299  26.108  53.446  1.00  0.00     0.046 A 
ATOM     16  C   UNL     1     -17.488  25.561  52.567  1.00  0.00     0.046 A 
ATOM     17  C   UNL     1     -16.485  25.372  53.528  1.00  0.00     0.115 A 
BRANCH  17  18
ATOM     18  O   UNL     1     -16.658  24.455  54.563  1.00  0.00    -0.508 OA
ATOM     19  H   UNL     1     -17.275  23.658  54.467  1.00  0.00     0.293 HD
ENDBRANCH  17  18
ENDBRANCH   2  12
BRANCH   8  20
ATOM     20  O   UNL     1     -16.890  31.031  46.113  1.00  0.00    -0.507 OA
ATOM     21  H   UNL     1     -16.308  30.335  45.663  1.00  0.00     0.293 HD
ENDBRANCH   8  20
BRANCH   6  22
ATOM     22  O   UNL     1     -16.874  34.229  49.734  1.00  0.00    -0.508 OA
ATOM     23  H   UNL     1     -16.051  34.810  49.831  1.00  0.00     0.293 HD
ENDBRANCH   6  22
TORSDOF 4
ENDMDL
MODEL 6
REMARK VINA RESULT:    -6.389      1.548      3.243
REMARK INTER + INTRA:          -7.642
REMARK INTER:                  -7.343
REMARK INTRA:                  -0.298
REMARK UNBOUND:                -0.319
REMARK SMILES O=C1C[C@H](c2ccc(O)cc2)Oc2cc(O)cc(O)c21
REMARK SMILES IDX 3 1 4 2 12 3 13 4 14 5 15 6 17 7 18 8 20 9 2 10 1 11 5 12
REMARK SMILES IDX 6 13 11 14 7 15 10 16 8 17 9 18 19 20 16 22
REMARK H PARENT 9 19 19 21 16 23
REMARK Flexibility Score: inf
ROOT
ATOM      1  C   UNL     1     -15.953  28.849  51.985  1.00  0.00     0.131 C 
ATOM      2  C   UNL     1     -16.857  27.618  52.151  1.00  0.00     0.211 C 
ATOM      3  O   UNL     1     -16.769  26.770  51.002  1.00  0.00    -0.484 OA
ATOM      4  C   UNL     1     -16.764  27.284  49.700  1.00  0.00     0.138 A 
ATOM      5  C   UNL     1     -16.997  26.426  48.622  1.00  0.00     0.093 A 
ATOM      6  C   UNL     1     -17.021  26.926  47.314  1.00  0.00     0.123 A 
ATOM      7  C   UNL     1     -16.802  28.288  47.088  1.00  0.00     0.093 A 
ATOM      8  C   UNL     1     -16.546  29.158  48.159  1.00  0.00     0.133 A 
ATOM      9  C   UNL     1     -16.520  28.654  49.478  1.00  0.00     0.102 A 
ATOM     10  C   UNL     1     -16.208  29.500  50.655  1.00  0.00     0.174 C 
ATOM     11  O   UNL     1     -16.100  30.751  50.549  1.00  0.00    -0.294 OA
ENDROOT
BRANCH   2  12
ATOM     12  C   UNL     1     -16.483  26.846  53.393  1.00  0.00    -0.007 A 
ATOM     13  C   UNL     1     -17.153  27.088  54.605  1.00  0.00     0.011 A 
ATOM     14  C   UNL     1     -15.428  25.917  53.368  1.00  0.00     0.011 A 
ATOM     15  C   UNL     1     -16.789  26.396  55.763  1.00  0.00     0.046 A 
ATOM     16  C   UNL     1     -15.066  25.227  54.528  1.00  0.00     0.046 A 
ATOM     17  C   UNL     1     -15.748  25.464  55.730  1.00  0.00     0.115 A 
BRANCH  17  18
ATOM     18  O   UNL     1     -15.396  24.782  56.892  1.00  0.00    -0.508 OA
ATOM     19  H   UNL     1     -14.538  24.988  57.389  1.00  0.00     0.293 HD
ENDBRANCH  17  18
ENDBRANCH   2  12
BRANCH   8  20
ATOM     20  O   UNL     1     -16.313  30.510  47.910  1.00  0.00    -0.507 OA
ATOM     21  H   UNL     1     -17.073  31.164  47.769  1.00  0.00     0.293 HD
ENDBRANCH   8  20
BRANCH   6  22
ATOM     22  O   UNL     1     -17.262  26.080  46.235  1.00  0.00    -0.508 OA
ATOM     23  H   UNL     1     -16.877  25.143  46.200  1.00  0.00     0.293 HD
ENDBRANCH   6  22
TORSDOF 4
ENDMDL
MODEL 7
REMARK VINA RESULT:    -6.247      2.772      3.319
REMARK INTER + INTRA:          -7.479
REMARK INTER:                  -7.184
REMARK INTRA:                  -0.295
REMARK UNBOUND:                -0.319
REMARK SMILES O=C1C[C@H](c2ccc(O)cc2)Oc2cc(O)cc(O)c21
REMARK SMILES IDX 3 1 4 2 12 3 13 4 14 5 15 6 17 7 18 8 20 9 2 10 1 11 5 12
REMARK SMILES IDX 6 13 11 14 7 15 10 16 8 17 9 18 19 20 16 22
REMARK H PARENT 9 19 19 21 16 23
REMARK Flexibility Score: inf
ROOT
ATOM      1  C   UNL     1     -14.098  26.912  51.198  1.00  0.00     0.131 C 
ATOM      2  C   UNL     1     -15.441  27.304  51.834  1.00  0.00     0.211 C 
ATOM      3  O   UNL     1     -16.533  26.806  51.055  1.00  0.00    -0.484 OA
ATOM      4  C   UNL     1     -16.539  26.876  49.657  1.00  0.00     0.138 A 
ATOM      5  C   UNL     1     -17.736  26.678  48.965  1.00  0.00     0.093 A 
ATOM      6  C   UNL     1     -17.767  26.769  47.568  1.00  0.00     0.123 A 
ATOM      7  C   UNL     1     -16.592  27.053  46.865  1.00  0.00     0.093 A 
ATOM      8  C   UNL     1     -15.379  27.235  47.546  1.00  0.00     0.133 A 
ATOM      9  C   UNL     1     -15.347  27.141  48.954  1.00  0.00     0.102 A 
ATOM     10  C   UNL     1     -14.096  27.271  49.739  1.00  0.00     0.174 C 
ATOM     11  O   UNL     1     -13.016  27.627  49.194  1.00  0.00    -0.294 OA
ENDROOT
BRANCH   2  12
ATOM     12  C   UNL     1     -15.534  26.782  53.248  1.00  0.00    -0.007 A 
ATOM     13  C   UNL     1     -15.277  27.635  54.335  1.00  0.00     0.011 A 
ATOM     14  C   UNL     1     -15.824  25.428  53.493  1.00  0.00     0.011 A 
ATOM     15  C   UNL     1     -15.333  27.147  55.643  1.00  0.00     0.046 A 
ATOM     16  C   UNL     1     -15.879  24.943  54.803  1.00  0.00     0.046 A 
ATOM     17  C   UNL     1     -15.634  25.803  55.883  1.00  0.00     0.115 A 
BRANCH  17  18
ATOM     18  O   UNL     1     -15.687  25.330  57.192  1.00  0.00    -0.508 OA
ATOM     19  H   UNL     1     -15.069  24.596  57.516  1.00  0.00     0.293 HD
ENDBRANCH  17  18
ENDBRANCH   2  12
BRANCH   8  20
ATOM     20  O   UNL     1     -14.215  27.499  46.824  1.00  0.00    -0.507 OA
ATOM     21  H   UNL     1     -13.582  26.759  46.545  1.00  0.00     0.293 HD
ENDBRANCH   8  20
BRANCH   6  22
ATOM     22  O   UNL     1     -18.957  26.581  46.870  1.00  0.00    -0.508 OA
ATOM     23  H   UNL     1     -19.700  26.000  47.239  1.00  0.00     0.293 HD
ENDBRANCH   6  22
TORSDOF 4
ENDMDL
MODEL 8
REMARK VINA RESULT:    -6.245     16.422     18.088
REMARK INTER + INTRA:          -7.477
REMARK INTER:                  -7.170
REMARK INTRA:                  -0.308
REMARK UNBOUND:                -0.319
REMARK SMILES O=C1C[C@H](c2ccc(O)cc2)Oc2cc(O)cc(O)c21
REMARK SMILES IDX 3 1 4 2 12 3 13 4 14 5 15 6 17 7 18 8 20 9 2 10 1 11 5 12
REMARK SMILES IDX 6 13 11 14 7 15 10 16 8 17 9 18 19 20 16 22
REMARK H PARENT 9 19 19 21 16 23
REMARK Flexibility Score: inf
ROOT
ATOM      1  C   UNL     1      -6.341  38.832  59.848  1.00  0.00     0.131 C 
ATOM      2  C   UNL     1      -5.369  38.744  61.035  1.00  0.00     0.211 C 
ATOM      3  O   UNL     1      -4.364  37.756  60.791  1.00  0.00    -0.484 OA
ATOM      4  C   UNL     1      -4.669  36.510  60.229  1.00  0.00     0.138 A 
ATOM      5  C   UNL     1      -3.734  35.475  60.304  1.00  0.00     0.093 A 
ATOM      6  C   UNL     1      -4.031  34.215  59.770  1.00  0.00     0.123 A 
ATOM      7  C   UNL     1      -5.267  33.997  59.154  1.00  0.00     0.093 A 
ATOM      8  C   UNL     1      -6.208  35.033  59.054  1.00  0.00     0.133 A 
ATOM      9  C   UNL     1      -5.908  36.304  59.590  1.00  0.00     0.102 A 
ATOM     10  C   UNL     1      -6.830  37.460  59.479  1.00  0.00     0.174 C 
ATOM     11  O   UNL     1      -8.000  37.322  59.032  1.00  0.00    -0.294 OA
ENDROOT
BRANCH   2  12
ATOM     12  C   UNL     1      -4.724  40.084  61.297  1.00  0.00    -0.007 A 
ATOM     13  C   UNL     1      -5.459  41.115  61.908  1.00  0.00     0.011 A 
ATOM     14  C   UNL     1      -3.403  40.335  60.885  1.00  0.00     0.011 A 
ATOM     15  C   UNL     1      -4.874  42.365  62.125  1.00  0.00     0.046 A 
ATOM     16  C   UNL     1      -2.821  41.587  61.103  1.00  0.00     0.046 A 
ATOM     17  C   UNL     1      -3.555  42.606  61.726  1.00  0.00     0.115 A 
BRANCH  17  18
ATOM     18  O   UNL     1      -2.985  43.857  61.948  1.00  0.00    -0.508 OA
ATOM     19  H   UNL     1      -2.499  44.072  62.810  1.00  0.00     0.293 HD
ENDBRANCH  17  18
ENDBRANCH   2  12
BRANCH   8  20
ATOM     20  O   UNL     1      -7.428  34.798  58.419  1.00  0.00    -0.507 OA
ATOM     21  H   UNL     1      -8.282  35.249  58.725  1.00  0.00     0.293 HD
ENDBRANCH   8  20
BRANCH   6  22
ATOM     22  O   UNL     1      -3.108  33.175  59.848  1.00  0.00    -0.508 OA
ATOM     23  H   UNL     1      -2.797  32.681  59.021  1.00  0.00     0.293 HD
ENDBRANCH   6  22
TORSDOF 4
ENDMDL
MODEL 9
REMARK VINA RESULT:    -6.216      2.599      7.671
REMARK INTER + INTRA:          -7.444
REMARK INTER:                  -7.140
REMARK INTRA:                  -0.304
REMARK UNBOUND:                -0.319
REMARK SMILES O=C1C[C@H](c2ccc(O)cc2)Oc2cc(O)cc(O)c21
REMARK SMILES IDX 3 1 4 2 12 3 13 4 14 5 15 6 17 7 18 8 20 9 2 10 1 11 5 12
REMARK SMILES IDX 6 13 11 14 7 15 10 16 8 17 9 18 19 20 16 22
REMARK H PARENT 9 19 19 21 16 23
REMARK Flexibility Score: inf
ROOT
ATOM      1  C   UNL     1     -18.591  31.695  50.715  1.00  0.00     0.131 C 
ATOM      2  C   UNL     1     -17.109  31.898  50.363  1.00  0.00     0.211 C 
ATOM      3  O   UNL     1     -16.432  30.640  50.287  1.00  0.00    -0.484 OA
ATOM      4  C   UNL     1     -16.646  29.624  51.227  1.00  0.00     0.138 A 
ATOM      5  C   UNL     1     -15.748  28.557  51.301  1.00  0.00     0.093 A 
ATOM      6  C   UNL     1     -15.932  27.545  52.251  1.00  0.00     0.123 A 
ATOM      7  C   UNL     1     -17.024  27.601  53.123  1.00  0.00     0.093 A 
ATOM      8  C   UNL     1     -17.945  28.657  53.046  1.00  0.00     0.133 A 
ATOM      9  C   UNL     1     -17.761  29.676  52.086  1.00  0.00     0.102 A 
ATOM     10  C   UNL     1     -18.718  30.795  51.911  1.00  0.00     0.174 C 
ATOM     11  O   UNL     1     -19.668  30.974  52.720  1.00  0.00    -0.294 OA
ENDROOT
BRANCH   2  12
ATOM     12  C   UNL     1     -16.967  32.641  49.057  1.00  0.00    -0.007 A 
ATOM     13  C   UNL     1     -17.058  34.043  49.028  1.00  0.00     0.011 A 
ATOM     14  C   UNL     1     -16.798  31.940  47.850  1.00  0.00     0.011 A 
ATOM     15  C   UNL     1     -16.958  34.732  47.816  1.00  0.00     0.046 A 
ATOM     16  C   UNL     1     -16.698  32.632  46.639  1.00  0.00     0.046 A 
ATOM     17  C   UNL     1     -16.776  34.032  46.620  1.00  0.00     0.115 A 
BRANCH  17  18
ATOM     18  O   UNL     1     -16.677  34.732  45.419  1.00  0.00    -0.508 OA
ATOM     19  H   UNL     1     -17.443  34.757  44.757  1.00  0.00     0.293 HD
ENDBRANCH  17  18
ENDBRANCH   2  12
BRANCH   8  20
ATOM     20  O   UNL     1     -19.037  28.683  53.912  1.00  0.00    -0.507 OA
ATOM     21  H   UNL     1     -19.767  29.380  53.826  1.00  0.00     0.293 HD
ENDBRANCH   8  20
BRANCH   6  22
ATOM     22  O   UNL     1     -15.036  26.482  52.339  1.00  0.00    -0.508 OA
ATOM     23  H   UNL     1     -14.034  26.631  52.321  1.00  0.00     0.293 HD
ENDBRANCH   6  22
TORSDOF 4
ENDMDL
