MODEL 1
REMARK VINA RESULT:    -4.547      0.000      0.000
REMARK INTER + INTRA:          -9.572
REMARK INTER:                  -8.269
REMARK INTRA:                  -1.303
REMARK UNBOUND:                -1.303
REMARK SMILES CCCCCC=CCC=CCCCCCCCC(=O)[O-]
REMARK SMILES IDX 11 1 12 2 13 3 14 4 15 5 16 6 17 7 18 8 19 9 20 10 10 11
REMARK SMILES IDX 9 12 8 13 7 14 6 15 5 16 4 17 3 18 2 19 1 20
REMARK H PARENT
REMARK Flexibility Score: inf
ROOT
ATOM      1  C   UNL     1      -4.436   5.817  -8.755  1.00  0.00     0.027 C 
ENDROOT
BRANCH   1   2
ATOM      2  C   UNL     1      -4.341   7.264  -8.248  1.00  0.00     0.004 C 
BRANCH   2   3
ATOM      3  C   UNL     1      -4.940   7.441  -6.843  1.00  0.00     0.000 C 
BRANCH   3   4
ATOM      4  C   UNL     1      -6.447   7.135  -6.801  1.00  0.00     0.000 C 
BRANCH   4   5
ATOM      5  C   UNL     1      -6.875   6.449  -5.494  1.00  0.00     0.000 C 
BRANCH   5   6
ATOM      6  C   UNL     1      -5.679   6.045  -4.617  1.00  0.00     0.006 C 
BRANCH   6   7
ATOM      7  C   UNL     1      -5.990   4.775  -3.820  1.00  0.00     0.053 C 
BRANCH   7   8
ATOM      8  C   UNL     1      -5.218   3.614  -4.361  1.00  0.00     0.041 C 
ATOM      9  O   UNL     1      -4.697   3.676  -5.506  1.00  0.00    -0.550 OA
ATOM     10  O   UNL     1      -5.115   2.442  -3.621  1.00  0.00    -0.550 OA
ENDBRANCH   7   8
ENDBRANCH   6   7
ENDBRANCH   5   6
ENDBRANCH   4   5
ENDBRANCH   3   4
ENDBRANCH   2   3
ENDBRANCH   1   2
BRANCH   1  11
ATOM     11  C   UNL     1      -5.258   5.742 -10.011  1.00  0.00    -0.031 C 
ATOM     12  C   UNL     1      -5.824   6.833 -10.547  1.00  0.00    -0.027 C 
BRANCH  12  13
ATOM     13  C   UNL     1      -6.690   6.751 -11.772  1.00  0.00     0.054 C 
BRANCH  13  14
ATOM     14  C   UNL     1      -6.627   5.372 -12.363  1.00  0.00    -0.027 C 
ATOM     15  C   UNL     1      -7.411   5.011 -13.391  1.00  0.00    -0.031 C 
BRANCH  15  16
ATOM     16  C   UNL     1      -7.325   3.641 -14.003  1.00  0.00     0.027 C 
BRANCH  16  17
ATOM     17  C   UNL     1      -6.605   3.691 -15.360  1.00  0.00     0.004 C 
BRANCH  17  18
ATOM     18  C   UNL     1      -5.354   2.800 -15.398  1.00  0.00     0.000 C 
BRANCH  18  19
ATOM     19  C   UNL     1      -4.797   2.503 -13.998  1.00  0.00    -0.003 C 
ATOM     20  C   UNL     1      -3.271   2.535 -13.996  1.00  0.00     0.004 C 
ENDBRANCH  18  19
ENDBRANCH  17  18
ENDBRANCH  16  17
ENDBRANCH  15  16
ENDBRANCH  13  14
ENDBRANCH  12  13
ENDBRANCH   1  11
TORSDOF 14
ENDMDL
MODEL 2
REMARK VINA RESULT:    -4.370      1.336      2.003
REMARK INTER + INTRA:          -9.250
REMARK INTER:                  -8.228
REMARK INTRA:                  -1.022
REMARK UNBOUND:                -1.303
REMARK SMILES CCCCCC=CCC=CCCCCCCCC(=O)[O-]
REMARK SMILES IDX 11 1 12 2 13 3 14 4 15 5 16 6 17 7 18 8 19 9 20 10 10 11
REMARK SMILES IDX 9 12 8 13 7 14 6 15 5 16 4 17 3 18 2 19 1 20
REMARK H PARENT
REMARK Flexibility Score: inf
ROOT
ATOM      1  C   UNL     1      -5.171   7.745  -9.322  1.00  0.00     0.027 C 
ENDROOT
BRANCH   1   2
ATOM      2  C   UNL     1      -4.317   6.867  -8.394  1.00  0.00     0.004 C 
BRANCH   2   3
ATOM      3  C   UNL     1      -4.493   5.366  -8.671  1.00  0.00     0.000 C 
BRANCH   3   4
ATOM      4  C   UNL     1      -5.337   4.661  -7.594  1.00  0.00     0.000 C 
BRANCH   4   5
ATOM      5  C   UNL     1      -5.377   5.441  -6.271  1.00  0.00     0.000 C 
BRANCH   5   6
ATOM      6  C   UNL     1      -4.994   4.576  -5.059  1.00  0.00     0.006 C 
BRANCH   6   7
ATOM      7  C   UNL     1      -6.233   4.202  -4.241  1.00  0.00     0.053 C 
BRANCH   7   8
ATOM      8  C   UNL     1      -5.965   2.988  -3.409  1.00  0.00     0.041 C 
ATOM      9  O   UNL     1      -4.924   2.307  -3.597  1.00  0.00    -0.550 OA
ATOM     10  O   UNL     1      -6.891   2.580  -2.456  1.00  0.00    -0.550 OA
ENDBRANCH   7   8
ENDBRANCH   6   7
ENDBRANCH   5   6
ENDBRANCH   4   5
ENDBRANCH   3   4
ENDBRANCH   2   3
ENDBRANCH   1   2
BRANCH   1  11
ATOM     11  C   UNL     1      -5.705   6.943 -10.476  1.00  0.00    -0.031 C 
ATOM     12  C   UNL     1      -6.608   7.453 -11.327  1.00  0.00    -0.027 C 
BRANCH  12  13
ATOM     13  C   UNL     1      -7.183   6.635 -12.448  1.00  0.00     0.054 C 
BRANCH  13  14
ATOM     14  C   UNL     1      -6.539   5.278 -12.487  1.00  0.00    -0.027 C 
ATOM     15  C   UNL     1      -6.316   4.639 -13.646  1.00  0.00    -0.031 C 
BRANCH  15  16
ATOM     16  C   UNL     1      -5.642   3.296 -13.687  1.00  0.00     0.027 C 
BRANCH  16  17
ATOM     17  C   UNL     1      -4.953   3.069 -15.041  1.00  0.00     0.004 C 
BRANCH  17  18
ATOM     18  C   UNL     1      -5.742   3.671 -16.214  1.00  0.00     0.000 C 
BRANCH  18  19
ATOM     19  C   UNL     1      -5.525   2.905 -17.528  1.00  0.00    -0.003 C 
ATOM     20  C   UNL     1      -4.739   1.619 -17.290  1.00  0.00     0.004 C 
ENDBRANCH  18  19
ENDBRANCH  17  18
ENDBRANCH  16  17
ENDBRANCH  15  16
ENDBRANCH  13  14
ENDBRANCH  12  13
ENDBRANCH   1  11
TORSDOF 14
ENDMDL
MODEL 3
REMARK VINA RESULT:    -4.334     12.087     14.076
REMARK INTER + INTRA:          -9.184
REMARK INTER:                  -8.218
REMARK INTRA:                  -0.967
REMARK UNBOUND:                -1.303
REMARK SMILES CCCCCC=CCC=CCCCCCCCC(=O)[O-]
REMARK SMILES IDX 11 1 12 2 13 3 14 4 15 5 16 6 17 7 18 8 19 9 20 10 10 11
REMARK SMILES IDX 9 12 8 13 7 14 6 15 5 16 4 17 3 18 2 19 1 20
REMARK H PARENT
REMARK Flexibility Score: inf
ROOT
ATOM      1  C   UNL     1      -5.307  -6.980  -2.750  1.00  0.00     0.027 C 
ENDROOT
BRANCH   1   2
ATOM      2  C   UNL     1      -4.370  -7.559  -1.679  1.00  0.00     0.004 C 
BRANCH   2   3
ATOM      3  C   UNL     1      -3.630  -6.470  -0.886  1.00  0.00     0.000 C 
BRANCH   3   4
ATOM      4  C   UNL     1      -4.242  -6.231   0.504  1.00  0.00     0.000 C 
BRANCH   4   5
ATOM      5  C   UNL     1      -3.807  -4.891   1.119  1.00  0.00     0.000 C 
BRANCH   5   6
ATOM      6  C   UNL     1      -2.793  -4.138   0.244  1.00  0.00     0.006 C 
BRANCH   6   7
ATOM      7  C   UNL     1      -2.198  -2.946   1.000  1.00  0.00     0.053 C 
BRANCH   7   8
ATOM      8  C   UNL     1      -0.780  -3.224   1.383  1.00  0.00     0.041 C 
ATOM      9  O   UNL     1       0.143  -2.459   0.999  1.00  0.00    -0.550 OA
ATOM     10  O   UNL     1      -0.469  -4.357   2.125  1.00  0.00    -0.550 OA
ENDBRANCH   7   8
ENDBRANCH   6   7
ENDBRANCH   5   6
ENDBRANCH   4   5
ENDBRANCH   3   4
ENDBRANCH   2   3
ENDBRANCH   1   2
BRANCH   1  11
ATOM     11  C   UNL     1      -5.979  -8.079  -3.525  1.00  0.00    -0.031 C 
ATOM     12  C   UNL     1      -5.695  -9.371  -3.303  1.00  0.00    -0.027 C 
BRANCH  12  13
ATOM     13  C   UNL     1      -6.326 -10.467  -4.113  1.00  0.00     0.054 C 
BRANCH  13  14
ATOM     14  C   UNL     1      -6.581  -9.996  -5.516  1.00  0.00    -0.027 C 
ATOM     15  C   UNL     1      -5.924 -10.519  -6.564  1.00  0.00    -0.031 C 
BRANCH  15  16
ATOM     16  C   UNL     1      -6.203 -10.071  -7.971  1.00  0.00     0.027 C 
BRANCH  16  17
ATOM     17  C   UNL     1      -7.059  -8.795  -7.982  1.00  0.00     0.004 C 
BRANCH  17  18
ATOM     18  C   UNL     1      -6.596  -7.782  -9.039  1.00  0.00     0.000 C 
BRANCH  18  19
ATOM     19  C   UNL     1      -5.272  -8.185  -9.705  1.00  0.00    -0.003 C 
ATOM     20  C   UNL     1      -5.124  -7.529 -11.075  1.00  0.00     0.004 C 
ENDBRANCH  18  19
ENDBRANCH  17  18
ENDBRANCH  16  17
ENDBRANCH  15  16
ENDBRANCH  13  14
ENDBRANCH  12  13
ENDBRANCH   1  11
TORSDOF 14
ENDMDL
MODEL 4
REMARK VINA RESULT:    -4.277      1.559      2.660
REMARK INTER + INTRA:          -9.082
REMARK INTER:                  -7.698
REMARK INTRA:                  -1.383
REMARK UNBOUND:                -1.303
REMARK SMILES CCCCCC=CCC=CCCCCCCCC(=O)[O-]
REMARK SMILES IDX 11 1 12 2 13 3 14 4 15 5 16 6 17 7 18 8 19 9 20 10 10 11
REMARK SMILES IDX 9 12 8 13 7 14 6 15 5 16 4 17 3 18 2 19 1 20
REMARK H PARENT
REMARK Flexibility Score: inf
ROOT
ATOM      1  C   UNL     1      -4.322   5.015  -8.453  1.00  0.00     0.027 C 
ENDROOT
BRANCH   1   2
ATOM      2  C   UNL     1      -5.478   4.631  -7.516  1.00  0.00     0.004 C 
BRANCH   2   3
ATOM      3  C   UNL     1      -5.068   4.636  -6.035  1.00  0.00     0.000 C 
BRANCH   3   4
ATOM      4  C   UNL     1      -5.136   6.039  -5.408  1.00  0.00     0.000 C 
BRANCH   4   5
ATOM      5  C   UNL     1      -5.563   6.006  -3.932  1.00  0.00     0.000 C 
BRANCH   5   6
ATOM      6  C   UNL     1      -6.765   5.080  -3.682  1.00  0.00     0.006 C 
BRANCH   6   7
ATOM      7  C   UNL     1      -6.534   4.208  -2.444  1.00  0.00     0.053 C 
BRANCH   7   8
ATOM      8  C   UNL     1      -6.250   2.795  -2.845  1.00  0.00     0.041 C 
ATOM      9  O   UNL     1      -5.124   2.483  -3.314  1.00  0.00    -0.550 OA
ATOM     10  O   UNL     1      -7.246   1.831  -2.746  1.00  0.00    -0.550 OA
ENDBRANCH   7   8
ENDBRANCH   6   7
ENDBRANCH   5   6
ENDBRANCH   4   5
ENDBRANCH   3   4
ENDBRANCH   2   3
ENDBRANCH   1   2
BRANCH   1  11
ATOM     11  C   UNL     1      -4.752   6.074  -9.430  1.00  0.00    -0.031 C 
ATOM     12  C   UNL     1      -4.776   7.372  -9.093  1.00  0.00    -0.027 C 
BRANCH  12  13
ATOM     13  C   UNL     1      -5.257   8.425 -10.051  1.00  0.00     0.054 C 
BRANCH  13  14
ATOM     14  C   UNL     1      -6.091   7.803 -11.134  1.00  0.00    -0.027 C 
ATOM     15  C   UNL     1      -5.935   8.141 -12.423  1.00  0.00    -0.031 C 
BRANCH  15  16
ATOM     16  C   UNL     1      -6.747   7.495 -13.511  1.00  0.00     0.027 C 
BRANCH  16  17
ATOM     17  C   UNL     1      -7.796   6.541 -12.919  1.00  0.00     0.004 C 
BRANCH  17  18
ATOM     18  C   UNL     1      -7.589   5.085 -13.365  1.00  0.00     0.000 C 
BRANCH  18  19
ATOM     19  C   UNL     1      -6.142   4.607 -13.169  1.00  0.00    -0.003 C 
ATOM     20  C   UNL     1      -5.572   4.038 -14.465  1.00  0.00     0.004 C 
ENDBRANCH  18  19
ENDBRANCH  17  18
ENDBRANCH  16  17
ENDBRANCH  15  16
ENDBRANCH  13  14
ENDBRANCH  12  13
ENDBRANCH   1  11
TORSDOF 14
ENDMDL
MODEL 5
REMARK VINA RESULT:    -4.260     11.262     13.609
REMARK INTER + INTRA:          -9.050
REMARK INTER:                  -8.077
REMARK INTRA:                  -0.973
REMARK UNBOUND:                -1.303
REMARK SMILES CCCCCC=CCC=CCCCCCCCC(=O)[O-]
REMARK SMILES IDX 11 1 12 2 13 3 14 4 15 5 16 6 17 7 18 8 19 9 20 10 10 11
REMARK SMILES IDX 9 12 8 13 7 14 6 15 5 16 4 17 3 18 2 19 1 20
REMARK H PARENT
REMARK Flexibility Score: inf
ROOT
ATOM      1  C   UNL     1      -5.591  -8.731  -3.263  1.00  0.00     0.027 C 
ENDROOT
BRANCH   1   2
ATOM      2  C   UNL     1      -5.880  -7.325  -2.715  1.00  0.00     0.004 C 
BRANCH   2   3
ATOM      3  C   UNL     1      -4.600  -6.549  -2.367  1.00  0.00     0.000 C 
BRANCH   3   4
ATOM      4  C   UNL     1      -3.702  -7.306  -1.372  1.00  0.00     0.000 C 
BRANCH   4   5
ATOM      5  C   UNL     1      -4.280  -7.320   0.052  1.00  0.00     0.000 C 
BRANCH   5   6
ATOM      6  C   UNL     1      -4.368  -5.916   0.671  1.00  0.00     0.006 C 
BRANCH   6   7
ATOM      7  C   UNL     1      -3.195  -5.664   1.622  1.00  0.00     0.053 C 
BRANCH   7   8
ATOM      8  C   UNL     1      -2.224  -4.703   1.013  1.00  0.00     0.041 C 
ATOM      9  O   UNL     1      -1.127  -4.463   1.582  1.00  0.00    -0.550 OA
ATOM     10  O   UNL     1      -2.551  -4.034  -0.160  1.00  0.00    -0.550 OA
ENDBRANCH   7   8
ENDBRANCH   6   7
ENDBRANCH   5   6
ENDBRANCH   4   5
ENDBRANCH   3   4
ENDBRANCH   2   3
ENDBRANCH   1   2
BRANCH   1  11
ATOM     11  C   UNL     1      -6.456  -9.030  -4.456  1.00  0.00    -0.031 C 
ATOM     12  C   UNL     1      -6.183 -10.050  -5.283  1.00  0.00    -0.027 C 
BRANCH  12  13
ATOM     13  C   UNL     1      -7.017 -10.317  -6.505  1.00  0.00     0.054 C 
BRANCH  13  14
ATOM     14  C   UNL     1      -6.899  -9.177  -7.475  1.00  0.00    -0.027 C 
ATOM     15  C   UNL     1      -5.944  -9.152  -8.418  1.00  0.00    -0.031 C 
BRANCH  15  16
ATOM     16  C   UNL     1      -5.846  -8.027  -9.410  1.00  0.00     0.027 C 
BRANCH  16  17
ATOM     17  C   UNL     1      -7.135  -7.192  -9.421  1.00  0.00     0.004 C 
BRANCH  17  18
ATOM     18  C   UNL     1      -7.014  -5.930 -10.289  1.00  0.00     0.000 C 
BRANCH  18  19
ATOM     19  C   UNL     1      -6.177  -6.161 -11.555  1.00  0.00    -0.003 C 
ATOM     20  C   UNL     1      -5.574  -4.854 -12.061  1.00  0.00     0.004 C 
ENDBRANCH  18  19
ENDBRANCH  17  18
ENDBRANCH  16  17
ENDBRANCH  15  16
ENDBRANCH  13  14
ENDBRANCH  12  13
ENDBRANCH   1  11
TORSDOF 14
ENDMDL
MODEL 6
REMARK VINA RESULT:    -4.136     11.967     15.478
REMARK INTER + INTRA:          -8.824
REMARK INTER:                  -7.263
REMARK INTRA:                  -1.561
REMARK UNBOUND:                -1.303
REMARK SMILES CCCCCC=CCC=CCCCCCCCC(=O)[O-]
REMARK SMILES IDX 11 1 12 2 13 3 14 4 15 5 16 6 17 7 18 8 19 9 20 10 10 11
REMARK SMILES IDX 9 12 8 13 7 14 6 15 5 16 4 17 3 18 2 19 1 20
REMARK H PARENT
REMARK Flexibility Score: inf
ROOT
ATOM      1  C   UNL     1      -6.902  -5.518 -10.264  1.00  0.00     0.027 C 
ENDROOT
BRANCH   1   2
ATOM      2  C   UNL     1      -5.876  -5.396 -11.401  1.00  0.00     0.004 C 
BRANCH   2   3
ATOM      3  C   UNL     1      -6.429  -5.873 -12.753  1.00  0.00     0.000 C 
BRANCH   3   4
ATOM      4  C   UNL     1      -5.465  -6.822 -13.485  1.00  0.00     0.000 C 
BRANCH   4   5
ATOM      5  C   UNL     1      -5.433  -8.227 -12.863  1.00  0.00     0.000 C 
BRANCH   5   6
ATOM      6  C   UNL     1      -4.028  -8.636 -12.391  1.00  0.00     0.006 C 
BRANCH   6   7
ATOM      7  C   UNL     1      -2.948  -7.933 -13.219  1.00  0.00     0.053 C 
BRANCH   7   8
ATOM      8  C   UNL     1      -2.185  -8.926 -14.036  1.00  0.00     0.041 C 
ATOM      9  O   UNL     1      -2.193 -10.146 -13.722  1.00  0.00    -0.550 OA
ATOM     10  O   UNL     1      -1.422  -8.499 -15.116  1.00  0.00    -0.550 OA
ENDBRANCH   7   8
ENDBRANCH   6   7
ENDBRANCH   5   6
ENDBRANCH   4   5
ENDBRANCH   3   4
ENDBRANCH   2   3
ENDBRANCH   1   2
BRANCH   1  11
ATOM     11  C   UNL     1      -7.044  -6.948  -9.820  1.00  0.00    -0.031 C 
ATOM     12  C   UNL     1      -6.020  -7.617  -9.269  1.00  0.00    -0.027 C 
BRANCH  12  13
ATOM     13  C   UNL     1      -6.145  -9.061  -8.875  1.00  0.00     0.054 C 
BRANCH  13  14
ATOM     14  C   UNL     1      -6.301  -9.184  -7.386  1.00  0.00    -0.027 C 
ATOM     15  C   UNL     1      -7.510  -9.256  -6.809  1.00  0.00    -0.031 C 
BRANCH  15  16
ATOM     16  C   UNL     1      -7.665  -9.411  -5.322  1.00  0.00     0.027 C 
BRANCH  16  17
ATOM     17  C   UNL     1      -6.314  -9.719  -4.659  1.00  0.00     0.004 C 
BRANCH  17  18
ATOM     18  C   UNL     1      -6.326  -9.458  -3.145  1.00  0.00     0.000 C 
BRANCH  18  19
ATOM     19  C   UNL     1      -5.197  -8.516  -2.699  1.00  0.00    -0.003 C 
ATOM     20  C   UNL     1      -5.565  -7.058  -2.957  1.00  0.00     0.004 C 
ENDBRANCH  18  19
ENDBRANCH  17  18
ENDBRANCH  16  17
ENDBRANCH  15  16
ENDBRANCH  13  14
ENDBRANCH  12  13
ENDBRANCH   1  11
TORSDOF 14
ENDMDL
MODEL 7
REMARK VINA RESULT:    -4.121      3.161      8.456
REMARK INTER + INTRA:          -8.797
REMARK INTER:                  -7.638
REMARK INTRA:                  -1.159
REMARK UNBOUND:                -1.303
REMARK SMILES CCCCCC=CCC=CCCCCCCCC(=O)[O-]
REMARK SMILES IDX 11 1 12 2 13 3 14 4 15 5 16 6 17 7 18 8 19 9 20 10 10 11
REMARK SMILES IDX 9 12 8 13 7 14 6 15 5 16 4 17 3 18 2 19 1 20
REMARK H PARENT
REMARK Flexibility Score: inf
ROOT
ATOM      1  C   UNL     1      -5.033   5.941  -9.537  1.00  0.00     0.027 C 
ENDROOT
BRANCH   1   2
ATOM      2  C   UNL     1      -5.525   7.239 -10.196  1.00  0.00     0.004 C 
BRANCH   2   3
ATOM      3  C   UNL     1      -6.309   6.985 -11.493  1.00  0.00     0.000 C 
BRANCH   3   4
ATOM      4  C   UNL     1      -7.133   5.687 -11.441  1.00  0.00     0.000 C 
BRANCH   4   5
ATOM      5  C   UNL     1      -7.193   4.970 -12.799  1.00  0.00     0.000 C 
BRANCH   5   6
ATOM      6  C   UNL     1      -5.843   4.357 -13.206  1.00  0.00     0.006 C 
BRANCH   6   7
ATOM      7  C   UNL     1      -6.048   3.116 -14.079  1.00  0.00     0.053 C 
BRANCH   7   8
ATOM      8  C   UNL     1      -4.742   2.646 -14.638  1.00  0.00     0.041 C 
ATOM      9  O   UNL     1      -4.688   2.150 -15.793  1.00  0.00    -0.550 OA
ATOM     10  O   UNL     1      -3.591   2.711 -13.862  1.00  0.00    -0.550 OA
ENDBRANCH   7   8
ENDBRANCH   6   7
ENDBRANCH   5   6
ENDBRANCH   4   5
ENDBRANCH   3   4
ENDBRANCH   2   3
ENDBRANCH   1   2
BRANCH   1  11
ATOM     11  C   UNL     1      -4.738   6.158  -8.079  1.00  0.00    -0.031 C 
ATOM     12  C   UNL     1      -5.203   7.230  -7.421  1.00  0.00    -0.027 C 
BRANCH  12  13
ATOM     13  C   UNL     1      -4.864   7.476  -5.978  1.00  0.00     0.054 C 
BRANCH  13  14
ATOM     14  C   UNL     1      -5.807   6.721  -5.085  1.00  0.00    -0.027 C 
ATOM     15  C   UNL     1      -5.509   6.468  -3.801  1.00  0.00    -0.031 C 
BRANCH  15  16
ATOM     16  C   UNL     1      -6.465   5.740  -2.899  1.00  0.00     0.027 C 
BRANCH  16  17
ATOM     17  C   UNL     1      -7.215   4.641  -3.667  1.00  0.00     0.004 C 
BRANCH  17  18
ATOM     18  C   UNL     1      -6.839   3.228  -3.194  1.00  0.00     0.000 C 
BRANCH  18  19
ATOM     19  C   UNL     1      -5.432   2.809  -3.645  1.00  0.00    -0.003 C 
ATOM     20  C   UNL     1      -5.194   3.168  -5.108  1.00  0.00     0.004 C 
ENDBRANCH  18  19
ENDBRANCH  17  18
ENDBRANCH  16  17
ENDBRANCH  15  16
ENDBRANCH  13  14
ENDBRANCH  12  13
ENDBRANCH   1  11
TORSDOF 14
ENDMDL
MODEL 8
REMARK VINA RESULT:    -4.085     11.551     15.873
REMARK INTER + INTRA:          -8.733
REMARK INTER:                  -8.000
REMARK INTRA:                  -0.733
REMARK UNBOUND:                -1.303
REMARK SMILES CCCCCC=CCC=CCCCCCCCC(=O)[O-]
REMARK SMILES IDX 11 1 12 2 13 3 14 4 15 5 16 6 17 7 18 8 19 9 20 10 10 11
REMARK SMILES IDX 9 12 8 13 7 14 6 15 5 16 4 17 3 18 2 19 1 20
REMARK H PARENT
REMARK Flexibility Score: inf
ROOT
ATOM      1  C   UNL     1      -5.644 -10.824  -6.151  1.00  0.00     0.027 C 
ENDROOT
BRANCH   1   2
ATOM      2  C   UNL     1      -6.162  -9.938  -7.296  1.00  0.00     0.004 C 
BRANCH   2   3
ATOM      3  C   UNL     1      -5.452 -10.218  -8.629  1.00  0.00     0.000 C 
BRANCH   3   4
ATOM      4  C   UNL     1      -5.942  -9.301  -9.763  1.00  0.00     0.000 C 
BRANCH   4   5
ATOM      5  C   UNL     1      -5.489  -7.843  -9.581  1.00  0.00     0.000 C 
BRANCH   5   6
ATOM      6  C   UNL     1      -6.612  -6.833  -9.868  1.00  0.00     0.006 C 
BRANCH   6   7
ATOM      7  C   UNL     1      -6.702  -6.527 -11.366  1.00  0.00     0.053 C 
BRANCH   7   8
ATOM      8  C   UNL     1      -5.498  -5.765 -11.819  1.00  0.00     0.041 C 
ATOM      9  O   UNL     1      -4.628  -6.321 -12.539  1.00  0.00    -0.550 OA
ATOM     10  O   UNL     1      -5.310  -4.452 -11.404  1.00  0.00    -0.550 OA
ENDBRANCH   7   8
ENDBRANCH   6   7
ENDBRANCH   5   6
ENDBRANCH   4   5
ENDBRANCH   3   4
ENDBRANCH   2   3
ENDBRANCH   1   2
BRANCH   1  11
ATOM     11  C   UNL     1      -6.035 -10.255  -4.815  1.00  0.00    -0.031 C 
ATOM     12  C   UNL     1      -6.666  -9.077  -4.710  1.00  0.00    -0.027 C 
BRANCH  12  13
ATOM     13  C   UNL     1      -7.009  -8.483  -3.374  1.00  0.00     0.054 C 
BRANCH  13  14
ATOM     14  C   UNL     1      -6.099  -7.328  -3.068  1.00  0.00    -0.027 C 
ATOM     15  C   UNL     1      -5.141  -7.416  -2.132  1.00  0.00    -0.031 C 
BRANCH  15  16
ATOM     16  C   UNL     1      -4.210  -6.271  -1.848  1.00  0.00     0.027 C 
BRANCH  16  17
ATOM     17  C   UNL     1      -3.689  -6.333  -0.404  1.00  0.00     0.004 C 
BRANCH  17  18
ATOM     18  C   UNL     1      -4.060  -5.086   0.413  1.00  0.00     0.000 C 
BRANCH  18  19
ATOM     19  C   UNL     1      -2.940  -4.035   0.430  1.00  0.00    -0.003 C 
ATOM     20  C   UNL     1      -2.548  -3.672   1.859  1.00  0.00     0.004 C 
ENDBRANCH  18  19
ENDBRANCH  17  18
ENDBRANCH  16  17
ENDBRANCH  15  16
ENDBRANCH  13  14
ENDBRANCH  12  13
ENDBRANCH   1  11
TORSDOF 14
ENDMDL
MODEL 9
REMARK VINA RESULT:    -3.990      3.214      8.512
REMARK INTER + INTRA:          -8.558
REMARK INTER:                  -7.505
REMARK INTRA:                  -1.053
REMARK UNBOUND:                -1.303
REMARK SMILES CCCCCC=CCC=CCCCCCCCC(=O)[O-]
REMARK SMILES IDX 11 1 12 2 13 3 14 4 15 5 16 6 17 7 18 8 19 9 20 10 10 11
REMARK SMILES IDX 9 12 8 13 7 14 6 15 5 16 4 17 3 18 2 19 1 20
REMARK H PARENT
REMARK Flexibility Score: inf
ROOT
ATOM      1  C   UNL     1      -7.083   5.769 -11.019  1.00  0.00     0.027 C 
ENDROOT
BRANCH   1   2
ATOM      2  C   UNL     1      -6.947   6.856 -12.096  1.00  0.00     0.004 C 
BRANCH   2   3
ATOM      3  C   UNL     1      -7.740   6.530 -13.371  1.00  0.00     0.000 C 
BRANCH   3   4
ATOM      4  C   UNL     1      -6.865   5.897 -14.466  1.00  0.00     0.000 C 
BRANCH   4   5
ATOM      5  C   UNL     1      -7.377   4.516 -14.907  1.00  0.00     0.000 C 
BRANCH   5   6
ATOM      6  C   UNL     1      -6.861   3.378 -14.012  1.00  0.00     0.006 C 
BRANCH   6   7
ATOM      7  C   UNL     1      -5.386   3.589 -13.656  1.00  0.00     0.053 C 
BRANCH   7   8
ATOM      8  C   UNL     1      -4.515   2.698 -14.483  1.00  0.00     0.041 C 
ATOM      9  O   UNL     1      -4.912   2.286 -15.605  1.00  0.00    -0.550 OA
ATOM     10  O   UNL     1      -3.283   2.280 -13.993  1.00  0.00    -0.550 OA
ENDBRANCH   7   8
ENDBRANCH   6   7
ENDBRANCH   5   6
ENDBRANCH   4   5
ENDBRANCH   3   4
ENDBRANCH   2   3
ENDBRANCH   1   2
BRANCH   1  11
ATOM     11  C   UNL     1      -6.299   6.133  -9.788  1.00  0.00    -0.031 C 
ATOM     12  C   UNL     1      -5.229   6.939  -9.850  1.00  0.00    -0.027 C 
BRANCH  12  13
ATOM     13  C   UNL     1      -4.413   7.259  -8.630  1.00  0.00     0.054 C 
BRANCH  13  14
ATOM     14  C   UNL     1      -5.070   6.699  -7.402  1.00  0.00    -0.027 C 
ATOM     15  C   UNL     1      -5.403   7.482  -6.364  1.00  0.00    -0.031 C 
BRANCH  15  16
ATOM     16  C   UNL     1      -6.090   6.926  -5.147  1.00  0.00     0.027 C 
BRANCH  16  17
ATOM     17  C   UNL     1      -5.108   6.121  -4.282  1.00  0.00     0.004 C 
BRANCH  17  18
ATOM     18  C   UNL     1      -5.059   4.636  -4.671  1.00  0.00     0.000 C 
BRANCH  18  19
ATOM     19  C   UNL     1      -5.981   3.767  -3.802  1.00  0.00    -0.003 C 
ATOM     20  C   UNL     1      -6.544   4.565  -2.630  1.00  0.00     0.004 C 
ENDBRANCH  18  19
ENDBRANCH  17  18
ENDBRANCH  16  17
ENDBRANCH  15  16
ENDBRANCH  13  14
ENDBRANCH  12  13
ENDBRANCH   1  11
TORSDOF 14
ENDMDL
