MODEL 1
REMARK VINA RESULT:    -3.493      0.000      0.000
REMARK INTER + INTRA:          -8.202
REMARK INTER:                  -6.556
REMARK INTRA:                  -1.645
REMARK UNBOUND:                -1.645
REMARK SMILES CCCCCCCCC=CCCCCCCCC(=O)[O-]
REMARK SMILES IDX 10 1 9 2 11 3 12 4 13 5 14 6 15 7 16 8 17 9 18 10 19 11
REMARK SMILES IDX 20 12 8 13 7 14 6 15 5 16 4 17 3 18 2 19 1 20
REMARK H PARENT
REMARK Flexibility Score: inf
ROOT
ATOM      1  C   UNL     1     -17.751 -22.229   4.111  1.00  0.00    -0.031 C 
ATOM      2  C   UNL     1     -16.942 -21.322   3.533  1.00  0.00    -0.031 C 
ENDROOT
BRANCH   1   3
ATOM      3  C   UNL     1     -18.001 -23.621   3.582  1.00  0.00     0.027 C 
BRANCH   3   4
ATOM      4  C   UNL     1     -17.872 -24.681   4.687  1.00  0.00     0.004 C 
BRANCH   4   5
ATOM      5  C   UNL     1     -16.803 -24.355   5.749  1.00  0.00     0.000 C 
BRANCH   5   6
ATOM      6  C   UNL     1     -17.299 -24.393   7.207  1.00  0.00     0.000 C 
BRANCH   6   7
ATOM      7  C   UNL     1     -16.370 -23.668   8.202  1.00  0.00     0.000 C 
BRANCH   7   8
ATOM      8  C   UNL     1     -15.225 -22.916   7.498  1.00  0.00     0.006 C 
BRANCH   8   9
ATOM      9  C   UNL     1     -14.778 -21.675   8.282  1.00  0.00     0.053 C 
BRANCH   9  10
ATOM     10  C   UNL     1     -15.381 -20.421   7.725  1.00  0.00     0.041 C 
ATOM     11  O   UNL     1     -14.882 -19.300   8.006  1.00  0.00    -0.550 OA
ATOM     12  O   UNL     1     -16.473 -20.494   6.868  1.00  0.00    -0.550 OA
ENDBRANCH   9  10
ENDBRANCH   8   9
ENDBRANCH   7   8
ENDBRANCH   6   7
ENDBRANCH   5   6
ENDBRANCH   4   5
ENDBRANCH   3   4
ENDBRANCH   1   3
BRANCH   2  13
ATOM     13  C   UNL     1     -16.123 -21.557   2.286  1.00  0.00     0.027 C 
BRANCH  13  14
ATOM     14  C   UNL     1     -15.372 -20.300   1.822  1.00  0.00     0.004 C 
BRANCH  14  15
ATOM     15  C   UNL     1     -14.094 -20.644   1.039  1.00  0.00     0.000 C 
BRANCH  15  16
ATOM     16  C   UNL     1     -13.875 -22.160   0.888  1.00  0.00     0.000 C 
BRANCH  16  17
ATOM     17  C   UNL     1     -13.956 -22.691  -0.559  1.00  0.00    -0.000 C 
BRANCH  17  18
ATOM     18  C   UNL     1     -15.326 -23.261  -0.971  1.00  0.00    -0.000 C 
BRANCH  18  19
ATOM     19  C   UNL     1     -15.566 -24.681  -0.435  1.00  0.00    -0.003 C 
ATOM     20  C   UNL     1     -16.926 -24.787   0.246  1.00  0.00     0.004 C 
ENDBRANCH  18  19
ENDBRANCH  17  18
ENDBRANCH  16  17
ENDBRANCH  15  16
ENDBRANCH  14  15
ENDBRANCH  13  14
ENDBRANCH   2  13
TORSDOF 15
ENDMDL
MODEL 2
REMARK VINA RESULT:    -3.486      2.519      6.556
REMARK INTER + INTRA:          -8.189
REMARK INTER:                  -5.943
REMARK INTRA:                  -2.245
REMARK UNBOUND:                -1.645
REMARK SMILES CCCCCCCCC=CCCCCCCCC(=O)[O-]
REMARK SMILES IDX 10 1 9 2 11 3 12 4 13 5 14 6 15 7 16 8 17 9 18 10 19 11
REMARK SMILES IDX 20 12 8 13 7 14 6 15 5 16 4 17 3 18 2 19 1 20
REMARK H PARENT
REMARK Flexibility Score: inf
ROOT
ATOM      1  C   UNL     1     -16.492 -20.029   5.559  1.00  0.00    -0.031 C 
ATOM      2  C   UNL     1     -16.018 -19.362   6.627  1.00  0.00    -0.031 C 
ENDROOT
BRANCH   1   3
ATOM      3  C   UNL     1     -16.842 -21.498   5.547  1.00  0.00     0.027 C 
BRANCH   3   4
ATOM      4  C   UNL     1     -17.475 -21.921   4.211  1.00  0.00     0.004 C 
BRANCH   4   5
ATOM      5  C   UNL     1     -17.908 -23.399   4.162  1.00  0.00     0.000 C 
BRANCH   5   6
ATOM      6  C   UNL     1     -16.753 -24.412   4.037  1.00  0.00     0.000 C 
BRANCH   6   7
ATOM      7  C   UNL     1     -16.684 -25.114   2.665  1.00  0.00     0.000 C 
BRANCH   7   8
ATOM      8  C   UNL     1     -16.440 -24.127   1.510  1.00  0.00     0.006 C 
BRANCH   8   9
ATOM      9  C   UNL     1     -15.017 -23.552   1.528  1.00  0.00     0.053 C 
BRANCH   9  10
ATOM     10  C   UNL     1     -14.955 -22.205   0.875  1.00  0.00     0.041 C 
ATOM     11  O   UNL     1     -14.558 -22.095  -0.314  1.00  0.00    -0.550 OA
ATOM     12  O   UNL     1     -15.369 -21.074   1.571  1.00  0.00    -0.550 OA
ENDBRANCH   9  10
ENDBRANCH   8   9
ENDBRANCH   7   8
ENDBRANCH   6   7
ENDBRANCH   5   6
ENDBRANCH   4   5
ENDBRANCH   3   4
ENDBRANCH   1   3
BRANCH   2  13
ATOM     13  C   UNL     1     -15.792 -19.960   7.995  1.00  0.00     0.027 C 
BRANCH  13  14
ATOM     14  C   UNL     1     -14.338 -20.404   8.218  1.00  0.00     0.004 C 
BRANCH  14  15
ATOM     15  C   UNL     1     -14.247 -21.841   8.756  1.00  0.00     0.000 C 
BRANCH  15  16
ATOM     16  C   UNL     1     -14.271 -22.901   7.640  1.00  0.00     0.000 C 
BRANCH  16  17
ATOM     17  C   UNL     1     -15.246 -24.075   7.874  1.00  0.00    -0.000 C 
BRANCH  17  18
ATOM     18  C   UNL     1     -16.274 -23.857   8.999  1.00  0.00    -0.000 C 
BRANCH  18  19
ATOM     19  C   UNL     1     -17.707 -23.685   8.472  1.00  0.00    -0.003 C 
ATOM     20  C   UNL     1     -18.256 -22.305   8.818  1.00  0.00     0.004 C 
ENDBRANCH  18  19
ENDBRANCH  17  18
ENDBRANCH  16  17
ENDBRANCH  15  16
ENDBRANCH  14  15
ENDBRANCH  13  14
ENDBRANCH   2  13
TORSDOF 15
ENDMDL
MODEL 3
REMARK VINA RESULT:    -3.407      1.402      2.996
REMARK INTER + INTRA:          -8.040
REMARK INTER:                  -6.267
REMARK INTRA:                  -1.773
REMARK UNBOUND:                -1.645
REMARK SMILES CCCCCCCCC=CCCCCCCCC(=O)[O-]
REMARK SMILES IDX 10 1 9 2 11 3 12 4 13 5 14 6 15 7 16 8 17 9 18 10 19 11
REMARK SMILES IDX 20 12 8 13 7 14 6 15 5 16 4 17 3 18 2 19 1 20
REMARK H PARENT
REMARK Flexibility Score: inf
ROOT
ATOM      1  C   UNL     1     -17.667 -22.256   3.852  1.00  0.00    -0.031 C 
ATOM      2  C   UNL     1     -17.787 -23.506   3.366  1.00  0.00    -0.031 C 
ENDROOT
BRANCH   1   3
ATOM      3  C   UNL     1     -16.817 -21.872   5.040  1.00  0.00     0.027 C 
BRANCH   3   4
ATOM      4  C   UNL     1     -17.465 -22.302   6.366  1.00  0.00     0.004 C 
BRANCH   4   5
ATOM      5  C   UNL     1     -16.686 -23.398   7.119  1.00  0.00     0.000 C 
BRANCH   5   6
ATOM      6  C   UNL     1     -15.838 -22.898   8.304  1.00  0.00     0.000 C 
BRANCH   6   7
ATOM      7  C   UNL     1     -14.467 -22.325   7.892  1.00  0.00     0.000 C 
BRANCH   7   8
ATOM      8  C   UNL     1     -14.271 -20.871   8.357  1.00  0.00     0.006 C 
BRANCH   8   9
ATOM      9  C   UNL     1     -15.554 -20.041   8.225  1.00  0.00     0.053 C 
BRANCH   9  10
ATOM     10  C   UNL     1     -15.332 -18.801   7.413  1.00  0.00     0.041 C 
ATOM     11  O   UNL     1     -16.080 -18.543   6.434  1.00  0.00    -0.550 OA
ATOM     12  O   UNL     1     -14.320 -17.914   7.760  1.00  0.00    -0.550 OA
ENDBRANCH   9  10
ENDBRANCH   8   9
ENDBRANCH   7   8
ENDBRANCH   6   7
ENDBRANCH   5   6
ENDBRANCH   4   5
ENDBRANCH   3   4
ENDBRANCH   1   3
BRANCH   2  13
ATOM     13  C   UNL     1     -17.065 -24.720   3.901  1.00  0.00     0.027 C 
BRANCH  13  14
ATOM     14  C   UNL     1     -15.702 -24.945   3.230  1.00  0.00     0.004 C 
BRANCH  14  15
ATOM     15  C   UNL     1     -15.702 -24.508   1.756  1.00  0.00     0.000 C 
BRANCH  15  16
ATOM     16  C   UNL     1     -14.287 -24.429   1.155  1.00  0.00     0.000 C 
BRANCH  16  17
ATOM     17  C   UNL     1     -13.910 -23.062   0.546  1.00  0.00    -0.000 C 
BRANCH  17  18
ATOM     18  C   UNL     1     -14.979 -21.964   0.694  1.00  0.00    -0.000 C 
BRANCH  18  19
ATOM     19  C   UNL     1     -14.408 -20.646   1.239  1.00  0.00    -0.003 C 
ATOM     20  C   UNL     1     -15.474 -19.859   1.995  1.00  0.00     0.004 C 
ENDBRANCH  18  19
ENDBRANCH  17  18
ENDBRANCH  16  17
ENDBRANCH  15  16
ENDBRANCH  14  15
ENDBRANCH  13  14
ENDBRANCH   2  13
TORSDOF 15
ENDMDL
MODEL 4
REMARK VINA RESULT:    -3.369      4.722      9.014
REMARK INTER + INTRA:          -7.968
REMARK INTER:                  -6.859
REMARK INTRA:                  -1.109
REMARK UNBOUND:                -1.645
REMARK SMILES CCCCCCCCC=CCCCCCCCC(=O)[O-]
REMARK SMILES IDX 10 1 9 2 11 3 12 4 13 5 14 6 15 7 16 8 17 9 18 10 19 11
REMARK SMILES IDX 20 12 8 13 7 14 6 15 5 16 4 17 3 18 2 19 1 20
REMARK H PARENT
REMARK Flexibility Score: inf
ROOT
ATOM      1  C   UNL     1     -16.558 -21.976   2.737  1.00  0.00    -0.031 C 
ATOM      2  C   UNL     1     -17.427 -22.335   3.700  1.00  0.00    -0.031 C 
ENDROOT
BRANCH   1   3
ATOM      3  C   UNL     1     -16.004 -22.908   1.686  1.00  0.00     0.027 C 
BRANCH   3   4
ATOM      4  C   UNL     1     -15.028 -22.186   0.743  1.00  0.00     0.004 C 
BRANCH   4   5
ATOM      5  C   UNL     1     -14.725 -22.957  -0.557  1.00  0.00     0.000 C 
BRANCH   5   6
ATOM      6  C   UNL     1     -15.941 -23.647  -1.204  1.00  0.00     0.000 C 
BRANCH   6   7
ATOM      7  C   UNL     1     -15.590 -24.498  -2.442  1.00  0.00     0.000 C 
BRANCH   7   8
ATOM      8  C   UNL     1     -14.557 -23.812  -3.355  1.00  0.00     0.006 C 
BRANCH   8   9
ATOM      9  C   UNL     1     -14.346 -24.577  -4.668  1.00  0.00     0.053 C 
BRANCH   9  10
ATOM     10  C   UNL     1     -14.263 -23.650  -5.842  1.00  0.00     0.041 C 
ATOM     11  O   UNL     1     -14.272 -22.403  -5.667  1.00  0.00    -0.550 OA
ATOM     12  O   UNL     1     -14.142 -24.164  -7.128  1.00  0.00    -0.550 OA
ENDBRANCH   9  10
ENDBRANCH   8   9
ENDBRANCH   7   8
ENDBRANCH   6   7
ENDBRANCH   5   6
ENDBRANCH   4   5
ENDBRANCH   3   4
ENDBRANCH   1   3
BRANCH   2  13
ATOM     13  C   UNL     1     -18.018 -23.715   3.867  1.00  0.00     0.027 C 
BRANCH  13  14
ATOM     14  C   UNL     1     -17.246 -24.574   4.880  1.00  0.00     0.004 C 
BRANCH  14  15
ATOM     15  C   UNL     1     -17.213 -23.935   6.278  1.00  0.00     0.000 C 
BRANCH  15  16
ATOM     16  C   UNL     1     -15.795 -23.523   6.715  1.00  0.00     0.000 C 
BRANCH  16  17
ATOM     17  C   UNL     1     -15.734 -22.335   7.698  1.00  0.00    -0.000 C 
BRANCH  17  18
ATOM     18  C   UNL     1     -16.787 -21.237   7.464  1.00  0.00    -0.000 C 
BRANCH  18  19
ATOM     19  C   UNL     1     -16.171 -19.913   6.988  1.00  0.00    -0.003 C 
ATOM     20  C   UNL     1     -14.969 -19.529   7.845  1.00  0.00     0.004 C 
ENDBRANCH  18  19
ENDBRANCH  17  18
ENDBRANCH  16  17
ENDBRANCH  15  16
ENDBRANCH  14  15
ENDBRANCH  13  14
ENDBRANCH   2  13
TORSDOF 15
ENDMDL
MODEL 5
REMARK VINA RESULT:    -3.302      3.456      7.426
REMARK INTER + INTRA:          -7.843
REMARK INTER:                  -6.058
REMARK INTRA:                  -1.785
REMARK UNBOUND:                -1.645
REMARK SMILES CCCCCCCCC=CCCCCCCCC(=O)[O-]
REMARK SMILES IDX 10 1 9 2 11 3 12 4 13 5 14 6 15 7 16 8 17 9 18 10 19 11
REMARK SMILES IDX 20 12 8 13 7 14 6 15 5 16 4 17 3 18 2 19 1 20
REMARK H PARENT
REMARK Flexibility Score: inf
ROOT
ATOM      1  C   UNL     1     -17.491 -22.777   4.260  1.00  0.00    -0.031 C 
ATOM      2  C   UNL     1     -17.079 -22.864   5.539  1.00  0.00    -0.031 C 
ENDROOT
BRANCH   1   3
ATOM      3  C   UNL     1     -18.152 -23.895   3.490  1.00  0.00     0.027 C 
BRANCH   3   4
ATOM      4  C   UNL     1     -17.248 -24.424   2.367  1.00  0.00     0.004 C 
BRANCH   4   5
ATOM      5  C   UNL     1     -15.785 -24.657   2.795  1.00  0.00     0.000 C 
BRANCH   5   6
ATOM      6  C   UNL     1     -14.732 -23.921   1.943  1.00  0.00     0.000 C 
BRANCH   6   7
ATOM      7  C   UNL     1     -15.208 -22.555   1.408  1.00  0.00     0.000 C 
BRANCH   7   8
ATOM      8  C   UNL     1     -14.847 -22.344  -0.074  1.00  0.00     0.006 C 
BRANCH   8   9
ATOM      9  C   UNL     1     -14.589 -23.669  -0.803  1.00  0.00     0.053 C 
BRANCH   9  10
ATOM     10  C   UNL     1     -15.492 -23.836  -1.986  1.00  0.00     0.041 C 
ATOM     11  O   UNL     1     -16.736 -23.685  -1.860  1.00  0.00    -0.550 OA
ATOM     12  O   UNL     1     -14.957 -24.125  -3.236  1.00  0.00    -0.550 OA
ENDBRANCH   9  10
ENDBRANCH   8   9
ENDBRANCH   7   8
ENDBRANCH   6   7
ENDBRANCH   5   6
ENDBRANCH   4   5
ENDBRANCH   3   4
ENDBRANCH   1   3
BRANCH   2  13
ATOM     13  C   UNL     1     -17.243 -24.078   6.424  1.00  0.00     0.027 C 
BRANCH  13  14
ATOM     14  C   UNL     1     -16.347 -24.029   7.671  1.00  0.00     0.004 C 
BRANCH  14  15
ATOM     15  C   UNL     1     -14.853 -24.093   7.316  1.00  0.00     0.000 C 
BRANCH  15  16
ATOM     16  C   UNL     1     -14.078 -22.838   7.757  1.00  0.00     0.000 C 
BRANCH  16  17
ATOM     17  C   UNL     1     -14.902 -21.810   8.560  1.00  0.00    -0.000 C 
BRANCH  17  18
ATOM     18  C   UNL     1     -14.886 -20.376   7.999  1.00  0.00    -0.000 C 
BRANCH  18  19
ATOM     19  C   UNL     1     -16.268 -19.907   7.522  1.00  0.00    -0.003 C 
ATOM     20  C   UNL     1     -16.141 -18.798   6.483  1.00  0.00     0.004 C 
ENDBRANCH  18  19
ENDBRANCH  17  18
ENDBRANCH  16  17
ENDBRANCH  15  16
ENDBRANCH  14  15
ENDBRANCH  13  14
ENDBRANCH   2  13
TORSDOF 15
ENDMDL
MODEL 6
REMARK VINA RESULT:    -3.265      1.867      3.977
REMARK INTER + INTRA:          -7.774
REMARK INTER:                  -5.782
REMARK INTRA:                  -1.991
REMARK UNBOUND:                -1.645
REMARK SMILES CCCCCCCCC=CCCCCCCCC(=O)[O-]
REMARK SMILES IDX 10 1 9 2 11 3 12 4 13 5 14 6 15 7 16 8 17 9 18 10 19 11
REMARK SMILES IDX 20 12 8 13 7 14 6 15 5 16 4 17 3 18 2 19 1 20
REMARK H PARENT
REMARK Flexibility Score: inf
ROOT
ATOM      1  C   UNL     1     -16.563 -20.338   4.175  1.00  0.00    -0.031 C 
ATOM      2  C   UNL     1     -17.193 -21.325   3.511  1.00  0.00    -0.031 C 
ENDROOT
BRANCH   1   3
ATOM      3  C   UNL     1     -16.514 -20.206   5.678  1.00  0.00     0.027 C 
BRANCH   3   4
ATOM      4  C   UNL     1     -16.230 -18.760   6.113  1.00  0.00     0.004 C 
BRANCH   4   5
ATOM      5  C   UNL     1     -15.154 -18.633   7.210  1.00  0.00     0.000 C 
BRANCH   5   6
ATOM      6  C   UNL     1     -15.178 -19.743   8.278  1.00  0.00     0.000 C 
BRANCH   6   7
ATOM      7  C   UNL     1     -13.911 -20.622   8.292  1.00  0.00     0.000 C 
BRANCH   7   8
ATOM      8  C   UNL     1     -14.230 -22.113   8.505  1.00  0.00     0.006 C 
BRANCH   8   9
ATOM      9  C   UNL     1     -15.736 -22.398   8.454  1.00  0.00     0.053 C 
BRANCH   9  10
ATOM     10  C   UNL     1     -16.063 -23.482   7.473  1.00  0.00     0.041 C 
ATOM     11  O   UNL     1     -15.142 -24.065   6.843  1.00  0.00    -0.550 OA
ATOM     12  O   UNL     1     -17.384 -23.872   7.280  1.00  0.00    -0.550 OA
ENDBRANCH   9  10
ENDBRANCH   8   9
ENDBRANCH   7   8
ENDBRANCH   6   7
ENDBRANCH   5   6
ENDBRANCH   4   5
ENDBRANCH   3   4
ENDBRANCH   1   3
BRANCH   2  13
ATOM     13  C   UNL     1     -17.920 -22.481   4.157  1.00  0.00     0.027 C 
BRANCH  13  14
ATOM     14  C   UNL     1     -17.877 -23.760   3.306  1.00  0.00     0.004 C 
BRANCH  14  15
ATOM     15  C   UNL     1     -16.798 -24.742   3.790  1.00  0.00     0.000 C 
BRANCH  15  16
ATOM     16  C   UNL     1     -15.460 -24.575   3.047  1.00  0.00     0.000 C 
BRANCH  16  17
ATOM     17  C   UNL     1     -15.568 -23.957   1.637  1.00  0.00    -0.000 C 
BRANCH  17  18
ATOM     18  C   UNL     1     -14.351 -23.126   1.192  1.00  0.00    -0.000 C 
BRANCH  18  19
ATOM     19  C   UNL     1     -14.745 -21.842   0.447  1.00  0.00    -0.003 C 
ATOM     20  C   UNL     1     -14.261 -20.604   1.195  1.00  0.00     0.004 C 
ENDBRANCH  18  19
ENDBRANCH  17  18
ENDBRANCH  16  17
ENDBRANCH  15  16
ENDBRANCH  14  15
ENDBRANCH  13  14
ENDBRANCH   2  13
TORSDOF 15
ENDMDL
MODEL 7
REMARK VINA RESULT:    -3.245      1.507      2.275
REMARK INTER + INTRA:          -7.736
REMARK INTER:                  -6.135
REMARK INTRA:                  -1.601
REMARK UNBOUND:                -1.645
REMARK SMILES CCCCCCCCC=CCCCCCCCC(=O)[O-]
REMARK SMILES IDX 10 1 9 2 11 3 12 4 13 5 14 6 15 7 16 8 17 9 18 10 19 11
REMARK SMILES IDX 20 12 8 13 7 14 6 15 5 16 4 17 3 18 2 19 1 20
REMARK H PARENT
REMARK Flexibility Score: inf
ROOT
ATOM      1  C   UNL     1     -17.638 -23.779   4.906  1.00  0.00    -0.031 C 
ATOM      2  C   UNL     1     -17.769 -23.574   3.582  1.00  0.00    -0.031 C 
ENDROOT
BRANCH   1   3
ATOM      3  C   UNL     1     -17.370 -25.120   5.547  1.00  0.00     0.027 C 
BRANCH   3   4
ATOM      4  C   UNL     1     -17.751 -25.125   7.035  1.00  0.00     0.004 C 
BRANCH   4   5
ATOM      5  C   UNL     1     -16.565 -24.879   7.988  1.00  0.00     0.000 C 
BRANCH   5   6
ATOM      6  C   UNL     1     -16.728 -23.674   8.935  1.00  0.00     0.000 C 
BRANCH   6   7
ATOM      7  C   UNL     1     -17.997 -22.839   8.668  1.00  0.00     0.000 C 
BRANCH   7   8
ATOM      8  C   UNL     1     -17.680 -21.365   8.362  1.00  0.00     0.006 C 
BRANCH   8   9
ATOM      9  C   UNL     1     -16.473 -21.212   7.428  1.00  0.00     0.053 C 
BRANCH   9  10
ATOM     10  C   UNL     1     -15.938 -19.812   7.437  1.00  0.00     0.041 C 
ATOM     11  O   UNL     1     -15.146 -19.443   8.343  1.00  0.00    -0.550 OA
ATOM     12  O   UNL     1     -16.289 -18.927   6.425  1.00  0.00    -0.550 OA
ENDBRANCH   9  10
ENDBRANCH   8   9
ENDBRANCH   7   8
ENDBRANCH   6   7
ENDBRANCH   5   6
ENDBRANCH   4   5
ENDBRANCH   3   4
ENDBRANCH   1   3
BRANCH   2  13
ATOM     13  C   UNL     1     -17.633 -24.639   2.519  1.00  0.00     0.027 C 
BRANCH  13  14
ATOM     14  C   UNL     1     -16.517 -24.331   1.508  1.00  0.00     0.004 C 
BRANCH  14  15
ATOM     15  C   UNL     1     -15.955 -22.911   1.680  1.00  0.00     0.000 C 
BRANCH  15  16
ATOM     16  C   UNL     1     -14.984 -22.511   0.554  1.00  0.00     0.000 C 
BRANCH  16  17
ATOM     17  C   UNL     1     -13.964 -23.598   0.153  1.00  0.00    -0.000 C 
BRANCH  17  18
ATOM     18  C   UNL     1     -14.140 -24.168  -1.266  1.00  0.00    -0.000 C 
BRANCH  18  19
ATOM     19  C   UNL     1     -15.400 -23.641  -1.969  1.00  0.00    -0.003 C 
ATOM     20  C   UNL     1     -16.425 -24.754  -2.161  1.00  0.00     0.004 C 
ENDBRANCH  18  19
ENDBRANCH  17  18
ENDBRANCH  16  17
ENDBRANCH  15  16
ENDBRANCH  14  15
ENDBRANCH  13  14
ENDBRANCH   2  13
TORSDOF 15
ENDMDL
MODEL 8
REMARK VINA RESULT:    -3.221      2.925      6.826
REMARK INTER + INTRA:          -7.691
REMARK INTER:                  -5.912
REMARK INTRA:                  -1.779
REMARK UNBOUND:                -1.645
REMARK SMILES CCCCCCCCC=CCCCCCCCC(=O)[O-]
REMARK SMILES IDX 10 1 9 2 11 3 12 4 13 5 14 6 15 7 16 8 17 9 18 10 19 11
REMARK SMILES IDX 20 12 8 13 7 14 6 15 5 16 4 17 3 18 2 19 1 20
REMARK H PARENT
REMARK Flexibility Score: inf
ROOT
ATOM      1  C   UNL     1     -16.116 -19.776   6.975  1.00  0.00    -0.031 C 
ATOM      2  C   UNL     1     -15.346 -20.228   7.981  1.00  0.00    -0.031 C 
ENDROOT
BRANCH   1   3
ATOM      3  C   UNL     1     -16.467 -20.566   5.737  1.00  0.00     0.027 C 
BRANCH   3   4
ATOM      4  C   UNL     1     -16.426 -19.693   4.473  1.00  0.00     0.004 C 
BRANCH   4   5
ATOM      5  C   UNL     1     -16.413 -20.493   3.156  1.00  0.00     0.000 C 
BRANCH   5   6
ATOM      6  C   UNL     1     -15.639 -19.833   1.999  1.00  0.00     0.000 C 
BRANCH   6   7
ATOM      7  C   UNL     1     -14.570 -20.745   1.363  1.00  0.00     0.000 C 
BRANCH   7   8
ATOM      8  C   UNL     1     -15.070 -22.187   1.162  1.00  0.00     0.006 C 
BRANCH   8   9
ATOM      9  C   UNL     1     -15.076 -22.598  -0.316  1.00  0.00     0.053 C 
BRANCH   9  10
ATOM     10  C   UNL     1     -16.108 -23.648  -0.596  1.00  0.00     0.041 C 
ATOM     11  O   UNL     1     -16.755 -23.629  -1.676  1.00  0.00    -0.550 OA
ATOM     12  O   UNL     1     -16.332 -24.667   0.323  1.00  0.00    -0.550 OA
ENDBRANCH   9  10
ENDBRANCH   8   9
ENDBRANCH   7   8
ENDBRANCH   6   7
ENDBRANCH   5   6
ENDBRANCH   4   5
ENDBRANCH   3   4
ENDBRANCH   1   3
BRANCH   2  13
ATOM     13  C   UNL     1     -14.736 -21.608   8.058  1.00  0.00     0.027 C 
BRANCH  13  14
ATOM     14  C   UNL     1     -15.671 -22.635   8.716  1.00  0.00     0.004 C 
BRANCH  14  15
ATOM     15  C   UNL     1     -15.582 -24.014   8.042  1.00  0.00     0.000 C 
BRANCH  15  16
ATOM     16  C   UNL     1     -16.961 -24.590   7.672  1.00  0.00     0.000 C 
BRANCH  16  17
ATOM     17  C   UNL     1     -17.362 -24.428   6.190  1.00  0.00    -0.000 C 
BRANCH  17  18
ATOM     18  C   UNL     1     -16.187 -24.244   5.212  1.00  0.00    -0.000 C 
BRANCH  18  19
ATOM     19  C   UNL     1     -16.647 -24.014   3.765  1.00  0.00    -0.003 C 
ATOM     20  C   UNL     1     -18.161 -24.160   3.642  1.00  0.00     0.004 C 
ENDBRANCH  18  19
ENDBRANCH  17  18
ENDBRANCH  16  17
ENDBRANCH  15  16
ENDBRANCH  14  15
ENDBRANCH  13  14
ENDBRANCH   2  13
TORSDOF 15
ENDMDL
MODEL 9
REMARK VINA RESULT:    -3.151      1.834      2.466
REMARK INTER + INTRA:          -7.559
REMARK INTER:                  -6.145
REMARK INTRA:                  -1.413
REMARK UNBOUND:                -1.645
REMARK SMILES CCCCCCCCC=CCCCCCCCC(=O)[O-]
REMARK SMILES IDX 10 1 9 2 11 3 12 4 13 5 14 6 15 7 16 8 17 9 18 10 19 11
REMARK SMILES IDX 20 12 8 13 7 14 6 15 5 16 4 17 3 18 2 19 1 20
REMARK H PARENT
REMARK Flexibility Score: inf
ROOT
ATOM      1  C   UNL     1     -17.371 -22.532   3.666  1.00  0.00    -0.031 C 
ATOM      2  C   UNL     1     -16.528 -22.414   2.623  1.00  0.00    -0.031 C 
ENDROOT
BRANCH   1   3
ATOM      3  C   UNL     1     -18.129 -23.788   4.024  1.00  0.00     0.027 C 
BRANCH   3   4
ATOM      4  C   UNL     1     -17.643 -24.386   5.353  1.00  0.00     0.004 C 
BRANCH   4   5
ATOM      5  C   UNL     1     -16.192 -24.905   5.316  1.00  0.00     0.000 C 
BRANCH   5   6
ATOM      6  C   UNL     1     -15.262 -24.318   6.396  1.00  0.00     0.000 C 
BRANCH   6   7
ATOM      7  C   UNL     1     -16.003 -23.533   7.497  1.00  0.00     0.000 C 
BRANCH   7   8
ATOM      8  C   UNL     1     -15.481 -22.093   7.648  1.00  0.00     0.006 C 
BRANCH   8   9
ATOM      9  C   UNL     1     -16.357 -21.077   6.904  1.00  0.00     0.053 C 
BRANCH   9  10
ATOM     10  C   UNL     1     -15.928 -19.668   7.180  1.00  0.00     0.041 C 
ATOM     11  O   UNL     1     -16.225 -18.746   6.375  1.00  0.00    -0.550 OA
ATOM     12  O   UNL     1     -15.231 -19.367   8.344  1.00  0.00    -0.550 OA
ENDBRANCH   9  10
ENDBRANCH   8   9
ENDBRANCH   7   8
ENDBRANCH   6   7
ENDBRANCH   5   6
ENDBRANCH   4   5
ENDBRANCH   3   4
ENDBRANCH   1   3
BRANCH   2  13
ATOM     13  C   UNL     1     -16.172 -23.525   1.664  1.00  0.00     0.027 C 
BRANCH  13  14
ATOM     14  C   UNL     1     -14.735 -23.414   1.132  1.00  0.00     0.004 C 
BRANCH  14  15
ATOM     15  C   UNL     1     -14.639 -22.487  -0.091  1.00  0.00     0.000 C 
BRANCH  15  16
ATOM     16  C   UNL     1     -14.400 -23.252  -1.405  1.00  0.00     0.000 C 
BRANCH  16  17
ATOM     17  C   UNL     1     -15.582 -24.126  -1.878  1.00  0.00    -0.000 C 
BRANCH  17  18
ATOM     18  C   UNL     1     -15.337 -24.906  -3.182  1.00  0.00    -0.000 C 
BRANCH  18  19
ATOM     19  C   UNL     1     -14.326 -24.216  -4.109  1.00  0.00    -0.003 C 
ATOM     20  C   UNL     1     -14.435 -24.751  -5.533  1.00  0.00     0.004 C 
ENDBRANCH  18  19
ENDBRANCH  17  18
ENDBRANCH  16  17
ENDBRANCH  15  16
ENDBRANCH  14  15
ENDBRANCH  13  14
ENDBRANCH   2  13
TORSDOF 15
ENDMDL
