MODEL 1
REMARK VINA RESULT:    -5.956      0.000      0.000
REMARK INTER + INTRA:          -8.887
REMARK INTER:                  -7.522
REMARK INTRA:                  -1.364
REMARK UNBOUND:                -1.364
REMARK SMILES O=C(C=Cc1ccc(O)cc1)c1ccc(O)cc1O
REMARK SMILES IDX 4 1 3 2 5 3 6 4 7 5 8 6 11 7 10 8 9 9 2 11 1 12 12 13 18 14
REMARK SMILES IDX 13 15 17 16 14 17 15 18 19 19 16 21
REMARK H PARENT 9 10 19 20 16 22
REMARK Flexibility Score: inf
ROOT
ATOM      1  C   UNL     1      14.014 -44.859  29.733  1.00  0.00     0.012 C 
ATOM      2  C   UNL     1      13.938 -44.257  30.932  1.00  0.00     0.053 C 
ENDROOT
BRANCH   1   3
ATOM      3  C   UNL     1      15.080 -44.645  28.734  1.00  0.00    -0.025 A 
ATOM      4  C   UNL     1      16.162 -45.537  28.627  1.00  0.00     0.012 A 
ATOM      5  C   UNL     1      17.190 -45.291  27.711  1.00  0.00     0.047 A 
ATOM      6  C   UNL     1      17.159 -44.139  26.913  1.00  0.00     0.115 A 
ATOM      7  C   UNL     1      15.071 -43.480  27.955  1.00  0.00     0.012 A 
ATOM      8  C   UNL     1      16.100 -43.234  27.040  1.00  0.00     0.047 A 
BRANCH   6   9
ATOM      9  O   UNL     1      18.176 -43.882  25.996  1.00  0.00    -0.508 OA
ATOM     10  H   UNL     1      18.047 -44.042  25.004  1.00  0.00     0.293 HD
ENDBRANCH   6   9
ENDBRANCH   1   3
BRANCH   2  11
ATOM     11  C   UNL     1      14.991 -43.409  31.545  1.00  0.00     0.189 C 
ATOM     12  O   UNL     1      14.753 -42.210  31.852  1.00  0.00    -0.289 OA
BRANCH  11  13
ATOM     13  C   UNL     1      16.340 -43.952  31.803  1.00  0.00     0.064 A 
ATOM     14  C   UNL     1      17.493 -43.396  31.208  1.00  0.00     0.130 A 
ATOM     15  C   UNL     1      16.480 -45.032  32.691  1.00  0.00     0.020 A 
ATOM     16  C   UNL     1      18.753 -43.953  31.473  1.00  0.00     0.093 A 
ATOM     17  C   UNL     1      17.739 -45.575  32.954  1.00  0.00     0.047 A 
ATOM     18  C   UNL     1      18.878 -45.041  32.342  1.00  0.00     0.119 A 
BRANCH  14  19
ATOM     19  O   UNL     1      17.393 -42.278  30.379  1.00  0.00    -0.507 OA
ATOM     20  H   UNL     1      16.814 -42.282  29.547  1.00  0.00     0.293 HD
ENDBRANCH  14  19
BRANCH  18  21
ATOM     21  O   UNL     1      20.139 -45.577  32.593  1.00  0.00    -0.508 OA
ATOM     22  H   UNL     1      20.427 -46.462  32.191  1.00  0.00     0.293 HD
ENDBRANCH  18  21
ENDBRANCH  11  13
ENDBRANCH   2  11
TORSDOF 6
ENDMDL
MODEL 2
REMARK VINA RESULT:    -5.822      2.763      5.674
REMARK INTER + INTRA:          -8.718
REMARK INTER:                  -7.634
REMARK INTRA:                  -1.085
REMARK UNBOUND:                -1.364
REMARK SMILES O=C(C=Cc1ccc(O)cc1)c1ccc(O)cc1O
REMARK SMILES IDX 4 1 3 2 5 3 6 4 7 5 8 6 11 7 10 8 9 9 2 11 1 12 12 13 18 14
REMARK SMILES IDX 13 15 17 16 14 17 15 18 19 19 16 21
REMARK H PARENT 9 10 19 20 16 22
REMARK Flexibility Score: inf
ROOT
ATOM      1  C   UNL     1      17.466 -45.271  26.918  1.00  0.00     0.012 C 
ATOM      2  C   UNL     1      17.488 -44.320  25.970  1.00  0.00     0.053 C 
ENDROOT
BRANCH   1   3
ATOM      3  C   UNL     1      16.830 -45.143  28.245  1.00  0.00    -0.025 A 
ATOM      4  C   UNL     1      17.606 -45.016  29.411  1.00  0.00     0.012 A 
ATOM      5  C   UNL     1      16.988 -44.950  30.663  1.00  0.00     0.047 A 
ATOM      6  C   UNL     1      15.593 -45.035  30.764  1.00  0.00     0.115 A 
ATOM      7  C   UNL     1      15.438 -45.258  28.355  1.00  0.00     0.012 A 
ATOM      8  C   UNL     1      14.821 -45.193  29.608  1.00  0.00     0.047 A 
BRANCH   6   9
ATOM      9  O   UNL     1      14.964 -44.970  32.006  1.00  0.00    -0.508 OA
ATOM     10  H   UNL     1      14.924 -44.105  32.534  1.00  0.00     0.293 HD
ENDBRANCH   6   9
ENDBRANCH   1   3
BRANCH   2  11
ATOM     11  C   UNL     1      16.734 -43.042  26.007  1.00  0.00     0.189 C 
ATOM     12  O   UNL     1      15.519 -43.001  25.671  1.00  0.00    -0.289 OA
BRANCH  11  13
ATOM     13  C   UNL     1      17.392 -41.790  26.432  1.00  0.00     0.064 A 
ATOM     14  C   UNL     1      17.603 -40.718  25.538  1.00  0.00     0.130 A 
ATOM     15  C   UNL     1      17.790 -41.652  27.772  1.00  0.00     0.020 A 
ATOM     16  C   UNL     1      18.245 -39.553  25.984  1.00  0.00     0.093 A 
ATOM     17  C   UNL     1      18.421 -40.486  28.209  1.00  0.00     0.047 A 
ATOM     18  C   UNL     1      18.655 -39.435  27.315  1.00  0.00     0.119 A 
BRANCH  14  19
ATOM     19  O   UNL     1      17.154 -40.797  24.219  1.00  0.00    -0.507 OA
ATOM     20  H   UNL     1      17.303 -41.626  23.655  1.00  0.00     0.293 HD
ENDBRANCH  14  19
BRANCH  18  21
ATOM     21  O   UNL     1      19.287 -38.269  27.739  1.00  0.00    -0.508 OA
ATOM     22  H   UNL     1      19.953 -38.275  28.503  1.00  0.00     0.293 HD
ENDBRANCH  18  21
ENDBRANCH  11  13
ENDBRANCH   2  11
TORSDOF 6
ENDMDL
MODEL 3
REMARK VINA RESULT:    -5.803      2.163      3.767
REMARK INTER + INTRA:          -8.694
REMARK INTER:                  -8.130
REMARK INTRA:                  -0.564
REMARK UNBOUND:                -1.364
REMARK SMILES O=C(C=Cc1ccc(O)cc1)c1ccc(O)cc1O
REMARK SMILES IDX 4 1 3 2 5 3 6 4 7 5 8 6 11 7 10 8 9 9 2 11 1 12 12 13 18 14
REMARK SMILES IDX 13 15 17 16 14 17 15 18 19 19 16 21
REMARK H PARENT 9 10 19 20 16 22
REMARK Flexibility Score: inf
ROOT
ATOM      1  C   UNL     1      17.254 -45.093  26.560  1.00  0.00     0.012 C 
ATOM      2  C   UNL     1      17.308 -45.478  27.846  1.00  0.00     0.053 C 
ENDROOT
BRANCH   1   3
ATOM      3  C   UNL     1      17.187 -43.696  26.086  1.00  0.00    -0.025 A 
ATOM      4  C   UNL     1      15.967 -42.997  26.061  1.00  0.00     0.012 A 
ATOM      5  C   UNL     1      15.914 -41.693  25.559  1.00  0.00     0.047 A 
ATOM      6  C   UNL     1      17.072 -41.085  25.056  1.00  0.00     0.115 A 
ATOM      7  C   UNL     1      18.335 -43.094  25.554  1.00  0.00     0.012 A 
ATOM      8  C   UNL     1      18.280 -41.790  25.052  1.00  0.00     0.047 A 
BRANCH   6   9
ATOM      9  O   UNL     1      17.032 -39.786  24.554  1.00  0.00    -0.508 OA
ATOM     10  H   UNL     1      17.189 -38.982  25.152  1.00  0.00     0.293 HD
ENDBRANCH   6   9
ENDBRANCH   1   3
BRANCH   2  11
ATOM     11  C   UNL     1      17.487 -44.578  29.013  1.00  0.00     0.189 C 
ATOM     12  O   UNL     1      18.225 -43.559  28.933  1.00  0.00    -0.289 OA
BRANCH  11  13
ATOM     13  C   UNL     1      16.810 -44.861  30.295  1.00  0.00     0.064 A 
ATOM     14  C   UNL     1      17.532 -45.121  31.479  1.00  0.00     0.130 A 
ATOM     15  C   UNL     1      15.405 -44.839  30.341  1.00  0.00     0.020 A 
ATOM     16  C   UNL     1      16.845 -45.398  32.670  1.00  0.00     0.093 A 
ATOM     17  C   UNL     1      14.730 -45.109  31.533  1.00  0.00     0.047 A 
ATOM     18  C   UNL     1      15.448 -45.394  32.699  1.00  0.00     0.119 A 
BRANCH  14  19
ATOM     19  O   UNL     1      18.927 -45.079  31.480  1.00  0.00    -0.507 OA
ATOM     20  H   UNL     1      19.433 -44.208  31.597  1.00  0.00     0.293 HD
ENDBRANCH  14  19
BRANCH  18  21
ATOM     21  O   UNL     1      14.785 -45.669  33.893  1.00  0.00    -0.508 OA
ATOM     22  H   UNL     1      14.850 -46.578  34.338  1.00  0.00     0.293 HD
ENDBRANCH  18  21
ENDBRANCH  11  13
ENDBRANCH   2  11
TORSDOF 6
ENDMDL
MODEL 4
REMARK VINA RESULT:    -5.775      1.482      4.385
REMARK INTER + INTRA:          -8.659
REMARK INTER:                  -7.326
REMARK INTRA:                  -1.333
REMARK UNBOUND:                -1.364
REMARK SMILES O=C(C=Cc1ccc(O)cc1)c1ccc(O)cc1O
REMARK SMILES IDX 4 1 3 2 5 3 6 4 7 5 8 6 11 7 10 8 9 9 2 11 1 12 12 13 18 14
REMARK SMILES IDX 13 15 17 16 14 17 15 18 19 19 16 21
REMARK H PARENT 9 10 19 20 16 22
REMARK Flexibility Score: inf
ROOT
ATOM      1  C   UNL     1      14.498 -43.811  33.137  1.00  0.00     0.012 C 
ATOM      2  C   UNL     1      13.682 -43.378  32.162  1.00  0.00     0.053 C 
ENDROOT
BRANCH   1   3
ATOM      3  C   UNL     1      15.970 -43.885  33.052  1.00  0.00    -0.025 A 
ATOM      4  C   UNL     1      16.768 -42.751  33.291  1.00  0.00     0.012 A 
ATOM      5  C   UNL     1      18.157 -42.827  33.154  1.00  0.00     0.047 A 
ATOM      6  C   UNL     1      18.760 -44.027  32.754  1.00  0.00     0.115 A 
ATOM      7  C   UNL     1      16.577 -45.073  32.623  1.00  0.00     0.012 A 
ATOM      8  C   UNL     1      17.967 -45.147  32.486  1.00  0.00     0.047 A 
BRANCH   6   9
ATOM      9  O   UNL     1      20.144 -44.115  32.615  1.00  0.00    -0.508 OA
ATOM     10  H   UNL     1      20.701 -44.699  33.228  1.00  0.00     0.293 HD
ENDBRANCH   6   9
ENDBRANCH   1   3
BRANCH   2  11
ATOM     11  C   UNL     1      14.110 -42.734  30.896  1.00  0.00     0.189 C 
ATOM     12  O   UNL     1      13.666 -41.601  30.568  1.00  0.00    -0.289 OA
BRANCH  11  13
ATOM     13  C   UNL     1      15.062 -43.409  29.991  1.00  0.00     0.064 A 
ATOM     14  C   UNL     1      16.270 -42.799  29.589  1.00  0.00     0.130 A 
ATOM     15  C   UNL     1      14.770 -44.709  29.544  1.00  0.00     0.020 A 
ATOM     16  C   UNL     1      17.137 -43.474  28.717  1.00  0.00     0.093 A 
ATOM     17  C   UNL     1      15.643 -45.377  28.683  1.00  0.00     0.047 A 
ATOM     18  C   UNL     1      16.826 -44.759  28.263  1.00  0.00     0.119 A 
BRANCH  14  19
ATOM     19  O   UNL     1      16.621 -41.539  30.073  1.00  0.00    -0.507 OA
ATOM     20  H   UNL     1      16.075 -40.713  29.855  1.00  0.00     0.293 HD
ENDBRANCH  14  19
BRANCH  18  21
ATOM     21  O   UNL     1      17.702 -45.413  27.400  1.00  0.00    -0.508 OA
ATOM     22  H   UNL     1      17.690 -45.240  26.401  1.00  0.00     0.293 HD
ENDBRANCH  18  21
ENDBRANCH  11  13
ENDBRANCH   2  11
TORSDOF 6
ENDMDL
MODEL 5
REMARK VINA RESULT:    -5.774      3.522      6.156
REMARK INTER + INTRA:          -8.657
REMARK INTER:                  -7.294
REMARK INTRA:                  -1.364
REMARK UNBOUND:                -1.364
REMARK SMILES O=C(C=Cc1ccc(O)cc1)c1ccc(O)cc1O
REMARK SMILES IDX 4 1 3 2 5 3 6 4 7 5 8 6 11 7 10 8 9 9 2 11 1 12 12 13 18 14
REMARK SMILES IDX 13 15 17 16 14 17 15 18 19 19 16 21
REMARK H PARENT 9 10 19 20 16 22
REMARK Flexibility Score: inf
ROOT
ATOM      1  C   UNL     1      18.597 -39.493  26.142  1.00  0.00     0.012 C 
ATOM      2  C   UNL     1      17.861 -39.920  25.102  1.00  0.00     0.053 C 
ENDROOT
BRANCH   1   3
ATOM      3  C   UNL     1      18.264 -39.693  27.567  1.00  0.00    -0.025 A 
ATOM      4  C   UNL     1      18.863 -40.723  28.314  1.00  0.00     0.012 A 
ATOM      5  C   UNL     1      18.496 -40.930  29.647  1.00  0.00     0.047 A 
ATOM      6  C   UNL     1      17.511 -40.127  30.238  1.00  0.00     0.115 A 
ATOM      7  C   UNL     1      17.258 -38.914  28.155  1.00  0.00     0.012 A 
ATOM      8  C   UNL     1      16.891 -39.123  29.488  1.00  0.00     0.047 A 
BRANCH   6   9
ATOM      9  O   UNL     1      17.137 -40.323  31.566  1.00  0.00    -0.508 OA
ATOM     10  H   UNL     1      17.701 -39.973  32.332  1.00  0.00     0.293 HD
ENDBRANCH   6   9
ENDBRANCH   1   3
BRANCH   2  11
ATOM     11  C   UNL     1      16.680 -40.816  25.186  1.00  0.00     0.189 C 
ATOM     12  O   UNL     1      15.572 -40.467  24.697  1.00  0.00    -0.289 OA
BRANCH  11  13
ATOM     13  C   UNL     1      16.778 -42.132  25.850  1.00  0.00     0.064 A 
ATOM     14  C   UNL     1      15.967 -42.472  26.953  1.00  0.00     0.130 A 
ATOM     15  C   UNL     1      17.682 -43.082  25.346  1.00  0.00     0.020 A 
ATOM     16  C   UNL     1      16.104 -43.730  27.560  1.00  0.00     0.093 A 
ATOM     17  C   UNL     1      17.807 -44.334  25.950  1.00  0.00     0.047 A 
ATOM     18  C   UNL     1      17.022 -44.659  27.062  1.00  0.00     0.119 A 
BRANCH  14  19
ATOM     19  O   UNL     1      15.009 -41.576  27.431  1.00  0.00    -0.507 OA
ATOM     20  H   UNL     1      14.600 -41.676  28.353  1.00  0.00     0.293 HD
ENDBRANCH  14  19
BRANCH  18  21
ATOM     21  O   UNL     1      17.141 -45.904  27.677  1.00  0.00    -0.508 OA
ATOM     22  H   UNL     1      16.636 -46.125  28.528  1.00  0.00     0.293 HD
ENDBRANCH  18  21
ENDBRANCH  11  13
ENDBRANCH   2  11
TORSDOF 6
ENDMDL
MODEL 6
REMARK VINA RESULT:    -5.753      2.469      3.703
REMARK INTER + INTRA:          -8.631
REMARK INTER:                  -7.382
REMARK INTRA:                  -1.249
REMARK UNBOUND:                -1.364
REMARK SMILES O=C(C=Cc1ccc(O)cc1)c1ccc(O)cc1O
REMARK SMILES IDX 4 1 3 2 5 3 6 4 7 5 8 6 11 7 10 8 9 9 2 11 1 12 12 13 18 14
REMARK SMILES IDX 13 15 17 16 14 17 15 18 19 19 16 21
REMARK H PARENT 9 10 19 20 16 22
REMARK Flexibility Score: inf
ROOT
ATOM      1  C   UNL     1      17.528 -44.783  26.145  1.00  0.00     0.012 C 
ATOM      2  C   UNL     1      17.081 -45.368  27.269  1.00  0.00     0.053 C 
ENDROOT
BRANCH   1   3
ATOM      3  C   UNL     1      17.381 -43.353  25.807  1.00  0.00    -0.025 A 
ATOM      4  C   UNL     1      16.141 -42.827  25.404  1.00  0.00     0.012 A 
ATOM      5  C   UNL     1      16.033 -41.482  25.037  1.00  0.00     0.047 A 
ATOM      6  C   UNL     1      17.166 -40.658  25.044  1.00  0.00     0.115 A 
ATOM      7  C   UNL     1      18.517 -42.531  25.782  1.00  0.00     0.012 A 
ATOM      8  C   UNL     1      18.407 -41.187  25.414  1.00  0.00     0.047 A 
BRANCH   6   9
ATOM      9  O   UNL     1      17.071 -39.316  24.681  1.00  0.00    -0.508 OA
ATOM     10  H   UNL     1      16.183 -38.827  24.690  1.00  0.00     0.293 HD
ENDBRANCH   6   9
ENDBRANCH   1   3
BRANCH   2  11
ATOM     11  C   UNL     1      16.519 -44.663  28.448  1.00  0.00     0.189 C 
ATOM     12  O   UNL     1      15.276 -44.644  28.655  1.00  0.00    -0.289 OA
BRANCH  11  13
ATOM     13  C   UNL     1      17.405 -43.964  29.401  1.00  0.00     0.064 A 
ATOM     14  C   UNL     1      17.388 -42.560  29.543  1.00  0.00     0.130 A 
ATOM     15  C   UNL     1      18.267 -44.723  30.211  1.00  0.00     0.020 A 
ATOM     16  C   UNL     1      18.257 -41.938  30.452  1.00  0.00     0.093 A 
ATOM     17  C   UNL     1      19.124 -44.097  31.118  1.00  0.00     0.047 A 
ATOM     18  C   UNL     1      19.124 -42.702  31.237  1.00  0.00     0.119 A 
BRANCH  14  19
ATOM     19  O   UNL     1      16.492 -41.785  28.805  1.00  0.00    -0.507 OA
ATOM     20  H   UNL     1      16.790 -41.253  27.995  1.00  0.00     0.293 HD
ENDBRANCH  14  19
BRANCH  18  21
ATOM     21  O   UNL     1      19.978 -42.066  32.136  1.00  0.00    -0.508 OA
ATOM     22  H   UNL     1      20.814 -41.587  31.823  1.00  0.00     0.293 HD
ENDBRANCH  18  21
ENDBRANCH  11  13
ENDBRANCH   2  11
TORSDOF 6
ENDMDL
MODEL 7
REMARK VINA RESULT:    -5.726      2.286      4.953
REMARK INTER + INTRA:          -8.597
REMARK INTER:                  -7.330
REMARK INTRA:                  -1.267
REMARK UNBOUND:                -1.364
REMARK SMILES O=C(C=Cc1ccc(O)cc1)c1ccc(O)cc1O
REMARK SMILES IDX 4 1 3 2 5 3 6 4 7 5 8 6 11 7 10 8 9 9 2 11 1 12 12 13 18 14
REMARK SMILES IDX 13 15 17 16 14 17 15 18 19 19 16 21
REMARK H PARENT 9 10 19 20 16 22
REMARK Flexibility Score: inf
ROOT
ATOM      1  C   UNL     1      16.388 -42.752  33.205  1.00  0.00     0.012 C 
ATOM      2  C   UNL     1      15.278 -43.507  33.252  1.00  0.00     0.053 C 
ENDROOT
BRANCH   1   3
ATOM      3  C   UNL     1      17.597 -43.054  32.412  1.00  0.00    -0.025 A 
ATOM      4  C   UNL     1      17.839 -42.410  31.185  1.00  0.00     0.012 A 
ATOM      5  C   UNL     1      18.962 -42.747  30.424  1.00  0.00     0.047 A 
ATOM      6  C   UNL     1      19.838 -43.747  30.867  1.00  0.00     0.115 A 
ATOM      7  C   UNL     1      18.460 -44.074  32.835  1.00  0.00     0.012 A 
ATOM      8  C   UNL     1      19.582 -44.411  32.071  1.00  0.00     0.047 A 
BRANCH   6   9
ATOM      9  O   UNL     1      20.961 -44.092  30.117  1.00  0.00    -0.508 OA
ATOM     10  H   UNL     1      21.361 -45.022  30.161  1.00  0.00     0.293 HD
ENDBRANCH   6   9
ENDBRANCH   1   3
BRANCH   2  11
ATOM     11  C   UNL     1      14.991 -44.681  32.390  1.00  0.00     0.189 C 
ATOM     12  O   UNL     1      15.216 -45.851  32.800  1.00  0.00    -0.289 OA
BRANCH  11  13
ATOM     13  C   UNL     1      14.442 -44.502  31.030  1.00  0.00     0.064 A 
ATOM     14  C   UNL     1      15.180 -44.842  29.877  1.00  0.00     0.130 A 
ATOM     15  C   UNL     1      13.134 -44.008  30.885  1.00  0.00     0.020 A 
ATOM     16  C   UNL     1      14.622 -44.642  28.606  1.00  0.00     0.093 A 
ATOM     17  C   UNL     1      12.584 -43.819  29.616  1.00  0.00     0.047 A 
ATOM     18  C   UNL     1      13.328 -44.131  28.473  1.00  0.00     0.119 A 
BRANCH  14  19
ATOM     19  O   UNL     1      16.453 -45.402  29.992  1.00  0.00    -0.507 OA
ATOM     20  H   UNL     1      16.591 -46.344  30.341  1.00  0.00     0.293 HD
ENDBRANCH  14  19
BRANCH  18  21
ATOM     21  O   UNL     1      12.791 -43.942  27.201  1.00  0.00    -0.508 OA
ATOM     22  H   UNL     1      12.904 -43.066  26.704  1.00  0.00     0.293 HD
ENDBRANCH  18  21
ENDBRANCH  11  13
ENDBRANCH   2  11
TORSDOF 6
ENDMDL
MODEL 8
REMARK VINA RESULT:    -5.725      2.620      4.010
REMARK INTER + INTRA:          -8.596
REMARK INTER:                  -7.642
REMARK INTRA:                  -0.954
REMARK UNBOUND:                -1.364
REMARK SMILES O=C(C=Cc1ccc(O)cc1)c1ccc(O)cc1O
REMARK SMILES IDX 4 1 3 2 5 3 6 4 7 5 8 6 11 7 10 8 9 9 2 11 1 12 12 13 18 14
REMARK SMILES IDX 13 15 17 16 14 17 15 18 19 19 16 21
REMARK H PARENT 9 10 19 20 16 22
REMARK Flexibility Score: inf
ROOT
ATOM      1  C   UNL     1      17.458 -44.915  26.328  1.00  0.00     0.012 C 
ATOM      2  C   UNL     1      17.108 -45.226  27.588  1.00  0.00     0.053 C 
ENDROOT
BRANCH   1   3
ATOM      3  C   UNL     1      17.434 -43.560  25.742  1.00  0.00    -0.025 A 
ATOM      4  C   UNL     1      18.626 -42.891  25.414  1.00  0.00     0.012 A 
ATOM      5  C   UNL     1      18.586 -41.588  24.908  1.00  0.00     0.047 A 
ATOM      6  C   UNL     1      17.358 -40.932  24.751  1.00  0.00     0.115 A 
ATOM      7  C   UNL     1      16.210 -42.888  25.611  1.00  0.00     0.012 A 
ATOM      8  C   UNL     1      16.172 -41.584  25.107  1.00  0.00     0.047 A 
BRANCH   6   9
ATOM      9  O   UNL     1      17.304 -39.634  24.248  1.00  0.00    -0.508 OA
ATOM     10  H   UNL     1      16.832 -38.891  24.751  1.00  0.00     0.293 HD
ENDBRANCH   6   9
ENDBRANCH   1   3
BRANCH   2  11
ATOM     11  C   UNL     1      16.804 -44.254  28.668  1.00  0.00     0.189 C 
ATOM     12  O   UNL     1      15.625 -44.105  29.086  1.00  0.00    -0.289 OA
BRANCH  11  13
ATOM     13  C   UNL     1      17.877 -43.436  29.270  1.00  0.00     0.064 A 
ATOM     14  C   UNL     1      18.731 -43.948  30.270  1.00  0.00     0.130 A 
ATOM     15  C   UNL     1      18.071 -42.123  28.809  1.00  0.00     0.020 A 
ATOM     16  C   UNL     1      19.728 -43.130  30.823  1.00  0.00     0.093 A 
ATOM     17  C   UNL     1      19.070 -41.319  29.359  1.00  0.00     0.047 A 
ATOM     18  C   UNL     1      19.898 -41.818  30.371  1.00  0.00     0.119 A 
BRANCH  14  19
ATOM     19  O   UNL     1      18.609 -45.271  30.697  1.00  0.00    -0.507 OA
ATOM     20  H   UNL     1      17.827 -45.851  30.416  1.00  0.00     0.293 HD
ENDBRANCH  14  19
BRANCH  18  21
ATOM     21  O   UNL     1      20.896 -41.023  30.931  1.00  0.00    -0.508 OA
ATOM     22  H   UNL     1      21.567 -41.402  31.589  1.00  0.00     0.293 HD
ENDBRANCH  18  21
ENDBRANCH  11  13
ENDBRANCH   2  11
TORSDOF 6
ENDMDL
MODEL 9
REMARK VINA RESULT:    -5.606      2.558      4.552
REMARK INTER + INTRA:          -8.444
REMARK INTER:                  -7.054
REMARK INTRA:                  -1.391
REMARK UNBOUND:                -1.364
REMARK SMILES O=C(C=Cc1ccc(O)cc1)c1ccc(O)cc1O
REMARK SMILES IDX 4 1 3 2 5 3 6 4 7 5 8 6 11 7 10 8 9 9 2 11 1 12 12 13 18 14
REMARK SMILES IDX 13 15 17 16 14 17 15 18 19 19 16 21
REMARK H PARENT 9 10 19 20 16 22
REMARK Flexibility Score: inf
ROOT
ATOM      1  C   UNL     1      17.418 -44.730  26.142  1.00  0.00     0.012 C 
ATOM      2  C   UNL     1      17.255 -45.505  27.226  1.00  0.00     0.053 C 
ENDROOT
BRANCH   1   3
ATOM      3  C   UNL     1      17.297 -43.259  26.114  1.00  0.00    -0.025 A 
ATOM      4  C   UNL     1      18.405 -42.434  26.380  1.00  0.00     0.012 A 
ATOM      5  C   UNL     1      18.259 -41.044  26.401  1.00  0.00     0.047 A 
ATOM      6  C   UNL     1      17.002 -40.465  26.181  1.00  0.00     0.115 A 
ATOM      7  C   UNL     1      16.037 -42.675  25.925  1.00  0.00     0.012 A 
ATOM      8  C   UNL     1      15.892 -41.284  25.947  1.00  0.00     0.047 A 
BRANCH   6   9
ATOM      9  O   UNL     1      16.844 -39.081  26.199  1.00  0.00    -0.508 OA
ATOM     10  H   UNL     1      16.295 -38.602  25.494  1.00  0.00     0.293 HD
ENDBRANCH   6   9
ENDBRANCH   1   3
BRANCH   2  11
ATOM     11  C   UNL     1      17.097 -45.022  28.621  1.00  0.00     0.189 C 
ATOM     12  O   UNL     1      18.084 -44.985  29.404  1.00  0.00    -0.289 OA
BRANCH  11  13
ATOM     13  C   UNL     1      15.780 -44.579  29.122  1.00  0.00     0.064 A 
ATOM     14  C   UNL     1      15.563 -43.263  29.585  1.00  0.00     0.130 A 
ATOM     15  C   UNL     1      14.707 -45.485  29.105  1.00  0.00     0.020 A 
ATOM     16  C   UNL     1      14.298 -42.891  30.063  1.00  0.00     0.093 A 
ATOM     17  C   UNL     1      13.449 -45.104  29.576  1.00  0.00     0.047 A 
ATOM     18  C   UNL     1      13.242 -43.808  30.061  1.00  0.00     0.119 A 
BRANCH  14  19
ATOM     19  O   UNL     1      16.591 -42.320  29.546  1.00  0.00    -0.507 OA
ATOM     20  H   UNL     1      16.666 -41.645  28.793  1.00  0.00     0.293 HD
ENDBRANCH  14  19
BRANCH  18  21
ATOM     21  O   UNL     1      11.993 -43.418  30.538  1.00  0.00    -0.508 OA
ATOM     22  H   UNL     1      11.732 -42.440  30.602  1.00  0.00     0.293 HD
ENDBRANCH  18  21
ENDBRANCH  11  13
ENDBRANCH   2  11
TORSDOF 6
ENDMDL
