MODEL 1
REMARK VINA RESULT:    -2.742      0.000      0.000
REMARK INTER + INTRA:          -6.350
REMARK INTER:                  -4.827
REMARK INTRA:                  -1.523
REMARK UNBOUND:                -1.523
REMARK SMILES CCCCCCCCCCCCCCC(=O)[O-]
REMARK SMILES IDX 9 1 10 2 11 3 12 4 13 5 14 6 15 7 16 8 17 9 8 10 7 11 6 12
REMARK SMILES IDX 5 13 4 14 3 15 2 16 1 17
REMARK H PARENT
REMARK Flexibility Score: inf
ROOT
ATOM      1  C   UNL     1      -4.668  -7.144  -8.043  1.00  0.00     0.000 C 
ENDROOT
BRANCH   1   2
ATOM      2  C   UNL     1      -3.802  -8.086  -7.190  1.00  0.00     0.000 C 
BRANCH   2   3
ATOM      3  C   UNL     1      -4.380  -9.506  -7.103  1.00  0.00     0.000 C 
BRANCH   3   4
ATOM      4  C   UNL     1      -4.328 -10.033  -5.663  1.00  0.00     0.000 C 
BRANCH   4   5
ATOM      5  C   UNL     1      -5.735 -10.109  -5.052  1.00  0.00     0.006 C 
BRANCH   5   6
ATOM      6  C   UNL     1      -6.831  -9.765  -6.069  1.00  0.00     0.053 C 
BRANCH   6   7
ATOM      7  C   UNL     1      -7.596  -8.540  -5.670  1.00  0.00     0.041 C 
ATOM      8  O   UNL     1      -6.992  -7.455  -5.465  1.00  0.00    -0.550 OA
ATOM      9  O   UNL     1      -8.972  -8.606  -5.492  1.00  0.00    -0.550 OA
ENDBRANCH   6   7
ENDBRANCH   5   6
ENDBRANCH   4   5
ENDBRANCH   3   4
ENDBRANCH   2   3
ENDBRANCH   1   2
BRANCH   1  10
ATOM     10  C   UNL     1      -4.762  -7.595  -9.510  1.00  0.00     0.000 C 
BRANCH  10  11
ATOM     11  C   UNL     1      -6.191  -8.000  -9.911  1.00  0.00    -0.000 C 
BRANCH  11  12
ATOM     12  C   UNL     1      -7.259  -7.410  -8.973  1.00  0.00    -0.000 C 
BRANCH  12  13
ATOM     13  C   UNL     1      -8.691  -7.747  -9.419  1.00  0.00    -0.000 C 
BRANCH  13  14
ATOM     14  C   UNL     1      -9.757  -7.116  -8.507  1.00  0.00    -0.000 C 
BRANCH  14  15
ATOM     15  C   UNL     1     -10.078  -5.663  -8.894  1.00  0.00    -0.000 C 
BRANCH  15  16
ATOM     16  C   UNL     1      -9.650  -4.655  -7.817  1.00  0.00    -0.003 C 
ATOM     17  C   UNL     1      -9.843  -5.232  -6.418  1.00  0.00     0.004 C 
ENDBRANCH  15  16
ENDBRANCH  14  15
ENDBRANCH  13  14
ENDBRANCH  12  13
ENDBRANCH  11  12
ENDBRANCH  10  11
ENDBRANCH   1  10
TORSDOF 13
ENDMDL
