MODEL 1
REMARK VINA RESULT:    -3.406      0.000      0.000
REMARK INTER + INTRA:          -4.513
REMARK INTER:                  -4.601
REMARK INTRA:                   0.088
REMARK UNBOUND:                 0.088
REMARK SMILES CC(=O)CCC=C(C)CCC=C(C)C
REMARK SMILES IDX 7 1 6 2 8 3 9 4 10 5 11 6 13 7 12 8 14 9 5 10 4 11 2 12 3 13
REMARK SMILES IDX 1 14
REMARK H PARENT
REMARK Flexibility Score: inf
ROOT
ATOM      1  C   UNL     1       4.751  32.441 -25.952  1.00  0.00    -0.077 C 
ATOM      2  C   UNL     1       6.001  31.942 -25.818  1.00  0.00    -0.028 C 
ATOM      3  C   UNL     1       3.547  31.542 -26.113  1.00  0.00     0.039 C 
ENDROOT
BRANCH   1   4
ATOM      4  C   UNL     1       4.555  33.941 -25.927  1.00  0.00     0.034 C 
BRANCH   4   5
ATOM      5  C   UNL     1       3.063  34.288 -25.862  1.00  0.00     0.032 C 
BRANCH   5   6
ATOM      6  C   UNL     1       2.749  35.153 -24.665  1.00  0.00    -0.028 C 
ATOM      7  C   UNL     1       1.524  36.878 -23.412  1.00  0.00     0.039 C 
ATOM      8  C   UNL     1       1.754  36.064 -24.660  1.00  0.00    -0.080 C 
ATOM      9  C   UNL     1       0.876  36.283 -25.870  1.00  0.00     0.039 C 
ENDBRANCH   5   6
ENDBRANCH   4   5
ENDBRANCH   1   4
BRANCH   2  10
ATOM     10  C   UNL     1       6.358  30.480 -25.937  1.00  0.00     0.035 C 
BRANCH  10  11
ATOM     11  C   UNL     1       7.870  30.286 -26.116  1.00  0.00     0.079 C 
BRANCH  11  12
ATOM     12  C   UNL     1       8.623  30.580 -24.844  1.00  0.00     0.130 C 
ATOM     13  O   UNL     1       9.799  30.262 -24.751  1.00  0.00    -0.300 OA
ATOM     14  C   UNL     1       7.954  31.254 -23.682  1.00  0.00     0.087 C 
ENDBRANCH  11  12
ENDBRANCH  10  11
ENDBRANCH   2  10
TORSDOF 6
ENDMDL
MODEL 2
REMARK VINA RESULT:    -2.945      0.998      1.464
REMARK INTER + INTRA:          -3.890
REMARK INTER:                  -3.583
REMARK INTRA:                  -0.307
REMARK UNBOUND:                 0.088
REMARK SMILES CC(=O)CCC=C(C)CCC=C(C)C
REMARK SMILES IDX 7 1 6 2 8 3 9 4 10 5 11 6 13 7 12 8 14 9 5 10 4 11 2 12 3 13
REMARK SMILES IDX 1 14
REMARK H PARENT
REMARK Flexibility Score: inf
ROOT
ATOM      1  C   UNL     1       3.808  33.313 -25.952  1.00  0.00    -0.077 C 
ATOM      2  C   UNL     1       5.093  33.039 -25.634  1.00  0.00    -0.028 C 
ATOM      3  C   UNL     1       2.778  32.220 -26.125  1.00  0.00     0.039 C 
ENDROOT
BRANCH   1   4
ATOM      4  C   UNL     1       3.389  34.757 -26.125  1.00  0.00     0.034 C 
BRANCH   4   5
ATOM      5  C   UNL     1       1.862  34.885 -26.060  1.00  0.00     0.032 C 
BRANCH   5   6
ATOM      6  C   UNL     1       1.444  36.166 -25.380  1.00  0.00    -0.028 C 
ATOM      7  C   UNL     1       1.220  37.725 -23.491  1.00  0.00     0.039 C 
ATOM      8  C   UNL     1       1.679  36.413 -24.073  1.00  0.00    -0.080 C 
ATOM      9  C   UNL     1       2.384  35.408 -23.193  1.00  0.00     0.039 C 
ENDBRANCH   5   6
ENDBRANCH   4   5
ENDBRANCH   1   4
BRANCH   2  10
ATOM     10  C   UNL     1       5.676  31.649 -25.542  1.00  0.00     0.035 C 
BRANCH  10  11
ATOM     11  C   UNL     1       7.173  31.646 -25.879  1.00  0.00     0.079 C 
BRANCH  11  12
ATOM     12  C   UNL     1       7.996  31.079 -24.750  1.00  0.00     0.130 C 
ATOM     13  O   UNL     1       8.689  30.091 -24.946  1.00  0.00    -0.300 OA
ATOM     14  C   UNL     1       7.977  31.700 -23.385  1.00  0.00     0.087 C 
ENDBRANCH  11  12
ENDBRANCH  10  11
ENDBRANCH   2  10
TORSDOF 6
ENDMDL
MODEL 3
REMARK VINA RESULT:    -2.126      1.281      2.139
REMARK INTER + INTRA:          -2.784
REMARK INTER:                  -2.598
REMARK INTRA:                  -0.185
REMARK UNBOUND:                 0.088
REMARK SMILES CC(=O)CCC=C(C)CCC=C(C)C
REMARK SMILES IDX 7 1 6 2 8 3 9 4 10 5 11 6 13 7 12 8 14 9 5 10 4 11 2 12 3 13
REMARK SMILES IDX 1 14
REMARK H PARENT
REMARK Flexibility Score: inf
ROOT
ATOM      1  C   UNL     1       5.957  32.740 -24.787  1.00  0.00    -0.077 C 
ATOM      2  C   UNL     1       6.714  32.370 -23.729  1.00  0.00    -0.028 C 
ATOM      3  C   UNL     1       5.747  31.829 -25.974  1.00  0.00     0.039 C 
ENDROOT
BRANCH   1   4
ATOM      4  C   UNL     1       5.292  34.099 -24.771  1.00  0.00     0.034 C 
BRANCH   4   5
ATOM      5  C   UNL     1       3.816  33.971 -24.376  1.00  0.00     0.032 C 
BRANCH   5   6
ATOM      6  C   UNL     1       2.915  34.647 -25.381  1.00  0.00    -0.028 C 
ATOM      7  C   UNL     1       1.179  36.222 -26.125  1.00  0.00     0.039 C 
ATOM      8  C   UNL     1       2.032  35.611 -25.044  1.00  0.00    -0.080 C 
ATOM      9  C   UNL     1       1.884  36.082 -23.615  1.00  0.00     0.039 C 
ENDBRANCH   5   6
ENDBRANCH   4   5
ENDBRANCH   1   4
BRANCH   2  10
ATOM     10  C   UNL     1       7.525  31.098 -23.658  1.00  0.00     0.035 C 
BRANCH  10  11
ATOM     11  C   UNL     1       8.801  31.199 -24.504  1.00  0.00     0.079 C 
BRANCH  11  12
ATOM     12  C   UNL     1       8.872  30.103 -25.537  1.00  0.00     0.130 C 
ATOM     13  O   UNL     1       7.842  29.572 -25.925  1.00  0.00    -0.300 OA
ATOM     14  C   UNL     1      10.187  29.644 -26.096  1.00  0.00     0.087 C 
ENDBRANCH  11  12
ENDBRANCH  10  11
ENDBRANCH   2  10
TORSDOF 6
ENDMDL
MODEL 4
REMARK VINA RESULT:    -2.047      9.921     12.729
REMARK INTER + INTRA:          -2.677
REMARK INTER:                  -2.228
REMARK INTRA:                  -0.449
REMARK UNBOUND:                 0.088
REMARK SMILES CC(=O)CCC=C(C)CCC=C(C)C
REMARK SMILES IDX 7 1 6 2 8 3 9 4 10 5 11 6 13 7 12 8 14 9 5 10 4 11 2 12 3 13
REMARK SMILES IDX 1 14
REMARK H PARENT
REMARK Flexibility Score: inf
ROOT
ATOM      1  C   UNL     1      12.340  36.891 -17.742  1.00  0.00    -0.077 C 
ATOM      2  C   UNL     1      11.767  38.115 -17.710  1.00  0.00    -0.028 C 
ATOM      3  C   UNL     1      13.675  36.618 -17.088  1.00  0.00     0.039 C 
ENDROOT
BRANCH   1   4
ATOM      4  C   UNL     1      11.615  35.761 -18.440  1.00  0.00     0.034 C 
BRANCH   4   5
ATOM      5  C   UNL     1      11.740  35.901 -19.962  1.00  0.00     0.032 C 
BRANCH   5   6
ATOM      6  C   UNL     1      12.764  34.943 -20.521  1.00  0.00    -0.028 C 
ATOM      7  C   UNL     1      13.558  32.809 -21.451  1.00  0.00     0.039 C 
ATOM      8  C   UNL     1      12.460  33.685 -20.906  1.00  0.00    -0.080 C 
ATOM      9  C   UNL     1      11.052  33.146 -20.800  1.00  0.00     0.039 C 
ENDBRANCH   5   6
ENDBRANCH   4   5
ENDBRANCH   1   4
BRANCH   2  10
ATOM     10  C   UNL     1      12.423  39.355 -17.152  1.00  0.00     0.035 C 
BRANCH  10  11
ATOM     11  C   UNL     1      12.197  39.475 -15.638  1.00  0.00     0.079 C 
BRANCH  11  12
ATOM     12  C   UNL     1      11.224  40.578 -15.307  1.00  0.00     0.130 C 
ATOM     13  O   UNL     1      10.024  40.345 -15.309  1.00  0.00    -0.300 OA
ATOM     14  C   UNL     1      11.699  41.964 -14.982  1.00  0.00     0.087 C 
ENDBRANCH  11  12
ENDBRANCH  10  11
ENDBRANCH   2  10
TORSDOF 6
ENDMDL
MODEL 5
REMARK VINA RESULT:    -1.672      9.171     11.251
REMARK INTER + INTRA:          -2.171
REMARK INTER:                  -1.814
REMARK INTRA:                  -0.357
REMARK UNBOUND:                 0.088
REMARK SMILES CC(=O)CCC=C(C)CCC=C(C)C
REMARK SMILES IDX 7 1 6 2 8 3 9 4 10 5 11 6 13 7 12 8 14 9 5 10 4 11 2 12 3 13
REMARK SMILES IDX 1 14
REMARK H PARENT
REMARK Flexibility Score: inf
ROOT
ATOM      1  C   UNL     1      12.672  36.152 -18.339  1.00  0.00    -0.077 C 
ATOM      2  C   UNL     1      11.781  35.779 -19.285  1.00  0.00    -0.028 C 
ATOM      3  C   UNL     1      14.158  36.194 -18.615  1.00  0.00     0.039 C 
ENDROOT
BRANCH   1   4
ATOM      4  C   UNL     1      12.163  36.552 -16.971  1.00  0.00     0.034 C 
BRANCH   4   5
ATOM      5  C   UNL     1      13.225  37.363 -16.218  1.00  0.00     0.032 C 
BRANCH   5   6
ATOM      6  C   UNL     1      12.622  38.575 -15.550  1.00  0.00    -0.028 C 
ATOM      7  C   UNL     1      11.516  40.771 -15.477  1.00  0.00     0.039 C 
ATOM      8  C   UNL     1      12.093  39.607 -16.241  1.00  0.00    -0.080 C 
ATOM      9  C   UNL     1      12.069  39.616 -17.752  1.00  0.00     0.039 C 
ENDBRANCH   5   6
ENDBRANCH   4   5
ENDBRANCH   1   4
BRANCH   2  10
ATOM     10  C   UNL     1      12.150  35.249 -20.650  1.00  0.00     0.035 C 
BRANCH  10  11
ATOM     11  C   UNL     1      11.714  33.787 -20.820  1.00  0.00     0.079 C 
BRANCH  11  12
ATOM     12  C   UNL     1      12.877  32.897 -21.181  1.00  0.00     0.130 C 
ATOM     13  O   UNL     1      14.007  33.361 -21.201  1.00  0.00    -0.300 OA
ATOM     14  C   UNL     1      12.673  31.451 -21.522  1.00  0.00     0.087 C 
ENDBRANCH  11  12
ENDBRANCH  10  11
ENDBRANCH   2  10
TORSDOF 6
ENDMDL
MODEL 6
REMARK VINA RESULT:    -1.632      9.296     12.367
REMARK INTER + INTRA:          -2.117
REMARK INTER:                  -1.954
REMARK INTRA:                  -0.162
REMARK UNBOUND:                 0.088
REMARK SMILES CC(=O)CCC=C(C)CCC=C(C)C
REMARK SMILES IDX 7 1 6 2 8 3 9 4 10 5 11 6 13 7 12 8 14 9 5 10 4 11 2 12 3 13
REMARK SMILES IDX 1 14
REMARK H PARENT
REMARK Flexibility Score: inf
ROOT
ATOM      1  C   UNL     1      12.637  36.323 -18.144  1.00  0.00    -0.077 C 
ATOM      2  C   UNL     1      12.119  36.599 -16.926  1.00  0.00    -0.028 C 
ATOM      3  C   UNL     1      14.128  36.241 -18.376  1.00  0.00     0.039 C 
ENDROOT
BRANCH   1   4
ATOM      4  C   UNL     1      11.694  36.078 -19.302  1.00  0.00     0.034 C 
BRANCH   4   5
ATOM      5  C   UNL     1      12.452  35.487 -20.497  1.00  0.00     0.032 C 
BRANCH   5   6
ATOM      6  C   UNL     1      11.983  34.088 -20.812  1.00  0.00    -0.028 C 
ATOM      7  C   UNL     1      12.252  31.730 -21.457  1.00  0.00     0.039 C 
ATOM      8  C   UNL     1      12.824  33.093 -21.163  1.00  0.00    -0.080 C 
ATOM      9  C   UNL     1      14.315  33.318 -21.267  1.00  0.00     0.039 C 
ENDBRANCH   5   6
ENDBRANCH   4   5
ENDBRANCH   1   4
BRANCH   2  10
ATOM     10  C   UNL     1      12.935  36.975 -15.712  1.00  0.00     0.035 C 
BRANCH  10  11
ATOM     11  C   UNL     1      13.337  38.456 -15.745  1.00  0.00     0.079 C 
BRANCH  11  12
ATOM     12  C   UNL     1      12.255  39.313 -16.351  1.00  0.00     0.130 C 
ATOM     13  O   UNL     1      12.219  39.472 -17.562  1.00  0.00    -0.300 OA
ATOM     14  C   UNL     1      11.221  39.983 -15.494  1.00  0.00     0.087 C 
ENDBRANCH  11  12
ENDBRANCH  10  11
ENDBRANCH   2  10
TORSDOF 6
ENDMDL
MODEL 7
REMARK VINA RESULT:    -1.374      9.885     11.707
REMARK INTER + INTRA:          -1.768
REMARK INTER:                  -1.257
REMARK INTRA:                  -0.512
REMARK UNBOUND:                 0.088
REMARK SMILES CC(=O)CCC=C(C)CCC=C(C)C
REMARK SMILES IDX 7 1 6 2 8 3 9 4 10 5 11 6 13 7 12 8 14 9 5 10 4 11 2 12 3 13
REMARK SMILES IDX 1 14
REMARK H PARENT
REMARK Flexibility Score: inf
ROOT
ATOM      1  C   UNL     1      12.366  36.512 -16.996  1.00  0.00    -0.077 C 
ATOM      2  C   UNL     1      12.561  36.543 -18.334  1.00  0.00    -0.028 C 
ATOM      3  C   UNL     1      11.331  35.610 -16.363  1.00  0.00     0.039 C 
ENDROOT
BRANCH   1   4
ATOM      4  C   UNL     1      13.217  37.396 -16.111  1.00  0.00     0.034 C 
BRANCH   4   5
ATOM      5  C   UNL     1      12.912  38.875 -16.374  1.00  0.00     0.032 C 
BRANCH   5   6
ATOM      6  C   UNL     1      11.543  39.255 -15.866  1.00  0.00    -0.028 C 
ATOM      7  C   UNL     1       9.860  40.748 -14.871  1.00  0.00     0.039 C 
ATOM      8  C   UNL     1      11.262  40.471 -15.352  1.00  0.00    -0.080 C 
ATOM      9  C   UNL     1      12.317  41.548 -15.248  1.00  0.00     0.039 C 
ENDBRANCH   5   6
ENDBRANCH   4   5
ENDBRANCH   1   4
BRANCH   2  10
ATOM     10  C   UNL     1      11.714  35.805 -19.342  1.00  0.00     0.035 C 
BRANCH  10  11
ATOM     11  C   UNL     1      12.566  35.253 -20.493  1.00  0.00     0.079 C 
BRANCH  11  12
ATOM     12  C   UNL     1      12.213  33.822 -20.809  1.00  0.00     0.130 C 
ATOM     13  O   UNL     1      11.061  33.439 -20.668  1.00  0.00    -0.300 OA
ATOM     14  C   UNL     1      13.253  32.852 -21.289  1.00  0.00     0.087 C 
ENDBRANCH  11  12
ENDBRANCH  10  11
ENDBRANCH   2  10
TORSDOF 6
ENDMDL
MODEL 8
REMARK VINA RESULT:    -1.264      1.527      2.555
REMARK INTER + INTRA:          -1.620
REMARK INTER:                  -1.532
REMARK INTRA:                  -0.088
REMARK UNBOUND:                 0.088
REMARK SMILES CC(=O)CCC=C(C)CCC=C(C)C
REMARK SMILES IDX 7 1 6 2 8 3 9 4 10 5 11 6 13 7 12 8 14 9 5 10 4 11 2 12 3 13
REMARK SMILES IDX 1 14
REMARK H PARENT
REMARK Flexibility Score: inf
ROOT
ATOM      1  C   UNL     1       4.013  33.926 -24.879  1.00  0.00    -0.077 C 
ATOM      2  C   UNL     1       4.663  32.740 -24.888  1.00  0.00    -0.028 C 
ATOM      3  C   UNL     1       3.352  34.482 -26.120  1.00  0.00     0.039 C 
ENDROOT
BRANCH   1   4
ATOM      4  C   UNL     1       3.936  34.708 -23.586  1.00  0.00     0.034 C 
BRANCH   4   5
ATOM      5  C   UNL     1       2.476  34.880 -23.148  1.00  0.00     0.032 C 
BRANCH   5   6
ATOM      6  C   UNL     1       1.921  36.212 -23.588  1.00  0.00    -0.028 C 
ATOM      7  C   UNL     1       1.225  38.553 -23.294  1.00  0.00     0.039 C 
ATOM      8  C   UNL     1       1.792  37.265 -22.754  1.00  0.00    -0.080 C 
ATOM      9  C   UNL     1       2.202  37.178 -21.302  1.00  0.00     0.039 C 
ENDBRANCH   5   6
ENDBRANCH   4   5
ENDBRANCH   1   4
BRANCH   2  10
ATOM     10  C   UNL     1       4.916  31.910 -26.124  1.00  0.00     0.035 C 
BRANCH  10  11
ATOM     11  C   UNL     1       5.864  30.740 -25.829  1.00  0.00     0.079 C 
BRANCH  11  12
ATOM     12  C   UNL     1       7.296  31.199 -25.716  1.00  0.00     0.130 C 
ATOM     13  O   UNL     1       7.557  32.389 -25.813  1.00  0.00    -0.300 OA
ATOM     14  C   UNL     1       8.412  30.221 -25.493  1.00  0.00     0.087 C 
ENDBRANCH  11  12
ENDBRANCH  10  11
ENDBRANCH   2  10
TORSDOF 6
ENDMDL
MODEL 9
REMARK VINA RESULT:    -0.591      8.655     10.837
REMARK INTER + INTRA:          -0.711
REMARK INTER:                  -0.329
REMARK INTRA:                  -0.381
REMARK UNBOUND:                 0.088
REMARK SMILES CC(=O)CCC=C(C)CCC=C(C)C
REMARK SMILES IDX 7 1 6 2 8 3 9 4 10 5 11 6 13 7 12 8 14 9 5 10 4 11 2 12 3 13
REMARK SMILES IDX 1 14
REMARK H PARENT
REMARK Flexibility Score: inf
ROOT
ATOM      1  C   UNL     1      12.513  35.757 -19.644  1.00  0.00    -0.077 C 
ATOM      2  C   UNL     1      11.896  34.856 -20.441  1.00  0.00    -0.028 C 
ATOM      3  C   UNL     1      14.014  35.767 -19.466  1.00  0.00     0.039 C 
ENDROOT
BRANCH   1   4
ATOM      4  C   UNL     1      11.677  36.791 -18.923  1.00  0.00     0.034 C 
BRANCH   4   5
ATOM      5  C   UNL     1      12.154  36.954 -17.474  1.00  0.00     0.032 C 
BRANCH   5   6
ATOM      6  C   UNL     1      11.882  38.346 -16.958  1.00  0.00    -0.028 C 
ATOM      7  C   UNL     1      12.202  40.286 -15.480  1.00  0.00     0.039 C 
ATOM      8  C   UNL     1      12.552  38.887 -15.919  1.00  0.00    -0.080 C 
ATOM      9  C   UNL     1      13.636  38.123 -15.193  1.00  0.00     0.039 C 
ENDBRANCH   5   6
ENDBRANCH   4   5
ENDBRANCH   1   4
BRANCH   2  10
ATOM     10  C   UNL     1      12.587  33.703 -21.129  1.00  0.00     0.035 C 
BRANCH  10  11
ATOM     11  C   UNL     1      11.810  32.392 -20.943  1.00  0.00     0.079 C 
BRANCH  11  12
ATOM     12  C   UNL     1      12.610  31.201 -21.406  1.00  0.00     0.130 C 
ATOM     13  O   UNL     1      13.384  30.656 -20.632  1.00  0.00    -0.300 OA
ATOM     14  C   UNL     1      12.481  30.673 -22.804  1.00  0.00     0.087 C 
ENDBRANCH  11  12
ENDBRANCH  10  11
ENDBRANCH   2  10
TORSDOF 6
ENDMDL
