MODEL 1
REMARK VINA RESULT:    -6.302      0.000      0.000
REMARK INTER + INTRA:          -7.678
REMARK INTER:                  -7.407
REMARK INTRA:                  -0.271
REMARK UNBOUND:                -0.271
REMARK SMILES O=c1c(O)c(-c2ccc(O)cc2)oc2cc(O)cc(O)c12
REMARK SMILES IDX 5 1 3 2 2 3 1 4 21 5 19 6 18 7 16 8 15 9 14 10 13 11 6 12
REMARK SMILES IDX 7 13 8 14 9 15 12 16 11 17 10 18 4 20 20 22 17 24
REMARK H PARENT 10 19 4 21 20 23 17 25
REMARK Flexibility Score: inf
ROOT
ATOM      1  C   UNL     1      -5.782 -22.093  34.907  1.00  0.00     0.180 A 
ATOM      2  C   UNL     1      -6.715 -21.177  35.424  1.00  0.00     0.208 A 
ATOM      3  C   UNL     1      -6.483 -19.803  35.258  1.00  0.00     0.238 A 
ATOM      4  O   UNL     1      -7.358 -18.992  35.657  1.00  0.00    -0.285 OA
ATOM      5  C   UNL     1      -5.295 -19.358  34.628  1.00  0.00     0.111 A 
ATOM      6  C   UNL     1      -4.936 -17.989  34.445  1.00  0.00     0.134 A 
ATOM      7  C   UNL     1      -3.786 -17.668  33.712  1.00  0.00     0.093 A 
ATOM      8  C   UNL     1      -2.949 -18.667  33.211  1.00  0.00     0.123 A 
ATOM      9  C   UNL     1      -3.262 -20.006  33.430  1.00  0.00     0.094 A 
ATOM     10  C   UNL     1      -4.423 -20.359  34.125  1.00  0.00     0.146 A 
ATOM     11  O   UNL     1      -4.693 -21.647  34.293  1.00  0.00    -0.452 OA
ENDROOT
BRANCH   1  12
ATOM     12  C   UNL     1      -5.964 -23.557  35.030  1.00  0.00     0.021 A 
ATOM     13  C   UNL     1      -6.539 -24.273  33.967  1.00  0.00     0.016 A 
ATOM     14  C   UNL     1      -6.741 -25.654  34.070  1.00  0.00     0.047 A 
ATOM     15  C   UNL     1      -6.387 -26.331  35.240  1.00  0.00     0.115 A 
ATOM     16  C   UNL     1      -5.628 -24.242  36.212  1.00  0.00     0.016 A 
ATOM     17  C   UNL     1      -5.833 -25.621  36.313  1.00  0.00     0.047 A 
BRANCH  15  18
ATOM     18  O   UNL     1      -6.593 -27.706  35.328  1.00  0.00    -0.508 OA
ATOM     19  H   UNL     1      -6.391 -28.322  34.549  1.00  0.00     0.293 HD
ENDBRANCH  15  18
ENDBRANCH   1  12
BRANCH   2  20
ATOM     20  O   UNL     1      -7.842 -21.634  36.111  1.00  0.00    -0.502 OA
ATOM     21  H   UNL     1      -8.568 -22.181  35.663  1.00  0.00     0.293 HD
ENDBRANCH   2  20
BRANCH   6  22
ATOM     22  O   UNL     1      -5.652 -16.913  34.980  1.00  0.00    -0.507 OA
ATOM     23  H   UNL     1      -6.176 -16.939  35.841  1.00  0.00     0.293 HD
ENDBRANCH   6  22
BRANCH   8  24
ATOM     24  O   UNL     1      -1.798 -18.339  32.497  1.00  0.00    -0.508 OA
ATOM     25  H   UNL     1      -0.894 -18.723  32.746  1.00  0.00     0.293 HD
ENDBRANCH   8  24
TORSDOF 5
ENDMDL
MODEL 2
REMARK VINA RESULT:    -5.977      2.276      2.985
REMARK INTER + INTRA:          -7.296
REMARK INTER:                  -7.106
REMARK INTRA:                  -0.190
REMARK UNBOUND:                -0.271
REMARK SMILES O=c1c(O)c(-c2ccc(O)cc2)oc2cc(O)cc(O)c12
REMARK SMILES IDX 5 1 3 2 2 3 1 4 21 5 19 6 18 7 16 8 15 9 14 10 13 11 6 12
REMARK SMILES IDX 7 13 8 14 9 15 12 16 11 17 10 18 4 20 20 22 17 24
REMARK H PARENT 10 19 4 21 20 23 17 25
REMARK Flexibility Score: inf
ROOT
ATOM      1  C   UNL     1      -6.909 -23.641  35.496  1.00  0.00     0.180 A 
ATOM      2  C   UNL     1      -7.527 -22.481  34.998  1.00  0.00     0.208 A 
ATOM      3  C   UNL     1      -6.818 -21.269  35.019  1.00  0.00     0.238 A 
ATOM      4  O   UNL     1      -7.349 -20.252  34.503  1.00  0.00    -0.285 OA
ATOM      5  C   UNL     1      -5.523 -21.219  35.589  1.00  0.00     0.111 A 
ATOM      6  C   UNL     1      -4.732 -20.037  35.705  1.00  0.00     0.134 A 
ATOM      7  C   UNL     1      -3.421 -20.128  36.190  1.00  0.00     0.093 A 
ATOM      8  C   UNL     1      -2.896 -21.347  36.624  1.00  0.00     0.123 A 
ATOM      9  C   UNL     1      -3.679 -22.497  36.566  1.00  0.00     0.094 A 
ATOM     10  C   UNL     1      -4.978 -22.446  36.051  1.00  0.00     0.146 A 
ATOM     11  O   UNL     1      -5.681 -23.569  35.995  1.00  0.00    -0.452 OA
ENDROOT
BRANCH   1  12
ATOM     12  C   UNL     1      -7.586 -24.958  35.494  1.00  0.00     0.021 A 
ATOM     13  C   UNL     1      -8.636 -25.195  36.397  1.00  0.00     0.016 A 
ATOM     14  C   UNL     1      -9.275 -26.440  36.428  1.00  0.00     0.047 A 
ATOM     15  C   UNL     1      -8.863 -27.464  35.572  1.00  0.00     0.115 A 
ATOM     16  C   UNL     1      -7.163 -26.000  34.649  1.00  0.00     0.016 A 
ATOM     17  C   UNL     1      -7.802 -27.242  34.684  1.00  0.00     0.047 A 
BRANCH  15  18
ATOM     18  O   UNL     1      -9.509 -28.697  35.614  1.00  0.00    -0.508 OA
ATOM     19  H   UNL     1      -9.463 -29.345  34.837  1.00  0.00     0.293 HD
ENDBRANCH  15  18
ENDBRANCH   1  12
BRANCH   2  20
ATOM     20  O   UNL     1      -8.835 -22.536  34.510  1.00  0.00    -0.502 OA
ATOM     21  H   UNL     1      -9.625 -22.782  35.095  1.00  0.00     0.293 HD
ENDBRANCH   2  20
BRANCH   6  22
ATOM     22  O   UNL     1      -5.188 -18.754  35.384  1.00  0.00    -0.507 OA
ATOM     23  H   UNL     1      -6.129 -18.422  35.532  1.00  0.00     0.293 HD
ENDBRANCH   6  22
BRANCH   8  24
ATOM     24  O   UNL     1      -1.597 -21.425  37.122  1.00  0.00    -0.508 OA
ATOM     25  H   UNL     1      -0.792 -21.385  36.508  1.00  0.00     0.293 HD
ENDBRANCH   8  24
TORSDOF 5
ENDMDL
MODEL 3
REMARK VINA RESULT:    -5.879      2.254      6.941
REMARK INTER + INTRA:          -7.181
REMARK INTER:                  -6.926
REMARK INTRA:                  -0.255
REMARK UNBOUND:                -0.271
REMARK SMILES O=c1c(O)c(-c2ccc(O)cc2)oc2cc(O)cc(O)c12
REMARK SMILES IDX 5 1 3 2 2 3 1 4 21 5 19 6 18 7 16 8 15 9 14 10 13 11 6 12
REMARK SMILES IDX 7 13 8 14 9 15 12 16 11 17 10 18 4 20 20 22 17 24
REMARK H PARENT 10 19 4 21 20 23 17 25
REMARK Flexibility Score: inf
ROOT
ATOM      1  C   UNL     1      -6.275 -22.000  34.964  1.00  0.00     0.180 A 
ATOM      2  C   UNL     1      -6.597 -22.218  33.613  1.00  0.00     0.208 A 
ATOM      3  C   UNL     1      -6.891 -23.522  33.185  1.00  0.00     0.238 A 
ATOM      4  O   UNL     1      -7.250 -23.698  31.992  1.00  0.00    -0.285 OA
ATOM      5  C   UNL     1      -6.805 -24.601  34.098  1.00  0.00     0.111 A 
ATOM      6  C   UNL     1      -7.038 -25.969  33.763  1.00  0.00     0.134 A 
ATOM      7  C   UNL     1      -7.029 -26.938  34.775  1.00  0.00     0.093 A 
ATOM      8  C   UNL     1      -6.733 -26.599  36.096  1.00  0.00     0.123 A 
ATOM      9  C   UNL     1      -6.450 -25.275  36.423  1.00  0.00     0.094 A 
ATOM     10  C   UNL     1      -6.489 -24.279  35.444  1.00  0.00     0.146 A 
ATOM     11  O   UNL     1      -6.235 -23.027  35.804  1.00  0.00    -0.452 OA
ENDROOT
BRANCH   1  12
ATOM     12  C   UNL     1      -5.968 -20.653  35.494  1.00  0.00     0.021 A 
ATOM     13  C   UNL     1      -4.639 -20.322  35.811  1.00  0.00     0.016 A 
ATOM     14  C   UNL     1      -4.328 -19.063  36.335  1.00  0.00     0.047 A 
ATOM     15  C   UNL     1      -5.341 -18.126  36.562  1.00  0.00     0.115 A 
ATOM     16  C   UNL     1      -6.984 -19.712  35.744  1.00  0.00     0.016 A 
ATOM     17  C   UNL     1      -6.670 -18.455  36.268  1.00  0.00     0.047 A 
BRANCH  15  18
ATOM     18  O   UNL     1      -5.016 -16.875  37.082  1.00  0.00    -0.508 OA
ATOM     19  H   UNL     1      -5.340 -16.020  36.646  1.00  0.00     0.293 HD
ENDBRANCH  15  18
ENDBRANCH   1  12
BRANCH   2  20
ATOM     20  O   UNL     1      -6.601 -21.151  32.711  1.00  0.00    -0.502 OA
ATOM     21  H   UNL     1      -7.310 -21.047  31.994  1.00  0.00     0.293 HD
ENDBRANCH   2  20
BRANCH   6  22
ATOM     22  O   UNL     1      -7.256 -26.431  32.462  1.00  0.00    -0.507 OA
ATOM     23  H   UNL     1      -6.936 -27.319  32.103  1.00  0.00     0.293 HD
ENDBRANCH   6  22
BRANCH   8  24
ATOM     24  O   UNL     1      -6.709 -27.573  37.092  1.00  0.00    -0.508 OA
ATOM     25  H   UNL     1      -5.837 -27.905  37.487  1.00  0.00     0.293 HD
ENDBRANCH   8  24
TORSDOF 5
ENDMDL
MODEL 4
REMARK VINA RESULT:    -5.551      1.558      6.486
REMARK INTER + INTRA:          -6.796
REMARK INTER:                  -6.507
REMARK INTRA:                  -0.289
REMARK UNBOUND:                -0.271
REMARK SMILES O=c1c(O)c(-c2ccc(O)cc2)oc2cc(O)cc(O)c12
REMARK SMILES IDX 5 1 3 2 2 3 1 4 21 5 19 6 18 7 16 8 15 9 14 10 13 11 6 12
REMARK SMILES IDX 7 13 8 14 9 15 12 16 11 17 10 18 4 20 20 22 17 24
REMARK H PARENT 10 19 4 21 20 23 17 25
REMARK Flexibility Score: inf
ROOT
ATOM      1  C   UNL     1      -4.877 -20.853  34.973  1.00  0.00     0.180 A 
ATOM      2  C   UNL     1      -6.219 -20.437  35.008  1.00  0.00     0.208 A 
ATOM      3  C   UNL     1      -7.227 -21.402  35.162  1.00  0.00     0.238 A 
ATOM      4  O   UNL     1      -8.420 -21.015  35.269  1.00  0.00    -0.285 OA
ATOM      5  C   UNL     1      -6.887 -22.775  35.222  1.00  0.00     0.111 A 
ATOM      6  C   UNL     1      -7.829 -23.842  35.332  1.00  0.00     0.134 A 
ATOM      7  C   UNL     1      -7.369 -25.156  35.490  1.00  0.00     0.093 A 
ATOM      8  C   UNL     1      -6.004 -25.448  35.478  1.00  0.00     0.123 A 
ATOM      9  C   UNL     1      -5.078 -24.421  35.316  1.00  0.00     0.094 A 
ATOM     10  C   UNL     1      -5.504 -23.095  35.194  1.00  0.00     0.146 A 
ATOM     11  O   UNL     1      -4.587 -22.145  35.063  1.00  0.00    -0.452 OA
ENDROOT
BRANCH   1  12
ATOM     12  C   UNL     1      -3.758 -19.895  34.827  1.00  0.00     0.021 A 
ATOM     13  C   UNL     1      -3.206 -19.299  35.974  1.00  0.00     0.016 A 
ATOM     14  C   UNL     1      -2.163 -18.374  35.859  1.00  0.00     0.047 A 
ATOM     15  C   UNL     1      -1.672 -18.020  34.599  1.00  0.00     0.115 A 
ATOM     16  C   UNL     1      -3.273 -19.519  33.561  1.00  0.00     0.016 A 
ATOM     17  C   UNL     1      -2.233 -18.593  33.449  1.00  0.00     0.047 A 
BRANCH  15  18
ATOM     18  O   UNL     1      -0.633 -17.098  34.500  1.00  0.00    -0.508 OA
ATOM     19  H   UNL     1      -0.582 -16.439  33.732  1.00  0.00     0.293 HD
ENDBRANCH  15  18
ENDBRANCH   1  12
BRANCH   2  20
ATOM     20  O   UNL     1      -6.540 -19.084  34.870  1.00  0.00    -0.502 OA
ATOM     21  H   UNL     1      -6.497 -18.433  35.646  1.00  0.00     0.293 HD
ENDBRANCH   2  20
BRANCH   6  22
ATOM     22  O   UNL     1      -9.216 -23.672  35.267  1.00  0.00    -0.507 OA
ATOM     23  H   UNL     1      -9.725 -22.911  35.690  1.00  0.00     0.293 HD
ENDBRANCH   6  22
BRANCH   8  24
ATOM     24  O   UNL     1      -5.557 -26.760  35.618  1.00  0.00    -0.508 OA
ATOM     25  H   UNL     1      -5.544 -27.402  34.834  1.00  0.00     0.293 HD
ENDBRANCH   8  24
TORSDOF 5
ENDMDL
MODEL 5
REMARK VINA RESULT:    -5.511      2.524      3.926
REMARK INTER + INTRA:          -6.749
REMARK INTER:                  -6.737
REMARK INTRA:                  -0.012
REMARK UNBOUND:                -0.271
REMARK SMILES O=c1c(O)c(-c2ccc(O)cc2)oc2cc(O)cc(O)c12
REMARK SMILES IDX 5 1 3 2 2 3 1 4 21 5 19 6 18 7 16 8 15 9 14 10 13 11 6 12
REMARK SMILES IDX 7 13 8 14 9 15 12 16 11 17 10 18 4 20 20 22 17 24
REMARK H PARENT 10 19 4 21 20 23 17 25
REMARK Flexibility Score: inf
ROOT
ATOM      1  C   UNL     1      -6.850 -23.830  36.060  1.00  0.00     0.180 A 
ATOM      2  C   UNL     1      -5.478 -23.862  36.366  1.00  0.00     0.208 A 
ATOM      3  C   UNL     1      -4.804 -22.653  36.599  1.00  0.00     0.238 A 
ATOM      4  O   UNL     1      -3.596 -22.694  36.946  1.00  0.00    -0.285 OA
ATOM      5  C   UNL     1      -5.494 -21.423  36.467  1.00  0.00     0.111 A 
ATOM      6  C   UNL     1      -4.901 -20.136  36.636  1.00  0.00     0.134 A 
ATOM      7  C   UNL     1      -5.707 -18.992  36.586  1.00  0.00     0.093 A 
ATOM      8  C   UNL     1      -7.072 -19.083  36.310  1.00  0.00     0.123 A 
ATOM      9  C   UNL     1      -7.651 -20.331  36.090  1.00  0.00     0.094 A 
ATOM     10  C   UNL     1      -6.881 -21.495  36.171  1.00  0.00     0.146 A 
ATOM     11  O   UNL     1      -7.478 -22.663  35.976  1.00  0.00    -0.452 OA
ENDROOT
BRANCH   1  12
ATOM     12  C   UNL     1      -7.632 -25.063  35.817  1.00  0.00     0.021 A 
ATOM     13  C   UNL     1      -8.770 -25.324  36.599  1.00  0.00     0.016 A 
ATOM     14  C   UNL     1      -9.511 -26.494  36.402  1.00  0.00     0.047 A 
ATOM     15  C   UNL     1      -9.117 -27.423  35.434  1.00  0.00     0.115 A 
ATOM     16  C   UNL     1      -7.229 -26.011  34.859  1.00  0.00     0.016 A 
ATOM     17  C   UNL     1      -7.971 -27.180  34.665  1.00  0.00     0.047 A 
BRANCH  15  18
ATOM     18  O   UNL     1      -9.865 -28.583  35.249  1.00  0.00    -0.508 OA
ATOM     19  H   UNL     1      -9.736 -29.396  35.839  1.00  0.00     0.293 HD
ENDBRANCH  15  18
ENDBRANCH   1  12
BRANCH   2  20
ATOM     20  O   UNL     1      -4.797 -25.081  36.416  1.00  0.00    -0.502 OA
ATOM     21  H   UNL     1      -4.457 -25.548  35.584  1.00  0.00     0.293 HD
ENDBRANCH   2  20
BRANCH   6  22
ATOM     22  O   UNL     1      -3.532 -19.924  36.827  1.00  0.00    -0.507 OA
ATOM     23  H   UNL     1      -2.798 -20.363  36.291  1.00  0.00     0.293 HD
ENDBRANCH   6  22
BRANCH   8  24
ATOM     24  O   UNL     1      -7.864 -17.938  36.245  1.00  0.00    -0.508 OA
ATOM     25  H   UNL     1      -7.661 -17.192  35.591  1.00  0.00     0.293 HD
ENDBRANCH   8  24
TORSDOF 5
ENDMDL
MODEL 6
REMARK VINA RESULT:    -5.382      3.099      4.802
REMARK INTER + INTRA:          -6.597
REMARK INTER:                  -6.312
REMARK INTRA:                  -0.285
REMARK UNBOUND:                -0.271
REMARK SMILES O=c1c(O)c(-c2ccc(O)cc2)oc2cc(O)cc(O)c12
REMARK SMILES IDX 5 1 3 2 2 3 1 4 21 5 19 6 18 7 16 8 15 9 14 10 13 11 6 12
REMARK SMILES IDX 7 13 8 14 9 15 12 16 11 17 10 18 4 20 20 22 17 24
REMARK H PARENT 10 19 4 21 20 23 17 25
REMARK Flexibility Score: inf
ROOT
ATOM      1  C   UNL     1      -4.206 -19.577  34.866  1.00  0.00     0.180 A 
ATOM      2  C   UNL     1      -3.821 -18.349  34.300  1.00  0.00     0.208 A 
ATOM      3  C   UNL     1      -2.483 -17.939  34.409  1.00  0.00     0.238 A 
ATOM      4  O   UNL     1      -2.131 -16.876  33.836  1.00  0.00    -0.285 OA
ATOM      5  C   UNL     1      -1.559 -18.732  35.131  1.00  0.00     0.111 A 
ATOM      6  C   UNL     1      -0.189 -18.391  35.344  1.00  0.00     0.134 A 
ATOM      7  C   UNL     1       0.659 -19.305  35.983  1.00  0.00     0.093 A 
ATOM      8  C   UNL     1       0.172 -20.518  36.474  1.00  0.00     0.123 A 
ATOM      9  C   UNL     1      -1.175 -20.836  36.320  1.00  0.00     0.094 A 
ATOM     10  C   UNL     1      -2.038 -19.962  35.652  1.00  0.00     0.146 A 
ATOM     11  O   UNL     1      -3.309 -20.315  35.509  1.00  0.00    -0.452 OA
ENDROOT
BRANCH   1  12
ATOM     12  C   UNL     1      -5.594 -20.085  34.780  1.00  0.00     0.021 A 
ATOM     13  C   UNL     1      -5.958 -20.921  33.711  1.00  0.00     0.016 A 
ATOM     14  C   UNL     1      -7.270 -21.394  33.597  1.00  0.00     0.047 A 
ATOM     15  C   UNL     1      -8.236 -21.024  34.538  1.00  0.00     0.115 A 
ATOM     16  C   UNL     1      -6.575 -19.701  35.712  1.00  0.00     0.016 A 
ATOM     17  C   UNL     1      -7.886 -20.173  35.594  1.00  0.00     0.047 A 
BRANCH  15  18
ATOM     18  O   UNL     1      -9.537 -21.504  34.412  1.00  0.00    -0.508 OA
ATOM     19  H   UNL     1      -9.743 -22.494  34.459  1.00  0.00     0.293 HD
ENDBRANCH  15  18
ENDBRANCH   1  12
BRANCH   2  20
ATOM     20  O   UNL     1      -4.766 -17.545  33.658  1.00  0.00    -0.502 OA
ATOM     21  H   UNL     1      -5.613 -17.229  34.116  1.00  0.00     0.293 HD
ENDBRANCH   2  20
BRANCH   6  22
ATOM     22  O   UNL     1       0.382 -17.169  34.974  1.00  0.00    -0.507 OA
ATOM     23  H   UNL     1       0.030 -16.564  34.246  1.00  0.00     0.293 HD
ENDBRANCH   6  22
BRANCH   8  24
ATOM     24  O   UNL     1       1.019 -21.413  37.124  1.00  0.00    -0.508 OA
ATOM     25  H   UNL     1       1.003 -22.404  36.915  1.00  0.00     0.293 HD
ENDBRANCH   8  24
TORSDOF 5
ENDMDL
MODEL 7
REMARK VINA RESULT:    -5.339      2.266      2.899
REMARK INTER + INTRA:          -6.546
REMARK INTER:                  -6.267
REMARK INTRA:                  -0.280
REMARK UNBOUND:                -0.271
REMARK SMILES O=c1c(O)c(-c2ccc(O)cc2)oc2cc(O)cc(O)c12
REMARK SMILES IDX 5 1 3 2 2 3 1 4 21 5 19 6 18 7 16 8 15 9 14 10 13 11 6 12
REMARK SMILES IDX 7 13 8 14 9 15 12 16 11 17 10 18 4 20 20 22 17 24
REMARK H PARENT 10 19 4 21 20 23 17 25
REMARK Flexibility Score: inf
ROOT
ATOM      1  C   UNL     1      -4.871 -21.380  34.904  1.00  0.00     0.180 A 
ATOM      2  C   UNL     1      -5.069 -20.500  33.825  1.00  0.00     0.208 A 
ATOM      3  C   UNL     1      -4.130 -19.483  33.596  1.00  0.00     0.238 A 
ATOM      4  O   UNL     1      -4.274 -18.747  32.586  1.00  0.00    -0.285 OA
ATOM      5  C   UNL     1      -3.035 -19.321  34.479  1.00  0.00     0.111 A 
ATOM      6  C   UNL     1      -2.047 -18.296  34.368  1.00  0.00     0.134 A 
ATOM      7  C   UNL     1      -0.948 -18.299  35.238  1.00  0.00     0.093 A 
ATOM      8  C   UNL     1      -0.836 -19.251  36.253  1.00  0.00     0.123 A 
ATOM      9  C   UNL     1      -1.823 -20.222  36.404  1.00  0.00     0.094 A 
ATOM     10  C   UNL     1      -2.911 -20.268  35.528  1.00  0.00     0.146 A 
ATOM     11  O   UNL     1      -3.817 -21.223  35.695  1.00  0.00    -0.452 OA
ENDROOT
BRANCH   1  12
ATOM     12  C   UNL     1      -5.809 -22.486  35.201  1.00  0.00     0.021 A 
ATOM     13  C   UNL     1      -5.679 -23.705  34.515  1.00  0.00     0.016 A 
ATOM     14  C   UNL     1      -6.568 -24.756  34.763  1.00  0.00     0.047 A 
ATOM     15  C   UNL     1      -7.606 -24.597  35.687  1.00  0.00     0.115 A 
ATOM     16  C   UNL     1      -6.867 -22.326  36.114  1.00  0.00     0.016 A 
ATOM     17  C   UNL     1      -7.755 -23.377  36.359  1.00  0.00     0.047 A 
BRANCH  15  18
ATOM     18  O   UNL     1      -8.483 -25.652  35.924  1.00  0.00    -0.508 OA
ATOM     19  H   UNL     1      -9.017 -26.075  35.174  1.00  0.00     0.293 HD
ENDBRANCH  15  18
ENDBRANCH   1  12
BRANCH   2  20
ATOM     20  O   UNL     1      -6.197 -20.629  33.011  1.00  0.00    -0.502 OA
ATOM     21  H   UNL     1      -6.539 -21.528  32.693  1.00  0.00     0.293 HD
ENDBRANCH   2  20
BRANCH   6  22
ATOM     22  O   UNL     1      -2.106 -17.246  33.447  1.00  0.00    -0.507 OA
ATOM     23  H   UNL     1      -1.308 -16.833  32.989  1.00  0.00     0.293 HD
ENDBRANCH   6  22
BRANCH   8  24
ATOM     24  O   UNL     1       0.252 -19.236  37.125  1.00  0.00    -0.508 OA
ATOM     25  H   UNL     1       0.589 -20.084  37.564  1.00  0.00     0.293 HD
ENDBRANCH   8  24
TORSDOF 5
ENDMDL
MODEL 8
REMARK VINA RESULT:    -5.291      1.735      3.212
REMARK INTER + INTRA:          -6.490
REMARK INTER:                  -6.405
REMARK INTRA:                  -0.085
REMARK UNBOUND:                -0.271
REMARK SMILES O=c1c(O)c(-c2ccc(O)cc2)oc2cc(O)cc(O)c12
REMARK SMILES IDX 5 1 3 2 2 3 1 4 21 5 19 6 18 7 16 8 15 9 14 10 13 11 6 12
REMARK SMILES IDX 7 13 8 14 9 15 12 16 11 17 10 18 4 20 20 22 17 24
REMARK H PARENT 10 19 4 21 20 23 17 25
REMARK Flexibility Score: inf
ROOT
ATOM      1  C   UNL     1      -6.369 -22.833  35.550  1.00  0.00     0.180 A 
ATOM      2  C   UNL     1      -5.224 -22.688  34.747  1.00  0.00     0.208 A 
ATOM      3  C   UNL     1      -4.782 -21.396  34.420  1.00  0.00     0.238 A 
ATOM      4  O   UNL     1      -3.715 -21.273  33.765  1.00  0.00    -0.285 OA
ATOM      5  C   UNL     1      -5.519 -20.267  34.850  1.00  0.00     0.111 A 
ATOM      6  C   UNL     1      -5.189 -18.914  34.539  1.00  0.00     0.134 A 
ATOM      7  C   UNL     1      -5.932 -17.872  35.110  1.00  0.00     0.093 A 
ATOM      8  C   UNL     1      -7.032 -18.136  35.928  1.00  0.00     0.123 A 
ATOM      9  C   UNL     1      -7.397 -19.454  36.193  1.00  0.00     0.094 A 
ATOM     10  C   UNL     1      -6.652 -20.515  35.670  1.00  0.00     0.146 A 
ATOM     11  O   UNL     1      -7.021 -21.754  35.966  1.00  0.00    -0.452 OA
ENDROOT
BRANCH   1  12
ATOM     12  C   UNL     1      -6.888 -24.160  35.950  1.00  0.00     0.021 A 
ATOM     13  C   UNL     1      -8.222 -24.495  35.662  1.00  0.00     0.016 A 
ATOM     14  C   UNL     1      -8.741 -25.734  36.051  1.00  0.00     0.047 A 
ATOM     15  C   UNL     1      -7.940 -26.647  36.743  1.00  0.00     0.115 A 
ATOM     16  C   UNL     1      -6.093 -25.075  36.665  1.00  0.00     0.016 A 
ATOM     17  C   UNL     1      -6.615 -26.312  37.053  1.00  0.00     0.047 A 
BRANCH  15  18
ATOM     18  O   UNL     1      -8.470 -27.878  37.123  1.00  0.00    -0.508 OA
ATOM     19  H   UNL     1      -9.142 -28.366  36.542  1.00  0.00     0.293 HD
ENDBRANCH  15  18
ENDBRANCH   1  12
BRANCH   2  20
ATOM     20  O   UNL     1      -4.553 -23.816  34.268  1.00  0.00    -0.502 OA
ATOM     21  H   UNL     1      -3.804 -23.756  33.589  1.00  0.00     0.293 HD
ENDBRANCH   2  20
BRANCH   6  22
ATOM     22  O   UNL     1      -4.165 -18.538  33.663  1.00  0.00    -0.507 OA
ATOM     23  H   UNL     1      -3.463 -17.841  33.861  1.00  0.00     0.293 HD
ENDBRANCH   6  22
BRANCH   8  24
ATOM     24  O   UNL     1      -7.777 -17.094  36.477  1.00  0.00    -0.508 OA
ATOM     25  H   UNL     1      -8.318 -17.220  37.324  1.00  0.00     0.293 HD
ENDBRANCH   8  24
TORSDOF 5
ENDMDL
MODEL 9
REMARK VINA RESULT:    -4.176      2.747      4.239
REMARK INTER + INTRA:          -5.179
REMARK INTER:                  -4.896
REMARK INTRA:                  -0.283
REMARK UNBOUND:                -0.271
REMARK SMILES O=c1c(O)c(-c2ccc(O)cc2)oc2cc(O)cc(O)c12
REMARK SMILES IDX 5 1 3 2 2 3 1 4 21 5 19 6 18 7 16 8 15 9 14 10 13 11 6 12
REMARK SMILES IDX 7 13 8 14 9 15 12 16 11 17 10 18 4 20 20 22 17 24
REMARK H PARENT 10 19 4 21 20 23 17 25
REMARK Flexibility Score: inf
ROOT
ATOM      1  C   UNL     1      -5.384 -20.811  34.912  1.00  0.00     0.180 A 
ATOM      2  C   UNL     1      -4.818 -21.749  35.793  1.00  0.00     0.208 A 
ATOM      3  C   UNL     1      -3.516 -21.534  36.271  1.00  0.00     0.238 A 
ATOM      4  O   UNL     1      -3.045 -22.338  37.117  1.00  0.00    -0.285 OA
ATOM      5  C   UNL     1      -2.774 -20.416  35.819  1.00  0.00     0.111 A 
ATOM      6  C   UNL     1      -1.430 -20.125  36.203  1.00  0.00     0.134 A 
ATOM      7  C   UNL     1      -0.833 -18.931  35.775  1.00  0.00     0.093 A 
ATOM      8  C   UNL     1      -1.509 -18.051  34.927  1.00  0.00     0.123 A 
ATOM      9  C   UNL     1      -2.800 -18.353  34.503  1.00  0.00     0.094 A 
ATOM     10  C   UNL     1      -3.437 -19.517  34.943  1.00  0.00     0.146 A 
ATOM     11  O   UNL     1      -4.676 -19.755  34.532  1.00  0.00    -0.452 OA
ENDROOT
BRANCH   1  12
ATOM     12  C   UNL     1      -6.757 -20.960  34.377  1.00  0.00     0.021 A 
ATOM     13  C   UNL     1      -7.847 -20.499  35.135  1.00  0.00     0.016 A 
ATOM     14  C   UNL     1      -9.154 -20.651  34.659  1.00  0.00     0.047 A 
ATOM     15  C   UNL     1      -9.388 -21.277  33.432  1.00  0.00     0.115 A 
ATOM     16  C   UNL     1      -7.001 -21.608  33.153  1.00  0.00     0.016 A 
ATOM     17  C   UNL     1      -8.308 -21.760  32.681  1.00  0.00     0.047 A 
BRANCH  15  18
ATOM     18  O   UNL     1     -10.695 -21.420  32.971  1.00  0.00    -0.508 OA
ATOM     19  H   UNL     1     -11.029 -20.910  32.162  1.00  0.00     0.293 HD
ENDBRANCH  15  18
ENDBRANCH   1  12
BRANCH   2  20
ATOM     20  O   UNL     1      -5.539 -22.886  36.167  1.00  0.00    -0.502 OA
ATOM     21  H   UNL     1      -5.550 -23.731  35.608  1.00  0.00     0.293 HD
ENDBRANCH   2  20
BRANCH   6  22
ATOM     22  O   UNL     1      -0.633 -20.976  36.974  1.00  0.00    -0.507 OA
ATOM     23  H   UNL     1       0.338 -20.813  37.197  1.00  0.00     0.293 HD
ENDBRANCH   6  22
BRANCH   8  24
ATOM     24  O   UNL     1      -0.901 -16.875  34.492  1.00  0.00    -0.508 OA
ATOM     25  H   UNL     1      -0.211 -16.879  33.750  1.00  0.00     0.293 HD
ENDBRANCH   8  24
TORSDOF 5
ENDMDL
