MODEL 1
REMARK VINA RESULT:    -4.246      0.000      0.000
REMARK INTER + INTRA:          -5.308
REMARK INTER:                  -4.990
REMARK INTRA:                  -0.318
REMARK UNBOUND:                -0.318
REMARK SMILES O=c1cc(-c2ccc(O)c(O)c2)oc2cc(O)cc(O)c12
REMARK SMILES IDX 4 1 3 2 2 3 1 4 21 5 19 6 18 7 16 8 15 9 14 10 13 11 5 12
REMARK SMILES IDX 6 13 7 14 8 15 12 16 10 17 9 18 11 20 20 22 17 24
REMARK H PARENT 9 19 11 21 20 23 17 25
REMARK Flexibility Score: inf
ROOT
ATOM      1  C   UNL     1      64.187  48.457  13.784  1.00  0.00     0.138 A 
ATOM      2  C   UNL     1      64.958  47.304  13.576  1.00  0.00     0.100 A 
ATOM      3  C   UNL     1      65.545  46.660  14.667  1.00  0.00     0.197 A 
ATOM      4  O   UNL     1      66.179  45.594  14.456  1.00  0.00    -0.289 OA
ATOM      5  C   UNL     1      65.384  47.192  15.968  1.00  0.00     0.107 A 
ATOM      6  C   UNL     1      65.970  46.644  17.149  1.00  0.00     0.134 A 
ATOM      7  C   UNL     1      65.645  47.189  18.397  1.00  0.00     0.093 A 
ATOM      8  C   UNL     1      64.804  48.300  18.502  1.00  0.00     0.123 A 
ATOM      9  C   UNL     1      64.270  48.876  17.352  1.00  0.00     0.094 A 
ATOM     10  C   UNL     1      64.548  48.333  16.094  1.00  0.00     0.146 A 
ATOM     11  O   UNL     1      64.006  48.904  15.023  1.00  0.00    -0.456 OA
ENDROOT
BRANCH   1  12
ATOM     12  C   UNL     1      63.542  49.181  12.661  1.00  0.00     0.021 A 
ATOM     13  C   UNL     1      63.596  48.639  11.366  1.00  0.00     0.016 A 
ATOM     14  C   UNL     1      62.991  49.298  10.294  1.00  0.00     0.051 A 
ATOM     15  C   UNL     1      62.312  50.503  10.495  1.00  0.00     0.157 A 
ATOM     16  C   UNL     1      62.845  50.389  12.863  1.00  0.00     0.062 A 
ATOM     17  C   UNL     1      62.236  51.051  11.786  1.00  0.00     0.158 A 
BRANCH  15  18
ATOM     18  O   UNL     1      61.719  51.138   9.405  1.00  0.00    -0.504 OA
ATOM     19  H   UNL     1      62.174  51.896   8.911  1.00  0.00     0.293 HD
ENDBRANCH  15  18
BRANCH  17  20
ATOM     20  O   UNL     1      61.551  52.247  11.997  1.00  0.00    -0.504 OA
ATOM     21  H   UNL     1      60.590  52.261  12.316  1.00  0.00     0.293 HD
ENDBRANCH  17  20
ENDBRANCH   1  12
BRANCH   6  22
ATOM     22  O   UNL     1      66.887  45.590  17.148  1.00  0.00    -0.507 OA
ATOM     23  H   UNL     1      67.803  45.622  16.727  1.00  0.00     0.293 HD
ENDBRANCH   6  22
BRANCH   8  24
ATOM     24  O   UNL     1      64.498  48.845  19.748  1.00  0.00    -0.508 OA
ATOM     25  H   UNL     1      63.717  48.506  20.296  1.00  0.00     0.293 HD
ENDBRANCH   8  24
TORSDOF 5
ENDMDL
MODEL 2
REMARK VINA RESULT:    -4.207      2.488      7.002
REMARK INTER + INTRA:          -5.262
REMARK INTER:                  -4.980
REMARK INTRA:                  -0.282
REMARK UNBOUND:                -0.318
REMARK SMILES O=c1cc(-c2ccc(O)c(O)c2)oc2cc(O)cc(O)c12
REMARK SMILES IDX 4 1 3 2 2 3 1 4 21 5 19 6 18 7 16 8 15 9 14 10 13 11 5 12
REMARK SMILES IDX 6 13 7 14 8 15 12 16 10 17 9 18 11 20 20 22 17 24
REMARK H PARENT 9 19 11 21 20 23 17 25
REMARK Flexibility Score: inf
ROOT
ATOM      1  C   UNL     1      62.844  49.306  13.875  1.00  0.00     0.138 A 
ATOM      2  C   UNL     1      63.095  50.112  12.755  1.00  0.00     0.100 A 
ATOM      3  C   UNL     1      62.025  50.653  12.041  1.00  0.00     0.197 A 
ATOM      4  O   UNL     1      62.281  51.422  11.079  1.00  0.00    -0.289 OA
ATOM      5  C   UNL     1      60.697  50.360  12.433  1.00  0.00     0.107 A 
ATOM      6  C   UNL     1      59.529  50.821  11.755  1.00  0.00     0.134 A 
ATOM      7  C   UNL     1      58.266  50.562  12.303  1.00  0.00     0.093 A 
ATOM      8  C   UNL     1      58.127  49.806  13.470  1.00  0.00     0.123 A 
ATOM      9  C   UNL     1      59.259  49.305  14.109  1.00  0.00     0.094 A 
ATOM     10  C   UNL     1      60.535  49.576  13.606  1.00  0.00     0.146 A 
ATOM     11  O   UNL     1      61.589  49.091  14.254  1.00  0.00    -0.456 OA
ENDROOT
BRANCH   1  12
ATOM     12  C   UNL     1      63.944  48.705  14.670  1.00  0.00     0.021 A 
ATOM     13  C   UNL     1      64.897  47.895  14.030  1.00  0.00     0.016 A 
ATOM     14  C   UNL     1      65.946  47.323  14.753  1.00  0.00     0.051 A 
ATOM     15  C   UNL     1      66.068  47.557  16.126  1.00  0.00     0.157 A 
ATOM     16  C   UNL     1      64.079  48.949  16.051  1.00  0.00     0.062 A 
ATOM     17  C   UNL     1      65.132  48.376  16.778  1.00  0.00     0.158 A 
BRANCH  15  18
ATOM     18  O   UNL     1      67.125  46.971  16.823  1.00  0.00    -0.504 OA
ATOM     19  H   UNL     1      67.428  46.022  16.642  1.00  0.00     0.293 HD
ENDBRANCH  15  18
BRANCH  17  20
ATOM     20  O   UNL     1      65.255  48.622  18.145  1.00  0.00    -0.504 OA
ATOM     21  H   UNL     1      65.584  47.911  18.786  1.00  0.00     0.293 HD
ENDBRANCH  17  20
ENDBRANCH   1  12
BRANCH   6  22
ATOM     22  O   UNL     1      59.552  51.511  10.540  1.00  0.00    -0.507 OA
ATOM     23  H   UNL     1      60.365  51.963  10.149  1.00  0.00     0.293 HD
ENDBRANCH   6  22
BRANCH   8  24
ATOM     24  O   UNL     1      56.866  49.541  13.999  1.00  0.00    -0.508 OA
ATOM     25  H   UNL     1      56.570  48.596  14.212  1.00  0.00     0.293 HD
ENDBRANCH   8  24
TORSDOF 5
ENDMDL
MODEL 3
REMARK VINA RESULT:    -4.149      1.474      1.913
REMARK INTER + INTRA:          -5.194
REMARK INTER:                  -4.899
REMARK INTRA:                  -0.296
REMARK UNBOUND:                -0.318
REMARK SMILES O=c1cc(-c2ccc(O)c(O)c2)oc2cc(O)cc(O)c12
REMARK SMILES IDX 4 1 3 2 2 3 1 4 21 5 19 6 18 7 16 8 15 9 14 10 13 11 5 12
REMARK SMILES IDX 6 13 7 14 8 15 12 16 10 17 9 18 11 20 20 22 17 24
REMARK H PARENT 9 19 11 21 20 23 17 25
REMARK Flexibility Score: inf
ROOT
ATOM      1  C   UNL     1      63.177  49.122  13.859  1.00  0.00     0.138 A 
ATOM      2  C   UNL     1      64.477  48.756  13.480  1.00  0.00     0.100 A 
ATOM      3  C   UNL     1      65.340  48.200  14.426  1.00  0.00     0.197 A 
ATOM      4  O   UNL     1      66.478  47.824  14.042  1.00  0.00    -0.289 OA
ATOM      5  C   UNL     1      64.909  48.041  15.764  1.00  0.00     0.107 A 
ATOM      6  C   UNL     1      65.717  47.525  16.822  1.00  0.00     0.134 A 
ATOM      7  C   UNL     1      65.145  47.304  18.081  1.00  0.00     0.093 A 
ATOM      8  C   UNL     1      63.812  47.638  18.337  1.00  0.00     0.123 A 
ATOM      9  C   UNL     1      63.031  48.192  17.326  1.00  0.00     0.094 A 
ATOM     10  C   UNL     1      63.563  48.393  16.049  1.00  0.00     0.146 A 
ATOM     11  O   UNL     1      62.780  48.911  15.109  1.00  0.00    -0.456 OA
ENDROOT
BRANCH   1  12
ATOM     12  C   UNL     1      62.219  49.718  12.895  1.00  0.00     0.021 A 
ATOM     13  C   UNL     1      60.868  49.853  13.257  1.00  0.00     0.016 A 
ATOM     14  C   UNL     1      59.947  50.417  12.371  1.00  0.00     0.051 A 
ATOM     15  C   UNL     1      60.359  50.865  11.112  1.00  0.00     0.157 A 
ATOM     16  C   UNL     1      62.632  50.183  11.631  1.00  0.00     0.062 A 
ATOM     17  C   UNL     1      61.708  50.750  10.741  1.00  0.00     0.158 A 
BRANCH  15  18
ATOM     18  O   UNL     1      59.417  51.422  10.249  1.00  0.00    -0.504 OA
ATOM     19  H   UNL     1      58.654  51.998  10.583  1.00  0.00     0.293 HD
ENDBRANCH  15  18
BRANCH  17  20
ATOM     20  O   UNL     1      62.129  51.205   9.491  1.00  0.00    -0.504 OA
ATOM     21  H   UNL     1      61.467  51.442   8.762  1.00  0.00     0.293 HD
ENDBRANCH  17  20
ENDBRANCH   1  12
BRANCH   6  22
ATOM     22  O   UNL     1      67.078  47.237  16.696  1.00  0.00    -0.507 OA
ATOM     23  H   UNL     1      67.795  47.918  16.493  1.00  0.00     0.293 HD
ENDBRANCH   6  22
BRANCH   8  24
ATOM     24  O   UNL     1      63.257  47.428  19.597  1.00  0.00    -0.508 OA
ATOM     25  H   UNL     1      63.836  47.341  20.424  1.00  0.00     0.293 HD
ENDBRANCH   8  24
TORSDOF 5
ENDMDL
MODEL 4
REMARK VINA RESULT:    -4.146      2.255      7.690
REMARK INTER + INTRA:          -5.191
REMARK INTER:                  -4.873
REMARK INTRA:                  -0.318
REMARK UNBOUND:                -0.318
REMARK SMILES O=c1cc(-c2ccc(O)c(O)c2)oc2cc(O)cc(O)c12
REMARK SMILES IDX 4 1 3 2 2 3 1 4 21 5 19 6 18 7 16 8 15 9 14 10 13 11 5 12
REMARK SMILES IDX 6 13 7 14 8 15 12 16 10 17 9 18 11 20 20 22 17 24
REMARK H PARENT 9 19 11 21 20 23 17 25
REMARK Flexibility Score: inf
ROOT
ATOM      1  C   UNL     1      62.083  49.432  13.137  1.00  0.00     0.138 A 
ATOM      2  C   UNL     1      60.733  49.056  13.099  1.00  0.00     0.100 A 
ATOM      3  C   UNL     1      59.991  49.263  11.934  1.00  0.00     0.197 A 
ATOM      4  O   UNL     1      58.801  48.859  11.909  1.00  0.00    -0.289 OA
ATOM      5  C   UNL     1      60.598  49.878  10.814  1.00  0.00     0.107 A 
ATOM      6  C   UNL     1      59.929  50.177   9.589  1.00  0.00     0.134 A 
ATOM      7  C   UNL     1      60.663  50.682   8.508  1.00  0.00     0.093 A 
ATOM      8  C   UNL     1      62.028  50.956   8.627  1.00  0.00     0.123 A 
ATOM      9  C   UNL     1      62.678  50.719   9.836  1.00  0.00     0.094 A 
ATOM     10  C   UNL     1      61.982  50.183  10.922  1.00  0.00     0.146 A 
ATOM     11  O   UNL     1      62.643  49.958  12.052  1.00  0.00    -0.456 OA
ENDROOT
BRANCH   1  12
ATOM     12  C   UNL     1      62.917  49.236  14.348  1.00  0.00     0.021 A 
ATOM     13  C   UNL     1      62.359  48.617  15.480  1.00  0.00     0.016 A 
ATOM     14  C   UNL     1      63.125  48.414  16.630  1.00  0.00     0.051 A 
ATOM     15  C   UNL     1      64.464  48.816  16.669  1.00  0.00     0.157 A 
ATOM     16  C   UNL     1      64.270  49.627  14.387  1.00  0.00     0.062 A 
ATOM     17  C   UNL     1      65.040  49.423  15.541  1.00  0.00     0.158 A 
BRANCH  15  18
ATOM     18  O   UNL     1      65.203  48.602  17.832  1.00  0.00    -0.504 OA
ATOM     19  H   UNL     1      65.582  47.694  18.069  1.00  0.00     0.293 HD
ENDBRANCH  15  18
BRANCH  17  20
ATOM     20  O   UNL     1      66.378  49.816  15.569  1.00  0.00    -0.504 OA
ATOM     21  H   UNL     1      67.077  49.289  16.079  1.00  0.00     0.293 HD
ENDBRANCH  17  20
ENDBRANCH   1  12
BRANCH   6  22
ATOM     22  O   UNL     1      58.555  50.021   9.392  1.00  0.00    -0.507 OA
ATOM     23  H   UNL     1      58.129  49.674   8.545  1.00  0.00     0.293 HD
ENDBRANCH   6  22
BRANCH   8  24
ATOM     24  O   UNL     1      62.745  51.473   7.551  1.00  0.00    -0.508 OA
ATOM     25  H   UNL     1      63.427  52.212   7.675  1.00  0.00     0.293 HD
ENDBRANCH   8  24
TORSDOF 5
ENDMDL
MODEL 5
REMARK VINA RESULT:    -4.131      2.017      3.568
REMARK INTER + INTRA:          -5.173
REMARK INTER:                  -4.901
REMARK INTRA:                  -0.272
REMARK UNBOUND:                -0.318
REMARK SMILES O=c1cc(-c2ccc(O)c(O)c2)oc2cc(O)cc(O)c12
REMARK SMILES IDX 4 1 3 2 2 3 1 4 21 5 19 6 18 7 16 8 15 9 14 10 13 11 5 12
REMARK SMILES IDX 6 13 7 14 8 15 12 16 10 17 9 18 11 20 20 22 17 24
REMARK H PARENT 9 19 11 21 20 23 17 25
REMARK Flexibility Score: inf
ROOT
ATOM      1  C   UNL     1      63.508  49.037  13.176  1.00  0.00     0.138 A 
ATOM      2  C   UNL     1      64.051  49.658  14.310  1.00  0.00     0.100 A 
ATOM      3  C   UNL     1      65.079  49.030  15.016  1.00  0.00     0.197 A 
ATOM      4  O   UNL     1      65.588  49.640  15.991  1.00  0.00    -0.289 OA
ATOM      5  C   UNL     1      65.544  47.760  14.600  1.00  0.00     0.107 A 
ATOM      6  C   UNL     1      66.558  47.008  15.266  1.00  0.00     0.134 A 
ATOM      7  C   UNL     1      67.017  45.814  14.696  1.00  0.00     0.093 A 
ATOM      8  C   UNL     1      66.456  45.315  13.517  1.00  0.00     0.123 A 
ATOM      9  C   UNL     1      65.429  46.014  12.889  1.00  0.00     0.094 A 
ATOM     10  C   UNL     1      64.973  47.226  13.414  1.00  0.00     0.146 A 
ATOM     11  O   UNL     1      64.001  47.869  12.776  1.00  0.00    -0.456 OA
ENDROOT
BRANCH   1  12
ATOM     12  C   UNL     1      62.414  49.659  12.391  1.00  0.00     0.021 A 
ATOM     13  C   UNL     1      61.147  49.821  12.977  1.00  0.00     0.016 A 
ATOM     14  C   UNL     1      60.102  50.410  12.261  1.00  0.00     0.051 A 
ATOM     15  C   UNL     1      60.305  50.856  10.952  1.00  0.00     0.157 A 
ATOM     16  C   UNL     1      62.617  50.123  11.076  1.00  0.00     0.062 A 
ATOM     17  C   UNL     1      61.569  50.716  10.357  1.00  0.00     0.158 A 
BRANCH  15  18
ATOM     18  O   UNL     1      59.242  51.439  10.262  1.00  0.00    -0.504 OA
ATOM     19  H   UNL     1      58.606  50.893   9.694  1.00  0.00     0.293 HD
ENDBRANCH  15  18
BRANCH  17  20
ATOM     20  O   UNL     1      61.781  51.169   9.055  1.00  0.00    -0.504 OA
ATOM     21  H   UNL     1      61.237  51.927   8.662  1.00  0.00     0.293 HD
ENDBRANCH  17  20
ENDBRANCH   1  12
BRANCH   6  22
ATOM     22  O   UNL     1      67.124  47.373  16.490  1.00  0.00    -0.507 OA
ATOM     23  H   UNL     1      67.096  46.814  17.329  1.00  0.00     0.293 HD
ENDBRANCH   6  22
BRANCH   8  24
ATOM     24  O   UNL     1      66.910  44.118  12.966  1.00  0.00    -0.508 OA
ATOM     25  H   UNL     1      67.648  44.101  12.272  1.00  0.00     0.293 HD
ENDBRANCH   8  24
TORSDOF 5
ENDMDL
MODEL 6
REMARK VINA RESULT:    -4.113      1.990      7.788
REMARK INTER + INTRA:          -5.152
REMARK INTER:                  -4.855
REMARK INTRA:                  -0.297
REMARK UNBOUND:                -0.318
REMARK SMILES O=c1cc(-c2ccc(O)c(O)c2)oc2cc(O)cc(O)c12
REMARK SMILES IDX 4 1 3 2 2 3 1 4 21 5 19 6 18 7 16 8 15 9 14 10 13 11 5 12
REMARK SMILES IDX 6 13 7 14 8 15 12 16 10 17 9 18 11 20 20 22 17 24
REMARK H PARENT 9 19 11 21 20 23 17 25
REMARK Flexibility Score: inf
ROOT
ATOM      1  C   UNL     1      63.069  49.510  12.348  1.00  0.00     0.138 A 
ATOM      2  C   UNL     1      62.018  50.355  12.733  1.00  0.00     0.100 A 
ATOM      3  C   UNL     1      61.067  50.749  11.790  1.00  0.00     0.197 A 
ATOM      4  O   UNL     1      60.102  51.455  12.179  1.00  0.00    -0.289 OA
ATOM      5  C   UNL     1      61.189  50.319  10.448  1.00  0.00     0.107 A 
ATOM      6  C   UNL     1      60.303  50.692   9.392  1.00  0.00     0.134 A 
ATOM      7  C   UNL     1      60.455  50.111   8.126  1.00  0.00     0.093 A 
ATOM      8  C   UNL     1      61.498  49.219   7.863  1.00  0.00     0.123 A 
ATOM      9  C   UNL     1      62.401  48.891   8.872  1.00  0.00     0.094 A 
ATOM     10  C   UNL     1      62.254  49.427  10.154  1.00  0.00     0.146 A 
ATOM     11  O   UNL     1      63.128  49.077  11.092  1.00  0.00    -0.456 OA
ENDROOT
BRANCH   1  12
ATOM     12  C   UNL     1      64.107  49.061  13.309  1.00  0.00     0.021 A 
ATOM     13  C   UNL     1      65.144  48.224  12.865  1.00  0.00     0.016 A 
ATOM     14  C   UNL     1      66.138  47.794  13.748  1.00  0.00     0.051 A 
ATOM     15  C   UNL     1      66.119  48.199  15.085  1.00  0.00     0.157 A 
ATOM     16  C   UNL     1      64.099  49.478  14.654  1.00  0.00     0.062 A 
ATOM     17  C   UNL     1      65.097  49.047  15.541  1.00  0.00     0.158 A 
BRANCH  15  18
ATOM     18  O   UNL     1      67.123  47.752  15.944  1.00  0.00    -0.504 OA
ATOM     19  H   UNL     1      67.974  48.279  16.097  1.00  0.00     0.293 HD
ENDBRANCH  15  18
BRANCH  17  20
ATOM     20  O   UNL     1      65.078  49.464  16.872  1.00  0.00    -0.504 OA
ATOM     21  H   UNL     1      64.624  48.918  17.594  1.00  0.00     0.293 HD
ENDBRANCH  17  20
ENDBRANCH   1  12
BRANCH   6  22
ATOM     22  O   UNL     1      59.282  51.636   9.526  1.00  0.00    -0.507 OA
ATOM     23  H   UNL     1      58.394  51.597   9.049  1.00  0.00     0.293 HD
ENDBRANCH   6  22
BRANCH   8  24
ATOM     24  O   UNL     1      61.651  48.658   6.597  1.00  0.00    -0.508 OA
ATOM     25  H   UNL     1      62.504  48.182   6.328  1.00  0.00     0.293 HD
ENDBRANCH   8  24
TORSDOF 5
ENDMDL
MODEL 7
REMARK VINA RESULT:    -4.053      2.964      7.284
REMARK INTER + INTRA:          -5.081
REMARK INTER:                  -4.790
REMARK INTRA:                  -0.291
REMARK UNBOUND:                -0.318
REMARK SMILES O=c1cc(-c2ccc(O)c(O)c2)oc2cc(O)cc(O)c12
REMARK SMILES IDX 4 1 3 2 2 3 1 4 21 5 19 6 18 7 16 8 15 9 14 10 13 11 5 12
REMARK SMILES IDX 6 13 7 14 8 15 12 16 10 17 9 18 11 20 20 22 17 24
REMARK H PARENT 9 19 11 21 20 23 17 25
REMARK Flexibility Score: inf
ROOT
ATOM      1  C   UNL     1      62.018  48.894  14.669  1.00  0.00     0.138 A 
ATOM      2  C   UNL     1      60.869  48.726  15.454  1.00  0.00     0.100 A 
ATOM      3  C   UNL     1      59.631  49.148  14.965  1.00  0.00     0.197 A 
ATOM      4  O   UNL     1      58.609  48.928  15.665  1.00  0.00    -0.289 OA
ATOM      5  C   UNL     1      59.551  49.769  13.696  1.00  0.00     0.107 A 
ATOM      6  C   UNL     1      58.351  50.276  13.113  1.00  0.00     0.134 A 
ATOM      7  C   UNL     1      58.374  50.765  11.801  1.00  0.00     0.093 A 
ATOM      8  C   UNL     1      59.566  50.823  11.074  1.00  0.00     0.123 A 
ATOM      9  C   UNL     1      60.753  50.381  11.653  1.00  0.00     0.094 A 
ATOM     10  C   UNL     1      60.756  49.855  12.948  1.00  0.00     0.146 A 
ATOM     11  O   UNL     1      61.907  49.430  13.458  1.00  0.00    -0.456 OA
ENDROOT
BRANCH   1  12
ATOM     12  C   UNL     1      63.358  48.465  15.141  1.00  0.00     0.021 A 
ATOM     13  C   UNL     1      63.515  47.195  15.719  1.00  0.00     0.016 A 
ATOM     14  C   UNL     1      64.766  46.764  16.164  1.00  0.00     0.051 A 
ATOM     15  C   UNL     1      65.887  47.590  16.032  1.00  0.00     0.157 A 
ATOM     16  C   UNL     1      64.492  49.289  14.997  1.00  0.00     0.062 A 
ATOM     17  C   UNL     1      65.750  48.857  15.442  1.00  0.00     0.158 A 
BRANCH  15  18
ATOM     18  O   UNL     1      67.123  47.134  16.487  1.00  0.00    -0.504 OA
ATOM     19  H   UNL     1      67.463  47.339  17.418  1.00  0.00     0.293 HD
ENDBRANCH  15  18
BRANCH  17  20
ATOM     20  O   UNL     1      66.866  49.682  15.297  1.00  0.00    -0.504 OA
ATOM     21  H   UNL     1      67.186  49.987  14.386  1.00  0.00     0.293 HD
ENDBRANCH  17  20
ENDBRANCH   1  12
BRANCH   6  22
ATOM     22  O   UNL     1      57.126  50.342  13.782  1.00  0.00    -0.507 OA
ATOM     23  H   UNL     1      56.356  50.938  13.518  1.00  0.00     0.293 HD
ENDBRANCH   6  22
BRANCH   8  24
ATOM     24  O   UNL     1      59.582  51.326   9.775  1.00  0.00    -0.508 OA
ATOM     25  H   UNL     1      58.787  51.822   9.389  1.00  0.00     0.293 HD
ENDBRANCH   8  24
TORSDOF 5
ENDMDL
MODEL 8
REMARK VINA RESULT:    -4.013      4.285      7.050
REMARK INTER + INTRA:          -5.035
REMARK INTER:                  -4.754
REMARK INTRA:                  -0.281
REMARK UNBOUND:                -0.318
REMARK SMILES O=c1cc(-c2ccc(O)c(O)c2)oc2cc(O)cc(O)c12
REMARK SMILES IDX 4 1 3 2 2 3 1 4 21 5 19 6 18 7 16 8 15 9 14 10 13 11 5 12
REMARK SMILES IDX 6 13 7 14 8 15 12 16 10 17 9 18 11 20 20 22 17 24
REMARK H PARENT 9 19 11 21 20 23 17 25
REMARK Flexibility Score: inf
ROOT
ATOM      1  C   UNL     1      62.353  49.561  18.208  1.00  0.00     0.138 A 
ATOM      2  C   UNL     1      61.012  49.227  17.970  1.00  0.00     0.100 A 
ATOM      3  C   UNL     1      59.998  49.930  18.624  1.00  0.00     0.197 A 
ATOM      4  O   UNL     1      58.805  49.650  18.343  1.00  0.00    -0.289 OA
ATOM      5  C   UNL     1      60.332  50.952  19.543  1.00  0.00     0.107 A 
ATOM      6  C   UNL     1      59.385  51.707  20.298  1.00  0.00     0.134 A 
ATOM      7  C   UNL     1      59.827  52.773  21.091  1.00  0.00     0.093 A 
ATOM      8  C   UNL     1      61.188  53.072  21.205  1.00  0.00     0.123 A 
ATOM      9  C   UNL     1      62.125  52.306  20.514  1.00  0.00     0.094 A 
ATOM     10  C   UNL     1      61.712  51.258  19.687  1.00  0.00     0.146 A 
ATOM     11  O   UNL     1      62.636  50.562  19.035  1.00  0.00    -0.456 OA
ENDROOT
BRANCH   1  12
ATOM     12  C   UNL     1      63.469  48.845  17.542  1.00  0.00     0.021 A 
ATOM     13  C   UNL     1      63.579  47.452  17.683  1.00  0.00     0.016 A 
ATOM     14  C   UNL     1      64.616  46.754  17.060  1.00  0.00     0.051 A 
ATOM     15  C   UNL     1      65.556  47.432  16.277  1.00  0.00     0.157 A 
ATOM     16  C   UNL     1      64.409  49.523  16.741  1.00  0.00     0.062 A 
ATOM     17  C   UNL     1      65.451  48.823  16.114  1.00  0.00     0.158 A 
BRANCH  15  18
ATOM     18  O   UNL     1      66.581  46.709  15.669  1.00  0.00    -0.504 OA
ATOM     19  H   UNL     1      67.018  45.913  16.118  1.00  0.00     0.293 HD
ENDBRANCH  15  18
BRANCH  17  20
ATOM     20  O   UNL     1      66.378  49.504  15.326  1.00  0.00    -0.504 OA
ATOM     21  H   UNL     1      67.358  49.252  15.320  1.00  0.00     0.293 HD
ENDBRANCH  17  20
ENDBRANCH   1  12
BRANCH   6  22
ATOM     22  O   UNL     1      58.014  51.439  20.322  1.00  0.00    -0.507 OA
ATOM     23  H   UNL     1      57.403  51.482  19.520  1.00  0.00     0.293 HD
ENDBRANCH   6  22
BRANCH   8  24
ATOM     24  O   UNL     1      61.620  54.125  22.008  1.00  0.00    -0.508 OA
ATOM     25  H   UNL     1      61.995  53.964  22.935  1.00  0.00     0.293 HD
ENDBRANCH   8  24
TORSDOF 5
ENDMDL
MODEL 9
REMARK VINA RESULT:    -3.975      1.576      6.754
REMARK INTER + INTRA:          -4.990
REMARK INTER:                  -4.708
REMARK INTRA:                  -0.282
REMARK UNBOUND:                -0.318
REMARK SMILES O=c1cc(-c2ccc(O)c(O)c2)oc2cc(O)cc(O)c12
REMARK SMILES IDX 4 1 3 2 2 3 1 4 21 5 19 6 18 7 16 8 15 9 14 10 13 11 5 12
REMARK SMILES IDX 6 13 7 14 8 15 12 16 10 17 9 18 11 20 20 22 17 24
REMARK H PARENT 9 19 11 21 20 23 17 25
REMARK Flexibility Score: inf
ROOT
ATOM      1  C   UNL     1      63.870  48.494  15.405  1.00  0.00     0.138 A 
ATOM      2  C   UNL     1      64.477  47.386  14.797  1.00  0.00     0.100 A 
ATOM      3  C   UNL     1      64.445  47.258  13.407  1.00  0.00     0.197 A 
ATOM      4  O   UNL     1      65.051  46.286  12.887  1.00  0.00    -0.289 OA
ATOM      5  C   UNL     1      63.775  48.229  12.626  1.00  0.00     0.107 A 
ATOM      6  C   UNL     1      63.643  48.180  11.206  1.00  0.00     0.134 A 
ATOM      7  C   UNL     1      63.058  49.258  10.530  1.00  0.00     0.093 A 
ATOM      8  C   UNL     1      62.547  50.355  11.228  1.00  0.00     0.123 A 
ATOM      9  C   UNL     1      62.622  50.388  12.618  1.00  0.00     0.094 A 
ATOM     10  C   UNL     1      63.231  49.343  13.319  1.00  0.00     0.146 A 
ATOM     11  O   UNL     1      63.295  49.420  14.644  1.00  0.00    -0.456 OA
ENDROOT
BRANCH   1  12
ATOM     12  C   UNL     1      63.873  48.679  16.877  1.00  0.00     0.021 A 
ATOM     13  C   UNL     1      62.737  49.212  17.510  1.00  0.00     0.016 A 
ATOM     14  C   UNL     1      62.711  49.389  18.895  1.00  0.00     0.051 A 
ATOM     15  C   UNL     1      63.814  49.030  19.675  1.00  0.00     0.157 A 
ATOM     16  C   UNL     1      64.977  48.306  17.668  1.00  0.00     0.062 A 
ATOM     17  C   UNL     1      64.952  48.483  19.060  1.00  0.00     0.158 A 
BRANCH  15  18
ATOM     18  O   UNL     1      63.760  49.220  21.055  1.00  0.00    -0.504 OA
ATOM     19  H   UNL     1      62.898  49.126  21.578  1.00  0.00     0.293 HD
ENDBRANCH  15  18
BRANCH  17  20
ATOM     20  O   UNL     1      66.052  48.112  19.833  1.00  0.00    -0.504 OA
ATOM     21  H   UNL     1      67.000  48.301  19.533  1.00  0.00     0.293 HD
ENDBRANCH  17  20
ENDBRANCH   1  12
BRANCH   6  22
ATOM     22  O   UNL     1      64.044  47.095  10.422  1.00  0.00    -0.507 OA
ATOM     23  H   UNL     1      64.240  46.170  10.773  1.00  0.00     0.293 HD
ENDBRANCH   6  22
BRANCH   8  24
ATOM     24  O   UNL     1      61.953  51.416  10.547  1.00  0.00    -0.508 OA
ATOM     25  H   UNL     1      62.272  52.370  10.673  1.00  0.00     0.293 HD
ENDBRANCH   8  24
TORSDOF 5
ENDMDL
