MODEL 1
REMARK VINA RESULT:    -4.837      0.000      0.000
REMARK INTER + INTRA:          -7.643
REMARK INTER:                  -7.382
REMARK INTRA:                  -0.261
REMARK UNBOUND:                -0.261
REMARK SMILES CC1=CCC[C@H](C)C(=O)C[C@H](C(C)C)C(=O)C1
REMARK SMILES IDX 8 1 9 2 6 3 7 4 5 5 4 6 3 7 2 8 1 9 10 11 11 12 15 13 16 14
REMARK SMILES IDX 17 15 12 17 13 18 14 19
REMARK H PARENT
REMARK Flexibility Score: 70.00
ROOT
ATOM      1  C   UNL     1     102.683 132.429  50.873  1.00  0.00     0.136 C 
ATOM      2  O   UNL     1     102.880 131.618  49.978  1.00  0.00    -0.299 OA
ENDROOT
BRANCH   1   3
ATOM      3  C   UNL     1     101.735 132.056  51.998  1.00  0.00     0.053 C 
ATOM      4  C   UNL     1     100.324 131.798  51.456  1.00  0.00     0.016 C 
BRANCH   3   5
ATOM      5  C   UNL     1     102.251 130.846  52.799  1.00  0.00     0.015 C 
BRANCH   5   6
ATOM      6  C   UNL     1     103.354 131.242  53.797  1.00  0.00     0.028 C 
BRANCH   6   7
ATOM      7  C   UNL     1     102.844 132.271  54.772  1.00  0.00    -0.028 C 
ATOM      8  C   UNL     1     103.224 133.570  54.786  1.00  0.00    -0.070 CG0
ATOM      9  C   UNL     1     102.672 134.457  55.874  1.00  0.00     0.039 C 
ATOM     10  G   UNL     1     104.163 134.168  53.750  1.00  0.00     0.000 G0
ENDBRANCH   6   7
ENDBRANCH   5   6
ENDBRANCH   3   5
ENDBRANCH   1   3
BRANCH   1  11
ATOM     11  C   UNL     1     103.418 133.750  50.831  1.00  0.00     0.087 C 
BRANCH  11  12
ATOM     12  C   UNL     1     102.695 134.853  51.651  1.00  0.00     0.066 C 
BRANCH  12  13
ATOM     13  C   UNL     1     103.496 135.241  52.888  1.00  0.00     0.140 C 
ATOM     14  O   UNL     1     103.553 136.413  53.231  1.00  0.00    -0.299 OA
BRANCH  13  15
ATOM     15  C   UNL     1     104.168 134.193  53.740  1.00  0.00     0.106 CG0
ATOM     16  G   UNL     1     103.219 133.591  54.766  1.00  0.00     0.000 G0
ENDBRANCH  13  15
ENDBRANCH  12  13
BRANCH  12  17
ATOM     17  C   UNL     1     102.330 136.086  50.769  1.00  0.00    -0.006 C 
ATOM     18  C   UNL     1     103.507 136.511  49.878  1.00  0.00     0.008 C 
ATOM     19  C   UNL     1     101.063 135.896  49.918  1.00  0.00     0.008 C 
ENDBRANCH  12  17
ENDBRANCH  11  12
ENDBRANCH   1  11
TORSDOF 1
ENDMDL
MODEL 2
REMARK VINA RESULT:    -4.837      2.349      2.834
REMARK INTER + INTRA:          -7.643
REMARK INTER:                  -7.288
REMARK INTRA:                  -0.355
REMARK UNBOUND:                -0.261
REMARK SMILES CC1=CCC[C@H](C)C(=O)C[C@H](C(C)C)C(=O)C1
REMARK SMILES IDX 8 1 9 2 6 3 7 4 5 5 4 6 3 7 2 8 1 9 10 11 11 12 15 13 16 14
REMARK SMILES IDX 17 15 12 17 13 18 14 19
REMARK H PARENT
REMARK Flexibility Score: 70.00
ROOT
ATOM      1  C   UNL     1     103.163 132.786  52.251  1.00  0.00     0.136 C 
ATOM      2  O   UNL     1     104.025 132.116  52.804  1.00  0.00    -0.299 OA
ENDROOT
BRANCH   1   3
ATOM      3  C   UNL     1     102.156 132.086  51.358  1.00  0.00     0.053 C 
ATOM      4  C   UNL     1     102.867 131.280  50.264  1.00  0.00     0.016 C 
BRANCH   3   5
ATOM      5  C   UNL     1     101.200 131.193  52.171  1.00  0.00     0.015 C 
BRANCH   5   6
ATOM      6  C   UNL     1      99.809 131.832  52.332  1.00  0.00     0.028 C 
BRANCH   6   7
ATOM      7  C   UNL     1      99.563 132.218  53.767  1.00  0.00    -0.028 C 
ATOM      8  C   UNL     1      99.460 133.491  54.214  1.00  0.00    -0.070 CG0
ATOM      9  C   UNL     1      99.282 133.709  55.695  1.00  0.00     0.039 C 
ATOM     10  G   UNL     1      99.498 134.697  53.288  1.00  0.00     0.000 G0
ENDBRANCH   6   7
ENDBRANCH   5   6
ENDBRANCH   3   5
ENDBRANCH   1   3
BRANCH   1  11
ATOM     11  C   UNL     1     103.125 134.276  52.510  1.00  0.00     0.087 C 
BRANCH  11  12
ATOM     12  C   UNL     1     101.802 134.925  52.021  1.00  0.00     0.066 C 
BRANCH  12  13
ATOM     13  C   UNL     1     100.892 135.282  53.190  1.00  0.00     0.140 C 
ATOM     14  O   UNL     1     101.268 136.087  54.030  1.00  0.00    -0.299 OA
BRANCH  13  15
ATOM     15  C   UNL     1      99.500 134.708  53.295  1.00  0.00     0.106 CG0
ATOM     16  G   UNL     1      99.445 133.497  54.214  1.00  0.00     0.000 G0
ENDBRANCH  13  15
ENDBRANCH  12  13
BRANCH  12  17
ATOM     17  C   UNL     1     102.065 136.142  51.082  1.00  0.00    -0.006 C 
ATOM     18  C   UNL     1     103.536 136.209  50.644  1.00  0.00     0.008 C 
ATOM     19  C   UNL     1     101.144 136.197  49.852  1.00  0.00     0.008 C 
ENDBRANCH  12  17
ENDBRANCH  11  12
ENDBRANCH   1  11
TORSDOF 1
ENDMDL
MODEL 3
REMARK VINA RESULT:    -4.830      1.586      1.962
REMARK INTER + INTRA:          -7.633
REMARK INTER:                  -7.232
REMARK INTRA:                  -0.401
REMARK UNBOUND:                -0.261
REMARK SMILES CC1=CCC[C@H](C)C(=O)C[C@H](C(C)C)C(=O)C1
REMARK SMILES IDX 8 1 9 2 6 3 7 4 5 5 4 6 3 7 2 8 1 9 10 11 11 12 15 13 16 14
REMARK SMILES IDX 17 15 12 17 13 18 14 19
REMARK H PARENT
REMARK Flexibility Score: 70.00
ROOT
ATOM      1  C   UNL     1     102.823 132.166  50.931  1.00  0.00     0.136 C 
ATOM      2  O   UNL     1     102.675 131.574  49.871  1.00  0.00    -0.299 OA
ENDROOT
BRANCH   1   3
ATOM      3  C   UNL     1     102.014 131.719  52.135  1.00  0.00     0.053 C 
ATOM      4  C   UNL     1     100.621 131.242  51.707  1.00  0.00     0.016 C 
BRANCH   3   5
ATOM      5  C   UNL     1     102.749 130.631  52.940  1.00  0.00     0.015 C 
BRANCH   5   6
ATOM      6  C   UNL     1     103.196 131.139  54.323  1.00  0.00     0.028 C 
BRANCH   6   7
ATOM      7  C   UNL     1     104.697 131.092  54.447  1.00  0.00    -0.028 C 
ATOM      8  C   UNL     1     105.499 132.181  54.479  1.00  0.00    -0.070 CG0
ATOM      9  C   UNL     1     106.990 131.960  54.538  1.00  0.00     0.039 C 
ATOM     10  G   UNL     1     104.962 133.604  54.476  1.00  0.00     0.000 G0
ENDBRANCH   6   7
ENDBRANCH   5   6
ENDBRANCH   3   5
ENDBRANCH   1   3
BRANCH   1  11
ATOM     11  C   UNL     1     103.827 133.296  50.998  1.00  0.00     0.087 C 
BRANCH  11  12
ATOM     12  C   UNL     1     103.645 134.171  52.268  1.00  0.00     0.066 C 
BRANCH  12  13
ATOM     13  C   UNL     1     104.921 134.220  53.097  1.00  0.00     0.140 C 
ATOM     14  O   UNL     1     105.905 134.805  52.666  1.00  0.00    -0.299 OA
BRANCH  13  15
ATOM     15  C   UNL     1     104.974 133.616  54.479  1.00  0.00     0.106 CG0
ATOM     16  G   UNL     1     105.499 132.188  54.462  1.00  0.00     0.000 G0
ENDBRANCH  13  15
ENDBRANCH  12  13
BRANCH  12  17
ATOM     17  C   UNL     1     103.109 135.594  51.919  1.00  0.00    -0.006 C 
ATOM     18  C   UNL     1     103.310 135.925  50.432  1.00  0.00     0.008 C 
ATOM     19  C   UNL     1     101.642 135.828  52.319  1.00  0.00     0.008 C 
ENDBRANCH  12  17
ENDBRANCH  11  12
ENDBRANCH   1  11
TORSDOF 1
ENDMDL
MODEL 4
REMARK VINA RESULT:    -4.396      1.649      4.107
REMARK INTER + INTRA:          -6.970
REMARK INTER:                  -7.030
REMARK INTRA:                   0.060
REMARK UNBOUND:                -0.261
REMARK SMILES CC1=CCC[C@H](C)C(=O)C[C@H](C(C)C)C(=O)C1
REMARK SMILES IDX 8 1 9 2 6 3 7 4 5 5 4 6 3 7 2 8 1 9 10 11 11 12 15 13 16 14
REMARK SMILES IDX 17 15 12 17 13 18 14 19
REMARK H PARENT
REMARK Flexibility Score: 70.00
ROOT
ATOM      1  C   UNL     1     101.785 135.190  52.272  1.00  0.00     0.136 C 
ATOM      2  O   UNL     1     101.351 136.130  52.923  1.00  0.00    -0.299 OA
ENDROOT
BRANCH   1   3
ATOM      3  C   UNL     1     102.554 135.480  50.996  1.00  0.00     0.053 C 
ATOM      4  C   UNL     1     101.717 136.340  50.041  1.00  0.00     0.016 C 
BRANCH   3   5
ATOM      5  C   UNL     1     103.914 136.140  51.289  1.00  0.00     0.015 C 
BRANCH   5   6
ATOM      6  C   UNL     1     104.242 136.144  52.792  1.00  0.00     0.028 C 
BRANCH   6   7
ATOM      7  C   UNL     1     105.457 135.298  53.073  1.00  0.00    -0.028 C 
ATOM      8  C   UNL     1     105.454 134.176  53.829  1.00  0.00    -0.070 CG0
ATOM      9  C   UNL     1     106.770 133.481  54.071  1.00  0.00     0.039 C 
ATOM     10  G   UNL     1     104.185 133.583  54.424  1.00  0.00     0.000 G0
ENDBRANCH   6   7
ENDBRANCH   5   6
ENDBRANCH   3   5
ENDBRANCH   1   3
BRANCH   1  11
ATOM     11  C   UNL     1     101.561 133.786  52.786  1.00  0.00     0.087 C 
BRANCH  11  12
ATOM     12  C   UNL     1     102.702 132.817  52.373  1.00  0.00     0.066 C 
BRANCH  12  13
ATOM     13  C   UNL     1     103.596 132.472  53.557  1.00  0.00     0.140 C 
ATOM     14  O   UNL     1     103.886 131.306  53.780  1.00  0.00    -0.299 OA
BRANCH  13  15
ATOM     15  C   UNL     1     104.188 133.555  54.426  1.00  0.00     0.106 CG0
ATOM     16  G   UNL     1     105.446 134.156  53.819  1.00  0.00     0.000 G0
ENDBRANCH  13  15
ENDBRANCH  12  13
BRANCH  12  17
ATOM     17  C   UNL     1     102.153 131.546  51.654  1.00  0.00    -0.006 C 
ATOM     18  C   UNL     1     100.619 131.480  51.718  1.00  0.00     0.008 C 
ATOM     19  C   UNL     1     102.629 131.392  50.200  1.00  0.00     0.008 C 
ENDBRANCH  12  17
ENDBRANCH  11  12
ENDBRANCH   1  11
TORSDOF 1
ENDMDL
MODEL 5
REMARK VINA RESULT:    -4.364      1.966      3.422
REMARK INTER + INTRA:          -6.922
REMARK INTER:                  -6.682
REMARK INTRA:                  -0.240
REMARK UNBOUND:                -0.261
REMARK SMILES CC1=CCC[C@H](C)C(=O)C[C@H](C(C)C)C(=O)C1
REMARK SMILES IDX 8 1 9 2 6 3 7 4 5 5 4 6 3 7 2 8 1 9 10 11 11 12 15 13 16 14
REMARK SMILES IDX 17 15 12 17 13 18 14 19
REMARK H PARENT
REMARK Flexibility Score: 70.00
ROOT
ATOM      1  C   UNL     1     102.498 133.743  50.693  1.00  0.00     0.136 C 
ATOM      2  O   UNL     1     102.379 133.092  49.663  1.00  0.00    -0.299 OA
ENDROOT
BRANCH   1   3
ATOM      3  C   UNL     1     101.485 134.834  50.986  1.00  0.00     0.053 C 
ATOM      4  C   UNL     1     101.774 136.084  50.147  1.00  0.00     0.016 C 
BRANCH   3   5
ATOM      5  C   UNL     1     100.042 134.343  50.770  1.00  0.00     0.015 C 
BRANCH   5   6
ATOM      6  C   UNL     1      99.706 133.127  51.651  1.00  0.00     0.028 C 
BRANCH   6   7
ATOM      7  C   UNL     1      99.564 133.538  53.094  1.00  0.00    -0.028 C 
ATOM      8  C   UNL     1     100.426 133.196  54.079  1.00  0.00    -0.070 CG0
ATOM      9  C   UNL     1     100.103 133.632  55.485  1.00  0.00     0.039 C 
ATOM     10  G   UNL     1     101.704 132.411  53.823  1.00  0.00     0.000 G0
ENDBRANCH   6   7
ENDBRANCH   5   6
ENDBRANCH   3   5
ENDBRANCH   1   3
BRANCH   1  11
ATOM     11  C   UNL     1     103.630 133.407  51.637  1.00  0.00     0.087 C 
BRANCH  11  12
ATOM     12  C   UNL     1     103.498 134.139  53.000  1.00  0.00     0.066 C 
BRANCH  12  13
ATOM     13  C   UNL     1     102.950 133.214  54.079  1.00  0.00     0.140 C 
ATOM     14  O   UNL     1     103.493 133.166  55.173  1.00  0.00    -0.299 OA
BRANCH  13  15
ATOM     15  C   UNL     1     101.701 132.400  53.843  1.00  0.00     0.106 CG0
ATOM     16  G   UNL     1     100.434 133.207  54.085  1.00  0.00     0.000 G0
ENDBRANCH  13  15
ENDBRANCH  12  13
BRANCH  12  17
ATOM     17  C   UNL     1     104.836 134.819  53.426  1.00  0.00    -0.006 C 
ATOM     18  C   UNL     1     106.050 133.947  53.068  1.00  0.00     0.008 C 
ATOM     19  C   UNL     1     105.023 136.241  52.870  1.00  0.00     0.008 C 
ENDBRANCH  12  17
ENDBRANCH  11  12
ENDBRANCH   1  11
TORSDOF 1
ENDMDL
MODEL 6
REMARK VINA RESULT:    -4.282      1.764      4.087
REMARK INTER + INTRA:          -6.796
REMARK INTER:                  -6.499
REMARK INTRA:                  -0.297
REMARK UNBOUND:                -0.261
REMARK SMILES CC1=CCC[C@H](C)C(=O)C[C@H](C(C)C)C(=O)C1
REMARK SMILES IDX 8 1 9 2 6 3 7 4 5 5 4 6 3 7 2 8 1 9 10 11 11 12 15 13 16 14
REMARK SMILES IDX 17 15 12 17 13 18 14 19
REMARK H PARENT
REMARK Flexibility Score: 70.00
ROOT
ATOM      1  C   UNL     1     101.279 132.327  51.765  1.00  0.00     0.136 C 
ATOM      2  O   UNL     1     100.169 132.230  51.260  1.00  0.00    -0.299 OA
ENDROOT
BRANCH   1   3
ATOM      3  C   UNL     1     102.416 132.880  50.927  1.00  0.00     0.053 C 
ATOM      4  C   UNL     1     102.902 131.836  49.914  1.00  0.00     0.016 C 
BRANCH   3   5
ATOM      5  C   UNL     1     102.018 134.191  50.223  1.00  0.00     0.015 C 
BRANCH   5   6
ATOM      6  C   UNL     1     101.640 135.294  51.227  1.00  0.00     0.028 C 
BRANCH   6   7
ATOM      7  C   UNL     1     102.851 135.748  52.000  1.00  0.00    -0.028 C 
ATOM      8  C   UNL     1     102.969 135.691  53.347  1.00  0.00    -0.070 CG0
ATOM      9  C   UNL     1     104.222 136.251  53.972  1.00  0.00     0.039 C 
ATOM     10  G   UNL     1     101.907 135.074  54.244  1.00  0.00     0.000 G0
ENDBRANCH   6   7
ENDBRANCH   5   6
ENDBRANCH   3   5
ENDBRANCH   1   3
BRANCH   1  11
ATOM     11  C   UNL     1     101.456 131.920  53.211  1.00  0.00     0.087 C 
BRANCH  11  12
ATOM     12  C   UNL     1     102.714 132.565  53.855  1.00  0.00     0.066 C 
BRANCH  12  13
ATOM     13  C   UNL     1     102.337 133.705  54.791  1.00  0.00     0.140 C 
ATOM     14  O   UNL     1     102.436 133.557  56.001  1.00  0.00    -0.299 OA
BRANCH  13  15
ATOM     15  C   UNL     1     101.906 135.047  54.249  1.00  0.00     0.106 CG0
ATOM     16  G   UNL     1     102.969 135.677  53.361  1.00  0.00     0.000 G0
ENDBRANCH  13  15
ENDBRANCH  12  13
BRANCH  12  17
ATOM     17  C   UNL     1     103.620 131.502  54.550  1.00  0.00    -0.006 C 
ATOM     18  C   UNL     1     103.493 130.126  53.878  1.00  0.00     0.008 C 
ATOM     19  C   UNL     1     105.100 131.907  54.650  1.00  0.00     0.008 C 
ENDBRANCH  12  17
ENDBRANCH  11  12
ENDBRANCH   1  11
TORSDOF 1
ENDMDL
MODEL 7
REMARK VINA RESULT:    -4.269      1.931      4.044
REMARK INTER + INTRA:          -6.776
REMARK INTER:                  -6.362
REMARK INTRA:                  -0.414
REMARK UNBOUND:                -0.261
REMARK SMILES CC1=CCC[C@H](C)C(=O)C[C@H](C(C)C)C(=O)C1
REMARK SMILES IDX 8 1 9 2 6 3 7 4 5 5 4 6 3 7 2 8 1 9 10 11 11 12 15 13 16 14
REMARK SMILES IDX 17 15 12 17 13 18 14 19
REMARK H PARENT
REMARK Flexibility Score: 70.00
ROOT
ATOM      1  C   UNL     1     102.556 132.579  54.079  1.00  0.00     0.136 C 
ATOM      2  O   UNL     1     101.461 132.363  54.580  1.00  0.00    -0.299 OA
ENDROOT
BRANCH   1   3
ATOM      3  C   UNL     1     103.106 131.585  53.073  1.00  0.00     0.053 C 
ATOM      4  C   UNL     1     103.240 130.192  53.701  1.00  0.00     0.016 C 
BRANCH   3   5
ATOM      5  C   UNL     1     102.247 131.535  51.795  1.00  0.00     0.015 C 
BRANCH   5   6
ATOM      6  C   UNL     1     102.833 132.408  50.671  1.00  0.00     0.028 C 
BRANCH   6   7
ATOM      7  C   UNL     1     101.947 133.599  50.407  1.00  0.00    -0.028 C 
ATOM      8  C   UNL     1     102.309 134.886  50.614  1.00  0.00    -0.070 CG0
ATOM      9  C   UNL     1     101.280 135.960  50.364  1.00  0.00     0.039 C 
ATOM     10  G   UNL     1     103.704 135.290  51.068  1.00  0.00     0.000 G0
ENDBRANCH   6   7
ENDBRANCH   5   6
ENDBRANCH   3   5
ENDBRANCH   1   3
BRANCH   1  11
ATOM     11  C   UNL     1     103.295 133.841  54.464  1.00  0.00     0.087 C 
BRANCH  11  12
ATOM     12  C   UNL     1     104.344 134.258  53.398  1.00  0.00     0.066 C 
BRANCH  12  13
ATOM     13  C   UNL     1     103.845 135.424  52.554  1.00  0.00     0.140 C 
ATOM     14  O   UNL     1     103.597 136.497  53.085  1.00  0.00    -0.299 OA
BRANCH  13  15
ATOM     15  C   UNL     1     103.716 135.300  51.055  1.00  0.00     0.106 CG0
ATOM     16  G   UNL     1     102.314 134.887  50.631  1.00  0.00     0.000 G0
ENDBRANCH  13  15
ENDBRANCH  12  13
BRANCH  12  17
ATOM     17  C   UNL     1     105.739 134.542  54.036  1.00  0.00    -0.006 C 
ATOM     18  C   UNL     1     106.165 133.413  54.986  1.00  0.00     0.008 C 
ATOM     19  C   UNL     1     106.853 134.821  53.012  1.00  0.00     0.008 C 
ENDBRANCH  12  17
ENDBRANCH  11  12
ENDBRANCH   1  11
TORSDOF 1
ENDMDL
MODEL 8
REMARK VINA RESULT:    -4.122      2.421      4.455
REMARK INTER + INTRA:          -6.551
REMARK INTER:                  -6.538
REMARK INTRA:                  -0.013
REMARK UNBOUND:                -0.261
REMARK SMILES CC1=CCC[C@H](C)C(=O)C[C@H](C(C)C)C(=O)C1
REMARK SMILES IDX 8 1 9 2 6 3 7 4 5 5 4 6 3 7 2 8 1 9 10 11 11 12 15 13 16 14
REMARK SMILES IDX 17 15 12 17 13 18 14 19
REMARK H PARENT
REMARK Flexibility Score: 70.00
ROOT
ATOM      1  C   UNL     1     102.743 135.124  51.448  1.00  0.00     0.136 C 
ATOM      2  O   UNL     1     102.692 136.234  50.936  1.00  0.00    -0.299 OA
ENDROOT
BRANCH   1   3
ATOM      3  C   UNL     1     103.593 134.933  52.690  1.00  0.00     0.053 C 
ATOM      4  C   UNL     1     105.058 135.285  52.406  1.00  0.00     0.016 C 
BRANCH   3   5
ATOM      5  C   UNL     1     103.049 135.744  53.881  1.00  0.00     0.015 C 
BRANCH   5   6
ATOM      6  C   UNL     1     101.566 136.114  53.699  1.00  0.00     0.028 C 
BRANCH   6   7
ATOM      7  C   UNL     1     100.696 135.286  54.609  1.00  0.00    -0.028 C 
ATOM      8  C   UNL     1      99.739 134.428  54.186  1.00  0.00    -0.070 CG0
ATOM      9  C   UNL     1      98.907 133.724  55.228  1.00  0.00     0.039 C 
ATOM     10  G   UNL     1      99.484 134.135  52.715  1.00  0.00     0.000 G0
ENDBRANCH   6   7
ENDBRANCH   5   6
ENDBRANCH   3   5
ENDBRANCH   1   3
BRANCH   1  11
ATOM     11  C   UNL     1     101.932 134.004  50.835  1.00  0.00     0.087 C 
BRANCH  11  12
ATOM     12  C   UNL     1     101.632 132.869  51.852  1.00  0.00     0.066 C 
BRANCH  12  13
ATOM     13  C   UNL     1     100.164 132.861  52.259  1.00  0.00     0.140 C 
ATOM     14  O   UNL     1      99.542 131.809  52.272  1.00  0.00    -0.299 OA
BRANCH  13  15
ATOM     15  C   UNL     1      99.477 134.125  52.716  1.00  0.00     0.106 CG0
ATOM     16  G   UNL     1      99.732 134.420  54.186  1.00  0.00     0.000 G0
ENDBRANCH  13  15
ENDBRANCH  12  13
BRANCH  12  17
ATOM     17  C   UNL     1     102.109 131.480  51.328  1.00  0.00    -0.006 C 
ATOM     18  C   UNL     1     103.008 131.622  50.089  1.00  0.00     0.008 C 
ATOM     19  C   UNL     1     102.807 130.614  52.391  1.00  0.00     0.008 C 
ENDBRANCH  12  17
ENDBRANCH  11  12
ENDBRANCH   1  11
TORSDOF 1
ENDMDL
MODEL 9
REMARK VINA RESULT:    -4.077      1.791      4.052
REMARK INTER + INTRA:          -6.483
REMARK INTER:                  -6.268
REMARK INTRA:                  -0.216
REMARK UNBOUND:                -0.261
REMARK SMILES CC1=CCC[C@H](C)C(=O)C[C@H](C(C)C)C(=O)C1
REMARK SMILES IDX 8 1 9 2 6 3 7 4 5 5 4 6 3 7 2 8 1 9 10 11 11 12 15 13 16 14
REMARK SMILES IDX 17 15 12 17 13 18 14 19
REMARK H PARENT
REMARK Flexibility Score: 70.00
ROOT
ATOM      1  C   UNL     1     101.759 131.456  52.976  1.00  0.00     0.136 C 
ATOM      2  O   UNL     1     102.534 130.932  52.187  1.00  0.00    -0.299 OA
ENDROOT
BRANCH   1   3
ATOM      3  C   UNL     1     100.273 131.414  52.674  1.00  0.00     0.053 C 
ATOM      4  C   UNL     1      99.466 132.022  53.828  1.00  0.00     0.016 C 
BRANCH   3   5
ATOM      5  C   UNL     1      99.944 132.112  51.341  1.00  0.00     0.015 C 
BRANCH   5   6
ATOM      6  C   UNL     1      99.805 133.636  51.506  1.00  0.00     0.028 C 
BRANCH   6   7
ATOM      7  C   UNL     1     101.046 134.339  51.018  1.00  0.00    -0.028 C 
ATOM      8  C   UNL     1     101.930 134.980  51.818  1.00  0.00    -0.070 CG0
ATOM      9  C   UNL     1     103.087 135.693  51.165  1.00  0.00     0.039 C 
ATOM     10  G   UNL     1     101.814 134.993  53.335  1.00  0.00     0.000 G0
ENDBRANCH   6   7
ENDBRANCH   5   6
ENDBRANCH   3   5
ENDBRANCH   1   3
BRANCH   1  11
ATOM     11  C   UNL     1     102.318 132.092  54.228  1.00  0.00     0.087 C 
BRANCH  11  12
ATOM     12  C   UNL     1     103.502 133.050  53.924  1.00  0.00     0.066 C 
BRANCH  12  13
ATOM     13  C   UNL     1     103.077 134.509  54.023  1.00  0.00     0.140 C 
ATOM     14  O   UNL     1     103.788 135.312  54.611  1.00  0.00    -0.299 OA
BRANCH  13  15
ATOM     15  C   UNL     1     101.820 135.001  53.347  1.00  0.00     0.106 CG0
ATOM     16  G   UNL     1     101.935 134.975  51.830  1.00  0.00     0.000 G0
ENDBRANCH  13  15
ENDBRANCH  12  13
BRANCH  12  17
ATOM     17  C   UNL     1     104.747 132.734  54.810  1.00  0.00    -0.006 C 
ATOM     18  C   UNL     1     104.545 131.450  55.629  1.00  0.00     0.008 C 
ATOM     19  C   UNL     1     106.070 132.661  54.030  1.00  0.00     0.008 C 
ENDBRANCH  12  17
ENDBRANCH  11  12
ENDBRANCH   1  11
TORSDOF 1
ENDMDL
