MODEL 1
REMARK VINA RESULT:    -4.290      0.000      0.000
REMARK INTER + INTRA:          -6.096
REMARK INTER:                  -5.794
REMARK INTRA:                  -0.302
REMARK UNBOUND:                -0.302
REMARK SMILES CCCCCCCC(=O)[O-]
REMARK SMILES IDX 5 1 6 2 7 3 8 4 9 5 10 6 4 7 3 8 2 9 1 10
REMARK H PARENT
REMARK Flexibility Score: inf
ROOT
ATOM      1  C   UNL     1      -9.213  -6.025  11.513  1.00  0.00     0.000 C 
ENDROOT
BRANCH   1   2
ATOM      2  C   UNL     1      -9.838  -5.736  12.886  1.00  0.00     0.006 C 
BRANCH   2   3
ATOM      3  C   UNL     1     -10.397  -7.003  13.547  1.00  0.00     0.053 C 
BRANCH   3   4
ATOM      4  C   UNL     1     -10.610  -6.815  15.017  1.00  0.00     0.041 C 
ATOM      5  O   UNL     1     -11.675  -7.208  15.560  1.00  0.00    -0.550 OA
ATOM      6  O   UNL     1      -9.615  -6.234  15.794  1.00  0.00    -0.550 OA
ENDBRANCH   3   4
ENDBRANCH   2   3
ENDBRANCH   1   2
BRANCH   1   7
ATOM      7  C   UNL     1     -10.163  -5.608  10.380  1.00  0.00     0.000 C 
BRANCH   7   8
ATOM      8  C   UNL     1     -11.350  -4.771  10.881  1.00  0.00    -0.000 C 
BRANCH   8   9
ATOM      9  C   UNL     1     -12.700  -5.292  10.365  1.00  0.00    -0.003 C 
ATOM     10  C   UNL     1     -12.536  -6.011   9.029  1.00  0.00     0.004 C 
ENDBRANCH   8   9
ENDBRANCH   7   8
ENDBRANCH   1   7
TORSDOF 6
ENDMDL
MODEL 2
REMARK VINA RESULT:    -4.278      4.905      6.561
REMARK INTER + INTRA:          -6.080
REMARK INTER:                  -5.816
REMARK INTRA:                  -0.264
REMARK UNBOUND:                -0.302
REMARK SMILES CCCCCCCC(=O)[O-]
REMARK SMILES IDX 5 1 6 2 7 3 8 4 9 5 10 6 4 7 3 8 2 9 1 10
REMARK H PARENT
REMARK Flexibility Score: inf
ROOT
ATOM      1  C   UNL     1     -10.911  -2.562  17.710  1.00  0.00     0.000 C 
ENDROOT
BRANCH   1   2
ATOM      2  C   UNL     1     -11.241  -3.467  16.513  1.00  0.00     0.006 C 
BRANCH   2   3
ATOM      3  C   UNL     1     -12.753  -3.653  16.327  1.00  0.00     0.053 C 
BRANCH   3   4
ATOM      4  C   UNL     1     -13.196  -3.254  14.953  1.00  0.00     0.041 C 
ATOM      5  O   UNL     1     -12.369  -3.214  14.006  1.00  0.00    -0.550 OA
ATOM      6  O   UNL     1     -14.532  -2.958  14.713  1.00  0.00    -0.550 OA
ENDBRANCH   3   4
ENDBRANCH   2   3
ENDBRANCH   1   2
BRANCH   1   7
ATOM      7  C   UNL     1      -9.430  -2.687  18.098  1.00  0.00     0.000 C 
BRANCH   7   8
ATOM      8  C   UNL     1      -8.664  -3.675  17.204  1.00  0.00    -0.000 C 
BRANCH   8   9
ATOM      9  C   UNL     1      -7.536  -3.000  16.409  1.00  0.00    -0.003 C 
ATOM     10  C   UNL     1      -7.099  -3.868  15.232  1.00  0.00     0.004 C 
ENDBRANCH   8   9
ENDBRANCH   7   8
ENDBRANCH   1   7
TORSDOF 6
ENDMDL
MODEL 3
REMARK VINA RESULT:    -4.245     12.237     13.589
REMARK INTER + INTRA:          -6.035
REMARK INTER:                  -5.799
REMARK INTRA:                  -0.236
REMARK UNBOUND:                -0.302
REMARK SMILES CCCCCCCC(=O)[O-]
REMARK SMILES IDX 5 1 6 2 7 3 8 4 9 5 10 6 4 7 3 8 2 9 1 10
REMARK H PARENT
REMARK Flexibility Score: inf
ROOT
ATOM      1  C   UNL     1     -18.843 -10.184  19.729  1.00  0.00     0.000 C 
ENDROOT
BRANCH   1   2
ATOM      2  C   UNL     1     -20.353 -10.457  19.657  1.00  0.00     0.006 C 
BRANCH   2   3
ATOM      3  C   UNL     1     -20.858 -11.246  20.872  1.00  0.00     0.053 C 
BRANCH   3   4
ATOM      4  C   UNL     1     -20.906 -12.718  20.598  1.00  0.00     0.041 C 
ATOM      5  O   UNL     1     -21.125 -13.140  19.433  1.00  0.00    -0.550 OA
ATOM      6  O   UNL     1     -20.676 -13.624  21.626  1.00  0.00    -0.550 OA
ENDBRANCH   3   4
ENDBRANCH   2   3
ENDBRANCH   1   2
BRANCH   1   7
ATOM      7  C   UNL     1     -18.410  -9.876  21.170  1.00  0.00     0.000 C 
BRANCH   7   8
ATOM      8  C   UNL     1     -16.897  -9.640  21.296  1.00  0.00    -0.000 C 
BRANCH   8   9
ATOM      9  C   UNL     1     -16.447  -9.455  22.754  1.00  0.00    -0.003 C 
ATOM     10  C   UNL     1     -17.280  -8.384  23.453  1.00  0.00     0.004 C 
ENDBRANCH   8   9
ENDBRANCH   7   8
ENDBRANCH   1   7
TORSDOF 6
ENDMDL
MODEL 4
REMARK VINA RESULT:    -4.231      2.158      2.959
REMARK INTER + INTRA:          -6.016
REMARK INTER:                  -5.347
REMARK INTRA:                  -0.669
REMARK UNBOUND:                -0.302
REMARK SMILES CCCCCCCC(=O)[O-]
REMARK SMILES IDX 5 1 6 2 7 3 8 4 9 5 10 6 4 7 3 8 2 9 1 10
REMARK H PARENT
REMARK Flexibility Score: inf
ROOT
ATOM      1  C   UNL     1     -12.526  -6.413  12.783  1.00  0.00     0.000 C 
ENDROOT
BRANCH   1   2
ATOM      2  C   UNL     1     -11.262  -6.260  13.643  1.00  0.00     0.006 C 
BRANCH   2   3
ATOM      3  C   UNL     1      -9.981  -6.541  12.847  1.00  0.00     0.053 C 
BRANCH   3   4
ATOM      4  C   UNL     1      -9.199  -5.289  12.592  1.00  0.00     0.041 C 
ATOM      5  O   UNL     1      -8.042  -5.352  12.101  1.00  0.00    -0.550 OA
ATOM      6  O   UNL     1      -9.763  -4.050  12.868  1.00  0.00    -0.550 OA
ENDBRANCH   3   4
ENDBRANCH   2   3
ENDBRANCH   1   2
BRANCH   1   7
ATOM      7  C   UNL     1     -13.172  -5.047  12.512  1.00  0.00     0.000 C 
BRANCH   7   8
ATOM      8  C   UNL     1     -12.862  -4.513  11.104  1.00  0.00    -0.000 C 
BRANCH   8   9
ATOM      9  C   UNL     1     -12.545  -5.636  10.104  1.00  0.00    -0.003 C 
ATOM     10  C   UNL     1     -11.178  -5.427   9.459  1.00  0.00     0.004 C 
ENDBRANCH   8   9
ENDBRANCH   7   8
ENDBRANCH   1   7
TORSDOF 6
ENDMDL
MODEL 5
REMARK VINA RESULT:    -4.224      4.582      6.695
REMARK INTER + INTRA:          -6.007
REMARK INTER:                  -5.720
REMARK INTRA:                  -0.287
REMARK UNBOUND:                -0.302
REMARK SMILES CCCCCCCC(=O)[O-]
REMARK SMILES IDX 5 1 6 2 7 3 8 4 9 5 10 6 4 7 3 8 2 9 1 10
REMARK H PARENT
REMARK Flexibility Score: inf
ROOT
ATOM      1  C   UNL     1     -12.273  -3.653  16.489  1.00  0.00     0.000 C 
ENDROOT
BRANCH   1   2
ATOM      2  C   UNL     1     -12.130  -4.207  15.063  1.00  0.00     0.006 C 
BRANCH   2   3
ATOM      3  C   UNL     1     -12.265  -3.109  13.998  1.00  0.00     0.053 C 
BRANCH   3   4
ATOM      4  C   UNL     1     -13.694  -2.715  13.786  1.00  0.00     0.041 C 
ATOM      5  O   UNL     1     -14.040  -1.509  13.882  1.00  0.00    -0.550 OA
ATOM      6  O   UNL     1     -14.637  -3.677  13.449  1.00  0.00    -0.550 OA
ENDBRANCH   3   4
ENDBRANCH   2   3
ENDBRANCH   1   2
BRANCH   1   7
ATOM      7  C   UNL     1     -10.966  -2.996  16.955  1.00  0.00     0.000 C 
BRANCH   7   8
ATOM      8  C   UNL     1      -9.718  -3.758  16.481  1.00  0.00    -0.000 C 
BRANCH   8   9
ATOM      9  C   UNL     1      -8.443  -3.322  17.220  1.00  0.00    -0.003 C 
ATOM     10  C   UNL     1      -8.752  -2.933  18.663  1.00  0.00     0.004 C 
ENDBRANCH   8   9
ENDBRANCH   7   8
ENDBRANCH   1   7
TORSDOF 6
ENDMDL
MODEL 6
REMARK VINA RESULT:    -4.216      4.404      5.671
REMARK INTER + INTRA:          -5.996
REMARK INTER:                  -5.513
REMARK INTRA:                  -0.483
REMARK UNBOUND:                -0.302
REMARK SMILES CCCCCCCC(=O)[O-]
REMARK SMILES IDX 5 1 6 2 7 3 8 4 9 5 10 6 4 7 3 8 2 9 1 10
REMARK H PARENT
REMARK Flexibility Score: inf
ROOT
ATOM      1  C   UNL     1     -10.852  -3.402  16.675  1.00  0.00     0.000 C 
ENDROOT
BRANCH   1   2
ATOM      2  C   UNL     1     -12.336  -3.430  16.280  1.00  0.00     0.006 C 
BRANCH   2   3
ATOM      3  C   UNL     1     -12.534  -3.343  14.761  1.00  0.00     0.053 C 
BRANCH   3   4
ATOM      4  C   UNL     1     -13.810  -2.644  14.406  1.00  0.00     0.041 C 
ATOM      5  O   UNL     1     -13.790  -1.608  13.691  1.00  0.00    -0.550 OA
ATOM      6  O   UNL     1     -15.026  -3.156  14.840  1.00  0.00    -0.550 OA
ENDBRANCH   3   4
ENDBRANCH   2   3
ENDBRANCH   1   2
BRANCH   1   7
ATOM      7  C   UNL     1      -9.979  -4.010  15.567  1.00  0.00     0.000 C 
BRANCH   7   8
ATOM      8  C   UNL     1      -9.542  -5.450  15.881  1.00  0.00    -0.000 C 
BRANCH   8   9
ATOM      9  C   UNL     1     -10.297  -6.492  15.041  1.00  0.00    -0.003 C 
ATOM     10  C   UNL     1     -11.458  -7.094  15.827  1.00  0.00     0.004 C 
ENDBRANCH   8   9
ENDBRANCH   7   8
ENDBRANCH   1   7
TORSDOF 6
ENDMDL
MODEL 7
REMARK VINA RESULT:    -4.198      3.476      5.528
REMARK INTER + INTRA:          -5.972
REMARK INTER:                  -5.521
REMARK INTRA:                  -0.451
REMARK UNBOUND:                -0.302
REMARK SMILES CCCCCCCC(=O)[O-]
REMARK SMILES IDX 5 1 6 2 7 3 8 4 9 5 10 6 4 7 3 8 2 9 1 10
REMARK H PARENT
REMARK Flexibility Score: inf
ROOT
ATOM      1  C   UNL     1      -8.676  -4.983  15.213  1.00  0.00     0.000 C 
ENDROOT
BRANCH   1   2
ATOM      2  C   UNL     1      -9.472  -6.024  16.013  1.00  0.00     0.006 C 
BRANCH   2   3
ATOM      3  C   UNL     1     -10.957  -6.042  15.626  1.00  0.00     0.053 C 
BRANCH   3   4
ATOM      4  C   UNL     1     -11.211  -6.919  14.439  1.00  0.00     0.041 C 
ATOM      5  O   UNL     1     -10.593  -8.008  14.311  1.00  0.00    -0.550 OA
ATOM      6  O   UNL     1     -12.156  -6.548  13.491  1.00  0.00    -0.550 OA
ENDBRANCH   3   4
ENDBRANCH   2   3
ENDBRANCH   1   2
BRANCH   1   7
ATOM      7  C   UNL     1      -8.981  -3.562  15.707  1.00  0.00     0.000 C 
BRANCH   7   8
ATOM      8  C   UNL     1      -8.120  -3.156  16.914  1.00  0.00    -0.000 C 
BRANCH   8   9
ATOM      9  C   UNL     1      -8.950  -2.961  18.192  1.00  0.00    -0.003 C 
ATOM     10  C   UNL     1     -10.372  -2.517  17.861  1.00  0.00     0.004 C 
ENDBRANCH   8   9
ENDBRANCH   7   8
ENDBRANCH   1   7
TORSDOF 6
ENDMDL
MODEL 8
REMARK VINA RESULT:    -4.192      3.530      5.772
REMARK INTER + INTRA:          -5.964
REMARK INTER:                  -5.657
REMARK INTRA:                  -0.307
REMARK UNBOUND:                -0.302
REMARK SMILES CCCCCCCC(=O)[O-]
REMARK SMILES IDX 5 1 6 2 7 3 8 4 9 5 10 6 4 7 3 8 2 9 1 10
REMARK H PARENT
REMARK Flexibility Score: inf
ROOT
ATOM      1  C   UNL     1     -11.256  -4.220  15.474  1.00  0.00     0.000 C 
ENDROOT
BRANCH   1   2
ATOM      2  C   UNL     1     -11.429  -5.743  15.586  1.00  0.00     0.006 C 
BRANCH   2   3
ATOM      3  C   UNL     1     -10.777  -6.488  14.414  1.00  0.00     0.053 C 
BRANCH   3   4
ATOM      4  C   UNL     1     -11.528  -6.276  13.135  1.00  0.00     0.041 C 
ATOM      5  O   UNL     1     -12.688  -6.744  12.995  1.00  0.00    -0.550 OA
ATOM      6  O   UNL     1     -10.957  -5.533  12.109  1.00  0.00    -0.550 OA
ENDBRANCH   3   4
ENDBRANCH   2   3
ENDBRANCH   1   2
BRANCH   1   7
ATOM      7  C   UNL     1     -11.934  -3.504  16.652  1.00  0.00     0.000 C 
BRANCH   7   8
ATOM      8  C   UNL     1     -10.957  -2.633  17.457  1.00  0.00    -0.000 C 
BRANCH   8   9
ATOM      9  C   UNL     1      -9.487  -3.006  17.205  1.00  0.00    -0.003 C 
ATOM     10  C   UNL     1      -8.698  -3.039  18.510  1.00  0.00     0.004 C 
ENDBRANCH   8   9
ENDBRANCH   7   8
ENDBRANCH   1   7
TORSDOF 6
ENDMDL
MODEL 9
REMARK VINA RESULT:    -4.173      1.518      2.037
REMARK INTER + INTRA:          -5.939
REMARK INTER:                  -5.467
REMARK INTRA:                  -0.471
REMARK UNBOUND:                -0.302
REMARK SMILES CCCCCCCC(=O)[O-]
REMARK SMILES IDX 5 1 6 2 7 3 8 4 9 5 10 6 4 7 3 8 2 9 1 10
REMARK H PARENT
REMARK Flexibility Score: inf
ROOT
ATOM      1  C   UNL     1     -12.327  -6.613  12.920  1.00  0.00     0.000 C 
ENDROOT
BRANCH   1   2
ATOM      2  C   UNL     1     -10.856  -6.800  13.320  1.00  0.00     0.006 C 
BRANCH   2   3
ATOM      3  C   UNL     1     -10.629  -6.566  14.820  1.00  0.00     0.053 C 
BRANCH   3   4
ATOM      4  C   UNL     1     -10.991  -5.171  15.226  1.00  0.00     0.041 C 
ATOM      5  O   UNL     1     -11.913  -4.972  16.060  1.00  0.00    -0.550 OA
ATOM      6  O   UNL     1     -10.288  -4.091  14.706  1.00  0.00    -0.550 OA
ENDBRANCH   3   4
ENDBRANCH   2   3
ENDBRANCH   1   2
BRANCH   1   7
ATOM      7  C   UNL     1     -12.462  -5.564  11.806  1.00  0.00     0.000 C 
BRANCH   7   8
ATOM      8  C   UNL     1     -11.111  -5.193  11.175  1.00  0.00    -0.000 C 
BRANCH   8   9
ATOM      9  C   UNL     1     -11.080  -5.440   9.659  1.00  0.00    -0.003 C 
ATOM     10  C   UNL     1     -12.441  -5.907   9.151  1.00  0.00     0.004 C 
ENDBRANCH   8   9
ENDBRANCH   7   8
ENDBRANCH   1   7
TORSDOF 6
ENDMDL
