MODEL 1
REMARK VINA RESULT:    -4.607      0.000      0.000
REMARK INTER + INTRA:          -5.416
REMARK INTER:                  -5.281
REMARK INTRA:                  -0.135
REMARK UNBOUND:                -0.135
REMARK SMILES O=C([O-])C=Cc1ccc(O)cc1
REMARK SMILES IDX 6 1 7 2 12 3 8 4 11 5 9 6 5 7 4 8 2 9 1 10 3 11 10 12
REMARK H PARENT 10 13
REMARK Flexibility Score: inf
ROOT
ATOM      1  C   UNL     1      37.213   3.090   8.618  1.00  0.00    -0.025 A 
ATOM      2  C   UNL     1      36.457   3.848   9.536  1.00  0.00     0.012 A 
ATOM      3  C   UNL     1      36.695   1.867   8.160  1.00  0.00     0.012 A 
ATOM      4  C   UNL     1      35.225   3.375   9.998  1.00  0.00     0.047 A 
ATOM      5  C   UNL     1      35.463   1.397   8.625  1.00  0.00     0.047 A 
ATOM      6  C   UNL     1      34.726   2.147   9.546  1.00  0.00     0.115 A 
ENDROOT
BRANCH   1   7
ATOM      7  C   UNL     1      38.521   3.550   8.085  1.00  0.00     0.010 C 
ATOM      8  C   UNL     1      38.647   4.442   7.092  1.00  0.00     0.025 C 
BRANCH   8   9
ATOM      9  C   UNL     1      39.961   4.884   6.597  1.00  0.00     0.064 C 
ATOM     10  O   UNL     1      40.874   5.235   7.392  1.00  0.00    -0.545 OA
ATOM     11  O   UNL     1      40.201   4.914   5.229  1.00  0.00    -0.545 OA
ENDBRANCH   8   9
ENDBRANCH   1   7
BRANCH   6  12
ATOM     12  O   UNL     1      33.501   1.666  10.002  1.00  0.00    -0.508 OA
ATOM     13  H   UNL     1      33.331   0.673  10.116  1.00  0.00     0.293 HD
ENDBRANCH   6  12
TORSDOF 3
ENDMDL
MODEL 2
REMARK VINA RESULT:    -4.577      2.400      2.780
REMARK INTER + INTRA:          -5.381
REMARK INTER:                  -5.231
REMARK INTRA:                  -0.150
REMARK UNBOUND:                -0.135
REMARK SMILES O=C([O-])C=Cc1ccc(O)cc1
REMARK SMILES IDX 6 1 7 2 12 3 8 4 11 5 9 6 5 7 4 8 2 9 1 10 3 11 10 12
REMARK H PARENT 10 13
REMARK Flexibility Score: inf
ROOT
ATOM      1  C   UNL     1      36.470   3.355   9.025  1.00  0.00    -0.025 A 
ATOM      2  C   UNL     1      35.406   2.801   9.765  1.00  0.00     0.012 A 
ATOM      3  C   UNL     1      37.532   2.521   8.637  1.00  0.00     0.012 A 
ATOM      4  C   UNL     1      35.423   1.450  10.125  1.00  0.00     0.047 A 
ATOM      5  C   UNL     1      37.546   1.171   8.999  1.00  0.00     0.047 A 
ATOM      6  C   UNL     1      36.495   0.632   9.746  1.00  0.00     0.115 A 
ENDROOT
BRANCH   1   7
ATOM      7  C   UNL     1      36.497   4.779   8.605  1.00  0.00     0.010 C 
ATOM      8  C   UNL     1      37.206   5.235   7.562  1.00  0.00     0.025 C 
BRANCH   8   9
ATOM      9  C   UNL     1      37.199   6.653   7.167  1.00  0.00     0.064 C 
ATOM     10  O   UNL     1      36.133   7.228   6.819  1.00  0.00    -0.545 OA
ATOM     11  O   UNL     1      38.387   7.371   7.181  1.00  0.00    -0.545 OA
ENDBRANCH   8   9
ENDBRANCH   1   7
BRANCH   6  12
ATOM     12  O   UNL     1      36.523  -0.714  10.101  1.00  0.00    -0.508 OA
ATOM     13  H   UNL     1      35.670  -1.255  10.193  1.00  0.00     0.293 HD
ENDBRANCH   6  12
TORSDOF 3
ENDMDL
MODEL 3
REMARK VINA RESULT:    -4.503      0.249      1.410
REMARK INTER + INTRA:          -5.297
REMARK INTER:                  -5.156
REMARK INTRA:                  -0.140
REMARK UNBOUND:                -0.135
REMARK SMILES O=C([O-])C=Cc1ccc(O)cc1
REMARK SMILES IDX 6 1 7 2 12 3 8 4 11 5 9 6 5 7 4 8 2 9 1 10 3 11 10 12
REMARK H PARENT 10 13
REMARK Flexibility Score: inf
ROOT
ATOM      1  C   UNL     1      37.288   3.012   8.470  1.00  0.00    -0.025 A 
ATOM      2  C   UNL     1      36.776   1.717   8.251  1.00  0.00     0.012 A 
ATOM      3  C   UNL     1      36.551   3.907   9.265  1.00  0.00     0.012 A 
ATOM      4  C   UNL     1      35.545   1.341   8.798  1.00  0.00     0.047 A 
ATOM      5  C   UNL     1      35.321   3.527   9.810  1.00  0.00     0.047 A 
ATOM      6  C   UNL     1      34.813   2.247   9.577  1.00  0.00     0.115 A 
ENDROOT
BRANCH   1   7
ATOM      7  C   UNL     1      38.594   3.459   7.924  1.00  0.00     0.010 C 
ATOM      8  C   UNL     1      38.737   4.511   7.103  1.00  0.00     0.025 C 
BRANCH   8   9
ATOM      9  C   UNL     1      40.051   4.933   6.590  1.00  0.00     0.064 C 
ATOM     10  O   UNL     1      41.073   4.925   7.328  1.00  0.00    -0.545 OA
ATOM     11  O   UNL     1      40.167   5.345   5.269  1.00  0.00    -0.545 OA
ENDBRANCH   8   9
ENDBRANCH   1   7
BRANCH   6  12
ATOM     12  O   UNL     1      33.586   1.883  10.125  1.00  0.00    -0.508 OA
ATOM     13  H   UNL     1      33.523   1.221  10.890  1.00  0.00     0.293 HD
ENDBRANCH   6  12
TORSDOF 3
ENDMDL
MODEL 4
REMARK VINA RESULT:    -4.444     18.099     18.455
REMARK INTER + INTRA:          -5.229
REMARK INTER:                  -5.076
REMARK INTRA:                  -0.153
REMARK UNBOUND:                -0.135
REMARK SMILES O=C([O-])C=Cc1ccc(O)cc1
REMARK SMILES IDX 6 1 7 2 12 3 8 4 11 5 9 6 5 7 4 8 2 9 1 10 3 11 10 12
REMARK H PARENT 10 13
REMARK Flexibility Score: inf
ROOT
ATOM      1  C   UNL     1      37.173  -5.253  -7.493  1.00  0.00    -0.025 A 
ATOM      2  C   UNL     1      38.551  -5.178  -7.208  1.00  0.00     0.012 A 
ATOM      3  C   UNL     1      36.465  -6.407  -7.114  1.00  0.00     0.012 A 
ATOM      4  C   UNL     1      39.204  -6.243  -6.580  1.00  0.00     0.047 A 
ATOM      5  C   UNL     1      37.121  -7.471  -6.487  1.00  0.00     0.047 A 
ATOM      6  C   UNL     1      38.490  -7.394  -6.221  1.00  0.00     0.115 A 
ENDROOT
BRANCH   1   7
ATOM      7  C   UNL     1      36.428  -4.147  -8.146  1.00  0.00     0.010 C 
ATOM      8  C   UNL     1      35.092  -4.115  -8.263  1.00  0.00     0.025 C 
BRANCH   8   9
ATOM      9  C   UNL     1      34.387  -2.995  -8.906  1.00  0.00     0.064 C 
ATOM     10  O   UNL     1      33.138  -3.017  -9.069  1.00  0.00    -0.545 OA
ATOM     11  O   UNL     1      35.111  -1.892  -9.340  1.00  0.00    -0.545 OA
ENDBRANCH   8   9
ENDBRANCH   1   7
BRANCH   6  12
ATOM     12  O   UNL     1      39.130  -8.462  -5.597  1.00  0.00    -0.508 OA
ATOM     13  H   UNL     1      39.433  -9.276  -6.120  1.00  0.00     0.293 HD
ENDBRANCH   6  12
TORSDOF 3
ENDMDL
MODEL 5
REMARK VINA RESULT:    -4.423      2.573      3.028
REMARK INTER + INTRA:          -5.205
REMARK INTER:                  -5.072
REMARK INTRA:                  -0.134
REMARK UNBOUND:                -0.135
REMARK SMILES O=C([O-])C=Cc1ccc(O)cc1
REMARK SMILES IDX 6 1 7 2 12 3 8 4 11 5 9 6 5 7 4 8 2 9 1 10 3 11 10 12
REMARK H PARENT 10 13
REMARK Flexibility Score: inf
ROOT
ATOM      1  C   UNL     1      36.517   3.466   9.111  1.00  0.00    -0.025 A 
ATOM      2  C   UNL     1      37.588   2.607   8.791  1.00  0.00     0.012 A 
ATOM      3  C   UNL     1      35.405   2.940   9.791  1.00  0.00     0.012 A 
ATOM      4  C   UNL     1      37.530   1.250   9.125  1.00  0.00     0.047 A 
ATOM      5  C   UNL     1      35.351   1.583  10.123  1.00  0.00     0.047 A 
ATOM      6  C   UNL     1      36.410   0.734   9.790  1.00  0.00     0.115 A 
ENDROOT
BRANCH   1   7
ATOM      7  C   UNL     1      36.531   4.916   8.791  1.00  0.00     0.010 C 
ATOM      8  C   UNL     1      36.749   5.405   7.561  1.00  0.00     0.025 C 
BRANCH   8   9
ATOM      9  C   UNL     1      36.744   6.849   7.278  1.00  0.00     0.064 C 
ATOM     10  O   UNL     1      37.586   7.621   7.810  1.00  0.00    -0.545 OA
ATOM     11  O   UNL     1      35.796   7.371   6.408  1.00  0.00    -0.545 OA
ENDBRANCH   8   9
ENDBRANCH   1   7
BRANCH   6  12
ATOM     12  O   UNL     1      36.342  -0.616  10.125  1.00  0.00    -0.508 OA
ATOM     13  H   UNL     1      36.110  -0.917  11.065  1.00  0.00     0.293 HD
ENDBRANCH   6  12
TORSDOF 3
ENDMDL
MODEL 6
REMARK VINA RESULT:    -4.406     18.112     18.497
REMARK INTER + INTRA:          -5.185
REMARK INTER:                  -5.045
REMARK INTRA:                  -0.140
REMARK UNBOUND:                -0.135
REMARK SMILES O=C([O-])C=Cc1ccc(O)cc1
REMARK SMILES IDX 6 1 7 2 12 3 8 4 11 5 9 6 5 7 4 8 2 9 1 10 3 11 10 12
REMARK H PARENT 10 13
REMARK Flexibility Score: inf
ROOT
ATOM      1  C   UNL     1      37.093  -5.321  -7.491  1.00  0.00    -0.025 A 
ATOM      2  C   UNL     1      36.452  -6.529  -7.149  1.00  0.00     0.012 A 
ATOM      3  C   UNL     1      38.467  -5.184  -7.228  1.00  0.00     0.012 A 
ATOM      4  C   UNL     1      37.169  -7.562  -6.537  1.00  0.00     0.047 A 
ATOM      5  C   UNL     1      39.180  -6.219  -6.615  1.00  0.00     0.047 A 
ATOM      6  C   UNL     1      38.535  -7.408  -6.265  1.00  0.00     0.115 A 
ENDROOT
BRANCH   1   7
ATOM      7  C   UNL     1      36.383  -4.198  -8.154  1.00  0.00     0.010 C 
ATOM      8  C   UNL     1      35.047  -4.103  -8.230  1.00  0.00     0.025 C 
BRANCH   8   9
ATOM      9  C   UNL     1      34.377  -2.968  -8.885  1.00  0.00     0.064 C 
ATOM     10  O   UNL     1      33.131  -2.967  -9.074  1.00  0.00    -0.545 OA
ATOM     11  O   UNL     1      35.130  -1.877  -9.299  1.00  0.00    -0.545 OA
ENDBRANCH   8   9
ENDBRANCH   1   7
BRANCH   6  12
ATOM     12  O   UNL     1      39.258  -8.429  -5.654  1.00  0.00    -0.508 OA
ATOM     13  H   UNL     1      39.026  -8.758  -4.724  1.00  0.00     0.293 HD
ENDBRANCH   6  12
TORSDOF 3
ENDMDL
MODEL 7
REMARK VINA RESULT:    -4.392      3.447      4.573
REMARK INTER + INTRA:          -5.169
REMARK INTER:                  -5.019
REMARK INTRA:                  -0.151
REMARK UNBOUND:                -0.135
REMARK SMILES O=C([O-])C=Cc1ccc(O)cc1
REMARK SMILES IDX 6 1 7 2 12 3 8 4 11 5 9 6 5 7 4 8 2 9 1 10 3 11 10 12
REMARK H PARENT 10 13
REMARK Flexibility Score: inf
ROOT
ATOM      1  C   UNL     1      35.966   3.773   9.347  1.00  0.00    -0.025 A 
ATOM      2  C   UNL     1      37.017   3.204   8.598  1.00  0.00     0.012 A 
ATOM      3  C   UNL     1      35.120   2.925  10.081  1.00  0.00     0.012 A 
ATOM      4  C   UNL     1      37.196   1.817   8.571  1.00  0.00     0.047 A 
ATOM      5  C   UNL     1      35.302   1.539  10.051  1.00  0.00     0.047 A 
ATOM      6  C   UNL     1      36.336   0.981   9.296  1.00  0.00     0.115 A 
ENDROOT
BRANCH   1   7
ATOM      7  C   UNL     1      35.739   5.239   9.421  1.00  0.00     0.010 C 
ATOM      8  C   UNL     1      34.570   5.794   9.774  1.00  0.00     0.025 C 
BRANCH   8   9
ATOM      9  C   UNL     1      34.385   7.252   9.848  1.00  0.00     0.064 C 
ATOM     10  O   UNL     1      33.253   7.776   9.667  1.00  0.00    -0.545 OA
ATOM     11  O   UNL     1      35.476   8.066  10.125  1.00  0.00    -0.545 OA
ENDBRANCH   8   9
ENDBRANCH   1   7
BRANCH   6  12
ATOM     12  O   UNL     1      36.504  -0.401   9.274  1.00  0.00    -0.508 OA
ATOM     13  H   UNL     1      35.774  -1.018   8.936  1.00  0.00     0.293 HD
ENDBRANCH   6  12
TORSDOF 3
ENDMDL
MODEL 8
REMARK VINA RESULT:    -4.328     15.622     17.272
REMARK INTER + INTRA:          -5.096
REMARK INTER:                  -4.944
REMARK INTRA:                  -0.152
REMARK UNBOUND:                -0.135
REMARK SMILES O=C([O-])C=Cc1ccc(O)cc1
REMARK SMILES IDX 6 1 7 2 12 3 8 4 11 5 9 6 5 7 4 8 2 9 1 10 3 11 10 12
REMARK H PARENT 10 13
REMARK Flexibility Score: inf
ROOT
ATOM      1  C   UNL     1      27.257  -7.518   1.147  1.00  0.00    -0.025 A 
ATOM      2  C   UNL     1      28.045  -6.923   2.153  1.00  0.00     0.012 A 
ATOM      3  C   UNL     1      26.895  -8.869   1.280  1.00  0.00     0.012 A 
ATOM      4  C   UNL     1      28.477  -7.674   3.250  1.00  0.00     0.047 A 
ATOM      5  C   UNL     1      27.329  -9.617   2.378  1.00  0.00     0.047 A 
ATOM      6  C   UNL     1      28.122  -9.025   3.364  1.00  0.00     0.115 A 
ENDROOT
BRANCH   1   7
ATOM      7  C   UNL     1      26.761  -6.764  -0.032  1.00  0.00     0.010 C 
ATOM      8  C   UNL     1      25.722  -7.157  -0.785  1.00  0.00     0.025 C 
BRANCH   8   9
ATOM      9  C   UNL     1      25.250  -6.377  -1.940  1.00  0.00     0.064 C 
ATOM     10  O   UNL     1      26.029  -5.621  -2.579  1.00  0.00    -0.545 OA
ATOM     11  O   UNL     1      23.922  -6.477  -2.335  1.00  0.00    -0.545 OA
ENDBRANCH   8   9
ENDBRANCH   1   7
BRANCH   6  12
ATOM     12  O   UNL     1      28.549  -9.782   4.452  1.00  0.00    -0.508 OA
ATOM     13  H   UNL     1      29.203  -9.411   5.131  1.00  0.00     0.293 HD
ENDBRANCH   6  12
TORSDOF 3
ENDMDL
MODEL 9
REMARK VINA RESULT:    -4.291      1.881      5.624
REMARK INTER + INTRA:          -5.053
REMARK INTER:                  -4.901
REMARK INTRA:                  -0.153
REMARK UNBOUND:                -0.135
REMARK SMILES O=C([O-])C=Cc1ccc(O)cc1
REMARK SMILES IDX 6 1 7 2 12 3 8 4 11 5 9 6 5 7 4 8 2 9 1 10 3 11 10 12
REMARK H PARENT 10 13
REMARK Flexibility Score: inf
ROOT
ATOM      1  C   UNL     1      37.667   4.537   7.550  1.00  0.00    -0.025 A 
ATOM      2  C   UNL     1      37.183   5.853   7.403  1.00  0.00     0.012 A 
ATOM      3  C   UNL     1      38.961   4.236   7.091  1.00  0.00     0.012 A 
ATOM      4  C   UNL     1      37.969   6.832   6.789  1.00  0.00     0.047 A 
ATOM      5  C   UNL     1      39.744   5.218   6.477  1.00  0.00     0.047 A 
ATOM      6  C   UNL     1      39.252   6.516   6.321  1.00  0.00     0.115 A 
ENDROOT
BRANCH   1   7
ATOM      7  C   UNL     1      36.879   3.463   8.206  1.00  0.00     0.010 C 
ATOM      8  C   UNL     1      37.233   2.168   8.196  1.00  0.00     0.025 C 
BRANCH   8   9
ATOM      9  C   UNL     1      36.433   1.131   8.867  1.00  0.00     0.064 C 
ATOM     10  O   UNL     1      36.927   0.008   9.151  1.00  0.00    -0.545 OA
ATOM     11  O   UNL     1      35.110   1.396   9.196  1.00  0.00    -0.545 OA
ENDBRANCH   8   9
ENDBRANCH   1   7
BRANCH   6  12
ATOM     12  O   UNL     1      40.042   7.483   5.707  1.00  0.00    -0.508 OA
ATOM     13  H   UNL     1      39.650   8.359   5.381  1.00  0.00     0.293 HD
ENDBRANCH   6  12
TORSDOF 3
ENDMDL
