MODEL 1
REMARK VINA RESULT:    -2.348      0.000      0.000
REMARK INTER + INTRA:          -2.348
REMARK INTER:                  -2.348
REMARK INTRA:                   0.000
REMARK UNBOUND:                 0.000
REMARK SMILES CC(=O)[O-]
REMARK SMILES IDX 1 1 2 2 3 3 4 4
REMARK H PARENT
REMARK Flexibility Score: inf
ROOT
ATOM      1  C   UNL     1     -33.671  -4.078 -11.815  1.00  0.00     0.063 C 
ATOM      2  C   UNL     1     -33.668  -3.134 -10.661  1.00  0.00     0.038 C 
ATOM      3  O   UNL     1     -34.680  -3.040  -9.918  1.00  0.00    -0.550 OA
ATOM      4  O   UNL     1     -32.529  -2.394 -10.369  1.00  0.00    -0.550 OA
ENDROOT
TORSDOF 0
ENDMDL
MODEL 2
REMARK VINA RESULT:    -2.322      1.375      2.216
REMARK INTER + INTRA:          -2.322
REMARK INTER:                  -2.322
REMARK INTRA:                   0.000
REMARK UNBOUND:                 0.000
REMARK SMILES CC(=O)[O-]
REMARK SMILES IDX 1 1 2 2 3 3 4 4
REMARK H PARENT
REMARK Flexibility Score: inf
ROOT
ATOM      1  C   UNL     1     -32.780  -2.317 -10.268  1.00  0.00     0.063 C 
ATOM      2  C   UNL     1     -33.749  -3.314 -10.806  1.00  0.00     0.038 C 
ATOM      3  O   UNL     1     -33.438  -4.028 -11.795  1.00  0.00    -0.550 OA
ATOM      4  O   UNL     1     -34.978  -3.495 -10.185  1.00  0.00    -0.550 OA
ENDROOT
TORSDOF 0
ENDMDL
MODEL 3
REMARK VINA RESULT:    -2.268      1.235      1.935
REMARK INTER + INTRA:          -2.268
REMARK INTER:                  -2.268
REMARK INTRA:                   0.000
REMARK UNBOUND:                 0.000
REMARK SMILES CC(=O)[O-]
REMARK SMILES IDX 1 1 2 2 3 3 4 4
REMARK H PARENT
REMARK Flexibility Score: inf
ROOT
ATOM      1  C   UNL     1     -34.263  -3.418 -10.652  1.00  0.00     0.063 C 
ATOM      2  C   UNL     1     -33.485  -2.354  -9.955  1.00  0.00     0.038 C 
ATOM      3  O   UNL     1     -32.361  -2.001 -10.398  1.00  0.00    -0.550 OA
ATOM      4  O   UNL     1     -34.021  -1.712  -8.846  1.00  0.00    -0.550 OA
ENDROOT
TORSDOF 0
ENDMDL
MODEL 4
REMARK VINA RESULT:    -2.261      1.903      1.962
REMARK INTER + INTRA:          -2.261
REMARK INTER:                  -2.261
REMARK INTRA:                   0.000
REMARK UNBOUND:                 0.000
REMARK SMILES CC(=O)[O-]
REMARK SMILES IDX 1 1 2 2 3 3 4 4
REMARK H PARENT
REMARK Flexibility Score: inf
ROOT
ATOM      1  C   UNL     1     -32.646  -2.223 -10.373  1.00  0.00     0.063 C 
ATOM      2  C   UNL     1     -33.923  -2.264  -9.604  1.00  0.00     0.038 C 
ATOM      3  O   UNL     1     -34.827  -3.080  -9.923  1.00  0.00    -0.550 OA
ATOM      4  O   UNL     1     -34.098  -1.439  -8.500  1.00  0.00    -0.550 OA
ENDROOT
TORSDOF 0
ENDMDL
MODEL 5
REMARK VINA RESULT:    -2.169     16.266     16.558
REMARK INTER + INTRA:          -2.169
REMARK INTER:                  -2.169
REMARK INTRA:                   0.000
REMARK UNBOUND:                 0.000
REMARK SMILES CC(=O)[O-]
REMARK SMILES IDX 1 1 2 2 3 3 4 4
REMARK H PARENT
REMARK Flexibility Score: inf
ROOT
ATOM      1  C   UNL     1     -23.690 -17.252  -7.607  1.00  0.00     0.063 C 
ATOM      2  C   UNL     1     -23.897 -16.305  -8.740  1.00  0.00     0.038 C 
ATOM      3  O   UNL     1     -24.647 -16.624  -9.701  1.00  0.00    -0.550 OA
ATOM      4  O   UNL     1     -23.307 -15.048  -8.715  1.00  0.00    -0.550 OA
ENDROOT
TORSDOF 0
ENDMDL
MODEL 6
REMARK VINA RESULT:    -2.166     16.545     16.874
REMARK INTER + INTRA:          -2.166
REMARK INTER:                  -2.166
REMARK INTRA:                   0.000
REMARK UNBOUND:                 0.000
REMARK SMILES CC(=O)[O-]
REMARK SMILES IDX 1 1 2 2 3 3 4 4
REMARK H PARENT
REMARK Flexibility Score: inf
ROOT
ATOM      1  C   UNL     1     -24.468 -17.491  -9.847  1.00  0.00     0.063 C 
ATOM      2  C   UNL     1     -23.913 -16.718  -8.700  1.00  0.00     0.038 C 
ATOM      3  O   UNL     1     -23.649 -15.494  -8.831  1.00  0.00    -0.550 OA
ATOM      4  O   UNL     1     -23.734 -17.332  -7.467  1.00  0.00    -0.550 OA
ENDROOT
TORSDOF 0
ENDMDL
MODEL 7
REMARK VINA RESULT:    -2.084     15.824     16.151
REMARK INTER + INTRA:          -2.084
REMARK INTER:                  -2.084
REMARK INTRA:                   0.000
REMARK UNBOUND:                 0.000
REMARK SMILES CC(=O)[O-]
REMARK SMILES IDX 1 1 2 2 3 3 4 4
REMARK H PARENT
REMARK Flexibility Score: inf
ROOT
ATOM      1  C   UNL     1     -28.682  -5.695   3.571  1.00  0.00     0.063 C 
ATOM      2  C   UNL     1     -27.254  -6.043   3.821  1.00  0.00     0.038 C 
ATOM      3  O   UNL     1     -26.772  -5.938   4.979  1.00  0.00    -0.550 OA
ATOM      4  O   UNL     1     -26.466  -6.536   2.789  1.00  0.00    -0.550 OA
ENDROOT
TORSDOF 0
ENDMDL
MODEL 8
REMARK VINA RESULT:    -2.059      3.092      3.620
REMARK INTER + INTRA:          -2.059
REMARK INTER:                  -2.059
REMARK INTRA:                   0.000
REMARK UNBOUND:                 0.000
REMARK SMILES CC(=O)[O-]
REMARK SMILES IDX 1 1 2 2 3 3 4 4
REMARK H PARENT
REMARK Flexibility Score: inf
ROOT
ATOM      1  C   UNL     1     -34.376  -1.631  -6.703  1.00  0.00     0.063 C 
ATOM      2  C   UNL     1     -34.534  -1.463  -8.176  1.00  0.00     0.038 C 
ATOM      3  O   UNL     1     -35.547  -0.876  -8.640  1.00  0.00    -0.550 OA
ATOM      4  O   UNL     1     -33.540  -1.906  -9.039  1.00  0.00    -0.550 OA
ENDROOT
TORSDOF 0
ENDMDL
