MODEL 1
REMARK VINA RESULT:    -3.001      0.000      0.000
REMARK INTER + INTRA:          -3.572
REMARK INTER:                  -3.439
REMARK INTRA:                  -0.132
REMARK UNBOUND:                -0.132
REMARK SMILES COc1cc(C(C)=O)ccc1O
REMARK SMILES IDX 5 1 4 2 3 3 11 4 10 5 9 6 6 7 7 8 8 9 2 10 1 11 12 12
REMARK H PARENT 12 13
REMARK Flexibility Score: inf
ROOT
ATOM      1  C   UNL     1      34.358  25.124  32.384  1.00  0.00     0.021 A 
ATOM      2  C   UNL     1      33.609  25.125  31.192  1.00  0.00     0.062 A 
ATOM      3  C   UNL     1      32.199  25.125  31.222  1.00  0.00     0.161 A 
ATOM      4  C   UNL     1      31.539  25.124  32.458  1.00  0.00     0.157 A 
ATOM      5  C   UNL     1      32.277  25.124  33.648  1.00  0.00     0.051 A 
ATOM      6  C   UNL     1      33.672  25.123  33.613  1.00  0.00     0.016 A 
ENDROOT
BRANCH   1   7
ATOM      7  C   UNL     1      35.846  25.125  32.331  1.00  0.00     0.159 C 
ATOM      8  C   UNL     1      36.685  25.125  33.574  1.00  0.00     0.093 C 
ATOM      9  O   UNL     1      36.432  25.125  31.214  1.00  0.00    -0.295 OA
ENDBRANCH   1   7
BRANCH   3  10
ATOM     10  O   UNL     1      31.425  25.125  30.053  1.00  0.00    -0.493 OA
ATOM     11  C   UNL     1      31.457  24.102  29.063  1.00  0.00     0.278 C 
ENDBRANCH   3  10
BRANCH   4  12
ATOM     12  O   UNL     1      30.146  25.124  32.496  1.00  0.00    -0.504 OA
ATOM     13  H   UNL     1      29.631  24.497  33.102  1.00  0.00     0.293 HD
ENDBRANCH   4  12
TORSDOF 3
ENDMDL
MODEL 2
REMARK VINA RESULT:    -2.898      2.504      3.219
REMARK INTER + INTRA:          -3.454
REMARK INTER:                  -3.316
REMARK INTRA:                  -0.137
REMARK UNBOUND:                -0.132
REMARK SMILES COc1cc(C(C)=O)ccc1O
REMARK SMILES IDX 5 1 4 2 3 3 11 4 10 5 9 6 6 7 7 8 8 9 2 10 1 11 12 12
REMARK H PARENT 12 13
REMARK Flexibility Score: inf
ROOT
ATOM      1  C   UNL     1      31.455  25.101  32.445  1.00  0.00     0.021 A 
ATOM      2  C   UNL     1      32.087  25.092  31.187  1.00  0.00     0.062 A 
ATOM      3  C   UNL     1      31.331  25.099  29.997  1.00  0.00     0.161 A 
ATOM      4  C   UNL     1      29.931  25.114  30.072  1.00  0.00     0.157 A 
ATOM      5  C   UNL     1      29.296  25.123  31.319  1.00  0.00     0.051 A 
ATOM      6  C   UNL     1      30.048  25.117  32.495  1.00  0.00     0.016 A 
ENDROOT
BRANCH   1   7
ATOM      7  C   UNL     1      32.271  25.095  33.690  1.00  0.00     0.159 C 
ATOM      8  C   UNL     1      31.642  25.068  35.051  1.00  0.00     0.093 C 
ATOM      9  O   UNL     1      33.530  25.113  33.613  1.00  0.00    -0.295 OA
ENDBRANCH   1   7
BRANCH   3  10
ATOM     10  O   UNL     1      31.930  25.089  28.728  1.00  0.00    -0.493 OA
ATOM     11  C   UNL     1      32.580  23.962  28.151  1.00  0.00     0.278 C 
ENDBRANCH   3  10
BRANCH   4  12
ATOM     12  O   UNL     1      29.178  25.120  28.900  1.00  0.00    -0.504 OA
ATOM     13  H   UNL     1      29.600  24.945  27.997  1.00  0.00     0.293 HD
ENDBRANCH   4  12
TORSDOF 3
ENDMDL
MODEL 3
REMARK VINA RESULT:    -2.843      3.124      4.576
REMARK INTER + INTRA:          -3.391
REMARK INTER:                  -3.272
REMARK INTRA:                  -0.119
REMARK UNBOUND:                -0.132
REMARK SMILES COc1cc(C(C)=O)ccc1O
REMARK SMILES IDX 5 1 4 2 3 3 11 4 10 5 9 6 6 7 7 8 8 9 2 10 1 11 12 12
REMARK H PARENT 12 13
REMARK Flexibility Score: inf
ROOT
ATOM      1  C   UNL     1      33.040  24.184  28.209  1.00  0.00     0.021 A 
ATOM      2  C   UNL     1      32.251  24.457  29.344  1.00  0.00     0.062 A 
ATOM      3  C   UNL     1      30.847  24.526  29.250  1.00  0.00     0.161 A 
ATOM      4  C   UNL     1      30.230  24.322  28.008  1.00  0.00     0.157 A 
ATOM      5  C   UNL     1      31.007  24.050  26.876  1.00  0.00     0.051 A 
ATOM      6  C   UNL     1      32.398  23.982  26.973  1.00  0.00     0.016 A 
ENDROOT
BRANCH   1   7
ATOM      7  C   UNL     1      34.522  24.114  28.329  1.00  0.00     0.159 C 
ATOM      8  C   UNL     1      35.359  23.316  27.374  1.00  0.00     0.093 C 
ATOM      9  O   UNL     1      35.105  24.739  29.257  1.00  0.00    -0.295 OA
ENDBRANCH   1   7
BRANCH   3  10
ATOM     10  O   UNL     1      30.034  24.796  30.361  1.00  0.00    -0.493 OA
ATOM     11  C   UNL     1      30.242  24.259  31.663  1.00  0.00     0.278 C 
ENDBRANCH   3  10
BRANCH   4  12
ATOM     12  O   UNL     1      28.842  24.389  27.908  1.00  0.00    -0.504 OA
ATOM     13  H   UNL     1      28.348  24.008  27.110  1.00  0.00     0.293 HD
ENDBRANCH   4  12
TORSDOF 3
ENDMDL
MODEL 4
REMARK VINA RESULT:    -2.654      2.465      4.895
REMARK INTER + INTRA:          -3.174
REMARK INTER:                  -3.056
REMARK INTRA:                  -0.119
REMARK UNBOUND:                -0.132
REMARK SMILES COc1cc(C(C)=O)ccc1O
REMARK SMILES IDX 5 1 4 2 3 3 11 4 10 5 9 6 6 7 7 8 8 9 2 10 1 11 12 12
REMARK H PARENT 12 13
REMARK Flexibility Score: inf
ROOT
ATOM      1  C   UNL     1      31.339  24.514  30.580  1.00  0.00     0.021 A 
ATOM      2  C   UNL     1      32.632  24.986  30.282  1.00  0.00     0.062 A 
ATOM      3  C   UNL     1      33.286  24.606  29.092  1.00  0.00     0.161 A 
ATOM      4  C   UNL     1      32.636  23.746  28.197  1.00  0.00     0.157 A 
ATOM      5  C   UNL     1      31.351  23.273  28.485  1.00  0.00     0.051 A 
ATOM      6  C   UNL     1      30.707  23.652  29.664  1.00  0.00     0.016 A 
ENDROOT
BRANCH   1   7
ATOM      7  C   UNL     1      30.666  24.928  31.841  1.00  0.00     0.159 C 
ATOM      8  C   UNL     1      29.181  25.122  31.922  1.00  0.00     0.093 C 
ATOM      9  O   UNL     1      31.352  25.125  32.882  1.00  0.00    -0.295 OA
ENDBRANCH   1   7
BRANCH   3  10
ATOM     10  O   UNL     1      34.573  25.058  28.767  1.00  0.00    -0.493 OA
ATOM     11  C   UNL     1      35.663  25.119  29.682  1.00  0.00     0.278 C 
ENDBRANCH   3  10
BRANCH   4  12
ATOM     12  O   UNL     1      33.276  23.366  27.018  1.00  0.00    -0.504 OA
ATOM     13  H   UNL     1      33.779  22.490  26.946  1.00  0.00     0.293 HD
ENDBRANCH   4  12
TORSDOF 3
ENDMDL
MODEL 5
REMARK VINA RESULT:    -2.574      1.387      4.203
REMARK INTER + INTRA:          -3.083
REMARK INTER:                  -2.964
REMARK INTRA:                  -0.119
REMARK UNBOUND:                -0.132
REMARK SMILES COc1cc(C(C)=O)ccc1O
REMARK SMILES IDX 5 1 4 2 3 3 11 4 10 5 9 6 6 7 7 8 8 9 2 10 1 11 12 12
REMARK H PARENT 12 13
REMARK Flexibility Score: inf
ROOT
ATOM      1  C   UNL     1      32.282  25.043  31.731  1.00  0.00     0.021 A 
ATOM      2  C   UNL     1      33.217  25.070  30.678  1.00  0.00     0.062 A 
ATOM      3  C   UNL     1      34.602  25.097  30.940  1.00  0.00     0.161 A 
ATOM      4  C   UNL     1      35.050  25.098  32.267  1.00  0.00     0.157 A 
ATOM      5  C   UNL     1      34.127  25.071  33.319  1.00  0.00     0.051 A 
ATOM      6  C   UNL     1      32.757  25.044  33.056  1.00  0.00     0.016 A 
ENDROOT
BRANCH   1   7
ATOM      7  C   UNL     1      30.824  25.014  31.434  1.00  0.00     0.159 C 
ATOM      8  C   UNL     1      29.791  25.106  32.517  1.00  0.00     0.093 C 
ATOM      9  O   UNL     1      30.430  24.910  30.240  1.00  0.00    -0.295 OA
ENDBRANCH   1   7
BRANCH   3  10
ATOM     10  O   UNL     1      35.558  25.125  29.913  1.00  0.00    -0.493 OA
ATOM     11  C   UNL     1      35.376  24.547  28.624  1.00  0.00     0.278 C 
ENDBRANCH   3  10
BRANCH   4  12
ATOM     12  O   UNL     1      36.418  25.125  32.533  1.00  0.00    -0.504 OA
ATOM     13  H   UNL     1      36.779  24.999  33.471  1.00  0.00     0.293 HD
ENDBRANCH   4  12
TORSDOF 3
ENDMDL
MODEL 6
REMARK VINA RESULT:    -2.348     17.708     19.396
REMARK INTER + INTRA:          -2.823
REMARK INTER:                  -2.807
REMARK INTRA:                  -0.017
REMARK UNBOUND:                -0.132
REMARK SMILES COc1cc(C(C)=O)ccc1O
REMARK SMILES IDX 5 1 4 2 3 3 11 4 10 5 9 6 6 7 7 8 8 9 2 10 1 11 12 12
REMARK H PARENT 12 13
REMARK Flexibility Score: inf
ROOT
ATOM      1  C   UNL     1      20.506  22.932  45.916  1.00  0.00     0.021 A 
ATOM      2  C   UNL     1      20.059  23.659  44.796  1.00  0.00     0.062 A 
ATOM      3  C   UNL     1      18.845  24.374  44.834  1.00  0.00     0.161 A 
ATOM      4  C   UNL     1      18.076  24.359  46.006  1.00  0.00     0.157 A 
ATOM      5  C   UNL     1      18.514  23.639  47.123  1.00  0.00     0.051 A 
ATOM      6  C   UNL     1      19.716  22.932  47.081  1.00  0.00     0.016 A 
ENDROOT
BRANCH   1   7
ATOM      7  C   UNL     1      21.792  22.183  45.855  1.00  0.00     0.159 C 
ATOM      8  C   UNL     1      23.100  22.871  45.603  1.00  0.00     0.093 C 
ATOM      9  O   UNL     1      21.796  20.932  46.019  1.00  0.00    -0.295 OA
ENDBRANCH   1   7
BRANCH   3  10
ATOM     10  O   UNL     1      18.373  25.107  43.735  1.00  0.00    -0.493 OA
ATOM     11  C   UNL     1      17.370  24.653  42.832  1.00  0.00     0.278 C 
ENDBRANCH   3  10
BRANCH   4  12
ATOM     12  O   UNL     1      16.875  25.064  46.051  1.00  0.00    -0.504 OA
ATOM     13  H   UNL     1      16.264  25.021  46.857  1.00  0.00     0.293 HD
ENDBRANCH   4  12
TORSDOF 3
ENDMDL
MODEL 7
REMARK VINA RESULT:    -2.280      2.713      6.051
REMARK INTER + INTRA:          -2.745
REMARK INTER:                  -2.625
REMARK INTRA:                  -0.120
REMARK UNBOUND:                -0.132
REMARK SMILES COc1cc(C(C)=O)ccc1O
REMARK SMILES IDX 5 1 4 2 3 3 11 4 10 5 9 6 6 7 7 8 8 9 2 10 1 11 12 12
REMARK H PARENT 12 13
REMARK Flexibility Score: inf
ROOT
ATOM      1  C   UNL     1      32.561  23.857  28.471  1.00  0.00     0.021 A 
ATOM      2  C   UNL     1      33.575  24.529  29.180  1.00  0.00     0.062 A 
ATOM      3  C   UNL     1      34.919  24.460  28.762  1.00  0.00     0.161 A 
ATOM      4  C   UNL     1      35.246  23.710  27.624  1.00  0.00     0.157 A 
ATOM      5  C   UNL     1      34.244  23.039  26.914  1.00  0.00     0.051 A 
ATOM      6  C   UNL     1      32.914  23.111  27.331  1.00  0.00     0.016 A 
ENDROOT
BRANCH   1   7
ATOM      7  C   UNL     1      31.147  23.943  28.929  1.00  0.00     0.159 C 
ATOM      8  C   UNL     1      29.999  23.955  27.964  1.00  0.00     0.093 C 
ATOM      9  O   UNL     1      30.891  24.009  30.163  1.00  0.00    -0.295 OA
ENDBRANCH   1   7
BRANCH   3  10
ATOM     10  O   UNL     1      35.952  25.117  29.447  1.00  0.00    -0.493 OA
ATOM     11  C   UNL     1      36.150  25.062  30.855  1.00  0.00     0.278 C 
ENDBRANCH   3  10
BRANCH   4  12
ATOM     12  O   UNL     1      36.573  23.637  27.204  1.00  0.00    -0.504 OA
ATOM     13  H   UNL     1      37.073  22.757  27.174  1.00  0.00     0.293 HD
ENDBRANCH   4  12
TORSDOF 3
ENDMDL
MODEL 8
REMARK VINA RESULT:    -2.243      2.690      5.486
REMARK INTER + INTRA:          -2.704
REMARK INTER:                  -2.591
REMARK INTRA:                  -0.112
REMARK UNBOUND:                -0.132
REMARK SMILES COc1cc(C(C)=O)ccc1O
REMARK SMILES IDX 5 1 4 2 3 3 11 4 10 5 9 6 6 7 7 8 8 9 2 10 1 11 12 12
REMARK H PARENT 12 13
REMARK Flexibility Score: inf
ROOT
ATOM      1  C   UNL     1      31.420  24.764  28.747  1.00  0.00     0.021 A 
ATOM      2  C   UNL     1      32.535  24.608  27.899  1.00  0.00     0.062 A 
ATOM      3  C   UNL     1      33.847  24.709  28.403  1.00  0.00     0.161 A 
ATOM      4  C   UNL     1      34.041  24.969  29.767  1.00  0.00     0.157 A 
ATOM      5  C   UNL     1      32.939  25.125  30.615  1.00  0.00     0.051 A 
ATOM      6  C   UNL     1      31.641  25.024  30.112  1.00  0.00     0.016 A 
ENDROOT
BRANCH   1   7
ATOM      7  C   UNL     1      30.042  24.653  28.195  1.00  0.00     0.159 C 
ATOM      8  C   UNL     1      29.765  23.993  26.877  1.00  0.00     0.093 C 
ATOM      9  O   UNL     1      29.068  25.123  28.845  1.00  0.00    -0.295 OA
ENDBRANCH   1   7
BRANCH   3  10
ATOM     10  O   UNL     1      34.977  24.559  27.585  1.00  0.00    -0.493 OA
ATOM     11  C   UNL     1      35.526  23.308  27.187  1.00  0.00     0.278 C 
ENDBRANCH   3  10
BRANCH   4  12
ATOM     12  O   UNL     1      35.336  25.070  30.271  1.00  0.00    -0.504 OA
ATOM     13  H   UNL     1      35.511  25.258  31.251  1.00  0.00     0.293 HD
ENDBRANCH   4  12
TORSDOF 3
ENDMDL
MODEL 9
REMARK VINA RESULT:    -0.783     17.285     19.583
REMARK INTER + INTRA:          -1.030
REMARK INTER:                  -0.959
REMARK INTRA:                  -0.071
REMARK UNBOUND:                -0.132
REMARK SMILES COc1cc(C(C)=O)ccc1O
REMARK SMILES IDX 5 1 4 2 3 3 11 4 10 5 9 6 6 7 7 8 8 9 2 10 1 11 12 12
REMARK H PARENT 12 13
REMARK Flexibility Score: inf
ROOT
ATOM      1  C   UNL     1      18.917  24.257  44.748  1.00  0.00     0.021 A 
ATOM      2  C   UNL     1      19.254  23.466  45.864  1.00  0.00     0.062 A 
ATOM      3  C   UNL     1      20.559  22.960  46.025  1.00  0.00     0.161 A 
ATOM      4  C   UNL     1      21.532  23.250  45.059  1.00  0.00     0.157 A 
ATOM      5  C   UNL     1      21.205  24.035  43.948  1.00  0.00     0.051 A 
ATOM      6  C   UNL     1      19.911  24.534  43.791  1.00  0.00     0.016 A 
ENDROOT
BRANCH   1   7
ATOM      7  C   UNL     1      17.532  24.782  44.596  1.00  0.00     0.159 C 
ATOM      8  C   UNL     1      16.879  24.921  43.253  1.00  0.00     0.093 C 
ATOM      9  O   UNL     1      16.877  25.125  45.618  1.00  0.00    -0.295 OA
ENDBRANCH   1   7
BRANCH   3  10
ATOM     10  O   UNL     1      20.926  22.170  47.125  1.00  0.00    -0.493 OA
ATOM     11  C   UNL     1      20.949  20.746  47.125  1.00  0.00     0.278 C 
ENDBRANCH   3  10
BRANCH   4  12
ATOM     12  O   UNL     1      22.825  22.753  45.212  1.00  0.00    -0.504 OA
ATOM     13  H   UNL     1      23.164  22.422  46.107  1.00  0.00     0.293 HD
ENDBRANCH   4  12
TORSDOF 3
ENDMDL
