MODEL 1
REMARK VINA RESULT:    -5.159      0.000      0.000
REMARK INTER + INTRA:          -6.329
REMARK INTER:                  -6.064
REMARK INTRA:                  -0.265
REMARK UNBOUND:                -0.265
REMARK SMILES O=c1cc(-c2ccc(O)c(O)c2)oc2cc(O)cc(O)c12
REMARK SMILES IDX 4 1 3 2 2 3 1 4 21 5 19 6 18 7 16 8 15 9 14 10 13 11 5 12
REMARK SMILES IDX 6 13 7 14 8 15 12 16 10 17 9 18 11 20 20 22 17 24
REMARK H PARENT 9 19 11 21 20 23 17 25
REMARK Flexibility Score: inf
ROOT
ATOM      1  C   UNL     1      -7.515  -6.369   1.553  1.00  0.00     0.138 A 
ATOM      2  C   UNL     1      -6.613  -5.299   1.627  1.00  0.00     0.100 A 
ATOM      3  C   UNL     1      -7.067  -4.040   2.024  1.00  0.00     0.197 A 
ATOM      4  O   UNL     1      -6.248  -3.085   2.022  1.00  0.00    -0.289 OA
ATOM      5  C   UNL     1      -8.425  -3.862   2.380  1.00  0.00     0.107 A 
ATOM      6  C   UNL     1      -8.991  -2.635   2.839  1.00  0.00     0.134 A 
ATOM      7  C   UNL     1     -10.373  -2.548   3.049  1.00  0.00     0.093 A 
ATOM      8  C   UNL     1     -11.200  -3.661   2.876  1.00  0.00     0.123 A 
ATOM      9  C   UNL     1     -10.649  -4.877   2.481  1.00  0.00     0.094 A 
ATOM     10  C   UNL     1      -9.279  -4.987   2.229  1.00  0.00     0.146 A 
ATOM     11  O   UNL     1      -8.797  -6.163   1.839  1.00  0.00    -0.456 OA
ENDROOT
BRANCH   1  12
ATOM     12  C   UNL     1      -7.086  -7.728   1.138  1.00  0.00     0.021 A 
ATOM     13  C   UNL     1      -7.500  -8.234  -0.107  1.00  0.00     0.016 A 
ATOM     14  C   UNL     1      -7.116  -9.513  -0.518  1.00  0.00     0.051 A 
ATOM     15  C   UNL     1      -6.321 -10.313   0.311  1.00  0.00     0.157 A 
ATOM     16  C   UNL     1      -6.297  -8.543   1.972  1.00  0.00     0.062 A 
ATOM     17  C   UNL     1      -5.912  -9.826   1.563  1.00  0.00     0.158 A 
BRANCH  15  18
ATOM     18  O   UNL     1      -5.938 -11.587  -0.103  1.00  0.00    -0.504 OA
ATOM     19  H   UNL     1      -6.495 -12.122  -0.760  1.00  0.00     0.293 HD
ENDBRANCH  15  18
BRANCH  17  20
ATOM     20  O   UNL     1      -5.129 -10.602   2.417  1.00  0.00    -0.504 OA
ATOM     21  H   UNL     1      -4.141 -10.424   2.551  1.00  0.00     0.293 HD
ENDBRANCH  17  20
ENDBRANCH   1  12
BRANCH   6  22
ATOM     22  O   UNL     1      -8.243  -1.488   3.125  1.00  0.00    -0.507 OA
ATOM     23  H   UNL     1      -8.574  -0.542   3.017  1.00  0.00     0.293 HD
ENDBRANCH   6  22
BRANCH   8  24
ATOM     24  O   UNL     1     -12.571  -3.569   3.104  1.00  0.00    -0.508 OA
ATOM     25  H   UNL     1     -13.235  -3.556   2.338  1.00  0.00     0.293 HD
ENDBRANCH   8  24
TORSDOF 5
ENDMDL
MODEL 2
REMARK VINA RESULT:    -4.044      3.188      4.367
REMARK INTER + INTRA:          -5.018
REMARK INTER:                  -4.703
REMARK INTRA:                  -0.315
REMARK UNBOUND:                -0.265
REMARK SMILES O=c1cc(-c2ccc(O)c(O)c2)oc2cc(O)cc(O)c12
REMARK SMILES IDX 4 1 3 2 2 3 1 4 21 5 19 6 18 7 16 8 15 9 14 10 13 11 5 12
REMARK SMILES IDX 6 13 7 14 8 15 12 16 10 17 9 18 11 20 20 22 17 24
REMARK H PARENT 9 19 11 21 20 23 17 25
REMARK Flexibility Score: inf
ROOT
ATOM      1  C   UNL     1      -5.795  -6.146   1.183  1.00  0.00     0.138 A 
ATOM      2  C   UNL     1      -5.740  -5.211   2.225  1.00  0.00     0.100 A 
ATOM      3  C   UNL     1      -5.547  -3.861   1.930  1.00  0.00     0.197 A 
ATOM      4  O   UNL     1      -5.440  -3.053   2.889  1.00  0.00    -0.289 OA
ATOM      5  C   UNL     1      -5.440  -3.443   0.582  1.00  0.00     0.107 A 
ATOM      6  C   UNL     1      -5.283  -2.089   0.161  1.00  0.00     0.134 A 
ATOM      7  C   UNL     1      -5.070  -1.807  -1.194  1.00  0.00     0.093 A 
ATOM      8  C   UNL     1      -5.071  -2.826  -2.150  1.00  0.00     0.123 A 
ATOM      9  C   UNL     1      -5.278  -4.145  -1.755  1.00  0.00     0.094 A 
ATOM     10  C   UNL     1      -5.458  -4.462  -0.407  1.00  0.00     0.146 A 
ATOM     11  O   UNL     1      -5.637  -5.736  -0.071  1.00  0.00    -0.456 OA
ENDROOT
BRANCH   1  12
ATOM     12  C   UNL     1      -6.000  -7.595   1.440  1.00  0.00     0.021 A 
ATOM     13  C   UNL     1      -5.847  -8.094   2.745  1.00  0.00     0.016 A 
ATOM     14  C   UNL     1      -6.027  -9.454   3.011  1.00  0.00     0.051 A 
ATOM     15  C   UNL     1      -6.351 -10.340   1.977  1.00  0.00     0.157 A 
ATOM     16  C   UNL     1      -6.313  -8.494   0.402  1.00  0.00     0.062 A 
ATOM     17  C   UNL     1      -6.492  -9.857   0.666  1.00  0.00     0.158 A 
BRANCH  15  18
ATOM     18  O   UNL     1      -6.531 -11.695   2.247  1.00  0.00    -0.504 OA
ATOM     19  H   UNL     1      -5.744 -12.315   2.402  1.00  0.00     0.293 HD
ENDBRANCH  15  18
BRANCH  17  20
ATOM     20  O   UNL     1      -6.803 -10.715  -0.388  1.00  0.00    -0.504 OA
ATOM     21  H   UNL     1      -7.304 -11.584  -0.245  1.00  0.00     0.293 HD
ENDBRANCH  17  20
ENDBRANCH   1  12
BRANCH   6  22
ATOM     22  O   UNL     1      -5.351  -0.989   1.023  1.00  0.00    -0.507 OA
ATOM     23  H   UNL     1      -5.458  -0.031   0.728  1.00  0.00     0.293 HD
ENDBRANCH   6  22
BRANCH   8  24
ATOM     24  O   UNL     1      -4.875  -2.536  -3.498  1.00  0.00    -0.508 OA
ATOM     25  H   UNL     1      -5.654  -2.341  -4.117  1.00  0.00     0.293 HD
ENDBRANCH   8  24
TORSDOF 5
ENDMDL
MODEL 3
REMARK VINA RESULT:    -4.022      1.464      2.404
REMARK INTER + INTRA:          -4.992
REMARK INTER:                  -4.721
REMARK INTRA:                  -0.271
REMARK UNBOUND:                -0.265
REMARK SMILES O=c1cc(-c2ccc(O)c(O)c2)oc2cc(O)cc(O)c12
REMARK SMILES IDX 4 1 3 2 2 3 1 4 21 5 19 6 18 7 16 8 15 9 14 10 13 11 5 12
REMARK SMILES IDX 6 13 7 14 8 15 12 16 10 17 9 18 11 20 20 22 17 24
REMARK H PARENT 9 19 11 21 20 23 17 25
REMARK Flexibility Score: inf
ROOT
ATOM      1  C   UNL     1      -6.565  -8.059   1.468  1.00  0.00     0.138 A 
ATOM      2  C   UNL     1      -5.591  -7.116   1.115  1.00  0.00     0.100 A 
ATOM      3  C   UNL     1      -5.868  -5.754   1.255  1.00  0.00     0.197 A 
ATOM      4  O   UNL     1      -4.999  -4.929   0.872  1.00  0.00    -0.289 OA
ATOM      5  C   UNL     1      -7.114  -5.340   1.782  1.00  0.00     0.107 A 
ATOM      6  C   UNL     1      -7.490  -3.982   2.007  1.00  0.00     0.134 A 
ATOM      7  C   UNL     1      -8.794  -3.687   2.423  1.00  0.00     0.093 A 
ATOM      8  C   UNL     1      -9.717  -4.704   2.680  1.00  0.00     0.123 A 
ATOM      9  C   UNL     1      -9.342  -6.035   2.514  1.00  0.00     0.094 A 
ATOM     10  C   UNL     1      -8.059  -6.361   2.067  1.00  0.00     0.146 A 
ATOM     11  O   UNL     1      -7.748  -7.643   1.908  1.00  0.00    -0.456 OA
ENDROOT
BRANCH   1  12
ATOM     12  C   UNL     1      -6.324  -9.519   1.340  1.00  0.00     0.021 A 
ATOM     13  C   UNL     1      -6.530 -10.355   2.451  1.00  0.00     0.016 A 
ATOM     14  C   UNL     1      -6.303 -11.730   2.358  1.00  0.00     0.051 A 
ATOM     15  C   UNL     1      -5.856 -12.293   1.158  1.00  0.00     0.157 A 
ATOM     16  C   UNL     1      -5.862 -10.090   0.138  1.00  0.00     0.062 A 
ATOM     17  C   UNL     1      -5.632 -11.468   0.043  1.00  0.00     0.158 A 
BRANCH  15  18
ATOM     18  O   UNL     1      -5.632 -13.666   1.068  1.00  0.00    -0.504 OA
ATOM     19  H   UNL     1      -6.373 -14.309   0.812  1.00  0.00     0.293 HD
ENDBRANCH  15  18
BRANCH  17  20
ATOM     20  O   UNL     1      -5.176 -11.997  -1.164  1.00  0.00    -0.504 OA
ATOM     21  H   UNL     1      -5.787 -12.500  -1.796  1.00  0.00     0.293 HD
ENDBRANCH  17  20
ENDBRANCH   1  12
BRANCH   6  22
ATOM     22  O   UNL     1      -6.621  -2.896   1.864  1.00  0.00    -0.507 OA
ATOM     23  H   UNL     1      -6.831  -1.949   2.138  1.00  0.00     0.293 HD
ENDBRANCH   6  22
BRANCH   8  24
ATOM     24  O   UNL     1     -11.007  -4.402   3.108  1.00  0.00    -0.508 OA
ATOM     25  H   UNL     1     -11.820  -4.853   2.703  1.00  0.00     0.293 HD
ENDBRANCH   8  24
TORSDOF 5
ENDMDL
MODEL 4
REMARK VINA RESULT:    -3.944      2.612      3.616
REMARK INTER + INTRA:          -4.901
REMARK INTER:                  -4.612
REMARK INTRA:                  -0.289
REMARK UNBOUND:                -0.265
REMARK SMILES O=c1cc(-c2ccc(O)c(O)c2)oc2cc(O)cc(O)c12
REMARK SMILES IDX 4 1 3 2 2 3 1 4 21 5 19 6 18 7 16 8 15 9 14 10 13 11 5 12
REMARK SMILES IDX 6 13 7 14 8 15 12 16 10 17 9 18 11 20 20 22 17 24
REMARK H PARENT 9 19 11 21 20 23 17 25
REMARK Flexibility Score: inf
ROOT
ATOM      1  C   UNL     1      -5.965  -6.247   0.701  1.00  0.00     0.138 A 
ATOM      2  C   UNL     1      -5.449  -5.857  -0.542  1.00  0.00     0.100 A 
ATOM      3  C   UNL     1      -5.304  -4.500  -0.834  1.00  0.00     0.197 A 
ATOM      4  O   UNL     1      -4.897  -4.178  -1.980  1.00  0.00    -0.289 OA
ATOM      5  C   UNL     1      -5.647  -3.530   0.139  1.00  0.00     0.107 A 
ATOM      6  C   UNL     1      -5.503  -2.121  -0.032  1.00  0.00     0.134 A 
ATOM      7  C   UNL     1      -5.986  -1.253   0.955  1.00  0.00     0.093 A 
ATOM      8  C   UNL     1      -6.553  -1.746   2.133  1.00  0.00     0.123 A 
ATOM      9  C   UNL     1      -6.649  -3.120   2.333  1.00  0.00     0.094 A 
ATOM     10  C   UNL     1      -6.208  -4.012   1.352  1.00  0.00     0.146 A 
ATOM     11  O   UNL     1      -6.333  -5.316   1.576  1.00  0.00    -0.456 OA
ENDROOT
BRANCH   1  12
ATOM     12  C   UNL     1      -6.140  -7.676   1.064  1.00  0.00     0.021 A 
ATOM     13  C   UNL     1      -6.099  -8.058   2.416  1.00  0.00     0.016 A 
ATOM     14  C   UNL     1      -6.254  -9.396   2.783  1.00  0.00     0.051 A 
ATOM     15  C   UNL     1      -6.441 -10.380   1.804  1.00  0.00     0.157 A 
ATOM     16  C   UNL     1      -6.316  -8.672   0.084  1.00  0.00     0.062 A 
ATOM     17  C   UNL     1      -6.469 -10.015   0.448  1.00  0.00     0.158 A 
BRANCH  15  18
ATOM     18  O   UNL     1      -6.597 -11.715   2.173  1.00  0.00    -0.504 OA
ATOM     19  H   UNL     1      -5.812 -12.274   2.486  1.00  0.00     0.293 HD
ENDBRANCH  15  18
BRANCH  17  20
ATOM     20  O   UNL     1      -6.643 -10.972  -0.551  1.00  0.00    -0.504 OA
ATOM     21  H   UNL     1      -6.646 -10.729  -1.534  1.00  0.00     0.293 HD
ENDBRANCH  17  20
ENDBRANCH   1  12
BRANCH   6  22
ATOM     22  O   UNL     1      -4.875  -1.528  -1.131  1.00  0.00    -0.507 OA
ATOM     23  H   UNL     1      -5.167  -1.636  -2.091  1.00  0.00     0.293 HD
ENDBRANCH   6  22
BRANCH   8  24
ATOM     24  O   UNL     1      -7.016  -0.875   3.117  1.00  0.00    -0.508 OA
ATOM     25  H   UNL     1      -7.710  -1.164   3.797  1.00  0.00     0.293 HD
ENDBRANCH   8  24
TORSDOF 5
ENDMDL
MODEL 5
REMARK VINA RESULT:    -2.887     20.164     21.463
REMARK INTER + INTRA:          -3.658
REMARK INTER:                  -3.352
REMARK INTRA:                  -0.306
REMARK UNBOUND:                -0.265
REMARK SMILES O=c1cc(-c2ccc(O)c(O)c2)oc2cc(O)cc(O)c12
REMARK SMILES IDX 4 1 3 2 2 3 1 4 21 5 19 6 18 7 16 8 15 9 14 10 13 11 5 12
REMARK SMILES IDX 6 13 7 14 8 15 12 16 10 17 9 18 11 20 20 22 17 24
REMARK H PARENT 9 19 11 21 20 23 17 25
REMARK Flexibility Score: inf
ROOT
ATOM      1  C   UNL     1     -22.148  -4.976 -14.204  1.00  0.00     0.138 A 
ATOM      2  C   UNL     1     -22.527  -4.588 -15.496  1.00  0.00     0.100 A 
ATOM      3  C   UNL     1     -23.351  -3.474 -15.668  1.00  0.00     0.197 A 
ATOM      4  O   UNL     1     -23.725  -3.186 -16.833  1.00  0.00    -0.289 OA
ATOM      5  C   UNL     1     -23.769  -2.728 -14.540  1.00  0.00     0.107 A 
ATOM      6  C   UNL     1     -24.575  -1.552 -14.597  1.00  0.00     0.134 A 
ATOM      7  C   UNL     1     -25.024  -0.964 -13.408  1.00  0.00     0.093 A 
ATOM      8  C   UNL     1     -24.646  -1.475 -12.164  1.00  0.00     0.123 A 
ATOM      9  C   UNL     1     -23.816  -2.591 -12.098  1.00  0.00     0.094 A 
ATOM     10  C   UNL     1     -23.379  -3.220 -13.266  1.00  0.00     0.146 A 
ATOM     11  O   UNL     1     -22.600  -4.292 -13.158  1.00  0.00    -0.456 OA
ENDROOT
BRANCH   1  12
ATOM     12  C   UNL     1     -21.274  -6.152 -13.964  1.00  0.00     0.021 A 
ATOM     13  C   UNL     1     -20.325  -6.519 -14.935  1.00  0.00     0.016 A 
ATOM     14  C   UNL     1     -19.496  -7.625 -14.737  1.00  0.00     0.051 A 
ATOM     15  C   UNL     1     -19.607  -8.391 -13.571  1.00  0.00     0.157 A 
ATOM     16  C   UNL     1     -21.388  -6.935 -12.799  1.00  0.00     0.062 A 
ATOM     17  C   UNL     1     -20.559  -8.045 -12.598  1.00  0.00     0.158 A 
BRANCH  15  18
ATOM     18  O   UNL     1     -18.776  -9.494 -13.375  1.00  0.00    -0.504 OA
ATOM     19  H   UNL     1     -17.860  -9.552 -13.805  1.00  0.00     0.293 HD
ENDBRANCH  15  18
BRANCH  17  20
ATOM     20  O   UNL     1     -20.702  -8.794 -11.431  1.00  0.00    -0.504 OA
ATOM     21  H   UNL     1     -20.163  -9.635 -11.262  1.00  0.00     0.293 HD
ENDBRANCH  17  20
ENDBRANCH   1  12
BRANCH   6  22
ATOM     22  O   UNL     1     -24.939  -0.911 -15.785  1.00  0.00    -0.507 OA
ATOM     23  H   UNL     1     -25.273   0.039 -15.850  1.00  0.00     0.293 HD
ENDBRANCH   6  22
BRANCH   8  24
ATOM     24  O   UNL     1     -25.084  -0.875 -10.986  1.00  0.00    -0.508 OA
ATOM     25  H   UNL     1     -24.450  -0.690 -10.217  1.00  0.00     0.293 HD
ENDBRANCH   8  24
TORSDOF 5
ENDMDL
MODEL 6
REMARK VINA RESULT:    -2.854     21.639     22.832
REMARK INTER + INTRA:          -3.619
REMARK INTER:                  -3.348
REMARK INTRA:                  -0.271
REMARK UNBOUND:                -0.265
REMARK SMILES O=c1cc(-c2ccc(O)c(O)c2)oc2cc(O)cc(O)c12
REMARK SMILES IDX 4 1 3 2 2 3 1 4 21 5 19 6 18 7 16 8 15 9 14 10 13 11 5 12
REMARK SMILES IDX 6 13 7 14 8 15 12 16 10 17 9 18 11 20 20 22 17 24
REMARK H PARENT 9 19 11 21 20 23 17 25
REMARK Flexibility Score: inf
ROOT
ATOM      1  C   UNL     1     -22.502  -5.618 -15.672  1.00  0.00     0.138 A 
ATOM      2  C   UNL     1     -23.059  -4.792 -14.686  1.00  0.00     0.100 A 
ATOM      3  C   UNL     1     -22.439  -3.582 -14.370  1.00  0.00     0.197 A 
ATOM      4  O   UNL     1     -22.926  -2.891 -13.438  1.00  0.00    -0.289 OA
ATOM      5  C   UNL     1     -21.275  -3.184 -15.069  1.00  0.00     0.107 A 
ATOM      6  C   UNL     1     -20.582  -1.954 -14.860  1.00  0.00     0.134 A 
ATOM      7  C   UNL     1     -19.374  -1.720 -15.528  1.00  0.00     0.093 A 
ATOM      8  C   UNL     1     -18.865  -2.646 -16.442  1.00  0.00     0.123 A 
ATOM      9  C   UNL     1     -19.561  -3.825 -16.693  1.00  0.00     0.094 A 
ATOM     10  C   UNL     1     -20.752  -4.103 -16.017  1.00  0.00     0.146 A 
ATOM     11  O   UNL     1     -21.377  -5.248 -16.274  1.00  0.00    -0.456 OA
ENDROOT
BRANCH   1  12
ATOM     12  C   UNL     1     -23.120  -6.915 -16.048  1.00  0.00     0.021 A 
ATOM     13  C   UNL     1     -24.330  -6.924 -16.763  1.00  0.00     0.016 A 
ATOM     14  C   UNL     1     -24.935  -8.131 -17.122  1.00  0.00     0.051 A 
ATOM     15  C   UNL     1     -24.348  -9.350 -16.763  1.00  0.00     0.157 A 
ATOM     16  C   UNL     1     -22.541  -8.145 -15.679  1.00  0.00     0.062 A 
ATOM     17  C   UNL     1     -23.146  -9.356 -16.036  1.00  0.00     0.158 A 
BRANCH  15  18
ATOM     18  O   UNL     1     -24.953 -10.552 -17.125  1.00  0.00    -0.504 OA
ATOM     19  H   UNL     1     -25.220 -11.242 -16.432  1.00  0.00     0.293 HD
ENDBRANCH  15  18
BRANCH  17  20
ATOM     20  O   UNL     1     -22.542 -10.553 -15.655  1.00  0.00    -0.504 OA
ATOM     21  H   UNL     1     -21.834 -11.004 -16.223  1.00  0.00     0.293 HD
ENDBRANCH  17  20
ENDBRANCH   1  12
BRANCH   6  22
ATOM     22  O   UNL     1     -21.047  -0.926 -14.034  1.00  0.00    -0.507 OA
ATOM     23  H   UNL     1     -21.767  -0.265 -14.285  1.00  0.00     0.293 HD
ENDBRANCH   6  22
BRANCH   8  24
ATOM     24  O   UNL     1     -17.670  -2.398 -17.114  1.00  0.00    -0.508 OA
ATOM     25  H   UNL     1     -17.353  -1.453 -17.301  1.00  0.00     0.293 HD
ENDBRANCH   8  24
TORSDOF 5
ENDMDL
MODEL 7
REMARK VINA RESULT:    -2.803     21.555     22.665
REMARK INTER + INTRA:          -3.559
REMARK INTER:                  -3.293
REMARK INTRA:                  -0.267
REMARK UNBOUND:                -0.265
REMARK SMILES O=c1cc(-c2ccc(O)c(O)c2)oc2cc(O)cc(O)c12
REMARK SMILES IDX 4 1 3 2 2 3 1 4 21 5 19 6 18 7 16 8 15 9 14 10 13 11 5 12
REMARK SMILES IDX 6 13 7 14 8 15 12 16 10 17 9 18 11 20 20 22 17 24
REMARK H PARENT 9 19 11 21 20 23 17 25
REMARK Flexibility Score: inf
ROOT
ATOM      1  C   UNL     1     -22.418  -6.803 -15.866  1.00  0.00     0.138 A 
ATOM      2  C   UNL     1     -21.364  -6.325 -16.656  1.00  0.00     0.100 A 
ATOM      3  C   UNL     1     -20.788  -5.088 -16.362  1.00  0.00     0.197 A 
ATOM      4  O   UNL     1     -19.885  -4.657 -17.125  1.00  0.00    -0.289 OA
ATOM      5  C   UNL     1     -21.251  -4.342 -15.252  1.00  0.00     0.107 A 
ATOM      6  C   UNL     1     -20.712  -3.088 -14.834  1.00  0.00     0.134 A 
ATOM      7  C   UNL     1     -21.328  -2.386 -13.791  1.00  0.00     0.093 A 
ATOM      8  C   UNL     1     -22.426  -2.920 -13.112  1.00  0.00     0.123 A 
ATOM      9  C   UNL     1     -22.926  -4.167 -13.478  1.00  0.00     0.094 A 
ATOM     10  C   UNL     1     -22.355  -4.877 -14.537  1.00  0.00     0.146 A 
ATOM     11  O   UNL     1     -22.872  -6.058 -14.864  1.00  0.00    -0.456 OA
ENDROOT
BRANCH   1  12
ATOM     12  C   UNL     1     -23.067  -8.112 -16.133  1.00  0.00     0.021 A 
ATOM     13  C   UNL     1     -24.266  -8.153 -16.866  1.00  0.00     0.016 A 
ATOM     14  C   UNL     1     -24.899  -9.371 -17.125  1.00  0.00     0.051 A 
ATOM     15  C   UNL     1     -24.352 -10.567 -16.646  1.00  0.00     0.157 A 
ATOM     16  C   UNL     1     -22.529  -9.318 -15.644  1.00  0.00     0.062 A 
ATOM     17  C   UNL     1     -23.163 -10.540 -15.900  1.00  0.00     0.158 A 
BRANCH  15  18
ATOM     18  O   UNL     1     -24.986 -11.781 -16.908  1.00  0.00    -0.504 OA
ATOM     19  H   UNL     1     -25.045 -12.511 -16.207  1.00  0.00     0.293 HD
ENDBRANCH  15  18
BRANCH  17  20
ATOM     20  O   UNL     1     -22.599 -11.713 -15.400  1.00  0.00    -0.504 OA
ATOM     21  H   UNL     1     -23.157 -12.530 -15.188  1.00  0.00     0.293 HD
ENDBRANCH  17  20
ENDBRANCH   1  12
BRANCH   6  22
ATOM     22  O   UNL     1     -19.568  -2.506 -15.387  1.00  0.00    -0.507 OA
ATOM     23  H   UNL     1     -18.919  -1.919 -14.886  1.00  0.00     0.293 HD
ENDBRANCH   6  22
BRANCH   8  24
ATOM     24  O   UNL     1     -23.023  -2.222 -12.065  1.00  0.00    -0.508 OA
ATOM     25  H   UNL     1     -23.691  -1.478 -12.237  1.00  0.00     0.293 HD
ENDBRANCH   8  24
TORSDOF 5
ENDMDL
MODEL 8
REMARK VINA RESULT:    -2.738     20.032     21.229
REMARK INTER + INTRA:          -3.484
REMARK INTER:                  -3.209
REMARK INTRA:                  -0.274
REMARK UNBOUND:                -0.265
REMARK SMILES O=c1cc(-c2ccc(O)c(O)c2)oc2cc(O)cc(O)c12
REMARK SMILES IDX 4 1 3 2 2 3 1 4 21 5 19 6 18 7 16 8 15 9 14 10 13 11 5 12
REMARK SMILES IDX 6 13 7 14 8 15 12 16 10 17 9 18 11 20 20 22 17 24
REMARK H PARENT 9 19 11 21 20 23 17 25
REMARK Flexibility Score: inf
ROOT
ATOM      1  C   UNL     1     -20.909  -5.229 -14.524  1.00  0.00     0.138 A 
ATOM      2  C   UNL     1     -22.194  -4.677 -14.618  1.00  0.00     0.100 A 
ATOM      3  C   UNL     1     -22.368  -3.439 -15.240  1.00  0.00     0.197 A 
ATOM      4  O   UNL     1     -23.522  -2.939 -15.255  1.00  0.00    -0.289 OA
ATOM      5  C   UNL     1     -21.254  -2.769 -15.799  1.00  0.00     0.107 A 
ATOM      6  C   UNL     1     -21.318  -1.524 -16.492  1.00  0.00     0.134 A 
ATOM      7  C   UNL     1     -20.133  -0.898 -16.899  1.00  0.00     0.093 A 
ATOM      8  C   UNL     1     -18.891  -1.503 -16.691  1.00  0.00     0.123 A 
ATOM      9  C   UNL     1     -18.822  -2.744 -16.064  1.00  0.00     0.094 A 
ATOM     10  C   UNL     1     -19.983  -3.377 -15.615  1.00  0.00     0.146 A 
ATOM     11  O   UNL     1     -19.872  -4.554 -15.007  1.00  0.00    -0.456 OA
ENDROOT
BRANCH   1  12
ATOM     12  C   UNL     1     -20.667  -6.542 -13.873  1.00  0.00     0.021 A 
ATOM     13  C   UNL     1     -19.899  -7.513 -14.539  1.00  0.00     0.016 A 
ATOM     14  C   UNL     1     -19.663  -8.758 -13.952  1.00  0.00     0.051 A 
ATOM     15  C   UNL     1     -20.199  -9.060 -12.694  1.00  0.00     0.157 A 
ATOM     16  C   UNL     1     -21.214  -6.856 -12.614  1.00  0.00     0.062 A 
ATOM     17  C   UNL     1     -20.980  -8.105 -12.024  1.00  0.00     0.158 A 
BRANCH  15  18
ATOM     18  O   UNL     1     -19.959 -10.303 -12.110  1.00  0.00    -0.504 OA
ATOM     19  H   UNL     1     -19.797 -10.399 -11.115  1.00  0.00     0.293 HD
ENDBRANCH  15  18
BRANCH  17  20
ATOM     20  O   UNL     1     -21.537  -8.378 -10.775  1.00  0.00    -0.504 OA
ATOM     21  H   UNL     1     -22.377  -7.916 -10.448  1.00  0.00     0.293 HD
ENDBRANCH  17  20
ENDBRANCH   1  12
BRANCH   6  22
ATOM     22  O   UNL     1     -22.511  -0.876 -16.826  1.00  0.00    -0.507 OA
ATOM     23  H   UNL     1     -23.112  -1.133 -17.594  1.00  0.00     0.293 HD
ENDBRANCH   6  22
BRANCH   8  24
ATOM     24  O   UNL     1     -17.718  -0.882 -17.114  1.00  0.00    -0.508 OA
ATOM     25  H   UNL     1     -17.738  -0.018 -17.646  1.00  0.00     0.293 HD
ENDBRANCH   8  24
TORSDOF 5
ENDMDL
MODEL 9
REMARK VINA RESULT:    -2.726      1.317      2.942
REMARK INTER + INTRA:          -3.469
REMARK INTER:                  -3.202
REMARK INTRA:                  -0.267
REMARK UNBOUND:                -0.265
REMARK SMILES O=c1cc(-c2ccc(O)c(O)c2)oc2cc(O)cc(O)c12
REMARK SMILES IDX 4 1 3 2 2 3 1 4 21 5 19 6 18 7 16 8 15 9 14 10 13 11 5 12
REMARK SMILES IDX 6 13 7 14 8 15 12 16 10 17 9 18 11 20 20 22 17 24
REMARK H PARENT 9 19 11 21 20 23 17 25
REMARK Flexibility Score: inf
ROOT
ATOM      1  C   UNL     1      -7.531  -6.167   1.592  1.00  0.00     0.138 A 
ATOM      2  C   UNL     1      -8.830  -5.859   2.015  1.00  0.00     0.100 A 
ATOM      3  C   UNL     1      -9.130  -4.563   2.437  1.00  0.00     0.197 A 
ATOM      4  O   UNL     1     -10.288  -4.331   2.870  1.00  0.00    -0.289 OA
ATOM      5  C   UNL     1      -8.128  -3.563   2.403  1.00  0.00     0.107 A 
ATOM      6  C   UNL     1      -8.329  -2.199   2.771  1.00  0.00     0.134 A 
ATOM      7  C   UNL     1      -7.234  -1.326   2.809  1.00  0.00     0.093 A 
ATOM      8  C   UNL     1      -5.958  -1.754   2.435  1.00  0.00     0.123 A 
ATOM      9  C   UNL     1      -5.763  -3.070   2.023  1.00  0.00     0.094 A 
ATOM     10  C   UNL     1      -6.827  -3.974   2.008  1.00  0.00     0.146 A 
ATOM     11  O   UNL     1      -6.594  -5.225   1.623  1.00  0.00    -0.456 OA
ENDROOT
BRANCH   1  12
ATOM     12  C   UNL     1      -7.158  -7.529   1.133  1.00  0.00     0.021 A 
ATOM     13  C   UNL     1      -7.491  -7.935  -0.171  1.00  0.00     0.016 A 
ATOM     14  C   UNL     1      -7.158  -9.214  -0.625  1.00  0.00     0.051 A 
ATOM     15  C   UNL     1      -6.497 -10.113   0.220  1.00  0.00     0.157 A 
ATOM     16  C   UNL     1      -6.504  -8.444   1.982  1.00  0.00     0.062 A 
ATOM     17  C   UNL     1      -6.171  -9.727   1.530  1.00  0.00     0.158 A 
BRANCH  15  18
ATOM     18  O   UNL     1      -6.165 -11.388  -0.236  1.00  0.00    -0.504 OA
ATOM     19  H   UNL     1      -6.875 -12.046  -0.537  1.00  0.00     0.293 HD
ENDBRANCH  15  18
BRANCH  17  20
ATOM     20  O   UNL     1      -5.523 -10.603   2.399  1.00  0.00    -0.504 OA
ATOM     21  H   UNL     1      -4.805 -10.291   3.042  1.00  0.00     0.293 HD
ENDBRANCH  17  20
ENDBRANCH   1  12
BRANCH   6  22
ATOM     22  O   UNL     1      -9.576  -1.648   3.079  1.00  0.00    -0.507 OA
ATOM     23  H   UNL     1      -9.745  -0.672   3.270  1.00  0.00     0.293 HD
ENDBRANCH   6  22
BRANCH   8  24
ATOM     24  O   UNL     1      -4.878  -0.875   2.460  1.00  0.00    -0.508 OA
ATOM     25  H   UNL     1      -4.425  -0.616   3.330  1.00  0.00     0.293 HD
ENDBRANCH   8  24
TORSDOF 5
ENDMDL
