MODEL 1
REMARK VINA RESULT:    18.164      0.000      0.000
REMARK INTER + INTRA:          46.993
REMARK INTER:                  47.896
REMARK INTRA:                  -0.903
REMARK UNBOUND:                -0.903
REMARK SMILES CCCCCCCCCCCCCCCCCCCCCCCCCCCCCC(=O)[O-]
REMARK SMILES IDX 16 1 17 2 18 3 19 4 20 5 21 6 22 7 23 8 24 9 25 10 26 11
REMARK SMILES IDX 27 12 28 13 29 14 30 15 31 16 32 17 15 18 14 19 13 20 12 21
REMARK SMILES IDX 11 22 10 23 9 24 8 25 7 26 6 27 5 28 4 29 3 30 2 31 1 32
REMARK H PARENT
REMARK Flexibility Score: inf
ROOT
ATOM      1  C   UNL     1      -7.276  14.295 -14.240  1.00  0.00     0.000 C 
ENDROOT
BRANCH   1   2
ATOM      2  C   UNL     1      -7.793  15.648 -14.764  1.00  0.00     0.000 C 
BRANCH   2   3
ATOM      3  C   UNL     1      -8.089  16.702 -13.677  1.00  0.00     0.000 C 
BRANCH   3   4
ATOM      4  C   UNL     1      -8.646  18.037 -14.202  1.00  0.00     0.000 C 
BRANCH   4   5
ATOM      5  C   UNL     1     -10.126  18.247 -13.840  1.00  0.00     0.000 C 
BRANCH   5   6
ATOM      6  C   UNL     1     -10.837  19.226 -14.791  1.00  0.00     0.000 C 
BRANCH   6   7
ATOM      7  C   UNL     1     -12.072  19.930 -14.191  1.00  0.00     0.000 C 
BRANCH   7   8
ATOM      8  C   UNL     1     -12.969  19.038 -13.310  1.00  0.00     0.000 C 
BRANCH   8   9
ATOM      9  C   UNL     1     -12.982  19.406 -11.812  1.00  0.00     0.000 C 
BRANCH   9  10
ATOM     10  C   UNL     1     -13.461  18.282 -10.871  1.00  0.00     0.000 C 
BRANCH  10  11
ATOM     11  C   UNL     1     -12.345  17.587 -10.070  1.00  0.00     0.000 C 
BRANCH  11  12
ATOM     12  C   UNL     1     -12.462  17.823  -8.557  1.00  0.00     0.000 C 
BRANCH  12  13
ATOM     13  C   UNL     1     -13.446  18.962  -8.251  1.00  0.00     0.006 C 
BRANCH  13  14
ATOM     14  C   UNL     1     -12.962  20.312  -8.799  1.00  0.00     0.053 C 
BRANCH  14  15
ATOM     15  C   UNL     1     -12.143  21.059  -7.791  1.00  0.00     0.041 C 
ATOM     16  O   UNL     1     -12.550  21.178  -6.605  1.00  0.00    -0.550 OA
ATOM     17  O   UNL     1     -10.946  21.655  -8.170  1.00  0.00    -0.550 OA
ENDBRANCH  14  15
ENDBRANCH  13  14
ENDBRANCH  12  13
ENDBRANCH  11  12
ENDBRANCH  10  11
ENDBRANCH   9  10
ENDBRANCH   8   9
ENDBRANCH   7   8
ENDBRANCH   6   7
ENDBRANCH   5   6
ENDBRANCH   4   5
ENDBRANCH   3   4
ENDBRANCH   2   3
ENDBRANCH   1   2
BRANCH   1  18
ATOM     18  C   UNL     1      -6.640  13.383 -15.308  1.00  0.00     0.000 C 
BRANCH  18  19
ATOM     19  C   UNL     1      -6.005  14.150 -16.491  1.00  0.00     0.000 C 
BRANCH  19  20
ATOM     20  C   UNL     1      -4.730  13.504 -17.073  1.00  0.00     0.000 C 
BRANCH  20  21
ATOM     21  C   UNL     1      -4.926  12.115 -17.718  1.00  0.00     0.000 C 
BRANCH  21  22
ATOM     22  C   UNL     1      -5.681  12.117 -19.062  1.00  0.00     0.000 C 
BRANCH  22  23
ATOM     23  C   UNL     1      -7.023  11.357 -19.058  1.00  0.00     0.000 C 
BRANCH  23  24
ATOM     24  C   UNL     1      -7.384  10.667 -17.728  1.00  0.00    -0.000 C 
BRANCH  24  25
ATOM     25  C   UNL     1      -8.442   9.563 -17.895  1.00  0.00    -0.000 C 
BRANCH  25  26
ATOM     26  C   UNL     1      -8.030   8.494 -18.924  1.00  0.00    -0.000 C 
BRANCH  26  27
ATOM     27  C   UNL     1      -7.064   7.411 -18.401  1.00  0.00    -0.000 C 
BRANCH  27  28
ATOM     28  C   UNL     1      -7.621   5.977 -18.402  1.00  0.00    -0.000 C 
BRANCH  28  29
ATOM     29  C   UNL     1      -8.315   5.607 -19.725  1.00  0.00    -0.000 C 
BRANCH  29  30
ATOM     30  C   UNL     1      -7.538   4.546 -20.520  1.00  0.00    -0.000 C 
BRANCH  30  31
ATOM     31  C   UNL     1      -8.325   4.017 -21.726  1.00  0.00    -0.003 C 
ATOM     32  C   UNL     1      -9.263   5.086 -22.280  1.00  0.00     0.004 C 
ENDBRANCH  30  31
ENDBRANCH  29  30
ENDBRANCH  28  29
ENDBRANCH  27  28
ENDBRANCH  26  27
ENDBRANCH  25  26
ENDBRANCH  24  25
ENDBRANCH  23  24
ENDBRANCH  22  23
ENDBRANCH  21  22
ENDBRANCH  20  21
ENDBRANCH  19  20
ENDBRANCH  18  19
ENDBRANCH   1  18
TORSDOF 28
ENDMDL
MODEL 2
REMARK VINA RESULT:    18.378      0.948      1.409
REMARK INTER + INTRA:          47.557
REMARK INTER:                  48.675
REMARK INTRA:                  -1.118
REMARK UNBOUND:                -0.903
REMARK SMILES CCCCCCCCCCCCCCCCCCCCCCCCCCCCCC(=O)[O-]
REMARK SMILES IDX 16 1 17 2 18 3 19 4 20 5 21 6 22 7 23 8 24 9 25 10 26 11
REMARK SMILES IDX 27 12 28 13 29 14 30 15 31 16 32 17 15 18 14 19 13 20 12 21
REMARK SMILES IDX 11 22 10 23 9 24 8 25 7 26 6 27 5 28 4 29 3 30 2 31 1 32
REMARK H PARENT
REMARK Flexibility Score: inf
ROOT
ATOM      1  C   UNL     1      -7.073  14.162 -14.515  1.00  0.00     0.000 C 
ENDROOT
BRANCH   1   2
ATOM      2  C   UNL     1      -7.445  15.588 -14.965  1.00  0.00     0.000 C 
BRANCH   2   3
ATOM      3  C   UNL     1      -8.199  16.431 -13.916  1.00  0.00     0.000 C 
BRANCH   3   4
ATOM      4  C   UNL     1      -8.503  17.877 -14.343  1.00  0.00     0.000 C 
BRANCH   4   5
ATOM      5  C   UNL     1      -9.850  18.386 -13.804  1.00  0.00     0.000 C 
BRANCH   5   6
ATOM      6  C   UNL     1     -10.815  18.816 -14.923  1.00  0.00     0.000 C 
BRANCH   6   7
ATOM      7  C   UNL     1     -12.217  19.241 -14.442  1.00  0.00     0.000 C 
BRANCH   7   8
ATOM      8  C   UNL     1     -12.264  19.865 -13.033  1.00  0.00     0.000 C 
BRANCH   8   9
ATOM      9  C   UNL     1     -12.775  18.926 -11.922  1.00  0.00     0.000 C 
BRANCH   9  10
ATOM     10  C   UNL     1     -13.688  19.595 -10.874  1.00  0.00     0.000 C 
BRANCH  10  11
ATOM     11  C   UNL     1     -14.182  18.662  -9.754  1.00  0.00     0.000 C 
BRANCH  11  12
ATOM     12  C   UNL     1     -13.048  17.847  -9.114  1.00  0.00     0.000 C 
BRANCH  12  13
ATOM     13  C   UNL     1     -12.229  18.711  -8.143  1.00  0.00     0.006 C 
BRANCH  13  14
ATOM     14  C   UNL     1     -13.052  19.866  -7.556  1.00  0.00     0.053 C 
BRANCH  14  15
ATOM     15  C   UNL     1     -12.215  21.088  -7.333  1.00  0.00     0.041 C 
ATOM     16  O   UNL     1     -12.311  21.735  -6.256  1.00  0.00    -0.550 OA
ATOM     17  O   UNL     1     -11.355  21.535  -8.329  1.00  0.00    -0.550 OA
ENDBRANCH  14  15
ENDBRANCH  13  14
ENDBRANCH  12  13
ENDBRANCH  11  12
ENDBRANCH  10  11
ENDBRANCH   9  10
ENDBRANCH   8   9
ENDBRANCH   7   8
ENDBRANCH   6   7
ENDBRANCH   5   6
ENDBRANCH   4   5
ENDBRANCH   3   4
ENDBRANCH   2   3
ENDBRANCH   1   2
BRANCH   1  18
ATOM     18  C   UNL     1      -5.748  13.623 -15.089  1.00  0.00     0.000 C 
BRANCH  18  19
ATOM     19  C   UNL     1      -5.480  14.044 -16.553  1.00  0.00     0.000 C 
BRANCH  19  20
ATOM     20  C   UNL     1      -6.407  13.386 -17.597  1.00  0.00     0.000 C 
BRANCH  20  21
ATOM     21  C   UNL     1      -6.473  11.844 -17.546  1.00  0.00     0.000 C 
BRANCH  21  22
ATOM     22  C   UNL     1      -7.630  11.265 -16.708  1.00  0.00     0.000 C 
BRANCH  22  23
ATOM     23  C   UNL     1      -8.098   9.856 -17.127  1.00  0.00     0.000 C 
BRANCH  23  24
ATOM     24  C   UNL     1      -8.216   9.627 -18.646  1.00  0.00    -0.000 C 
BRANCH  24  25
ATOM     25  C   UNL     1      -7.800   8.209 -19.071  1.00  0.00    -0.000 C 
BRANCH  25  26
ATOM     26  C   UNL     1      -7.373   7.331 -17.880  1.00  0.00    -0.000 C 
BRANCH  26  27
ATOM     27  C   UNL     1      -6.880   5.916 -18.246  1.00  0.00    -0.000 C 
BRANCH  27  28
ATOM     28  C   UNL     1      -7.133   5.487 -19.702  1.00  0.00    -0.000 C 
BRANCH  28  29
ATOM     29  C   UNL     1      -8.578   5.019 -19.944  1.00  0.00    -0.000 C 
BRANCH  29  30
ATOM     30  C   UNL     1      -8.807   4.540 -21.387  1.00  0.00    -0.000 C 
BRANCH  30  31
ATOM     31  C   UNL     1      -7.912   3.352 -21.764  1.00  0.00    -0.003 C 
ATOM     32  C   UNL     1      -6.676   3.817 -22.528  1.00  0.00     0.004 C 
ENDBRANCH  30  31
ENDBRANCH  29  30
ENDBRANCH  28  29
ENDBRANCH  27  28
ENDBRANCH  26  27
ENDBRANCH  25  26
ENDBRANCH  24  25
ENDBRANCH  23  24
ENDBRANCH  22  23
ENDBRANCH  21  22
ENDBRANCH  20  21
ENDBRANCH  19  20
ENDBRANCH  18  19
ENDBRANCH   1  18
TORSDOF 28
ENDMDL
MODEL 3
REMARK VINA RESULT:    19.031      5.602     14.606
REMARK INTER + INTRA:          49.278
REMARK INTER:                  50.622
REMARK INTRA:                  -1.344
REMARK UNBOUND:                -0.903
REMARK SMILES CCCCCCCCCCCCCCCCCCCCCCCCCCCCCC(=O)[O-]
REMARK SMILES IDX 16 1 17 2 18 3 19 4 20 5 21 6 22 7 23 8 24 9 25 10 26 11
REMARK SMILES IDX 27 12 28 13 29 14 30 15 31 16 32 17 15 18 14 19 13 20 12 21
REMARK SMILES IDX 11 22 10 23 9 24 8 25 7 26 6 27 5 28 4 29 3 30 2 31 1 32
REMARK H PARENT
REMARK Flexibility Score: inf
ROOT
ATOM      1  C   UNL     1      -6.490  14.279 -16.247  1.00  0.00     0.000 C 
ENDROOT
BRANCH   1   2
ATOM      2  C   UNL     1      -5.018  14.184 -16.689  1.00  0.00     0.000 C 
BRANCH   2   3
ATOM      3  C   UNL     1      -4.508  12.753 -16.965  1.00  0.00     0.000 C 
BRANCH   3   4
ATOM      4  C   UNL     1      -4.506  12.341 -18.447  1.00  0.00     0.000 C 
BRANCH   4   5
ATOM      5  C   UNL     1      -5.825  11.679 -18.881  1.00  0.00     0.000 C 
BRANCH   5   6
ATOM      6  C   UNL     1      -6.546  10.972 -17.720  1.00  0.00     0.000 C 
BRANCH   6   7
ATOM      7  C   UNL     1      -8.079  10.889 -17.865  1.00  0.00     0.000 C 
BRANCH   7   8
ATOM      8  C   UNL     1      -8.593   9.710 -18.714  1.00  0.00     0.000 C 
BRANCH   8   9
ATOM      9  C   UNL     1      -7.569   8.582 -18.951  1.00  0.00     0.000 C 
BRANCH   9  10
ATOM     10  C   UNL     1      -8.129   7.153 -18.806  1.00  0.00     0.000 C 
BRANCH  10  11
ATOM     11  C   UNL     1      -7.065   6.047 -18.697  1.00  0.00     0.000 C 
BRANCH  11  12
ATOM     12  C   UNL     1      -7.228   4.955 -19.764  1.00  0.00     0.000 C 
BRANCH  12  13
ATOM     13  C   UNL     1      -8.711   4.622 -19.989  1.00  0.00     0.006 C 
BRANCH  13  14
ATOM     14  C   UNL     1      -8.974   4.058 -21.393  1.00  0.00     0.053 C 
BRANCH  14  15
ATOM     15  C   UNL     1      -8.500   4.992 -22.465  1.00  0.00     0.041 C 
ATOM     16  O   UNL     1      -9.205   5.980 -22.802  1.00  0.00    -0.550 OA
ATOM     17  O   UNL     1      -7.297   4.750 -23.117  1.00  0.00    -0.550 OA
ENDBRANCH  14  15
ENDBRANCH  13  14
ENDBRANCH  12  13
ENDBRANCH  11  12
ENDBRANCH  10  11
ENDBRANCH   9  10
ENDBRANCH   8   9
ENDBRANCH   7   8
ENDBRANCH   6   7
ENDBRANCH   5   6
ENDBRANCH   4   5
ENDBRANCH   3   4
ENDBRANCH   2   3
ENDBRANCH   1   2
BRANCH   1  18
ATOM     18  C   UNL     1      -6.870  15.586 -15.523  1.00  0.00     0.000 C 
BRANCH  18  19
ATOM     19  C   UNL     1      -7.895  15.396 -14.380  1.00  0.00     0.000 C 
BRANCH  19  20
ATOM     20  C   UNL     1      -8.122  16.643 -13.499  1.00  0.00     0.000 C 
BRANCH  20  21
ATOM     21  C   UNL     1      -8.923  17.785 -14.161  1.00  0.00     0.000 C 
BRANCH  21  22
ATOM     22  C   UNL     1     -10.311  18.053 -13.547  1.00  0.00     0.000 C 
BRANCH  22  23
ATOM     23  C   UNL     1     -11.085  19.232 -14.172  1.00  0.00     0.000 C 
BRANCH  23  24
ATOM     24  C   UNL     1     -12.610  19.040 -14.268  1.00  0.00    -0.000 C 
BRANCH  24  25
ATOM     25  C   UNL     1     -13.358  19.557 -13.027  1.00  0.00    -0.000 C 
BRANCH  25  26
ATOM     26  C   UNL     1     -12.580  19.317 -11.720  1.00  0.00    -0.000 C 
BRANCH  26  27
ATOM     27  C   UNL     1     -13.006  18.072 -10.916  1.00  0.00    -0.000 C 
BRANCH  27  28
ATOM     28  C   UNL     1     -12.943  18.224  -9.386  1.00  0.00    -0.000 C 
BRANCH  28  29
ATOM     29  C   UNL     1     -13.361  19.625  -8.907  1.00  0.00    -0.000 C 
BRANCH  29  30
ATOM     30  C   UNL     1     -13.125  19.827  -7.402  1.00  0.00    -0.000 C 
BRANCH  30  31
ATOM     31  C   UNL     1     -12.438  21.163  -7.085  1.00  0.00    -0.003 C 
ATOM     32  C   UNL     1     -11.666  21.683  -8.295  1.00  0.00     0.004 C 
ENDBRANCH  30  31
ENDBRANCH  29  30
ENDBRANCH  28  29
ENDBRANCH  27  28
ENDBRANCH  26  27
ENDBRANCH  25  26
ENDBRANCH  24  25
ENDBRANCH  23  24
ENDBRANCH  22  23
ENDBRANCH  21  22
ENDBRANCH  20  21
ENDBRANCH  19  20
ENDBRANCH  18  19
ENDBRANCH   1  18
TORSDOF 28
ENDMDL
MODEL 4
REMARK VINA RESULT:    19.124      5.685     14.589
REMARK INTER + INTRA:          49.524
REMARK INTER:                  50.563
REMARK INTRA:                  -1.039
REMARK UNBOUND:                -0.903
REMARK SMILES CCCCCCCCCCCCCCCCCCCCCCCCCCCCCC(=O)[O-]
REMARK SMILES IDX 16 1 17 2 18 3 19 4 20 5 21 6 22 7 23 8 24 9 25 10 26 11
REMARK SMILES IDX 27 12 28 13 29 14 30 15 31 16 32 17 15 18 14 19 13 20 12 21
REMARK SMILES IDX 11 22 10 23 9 24 8 25 7 26 6 27 5 28 4 29 3 30 2 31 1 32
REMARK H PARENT
REMARK Flexibility Score: inf
ROOT
ATOM      1  C   UNL     1      -8.286  15.306 -14.488  1.00  0.00     0.000 C 
ENDROOT
BRANCH   1   2
ATOM      2  C   UNL     1      -7.086  14.348 -14.606  1.00  0.00     0.000 C 
BRANCH   2   3
ATOM      3  C   UNL     1      -6.388  14.339 -15.983  1.00  0.00     0.000 C 
BRANCH   3   4
ATOM      4  C   UNL     1      -5.223  13.343 -16.112  1.00  0.00     0.000 C 
BRANCH   4   5
ATOM      5  C   UNL     1      -5.064  12.795 -17.540  1.00  0.00     0.000 C 
BRANCH   5   6
ATOM      6  C   UNL     1      -6.397  12.325 -18.148  1.00  0.00     0.000 C 
BRANCH   6   7
ATOM      7  C   UNL     1      -7.022  11.093 -17.463  1.00  0.00     0.000 C 
BRANCH   7   8
ATOM      8  C   UNL     1      -8.255  10.503 -18.175  1.00  0.00     0.000 C 
BRANCH   8   9
ATOM      9  C   UNL     1      -8.495   9.001 -17.926  1.00  0.00     0.000 C 
BRANCH   9  10
ATOM     10  C   UNL     1      -7.555   8.055 -18.702  1.00  0.00     0.000 C 
BRANCH  10  11
ATOM     11  C   UNL     1      -7.367   6.665 -18.069  1.00  0.00     0.000 C 
BRANCH  11  12
ATOM     12  C   UNL     1      -7.077   5.571 -19.108  1.00  0.00     0.000 C 
BRANCH  12  13
ATOM     13  C   UNL     1      -8.297   5.330 -20.010  1.00  0.00     0.006 C 
BRANCH  13  14
ATOM     14  C   UNL     1      -8.019   4.281 -21.096  1.00  0.00     0.053 C 
BRANCH  14  15
ATOM     15  C   UNL     1      -8.870   4.499 -22.310  1.00  0.00     0.041 C 
ATOM     16  O   UNL     1      -9.064   3.558 -23.125  1.00  0.00    -0.550 OA
ATOM     17  O   UNL     1      -9.419   5.750 -22.561  1.00  0.00    -0.550 OA
ENDBRANCH  14  15
ENDBRANCH  13  14
ENDBRANCH  12  13
ENDBRANCH  11  12
ENDBRANCH  10  11
ENDBRANCH   9  10
ENDBRANCH   8   9
ENDBRANCH   7   8
ENDBRANCH   6   7
ENDBRANCH   5   6
ENDBRANCH   4   5
ENDBRANCH   3   4
ENDBRANCH   2   3
ENDBRANCH   1   2
BRANCH   1  18
ATOM     18  C   UNL     1      -8.012  16.599 -13.694  1.00  0.00     0.000 C 
BRANCH  18  19
ATOM     19  C   UNL     1      -8.363  17.894 -14.464  1.00  0.00     0.000 C 
BRANCH  19  20
ATOM     20  C   UNL     1      -9.550  18.691 -13.883  1.00  0.00     0.000 C 
BRANCH  20  21
ATOM     21  C   UNL     1     -10.754  18.873 -14.833  1.00  0.00     0.000 C 
BRANCH  21  22
ATOM     22  C   UNL     1     -12.132  18.918 -14.144  1.00  0.00     0.000 C 
BRANCH  22  23
ATOM     23  C   UNL     1     -12.186  19.750 -12.847  1.00  0.00     0.000 C 
BRANCH  23  24
ATOM     24  C   UNL     1     -13.444  19.539 -11.982  1.00  0.00    -0.000 C 
BRANCH  24  25
ATOM     25  C   UNL     1     -13.494  18.148 -11.329  1.00  0.00    -0.000 C 
BRANCH  25  26
ATOM     26  C   UNL     1     -12.204  17.803 -10.562  1.00  0.00    -0.000 C 
BRANCH  26  27
ATOM     27  C   UNL     1     -12.356  17.687  -9.031  1.00  0.00    -0.000 C 
BRANCH  27  28
ATOM     28  C   UNL     1     -13.762  17.991  -8.485  1.00  0.00    -0.000 C 
BRANCH  28  29
ATOM     29  C   UNL     1     -14.057  19.499  -8.404  1.00  0.00    -0.000 C 
BRANCH  29  30
ATOM     30  C   UNL     1     -12.845  20.358  -8.799  1.00  0.00    -0.000 C 
BRANCH  30  31
ATOM     31  C   UNL     1     -12.457  21.369  -7.711  1.00  0.00    -0.003 C 
ATOM     32  C   UNL     1     -10.958  21.319  -7.426  1.00  0.00     0.004 C 
ENDBRANCH  30  31
ENDBRANCH  29  30
ENDBRANCH  28  29
ENDBRANCH  27  28
ENDBRANCH  26  27
ENDBRANCH  25  26
ENDBRANCH  24  25
ENDBRANCH  23  24
ENDBRANCH  22  23
ENDBRANCH  21  22
ENDBRANCH  20  21
ENDBRANCH  19  20
ENDBRANCH  18  19
ENDBRANCH   1  18
TORSDOF 28
ENDMDL
MODEL 5
REMARK VINA RESULT:    19.454      5.917     15.119
REMARK INTER + INTRA:          50.396
REMARK INTER:                  50.903
REMARK INTRA:                  -0.508
REMARK UNBOUND:                -0.903
REMARK SMILES CCCCCCCCCCCCCCCCCCCCCCCCCCCCCC(=O)[O-]
REMARK SMILES IDX 16 1 17 2 18 3 19 4 20 5 21 6 22 7 23 8 24 9 25 10 26 11
REMARK SMILES IDX 27 12 28 13 29 14 30 15 31 16 32 17 15 18 14 19 13 20 12 21
REMARK SMILES IDX 11 22 10 23 9 24 8 25 7 26 6 27 5 28 4 29 3 30 2 31 1 32
REMARK H PARENT
REMARK Flexibility Score: inf
ROOT
ATOM      1  C   UNL     1      -6.361  13.669 -15.189  1.00  0.00     0.000 C 
ENDROOT
BRANCH   1   2
ATOM      2  C   UNL     1      -5.404  13.085 -16.244  1.00  0.00     0.000 C 
BRANCH   2   3
ATOM      3  C   UNL     1      -5.814  13.334 -17.711  1.00  0.00     0.000 C 
BRANCH   3   4
ATOM      4  C   UNL     1      -6.394  12.110 -18.439  1.00  0.00     0.000 C 
BRANCH   4   5
ATOM      5  C   UNL     1      -7.259  11.227 -17.523  1.00  0.00     0.000 C 
BRANCH   5   6
ATOM      6  C   UNL     1      -8.239  10.337 -18.307  1.00  0.00     0.000 C 
BRANCH   6   7
ATOM      7  C   UNL     1      -7.922   8.829 -18.262  1.00  0.00     0.000 C 
BRANCH   7   8
ATOM      8  C   UNL     1      -8.106   8.081 -19.597  1.00  0.00     0.000 C 
BRANCH   8   9
ATOM      9  C   UNL     1      -7.279   6.788 -19.739  1.00  0.00     0.000 C 
BRANCH   9  10
ATOM     10  C   UNL     1      -7.698   5.641 -18.797  1.00  0.00     0.000 C 
BRANCH  10  11
ATOM     11  C   UNL     1      -8.724   4.658 -19.388  1.00  0.00     0.000 C 
BRANCH  11  12
ATOM     12  C   UNL     1      -8.265   4.046 -20.719  1.00  0.00     0.000 C 
BRANCH  12  13
ATOM     13  C   UNL     1      -8.997   4.693 -21.905  1.00  0.00     0.006 C 
BRANCH  13  14
ATOM     14  C   UNL     1      -8.082   4.876 -23.123  1.00  0.00     0.053 C 
BRANCH  14  15
ATOM     15  C   UNL     1      -6.690   4.395 -22.850  1.00  0.00     0.041 C 
ATOM     16  O   UNL     1      -5.730   5.211 -22.831  1.00  0.00    -0.550 OA
ATOM     17  O   UNL     1      -6.445   3.042 -22.654  1.00  0.00    -0.550 OA
ENDBRANCH  14  15
ENDBRANCH  13  14
ENDBRANCH  12  13
ENDBRANCH  11  12
ENDBRANCH  10  11
ENDBRANCH   9  10
ENDBRANCH   8   9
ENDBRANCH   7   8
ENDBRANCH   6   7
ENDBRANCH   5   6
ENDBRANCH   4   5
ENDBRANCH   3   4
ENDBRANCH   2   3
ENDBRANCH   1   2
BRANCH   1  18
ATOM     18  C   UNL     1      -6.786  15.131 -15.433  1.00  0.00     0.000 C 
BRANCH  18  19
ATOM     19  C   UNL     1      -7.785  15.677 -14.386  1.00  0.00     0.000 C 
BRANCH  19  20
ATOM     20  C   UNL     1      -7.797  17.214 -14.243  1.00  0.00     0.000 C 
BRANCH  20  21
ATOM     21  C   UNL     1      -9.145  17.898 -14.556  1.00  0.00     0.000 C 
BRANCH  21  22
ATOM     22  C   UNL     1      -9.827  18.583 -13.355  1.00  0.00     0.000 C 
BRANCH  22  23
ATOM     23  C   UNL     1     -10.900  19.628 -13.722  1.00  0.00     0.000 C 
BRANCH  23  24
ATOM     24  C   UNL     1     -12.290  19.054 -14.059  1.00  0.00    -0.000 C 
BRANCH  24  25
ATOM     25  C   UNL     1     -13.369  19.465 -13.042  1.00  0.00    -0.000 C 
BRANCH  25  26
ATOM     26  C   UNL     1     -13.023  19.043 -11.602  1.00  0.00    -0.000 C 
BRANCH  26  27
ATOM     27  C   UNL     1     -14.064  19.429 -10.532  1.00  0.00    -0.000 C 
BRANCH  27  28
ATOM     28  C   UNL     1     -13.964  18.652  -9.207  1.00  0.00    -0.000 C 
BRANCH  28  29
ATOM     29  C   UNL     1     -12.573  18.757  -8.558  1.00  0.00    -0.000 C 
BRANCH  29  30
ATOM     30  C   UNL     1     -11.914  20.124  -8.798  1.00  0.00    -0.000 C 
BRANCH  30  31
ATOM     31  C   UNL     1     -12.242  21.140  -7.695  1.00  0.00    -0.003 C 
ATOM     32  C   UNL     1     -13.113  20.511  -6.611  1.00  0.00     0.004 C 
ENDBRANCH  30  31
ENDBRANCH  29  30
ENDBRANCH  28  29
ENDBRANCH  27  28
ENDBRANCH  26  27
ENDBRANCH  25  26
ENDBRANCH  24  25
ENDBRANCH  23  24
ENDBRANCH  22  23
ENDBRANCH  21  22
ENDBRANCH  20  21
ENDBRANCH  19  20
ENDBRANCH  18  19
ENDBRANCH   1  18
TORSDOF 28
ENDMDL
