MODEL 1
REMARK VINA RESULT:    -5.521      0.000      0.000
REMARK INTER + INTRA:          -8.510
REMARK INTER:                  -7.780
REMARK INTRA:                  -0.730
REMARK UNBOUND:                -0.730
REMARK SMILES COc1ccc(-c2cc(=O)c3c(OC)c(OC)c(OC)c(OC)c3o2)cc1OC
REMARK SMILES IDX 7 1 8 2 9 3 10 4 11 5 24 6 25 7 21 8 18 9 15 10 12 11 6 12
REMARK SMILES IDX 3 13 27 14 4 15 26 16 5 17 2 18 1 19 28 20 29 21 22 22 23 23
REMARK SMILES IDX 13 24 14 25 19 26 20 27 16 28 17 29
REMARK H PARENT
REMARK Flexibility Score: inf
ROOT
ATOM      1  C   UNL     1      22.730  30.307  22.213  1.00  0.00     0.138 A 
ATOM      2  C   UNL     1      23.398  31.508  22.478  1.00  0.00     0.100 A 
ATOM      3  C   UNL     1      23.514  31.950  23.795  1.00  0.00     0.197 A 
ATOM      4  O   UNL     1      24.125  33.032  24.014  1.00  0.00    -0.289 OA
ATOM      5  C   UNL     1      22.952  31.188  24.846  1.00  0.00     0.115 A 
ATOM      6  C   UNL     1      22.267  30.006  24.494  1.00  0.00     0.188 A 
ATOM      7  O   UNL     1      22.192  29.625  23.220  1.00  0.00    -0.452 OA
ATOM      8  C   UNL     1      21.673  29.207  25.477  1.00  0.00     0.209 A 
ATOM      9  C   UNL     1      21.811  29.536  26.845  1.00  0.00     0.211 A 
ATOM     10  C   UNL     1      22.474  30.739  27.212  1.00  0.00     0.208 A 
ATOM     11  C   UNL     1      23.053  31.565  26.208  1.00  0.00     0.179 A 
ENDROOT
BRANCH   1  12
ATOM     12  C   UNL     1      22.597  29.774  20.831  1.00  0.00     0.021 A 
ATOM     13  C   UNL     1      22.398  28.745  18.208  1.00  0.00     0.160 A 
ATOM     14  C   UNL     1      21.577  29.811  18.604  1.00  0.00     0.161 A 
ATOM     15  C   UNL     1      23.321  28.204  19.121  1.00  0.00     0.051 A 
ATOM     16  C   UNL     1      21.684  30.325  19.912  1.00  0.00     0.062 A 
ATOM     17  C   UNL     1      23.420  28.717  20.415  1.00  0.00     0.016 A 
BRANCH  13  18
ATOM     18  O   UNL     1      22.269  28.253  16.899  1.00  0.00    -0.493 OA
ATOM     19  C   UNL     1      23.130  28.599  15.819  1.00  0.00     0.278 C 
ENDBRANCH  13  18
BRANCH  14  20
ATOM     20  O   UNL     1      20.672  30.336  17.668  1.00  0.00    -0.493 OA
ATOM     21  C   UNL     1      20.922  31.477  16.853  1.00  0.00     0.278 C 
ENDBRANCH  14  20
ENDBRANCH   1  12
BRANCH   8  22
ATOM     22  O   UNL     1      20.954  28.075  25.083  1.00  0.00    -0.490 OA
ATOM     23  C   UNL     1      19.547  28.111  24.866  1.00  0.00     0.278 C 
ENDBRANCH   8  22
BRANCH  11  24
ATOM     24  O   UNL     1      23.736  32.763  26.506  1.00  0.00    -0.492 OA
ATOM     25  C   UNL     1      23.189  33.984  26.994  1.00  0.00     0.278 C 
ENDBRANCH  11  24
BRANCH   9  26
ATOM     26  O   UNL     1      21.320  28.704  27.869  1.00  0.00    -0.490 OA
ATOM     27  C   UNL     1      21.964  27.574  28.448  1.00  0.00     0.279 C 
ENDBRANCH   9  26
BRANCH  10  28
ATOM     28  O   UNL     1      22.587  31.153  28.553  1.00  0.00    -0.490 OA
ATOM     29  C   UNL     1      21.585  31.752  29.367  1.00  0.00     0.278 C 
ENDBRANCH  10  28
TORSDOF 7
ENDMDL
MODEL 2
REMARK VINA RESULT:    -5.501      1.308      1.350
REMARK INTER + INTRA:          -8.482
REMARK INTER:                  -7.847
REMARK INTRA:                  -0.635
REMARK UNBOUND:                -0.730
REMARK SMILES COc1ccc(-c2cc(=O)c3c(OC)c(OC)c(OC)c(OC)c3o2)cc1OC
REMARK SMILES IDX 7 1 8 2 9 3 10 4 11 5 24 6 25 7 21 8 18 9 15 10 12 11 6 12
REMARK SMILES IDX 3 13 27 14 4 15 26 16 5 17 2 18 1 19 28 20 29 21 22 22 23 23
REMARK SMILES IDX 13 24 14 25 19 26 20 27 16 28 17 29
REMARK H PARENT
REMARK Flexibility Score: inf
ROOT
ATOM      1  C   UNL     1      22.872  29.855  21.813  1.00  0.00     0.138 A 
ATOM      2  C   UNL     1      23.226  31.154  22.197  1.00  0.00     0.100 A 
ATOM      3  C   UNL     1      23.423  31.438  23.547  1.00  0.00     0.197 A 
ATOM      4  O   UNL     1      23.747  32.613  23.872  1.00  0.00    -0.289 OA
ATOM      5  C   UNL     1      23.258  30.418  24.513  1.00  0.00     0.115 A 
ATOM      6  C   UNL     1      22.870  29.144  24.050  1.00  0.00     0.188 A 
ATOM      7  O   UNL     1      22.701  28.924  22.747  1.00  0.00    -0.452 OA
ATOM      8  C   UNL     1      22.675  28.088  24.946  1.00  0.00     0.209 A 
ATOM      9  C   UNL     1      22.931  28.265  26.325  1.00  0.00     0.211 A 
ATOM     10  C   UNL     1      23.294  29.552  26.810  1.00  0.00     0.208 A 
ATOM     11  C   UNL     1      23.466  30.631  25.899  1.00  0.00     0.179 A 
ENDROOT
BRANCH   1  12
ATOM     12  C   UNL     1      22.673  29.488  20.386  1.00  0.00     0.021 A 
ATOM     13  C   UNL     1      22.348  28.775  17.672  1.00  0.00     0.160 A 
ATOM     14  C   UNL     1      21.523  29.757  18.239  1.00  0.00     0.161 A 
ATOM     15  C   UNL     1      23.338  28.160  18.460  1.00  0.00     0.051 A 
ATOM     16  C   UNL     1      21.693  30.114  19.592  1.00  0.00     0.062 A 
ATOM     17  C   UNL     1      23.499  28.518  19.799  1.00  0.00     0.016 A 
BRANCH  13  18
ATOM     18  O   UNL     1      22.156  28.440  16.322  1.00  0.00    -0.493 OA
ATOM     19  C   UNL     1      23.017  28.839  15.261  1.00  0.00     0.278 C 
ENDBRANCH  13  18
BRANCH  14  20
ATOM     20  O   UNL     1      20.551  30.359  17.425  1.00  0.00    -0.493 OA
ATOM     21  C   UNL     1      20.786  31.480  16.578  1.00  0.00     0.278 C 
ENDBRANCH  14  20
ENDBRANCH   1  12
BRANCH   8  22
ATOM     22  O   UNL     1      22.234  26.857  24.454  1.00  0.00    -0.490 OA
ATOM     23  C   UNL     1      23.134  25.792  24.164  1.00  0.00     0.278 C 
ENDBRANCH   8  22
BRANCH  11  24
ATOM     24  O   UNL     1      23.840  31.928  26.312  1.00  0.00    -0.492 OA
ATOM     25  C   UNL     1      23.049  32.885  27.008  1.00  0.00     0.278 C 
ENDBRANCH  11  24
BRANCH   9  26
ATOM     26  O   UNL     1      22.848  27.203  27.245  1.00  0.00    -0.490 OA
ATOM     27  C   UNL     1      21.683  26.725  27.909  1.00  0.00     0.279 C 
ENDBRANCH   9  26
BRANCH  10  28
ATOM     28  O   UNL     1      23.501  29.805  28.180  1.00  0.00    -0.490 OA
ATOM     29  C   UNL     1      22.518  30.082  29.172  1.00  0.00     0.278 C 
ENDBRANCH  10  28
TORSDOF 7
ENDMDL
MODEL 3
REMARK VINA RESULT:    -5.303      1.336      2.122
REMARK INTER + INTRA:          -8.203
REMARK INTER:                  -7.499
REMARK INTRA:                  -0.703
REMARK UNBOUND:                -0.730
REMARK SMILES COc1ccc(-c2cc(=O)c3c(OC)c(OC)c(OC)c(OC)c3o2)cc1OC
REMARK SMILES IDX 7 1 8 2 9 3 10 4 11 5 24 6 25 7 21 8 18 9 15 10 12 11 6 12
REMARK SMILES IDX 3 13 27 14 4 15 26 16 5 17 2 18 1 19 28 20 29 21 22 22 23 23
REMARK SMILES IDX 13 24 14 25 19 26 20 27 16 28 17 29
REMARK H PARENT
REMARK Flexibility Score: inf
ROOT
ATOM      1  C   UNL     1      22.820  30.026  22.038  1.00  0.00     0.138 A 
ATOM      2  C   UNL     1      23.203  31.315  22.430  1.00  0.00     0.100 A 
ATOM      3  C   UNL     1      23.426  31.583  23.779  1.00  0.00     0.197 A 
ATOM      4  O   UNL     1      23.775  32.749  24.110  1.00  0.00    -0.289 OA
ATOM      5  C   UNL     1      23.258  30.556  24.738  1.00  0.00     0.115 A 
ATOM      6  C   UNL     1      22.841  29.293  24.268  1.00  0.00     0.188 A 
ATOM      7  O   UNL     1      22.648  29.089  22.966  1.00  0.00    -0.452 OA
ATOM      8  C   UNL     1      22.641  28.232  25.158  1.00  0.00     0.209 A 
ATOM      9  C   UNL     1      22.922  28.391  26.534  1.00  0.00     0.211 A 
ATOM     10  C   UNL     1      23.315  29.666  27.025  1.00  0.00     0.208 A 
ATOM     11  C   UNL     1      23.491  30.751  26.122  1.00  0.00     0.179 A 
ENDROOT
BRANCH   1  12
ATOM     12  C   UNL     1      22.592  29.676  20.612  1.00  0.00     0.021 A 
ATOM     13  C   UNL     1      22.107  29.034  17.904  1.00  0.00     0.160 A 
ATOM     14  C   UNL     1      23.005  28.261  18.655  1.00  0.00     0.161 A 
ATOM     15  C   UNL     1      21.448  30.118  18.511  1.00  0.00     0.051 A 
ATOM     16  C   UNL     1      23.239  28.581  20.007  1.00  0.00     0.062 A 
ATOM     17  C   UNL     1      21.687  30.430  19.851  1.00  0.00     0.016 A 
BRANCH  13  18
ATOM     18  O   UNL     1      21.894  28.691  16.559  1.00  0.00    -0.493 OA
ATOM     19  C   UNL     1      22.512  29.341  15.453  1.00  0.00     0.278 C 
ENDBRANCH  13  18
BRANCH  14  20
ATOM     20  O   UNL     1      23.640  27.180  18.024  1.00  0.00    -0.493 OA
ATOM     21  C   UNL     1      24.125  26.022  18.696  1.00  0.00     0.278 C 
ENDBRANCH  14  20
ENDBRANCH   1  12
BRANCH   8  22
ATOM     22  O   UNL     1      22.171  27.013  24.660  1.00  0.00    -0.490 OA
ATOM     23  C   UNL     1      23.049  25.937  24.345  1.00  0.00     0.278 C 
ENDBRANCH   8  22
BRANCH  11  24
ATOM     24  O   UNL     1      23.894  32.037  26.542  1.00  0.00    -0.492 OA
ATOM     25  C   UNL     1      23.125  33.009  27.243  1.00  0.00     0.278 C 
ENDBRANCH  11  24
BRANCH   9  26
ATOM     26  O   UNL     1      22.835  27.321  27.445  1.00  0.00    -0.490 OA
ATOM     27  C   UNL     1      21.659  26.805  28.060  1.00  0.00     0.279 C 
ENDBRANCH   9  26
BRANCH  10  28
ATOM     28  O   UNL     1      23.548  29.903  28.394  1.00  0.00    -0.490 OA
ATOM     29  C   UNL     1      22.583  30.155  29.410  1.00  0.00     0.278 C 
ENDBRANCH  10  28
TORSDOF 7
ENDMDL
MODEL 4
REMARK VINA RESULT:    -4.827      2.107      4.125
REMARK INTER + INTRA:          -7.533
REMARK INTER:                  -6.800
REMARK INTRA:                  -0.732
REMARK UNBOUND:                -0.730
REMARK SMILES COc1ccc(-c2cc(=O)c3c(OC)c(OC)c(OC)c(OC)c3o2)cc1OC
REMARK SMILES IDX 7 1 8 2 9 3 10 4 11 5 24 6 25 7 21 8 18 9 15 10 12 11 6 12
REMARK SMILES IDX 3 13 27 14 4 15 26 16 5 17 2 18 1 19 28 20 29 21 22 22 23 23
REMARK SMILES IDX 13 24 14 25 19 26 20 27 16 28 17 29
REMARK H PARENT
REMARK Flexibility Score: inf
ROOT
ATOM      1  C   UNL     1      23.387  28.123  20.304  1.00  0.00     0.138 A 
ATOM      2  C   UNL     1      23.678  26.836  20.774  1.00  0.00     0.100 A 
ATOM      3  C   UNL     1      23.762  26.612  22.147  1.00  0.00     0.197 A 
ATOM      4  O   UNL     1      24.020  25.445  22.551  1.00  0.00    -0.289 OA
ATOM      5  C   UNL     1      23.561  27.683  23.049  1.00  0.00     0.115 A 
ATOM      6  C   UNL     1      23.304  28.956  22.497  1.00  0.00     0.188 A 
ATOM      7  O   UNL     1      23.227  29.114  21.177  1.00  0.00    -0.452 OA
ATOM      8  C   UNL     1      23.107  30.066  23.326  1.00  0.00     0.209 A 
ATOM      9  C   UNL     1      23.093  29.915  24.731  1.00  0.00     0.211 A 
ATOM     10  C   UNL     1      23.381  28.644  25.301  1.00  0.00     0.208 A 
ATOM     11  C   UNL     1      23.608  27.522  24.456  1.00  0.00     0.179 A 
ENDROOT
BRANCH   1  12
ATOM     12  C   UNL     1      23.261  28.416  18.852  1.00  0.00     0.021 A 
ATOM     13  C   UNL     1      23.066  28.939  16.083  1.00  0.00     0.160 A 
ATOM     14  C   UNL     1      22.636  29.902  17.008  1.00  0.00     0.161 A 
ATOM     15  C   UNL     1      23.601  27.724  16.546  1.00  0.00     0.051 A 
ATOM     16  C   UNL     1      22.741  29.640  18.389  1.00  0.00     0.062 A 
ATOM     17  C   UNL     1      23.700  27.470  17.915  1.00  0.00     0.016 A 
BRANCH  13  18
ATOM     18  O   UNL     1      22.948  29.229  14.714  1.00  0.00    -0.493 OA
ATOM     19  C   UNL     1      24.043  29.291  13.806  1.00  0.00     0.278 C 
ENDBRANCH  13  18
BRANCH  14  20
ATOM     20  O   UNL     1      22.115  31.110  16.516  1.00  0.00    -0.493 OA
ATOM     21  C   UNL     1      20.727  31.404  16.400  1.00  0.00     0.278 C 
ENDBRANCH  14  20
ENDBRANCH   1  12
BRANCH   8  22
ATOM     22  O   UNL     1      22.912  31.319  22.739  1.00  0.00    -0.490 OA
ATOM     23  C   UNL     1      23.997  32.198  22.457  1.00  0.00     0.278 C 
ENDBRANCH   8  22
BRANCH  11  24
ATOM     24  O   UNL     1      23.882  26.232  24.958  1.00  0.00    -0.492 OA
ATOM     25  C   UNL     1      22.992  25.348  25.631  1.00  0.00     0.278 C 
ENDBRANCH  11  24
BRANCH   9  26
ATOM     26  O   UNL     1      22.796  30.985  25.597  1.00  0.00    -0.490 OA
ATOM     27  C   UNL     1      23.710  31.918  26.162  1.00  0.00     0.279 C 
ENDBRANCH   9  26
BRANCH  10  28
ATOM     28  O   UNL     1      23.445  28.445  26.694  1.00  0.00    -0.490 OA
ATOM     29  C   UNL     1      22.365  28.441  27.623  1.00  0.00     0.278 C 
ENDBRANCH  10  28
TORSDOF 7
ENDMDL
MODEL 5
REMARK VINA RESULT:    -4.632      2.495      8.887
REMARK INTER + INTRA:          -7.258
REMARK INTER:                  -6.619
REMARK INTRA:                  -0.639
REMARK UNBOUND:                -0.730
REMARK SMILES COc1ccc(-c2cc(=O)c3c(OC)c(OC)c(OC)c(OC)c3o2)cc1OC
REMARK SMILES IDX 7 1 8 2 9 3 10 4 11 5 24 6 25 7 21 8 18 9 15 10 12 11 6 12
REMARK SMILES IDX 3 13 27 14 4 15 26 16 5 17 2 18 1 19 28 20 29 21 22 22 23 23
REMARK SMILES IDX 13 24 14 25 19 26 20 27 16 28 17 29
REMARK H PARENT
REMARK Flexibility Score: inf
ROOT
ATOM      1  C   UNL     1      22.006  28.310  25.818  1.00  0.00     0.138 A 
ATOM      2  C   UNL     1      22.264  26.936  25.734  1.00  0.00     0.100 A 
ATOM      3  C   UNL     1      22.734  26.400  24.537  1.00  0.00     0.197 A 
ATOM      4  O   UNL     1      22.966  25.161  24.484  1.00  0.00    -0.289 OA
ATOM      5  C   UNL     1      22.939  27.243  23.420  1.00  0.00     0.115 A 
ATOM      6  C   UNL     1      22.626  28.610  23.574  1.00  0.00     0.188 A 
ATOM      7  O   UNL     1      22.186  29.073  24.742  1.00  0.00    -0.452 OA
ATOM      8  C   UNL     1      22.790  29.503  22.509  1.00  0.00     0.209 A 
ATOM      9  C   UNL     1      23.339  29.061  21.284  1.00  0.00     0.211 A 
ATOM     10  C   UNL     1      23.631  27.681  21.105  1.00  0.00     0.208 A 
ATOM     11  C   UNL     1      23.437  26.770  22.181  1.00  0.00     0.179 A 
ENDROOT
BRANCH   1  12
ATOM     12  C   UNL     1      21.527  28.942  27.075  1.00  0.00     0.021 A 
ATOM     13  C   UNL     1      20.597  30.187  29.434  1.00  0.00     0.160 A 
ATOM     14  C   UNL     1      21.684  29.303  29.493  1.00  0.00     0.161 A 
ATOM     15  C   UNL     1      19.985  30.453  28.196  1.00  0.00     0.051 A 
ATOM     16  C   UNL     1      22.149  28.689  28.312  1.00  0.00     0.062 A 
ATOM     17  C   UNL     1      20.450  29.840  27.031  1.00  0.00     0.016 A 
BRANCH  13  18
ATOM     18  O   UNL     1      20.156  30.783  30.626  1.00  0.00    -0.493 OA
ATOM     19  C   UNL     1      19.077  31.709  30.715  1.00  0.00     0.278 C 
ENDBRANCH  13  18
BRANCH  14  20
ATOM     20  O   UNL     1      22.280  29.065  30.742  1.00  0.00    -0.493 OA
ATOM     21  C   UNL     1      23.626  28.639  30.928  1.00  0.00     0.278 C 
ENDBRANCH  14  20
ENDBRANCH   1  12
BRANCH   8  22
ATOM     22  O   UNL     1      22.414  30.838  22.684  1.00  0.00    -0.490 OA
ATOM     23  C   UNL     1      23.343  31.838  23.090  1.00  0.00     0.278 C 
ENDBRANCH   8  22
BRANCH  11  24
ATOM     24  O   UNL     1      23.722  25.391  22.074  1.00  0.00    -0.492 OA
ATOM     25  C   UNL     1      23.012  24.407  21.330  1.00  0.00     0.278 C 
ENDBRANCH  11  24
BRANCH   9  26
ATOM     26  O   UNL     1      23.617  29.946  20.225  1.00  0.00    -0.490 OA
ATOM     27  C   UNL     1      22.725  30.377  19.202  1.00  0.00     0.279 C 
ENDBRANCH   9  26
BRANCH  10  28
ATOM     28  O   UNL     1      24.120  27.170  19.887  1.00  0.00    -0.490 OA
ATOM     29  C   UNL     1      23.374  26.843  18.719  1.00  0.00     0.278 C 
ENDBRANCH  10  28
TORSDOF 7
ENDMDL
MODEL 6
REMARK VINA RESULT:    -4.520      2.269      8.528
REMARK INTER + INTRA:          -7.100
REMARK INTER:                  -6.469
REMARK INTRA:                  -0.631
REMARK UNBOUND:                -0.730
REMARK SMILES COc1ccc(-c2cc(=O)c3c(OC)c(OC)c(OC)c(OC)c3o2)cc1OC
REMARK SMILES IDX 7 1 8 2 9 3 10 4 11 5 24 6 25 7 21 8 18 9 15 10 12 11 6 12
REMARK SMILES IDX 3 13 27 14 4 15 26 16 5 17 2 18 1 19 28 20 29 21 22 22 23 23
REMARK SMILES IDX 13 24 14 25 19 26 20 27 16 28 17 29
REMARK H PARENT
REMARK Flexibility Score: inf
ROOT
ATOM      1  C   UNL     1      21.964  29.363  26.009  1.00  0.00     0.138 A 
ATOM      2  C   UNL     1      22.065  27.974  26.157  1.00  0.00     0.100 A 
ATOM      3  C   UNL     1      22.509  27.202  25.084  1.00  0.00     0.197 A 
ATOM      4  O   UNL     1      22.598  25.954  25.239  1.00  0.00    -0.289 OA
ATOM      5  C   UNL     1      22.846  27.825  23.860  1.00  0.00     0.115 A 
ATOM      6  C   UNL     1      22.688  29.225  23.781  1.00  0.00     0.188 A 
ATOM      7  O   UNL     1      22.266  29.916  24.838  1.00  0.00    -0.452 OA
ATOM      8  C   UNL     1      22.988  29.911  22.599  1.00  0.00     0.209 A 
ATOM      9  C   UNL     1      23.522  29.219  21.488  1.00  0.00     0.211 A 
ATOM     10  C   UNL     1      23.659  27.804  21.544  1.00  0.00     0.208 A 
ATOM     11  C   UNL     1      23.326  27.106  22.738  1.00  0.00     0.179 A 
ENDROOT
BRANCH   1  12
ATOM     12  C   UNL     1      21.520  30.238  27.125  1.00  0.00     0.021 A 
ATOM     13  C   UNL     1      20.623  31.884  29.239  1.00  0.00     0.160 A 
ATOM     14  C   UNL     1      21.755  32.254  28.499  1.00  0.00     0.161 A 
ATOM     15  C   UNL     1      19.938  30.700  28.914  1.00  0.00     0.051 A 
ATOM     16  C   UNL     1      22.196  31.433  27.441  1.00  0.00     0.062 A 
ATOM     17  C   UNL     1      20.381  29.891  27.866  1.00  0.00     0.016 A 
BRANCH  13  18
ATOM     18  O   UNL     1      20.208  32.721  30.287  1.00  0.00    -0.493 OA
ATOM     19  C   UNL     1      18.952  33.392  30.335  1.00  0.00     0.278 C 
ENDBRANCH  13  18
BRANCH  14  20
ATOM     20  O   UNL     1      22.412  33.446  28.840  1.00  0.00    -0.493 OA
ATOM     21  C   UNL     1      23.373  34.104  28.021  1.00  0.00     0.278 C 
ENDBRANCH  14  20
ENDBRANCH   1  12
BRANCH   8  22
ATOM     22  O   UNL     1      22.763  31.289  22.542  1.00  0.00    -0.490 OA
ATOM     23  C   UNL     1      23.766  32.234  22.898  1.00  0.00     0.278 C 
ENDBRANCH   8  22
BRANCH  11  24
ATOM     24  O   UNL     1      23.454  25.706  22.864  1.00  0.00    -0.492 OA
ATOM     25  C   UNL     1      22.742  24.696  22.157  1.00  0.00     0.278 C 
ENDBRANCH  11  24
BRANCH   9  26
ATOM     26  O   UNL     1      23.935  29.885  20.318  1.00  0.00    -0.490 OA
ATOM     27  C   UNL     1      23.120  30.301  19.228  1.00  0.00     0.279 C 
ENDBRANCH   9  26
BRANCH  10  28
ATOM     28  O   UNL     1      24.125  27.053  20.447  1.00  0.00    -0.490 OA
ATOM     29  C   UNL     1      23.422  26.730  19.252  1.00  0.00     0.278 C 
ENDBRANCH  10  28
TORSDOF 7
ENDMDL
MODEL 7
REMARK VINA RESULT:    -4.512      0.955      3.340
REMARK INTER + INTRA:          -7.089
REMARK INTER:                  -6.607
REMARK INTRA:                  -0.482
REMARK UNBOUND:                -0.730
REMARK SMILES COc1ccc(-c2cc(=O)c3c(OC)c(OC)c(OC)c(OC)c3o2)cc1OC
REMARK SMILES IDX 7 1 8 2 9 3 10 4 11 5 24 6 25 7 21 8 18 9 15 10 12 11 6 12
REMARK SMILES IDX 3 13 27 14 4 15 26 16 5 17 2 18 1 19 28 20 29 21 22 22 23 23
REMARK SMILES IDX 13 24 14 25 19 26 20 27 16 28 17 29
REMARK H PARENT
REMARK Flexibility Score: inf
ROOT
ATOM      1  C   UNL     1      22.493  29.554  22.247  1.00  0.00     0.138 A 
ATOM      2  C   UNL     1      21.856  28.513  22.934  1.00  0.00     0.100 A 
ATOM      3  C   UNL     1      21.720  28.590  24.318  1.00  0.00     0.197 A 
ATOM      4  O   UNL     1      21.138  27.645  24.918  1.00  0.00    -0.289 OA
ATOM      5  C   UNL     1      22.231  29.710  25.016  1.00  0.00     0.115 A 
ATOM      6  C   UNL     1      22.887  30.701  24.256  1.00  0.00     0.188 A 
ATOM      7  O   UNL     1      22.984  30.582  22.933  1.00  0.00    -0.452 OA
ATOM      8  C   UNL     1      23.430  31.831  24.876  1.00  0.00     0.209 A 
ATOM      9  C   UNL     1      23.267  32.031  26.266  1.00  0.00     0.211 A 
ATOM     10  C   UNL     1      22.634  31.026  27.048  1.00  0.00     0.208 A 
ATOM     11  C   UNL     1      22.107  29.864  26.418  1.00  0.00     0.179 A 
ENDROOT
BRANCH   1  12
ATOM     12  C   UNL     1      22.645  29.538  20.768  1.00  0.00     0.021 A 
ATOM     13  C   UNL     1      22.990  29.516  17.965  1.00  0.00     0.160 A 
ATOM     14  C   UNL     1      21.769  29.934  18.514  1.00  0.00     0.161 A 
ATOM     15  C   UNL     1      24.036  29.121  18.817  1.00  0.00     0.051 A 
ATOM     16  C   UNL     1      21.603  29.949  19.914  1.00  0.00     0.062 A 
ATOM     17  C   UNL     1      23.864  29.137  20.202  1.00  0.00     0.016 A 
BRANCH  13  18
ATOM     18  O   UNL     1      23.125  29.511  16.567  1.00  0.00    -0.493 OA
ATOM     19  C   UNL     1      24.124  30.231  15.850  1.00  0.00     0.278 C 
ENDBRANCH  13  18
BRANCH  14  20
ATOM     20  O   UNL     1      20.747  30.331  17.638  1.00  0.00    -0.493 OA
ATOM     21  C   UNL     1      20.759  31.532  16.873  1.00  0.00     0.278 C 
ENDBRANCH  14  20
ENDBRANCH   1  12
BRANCH   8  22
ATOM     22  O   UNL     1      24.123  32.761  24.097  1.00  0.00    -0.490 OA
ATOM     23  C   UNL     1      23.451  33.724  23.292  1.00  0.00     0.278 C 
ENDBRANCH   8  22
BRANCH  11  24
ATOM     24  O   UNL     1      21.453  28.838  27.134  1.00  0.00    -0.492 OA
ATOM     25  C   UNL     1      22.026  27.907  28.046  1.00  0.00     0.278 C 
ENDBRANCH  11  24
BRANCH   9  26
ATOM     26  O   UNL     1      23.706  33.203  26.911  1.00  0.00    -0.490 OA
ATOM     27  C   UNL     1      23.029  34.453  26.985  1.00  0.00     0.279 C 
ENDBRANCH   9  26
BRANCH  10  28
ATOM     28  O   UNL     1      22.498  31.139  28.445  1.00  0.00    -0.490 OA
ATOM     29  C   UNL     1      21.370  31.609  29.175  1.00  0.00     0.278 C 
ENDBRANCH  10  28
TORSDOF 7
ENDMDL
MODEL 8
REMARK VINA RESULT:    -4.443      1.903      3.895
REMARK INTER + INTRA:          -6.991
REMARK INTER:                  -6.318
REMARK INTRA:                  -0.673
REMARK UNBOUND:                -0.730
REMARK SMILES COc1ccc(-c2cc(=O)c3c(OC)c(OC)c(OC)c(OC)c3o2)cc1OC
REMARK SMILES IDX 7 1 8 2 9 3 10 4 11 5 24 6 25 7 21 8 18 9 15 10 12 11 6 12
REMARK SMILES IDX 3 13 27 14 4 15 26 16 5 17 2 18 1 19 28 20 29 21 22 22 23 23
REMARK SMILES IDX 13 24 14 25 19 26 20 27 16 28 17 29
REMARK H PARENT
REMARK Flexibility Score: inf
ROOT
ATOM      1  C   UNL     1      23.051  28.716  22.175  1.00  0.00     0.138 A 
ATOM      2  C   UNL     1      23.307  27.376  22.491  1.00  0.00     0.100 A 
ATOM      3  C   UNL     1      23.519  27.015  23.821  1.00  0.00     0.197 A 
ATOM      4  O   UNL     1      23.743  25.802  24.085  1.00  0.00    -0.289 OA
ATOM      5  C   UNL     1      23.481  28.002  24.833  1.00  0.00     0.115 A 
ATOM      6  C   UNL     1      23.249  29.334  24.431  1.00  0.00     0.188 A 
ATOM      7  O   UNL     1      23.045  29.624  23.147  1.00  0.00    -0.452 OA
ATOM      8  C   UNL     1      23.210  30.367  25.374  1.00  0.00     0.209 A 
ATOM      9  C   UNL     1      23.334  30.081  26.753  1.00  0.00     0.211 A 
ATOM     10  C   UNL     1      23.598  28.748  27.170  1.00  0.00     0.208 A 
ATOM     11  C   UNL     1      23.664  27.703  26.206  1.00  0.00     0.179 A 
ENDROOT
BRANCH   1  12
ATOM     12  C   UNL     1      22.793  29.155  20.779  1.00  0.00     0.021 A 
ATOM     13  C   UNL     1      22.248  29.997  18.138  1.00  0.00     0.160 A 
ATOM     14  C   UNL     1      23.319  29.126  18.386  1.00  0.00     0.161 A 
ATOM     15  C   UNL     1      21.449  30.436  19.208  1.00  0.00     0.051 A 
ATOM     16  C   UNL     1      23.583  28.703  19.705  1.00  0.00     0.062 A 
ATOM     17  C   UNL     1      21.718  30.015  20.511  1.00  0.00     0.016 A 
BRANCH  13  18
ATOM     18  O   UNL     1      22.010  30.401  16.815  1.00  0.00    -0.493 OA
ATOM     19  C   UNL     1      20.938  31.247  16.410  1.00  0.00     0.278 C 
ENDBRANCH  13  18
BRANCH  14  20
ATOM     20  O   UNL     1      24.093  28.697  17.296  1.00  0.00    -0.493 OA
ATOM     21  C   UNL     1      24.060  27.384  16.747  1.00  0.00     0.278 C 
ENDBRANCH  14  20
ENDBRANCH   1  12
BRANCH   8  22
ATOM     22  O   UNL     1      23.035  31.681  24.929  1.00  0.00    -0.490 OA
ATOM     23  C   UNL     1      24.125  32.590  24.811  1.00  0.00     0.278 C 
ENDBRANCH   8  22
BRANCH  11  24
ATOM     24  O   UNL     1      23.907  26.357  26.555  1.00  0.00    -0.492 OA
ATOM     25  C   UNL     1      23.022  25.448  27.201  1.00  0.00     0.278 C 
ENDBRANCH  11  24
BRANCH   9  26
ATOM     26  O   UNL     1      23.196  31.076  27.739  1.00  0.00    -0.490 OA
ATOM     27  C   UNL     1      21.991  31.531  28.345  1.00  0.00     0.279 C 
ENDBRANCH   9  26
BRANCH  10  28
ATOM     28  O   UNL     1      23.793  28.411  28.523  1.00  0.00    -0.490 OA
ATOM     29  C   UNL     1      22.800  28.100  29.495  1.00  0.00     0.278 C 
ENDBRANCH  10  28
TORSDOF 7
ENDMDL
MODEL 9
REMARK VINA RESULT:    -3.951      1.881      4.071
REMARK INTER + INTRA:          -6.298
REMARK INTER:                  -5.745
REMARK INTRA:                  -0.553
REMARK UNBOUND:                -0.730
REMARK SMILES COc1ccc(-c2cc(=O)c3c(OC)c(OC)c(OC)c(OC)c3o2)cc1OC
REMARK SMILES IDX 7 1 8 2 9 3 10 4 11 5 24 6 25 7 21 8 18 9 15 10 12 11 6 12
REMARK SMILES IDX 3 13 27 14 4 15 26 16 5 17 2 18 1 19 28 20 29 21 22 22 23 23
REMARK SMILES IDX 13 24 14 25 19 26 20 27 16 28 17 29
REMARK H PARENT
REMARK Flexibility Score: inf
ROOT
ATOM      1  C   UNL     1      22.118  29.773  24.655  1.00  0.00     0.138 A 
ATOM      2  C   UNL     1      21.048  29.094  25.251  1.00  0.00     0.100 A 
ATOM      3  C   UNL     1      20.602  29.491  26.510  1.00  0.00     0.197 A 
ATOM      4  O   UNL     1      19.634  28.870  27.027  1.00  0.00    -0.289 OA
ATOM      5  C   UNL     1      21.237  30.566  27.176  1.00  0.00     0.115 A 
ATOM      6  C   UNL     1      22.328  31.178  26.523  1.00  0.00     0.188 A 
ATOM      7  O   UNL     1      22.709  30.764  25.316  1.00  0.00    -0.452 OA
ATOM      8  C   UNL     1      23.013  32.239  27.124  1.00  0.00     0.209 A 
ATOM      9  C   UNL     1      22.578  32.760  28.364  1.00  0.00     0.211 A 
ATOM     10  C   UNL     1      21.499  32.134  29.046  1.00  0.00     0.208 A 
ATOM     11  C   UNL     1      20.821  31.037  28.445  1.00  0.00     0.179 A 
ENDROOT
BRANCH   1  12
ATOM     12  C   UNL     1      22.621  29.410  23.304  1.00  0.00     0.021 A 
ATOM     13  C   UNL     1      23.623  28.700  20.760  1.00  0.00     0.160 A 
ATOM     14  C   UNL     1      22.725  29.770  20.883  1.00  0.00     0.161 A 
ATOM     15  C   UNL     1      24.024  27.996  21.909  1.00  0.00     0.051 A 
ATOM     16  C   UNL     1      22.232  30.125  22.155  1.00  0.00     0.062 A 
ATOM     17  C   UNL     1      23.530  28.351  23.165  1.00  0.00     0.016 A 
BRANCH  13  18
ATOM     18  O   UNL     1      24.096  28.370  19.480  1.00  0.00    -0.493 OA
ATOM     19  C   UNL     1      23.596  27.298  18.687  1.00  0.00     0.278 C 
ENDBRANCH  13  18
BRANCH  14  20
ATOM     20  O   UNL     1      22.350  30.460  19.719  1.00  0.00    -0.493 OA
ATOM     21  C   UNL     1      21.078  30.352  19.088  1.00  0.00     0.278 C 
ENDBRANCH  14  20
ENDBRANCH   1  12
BRANCH   8  22
ATOM     22  O   UNL     1      24.125  32.780  26.472  1.00  0.00    -0.490 OA
ATOM     23  C   UNL     1      24.017  33.894  25.591  1.00  0.00     0.278 C 
ENDBRANCH   8  22
BRANCH  11  24
ATOM     24  O   UNL     1      19.733  30.382  29.062  1.00  0.00    -0.492 OA
ATOM     25  C   UNL     1      18.449  30.918  29.366  1.00  0.00     0.278 C 
ENDBRANCH  11  24
BRANCH   9  26
ATOM     26  O   UNL     1      23.175  33.892  28.952  1.00  0.00    -0.490 OA
ATOM     27  C   UNL     1      24.048  33.922  30.077  1.00  0.00     0.279 C 
ENDBRANCH   9  26
BRANCH  10  28
ATOM     28  O   UNL     1      21.061  32.567  30.313  1.00  0.00    -0.490 OA
ATOM     29  C   UNL     1      20.179  33.646  30.607  1.00  0.00     0.278 C 
ENDBRANCH  10  28
TORSDOF 7
ENDMDL
