MODEL 1
REMARK VINA RESULT:    -4.149      0.000      0.000
REMARK INTER + INTRA:          -9.852
REMARK INTER:                  -7.545
REMARK INTRA:                  -2.307
REMARK UNBOUND:                -2.307
REMARK SMILES CCCCCCCCCCCCCC[C@H](C)C(=O)[O-]
REMARK SMILES IDX 9 1 10 2 11 3 12 4 13 5 14 6 15 7 16 8 17 9 18 10 19 11 8 12
REMARK SMILES IDX 7 13 6 14 5 15 4 16 3 17 2 18 1 19
REMARK H PARENT
REMARK Flexibility Score: inf
ROOT
ATOM      1  C   UNL     1      24.997  -6.081  16.474  1.00  0.00     0.000 C 
ENDROOT
BRANCH   1   2
ATOM      2  C   UNL     1      23.912  -6.972  17.093  1.00  0.00     0.000 C 
BRANCH   2   3
ATOM      3  C   UNL     1      24.191  -7.224  18.583  1.00  0.00     0.000 C 
BRANCH   3   4
ATOM      4  C   UNL     1      22.974  -6.925  19.473  1.00  0.00     0.000 C 
BRANCH   4   5
ATOM      5  C   UNL     1      23.244  -5.794  20.481  1.00  0.00     0.001 C 
BRANCH   5   6
ATOM      6  C   UNL     1      23.223  -4.396  19.836  1.00  0.00     0.009 C 
BRANCH   6   7
ATOM      7  C   UNL     1      22.055  -4.141  18.855  1.00  0.00     0.032 C 
ATOM      8  C   UNL     1      22.504  -3.401  17.587  1.00  0.00     0.014 C 
BRANCH   7   9
ATOM      9  C   UNL     1      20.984  -3.347  19.550  1.00  0.00     0.044 C 
ATOM     10  O   UNL     1      20.263  -2.547  18.895  1.00  0.00    -0.550 OA
ATOM     11  O   UNL     1      20.770  -3.498  20.915  1.00  0.00    -0.550 OA
ENDBRANCH   7   9
ENDBRANCH   6   7
ENDBRANCH   5   6
ENDBRANCH   4   5
ENDBRANCH   3   4
ENDBRANCH   2   3
ENDBRANCH   1   2
BRANCH   1  12
ATOM     12  C   UNL     1      26.051  -5.689  17.521  1.00  0.00     0.000 C 
BRANCH  12  13
ATOM     13  C   UNL     1      26.664  -4.305  17.256  1.00  0.00    -0.000 C 
BRANCH  13  14
ATOM     14  C   UNL     1      26.111  -3.224  18.201  1.00  0.00    -0.000 C 
BRANCH  14  15
ATOM     15  C   UNL     1      26.768  -3.262  19.591  1.00  0.00    -0.000 C 
BRANCH  15  16
ATOM     16  C   UNL     1      28.149  -2.587  19.616  1.00  0.00    -0.000 C 
BRANCH  16  17
ATOM     17  C   UNL     1      29.260  -3.623  19.835  1.00  0.00    -0.000 C 
BRANCH  17  18
ATOM     18  C   UNL     1      28.709  -5.017  20.176  1.00  0.00    -0.003 C 
ATOM     19  C   UNL     1      29.737  -6.127  19.961  1.00  0.00     0.004 C 
ENDBRANCH  17  18
ENDBRANCH  16  17
ENDBRANCH  15  16
ENDBRANCH  14  15
ENDBRANCH  13  14
ENDBRANCH  12  13
ENDBRANCH   1  12
TORSDOF 14
ENDMDL
MODEL 2
REMARK VINA RESULT:    -4.105      2.250      5.004
REMARK INTER + INTRA:          -9.771
REMARK INTER:                  -7.259
REMARK INTRA:                  -2.512
REMARK UNBOUND:                -2.307
REMARK SMILES CCCCCCCCCCCCCC[C@H](C)C(=O)[O-]
REMARK SMILES IDX 9 1 10 2 11 3 12 4 13 5 14 6 15 7 16 8 17 9 18 10 19 11 8 12
REMARK SMILES IDX 7 13 6 14 5 15 4 16 3 17 2 18 1 19
REMARK H PARENT
REMARK Flexibility Score: inf
ROOT
ATOM      1  C   UNL     1      27.881  -5.432  19.751  1.00  0.00     0.000 C 
ENDROOT
BRANCH   1   2
ATOM      2  C   UNL     1      28.527  -4.057  19.968  1.00  0.00     0.000 C 
BRANCH   2   3
ATOM      3  C   UNL     1      27.472  -2.941  19.925  1.00  0.00     0.000 C 
BRANCH   3   4
ATOM      4  C   UNL     1      26.092  -3.447  19.472  1.00  0.00     0.000 C 
BRANCH   4   5
ATOM      5  C   UNL     1      25.783  -3.084  18.009  1.00  0.00     0.001 C 
BRANCH   5   6
ATOM      6  C   UNL     1      24.614  -3.897  17.421  1.00  0.00     0.009 C 
BRANCH   6   7
ATOM      7  C   UNL     1      23.460  -3.057  16.828  1.00  0.00     0.032 C 
ATOM      8  C   UNL     1      22.084  -3.504  17.340  1.00  0.00     0.014 C 
BRANCH   7   9
ATOM      9  C   UNL     1      23.495  -3.151  15.327  1.00  0.00     0.044 C 
ATOM     10  O   UNL     1      22.448  -2.947  14.656  1.00  0.00    -0.550 OA
ATOM     11  O   UNL     1      24.683  -3.449  14.668  1.00  0.00    -0.550 OA
ENDBRANCH   7   9
ENDBRANCH   6   7
ENDBRANCH   5   6
ENDBRANCH   4   5
ENDBRANCH   3   4
ENDBRANCH   2   3
ENDBRANCH   1   2
BRANCH   1  12
ATOM     12  C   UNL     1      28.307  -6.034  18.403  1.00  0.00     0.000 C 
BRANCH  12  13
ATOM     13  C   UNL     1      27.214  -6.910  17.771  1.00  0.00    -0.000 C 
BRANCH  13  14
ATOM     14  C   UNL     1      26.004  -7.107  18.702  1.00  0.00    -0.000 C 
BRANCH  14  15
ATOM     15  C   UNL     1      24.720  -7.461  17.934  1.00  0.00    -0.000 C 
BRANCH  15  16
ATOM     16  C   UNL     1      23.452  -7.302  18.789  1.00  0.00    -0.000 C 
BRANCH  16  17
ATOM     17  C   UNL     1      23.716  -6.384  19.991  1.00  0.00    -0.000 C 
BRANCH  17  18
ATOM     18  C   UNL     1      22.470  -5.587  20.410  1.00  0.00    -0.003 C 
ATOM     19  C   UNL     1      22.809  -4.195  20.941  1.00  0.00     0.004 C 
ENDBRANCH  17  18
ENDBRANCH  16  17
ENDBRANCH  15  16
ENDBRANCH  14  15
ENDBRANCH  13  14
ENDBRANCH  12  13
ENDBRANCH   1  12
TORSDOF 14
ENDMDL
MODEL 3
REMARK VINA RESULT:    -4.041      1.342      3.104
REMARK INTER + INTRA:          -9.656
REMARK INTER:                  -7.497
REMARK INTRA:                  -2.159
REMARK UNBOUND:                -2.307
REMARK SMILES CCCCCCCCCCCCCC[C@H](C)C(=O)[O-]
REMARK SMILES IDX 9 1 10 2 11 3 12 4 13 5 14 6 15 7 16 8 17 9 18 10 19 11 8 12
REMARK SMILES IDX 7 13 6 14 5 15 4 16 3 17 2 18 1 19
REMARK H PARENT
REMARK Flexibility Score: inf
ROOT
ATOM      1  C   UNL     1      28.420  -7.057  17.992  1.00  0.00     0.000 C 
ENDROOT
BRANCH   1   2
ATOM      2  C   UNL     1      27.065  -6.510  17.523  1.00  0.00     0.000 C 
BRANCH   2   3
ATOM      3  C   UNL     1      25.920  -7.444  17.945  1.00  0.00     0.000 C 
BRANCH   3   4
ATOM      4  C   UNL     1      25.070  -6.861  19.086  1.00  0.00     0.000 C 
BRANCH   4   5
ATOM      5  C   UNL     1      23.560  -7.005  18.831  1.00  0.00     0.001 C 
BRANCH   5   6
ATOM      6  C   UNL     1      22.699  -6.299  19.895  1.00  0.00     0.009 C 
BRANCH   6   7
ATOM      7  C   UNL     1      22.905  -4.769  19.998  1.00  0.00     0.032 C 
ATOM      8  C   UNL     1      22.583  -4.227  21.398  1.00  0.00     0.014 C 
BRANCH   7   9
ATOM      9  C   UNL     1      22.040  -4.080  18.979  1.00  0.00     0.044 C 
ATOM     10  O   UNL     1      22.392  -4.044  17.770  1.00  0.00    -0.550 OA
ATOM     11  O   UNL     1      20.839  -3.490  19.359  1.00  0.00    -0.550 OA
ENDBRANCH   7   9
ENDBRANCH   6   7
ENDBRANCH   5   6
ENDBRANCH   4   5
ENDBRANCH   3   4
ENDBRANCH   2   3
ENDBRANCH   1   2
BRANCH   1  12
ATOM     12  C   UNL     1      29.230  -5.972  18.717  1.00  0.00     0.000 C 
BRANCH  12  13
ATOM     13  C   UNL     1      28.508  -5.422  19.958  1.00  0.00    -0.000 C 
BRANCH  13  14
ATOM     14  C   UNL     1      28.874  -3.957  20.254  1.00  0.00    -0.000 C 
BRANCH  14  15
ATOM     15  C   UNL     1      27.972  -2.961  19.508  1.00  0.00    -0.000 C 
BRANCH  15  16
ATOM     16  C   UNL     1      26.476  -3.273  19.674  1.00  0.00    -0.000 C 
BRANCH  16  17
ATOM     17  C   UNL     1      25.776  -3.336  18.309  1.00  0.00    -0.000 C 
BRANCH  17  18
ATOM     18  C   UNL     1      26.582  -2.642  17.199  1.00  0.00    -0.003 C 
ATOM     19  C   UNL     1      26.327  -3.245  15.818  1.00  0.00     0.004 C 
ENDBRANCH  17  18
ENDBRANCH  16  17
ENDBRANCH  15  16
ENDBRANCH  14  15
ENDBRANCH  13  14
ENDBRANCH  12  13
ENDBRANCH   1  12
TORSDOF 14
ENDMDL
MODEL 4
REMARK VINA RESULT:    -4.030      2.658      5.150
REMARK INTER + INTRA:          -9.636
REMARK INTER:                  -7.515
REMARK INTRA:                  -2.121
REMARK UNBOUND:                -2.307
REMARK SMILES CCCCCCCCCCCCCC[C@H](C)C(=O)[O-]
REMARK SMILES IDX 9 1 10 2 11 3 12 4 13 5 14 6 15 7 16 8 17 9 18 10 19 11 8 12
REMARK SMILES IDX 7 13 6 14 5 15 4 16 3 17 2 18 1 19
REMARK H PARENT
REMARK Flexibility Score: inf
ROOT
ATOM      1  C   UNL     1      24.270  -6.005  15.683  1.00  0.00     0.000 C 
ENDROOT
BRANCH   1   2
ATOM      2  C   UNL     1      24.736  -7.455  15.867  1.00  0.00     0.000 C 
BRANCH   2   3
ATOM      3  C   UNL     1      24.308  -8.001  17.238  1.00  0.00     0.000 C 
BRANCH   3   4
ATOM      4  C   UNL     1      25.296  -7.632  18.357  1.00  0.00     0.000 C 
BRANCH   4   5
ATOM      5  C   UNL     1      24.623  -6.866  19.510  1.00  0.00     0.001 C 
BRANCH   5   6
ATOM      6  C   UNL     1      23.175  -6.449  19.190  1.00  0.00     0.009 C 
BRANCH   6   7
ATOM      7  C   UNL     1      22.949  -4.929  19.022  1.00  0.00     0.032 C 
ATOM      8  C   UNL     1      24.212  -4.111  19.330  1.00  0.00     0.014 C 
BRANCH   7   9
ATOM      9  C   UNL     1      21.830  -4.487  19.923  1.00  0.00     0.044 C 
ATOM     10  O   UNL     1      21.602  -5.103  20.998  1.00  0.00    -0.550 OA
ATOM     11  O   UNL     1      21.047  -3.389  19.586  1.00  0.00    -0.550 OA
ENDBRANCH   7   9
ENDBRANCH   6   7
ENDBRANCH   5   6
ENDBRANCH   4   5
ENDBRANCH   3   4
ENDBRANCH   2   3
ENDBRANCH   1   2
BRANCH   1  12
ATOM     12  C   UNL     1      22.814  -5.953  15.194  1.00  0.00     0.000 C 
BRANCH  12  13
ATOM     13  C   UNL     1      22.255  -4.522  15.141  1.00  0.00    -0.000 C 
BRANCH  13  14
ATOM     14  C   UNL     1      23.252  -3.480  15.678  1.00  0.00    -0.000 C 
BRANCH  14  15
ATOM     15  C   UNL     1      22.554  -2.307  16.386  1.00  0.00    -0.000 C 
BRANCH  15  16
ATOM     16  C   UNL     1      22.724  -0.974  15.639  1.00  0.00    -0.000 C 
BRANCH  16  17
ATOM     17  C   UNL     1      23.118  -1.216  14.174  1.00  0.00    -0.000 C 
BRANCH  17  18
ATOM     18  C   UNL     1      21.961  -0.942  13.199  1.00  0.00    -0.003 C 
ATOM     19  C   UNL     1      21.623  -2.153  12.330  1.00  0.00     0.004 C 
ENDBRANCH  17  18
ENDBRANCH  16  17
ENDBRANCH  15  16
ENDBRANCH  14  15
ENDBRANCH  13  14
ENDBRANCH  12  13
ENDBRANCH   1  12
TORSDOF 14
ENDMDL
MODEL 5
REMARK VINA RESULT:    -3.998      3.470      5.423
REMARK INTER + INTRA:          -9.578
REMARK INTER:                  -7.389
REMARK INTRA:                  -2.189
REMARK UNBOUND:                -2.307
REMARK SMILES CCCCCCCCCCCCCC[C@H](C)C(=O)[O-]
REMARK SMILES IDX 9 1 10 2 11 3 12 4 13 5 14 6 15 7 16 8 17 9 18 10 19 11 8 12
REMARK SMILES IDX 7 13 6 14 5 15 4 16 3 17 2 18 1 19
REMARK H PARENT
REMARK Flexibility Score: inf
ROOT
ATOM      1  C   UNL     1      20.913  -4.540  13.090  1.00  0.00     0.000 C 
ENDROOT
BRANCH   1   2
ATOM      2  C   UNL     1      21.478  -5.588  14.060  1.00  0.00     0.000 C 
BRANCH   2   3
ATOM      3  C   UNL     1      22.327  -4.923  15.154  1.00  0.00     0.000 C 
BRANCH   3   4
ATOM      4  C   UNL     1      23.467  -5.827  15.651  1.00  0.00     0.000 C 
BRANCH   4   5
ATOM      5  C   UNL     1      23.780  -5.615  17.142  1.00  0.00     0.001 C 
BRANCH   5   6
ATOM      6  C   UNL     1      22.820  -4.623  17.824  1.00  0.00     0.009 C 
BRANCH   6   7
ATOM      7  C   UNL     1      23.254  -4.147  19.230  1.00  0.00     0.032 C 
ATOM      8  C   UNL     1      24.777  -4.003  19.357  1.00  0.00     0.014 C 
BRANCH   7   9
ATOM      9  C   UNL     1      22.752  -5.119  20.262  1.00  0.00     0.044 C 
ATOM     10  O   UNL     1      23.439  -6.130  20.567  1.00  0.00    -0.550 OA
ATOM     11  O   UNL     1      21.534  -4.903  20.898  1.00  0.00    -0.550 OA
ENDBRANCH   7   9
ENDBRANCH   6   7
ENDBRANCH   5   6
ENDBRANCH   4   5
ENDBRANCH   3   4
ENDBRANCH   2   3
ENDBRANCH   1   2
BRANCH   1  12
ATOM     12  C   UNL     1      22.021  -3.601  12.589  1.00  0.00     0.000 C 
BRANCH  12  13
ATOM     13  C   UNL     1      21.523  -2.166  12.356  1.00  0.00    -0.000 C 
BRANCH  13  14
ATOM     14  C   UNL     1      22.619  -1.113  12.598  1.00  0.00    -0.000 C 
BRANCH  14  15
ATOM     15  C   UNL     1      22.404  -0.327  13.901  1.00  0.00    -0.000 C 
BRANCH  15  16
ATOM     16  C   UNL     1      22.676  -1.170  15.157  1.00  0.00    -0.000 C 
BRANCH  16  17
ATOM     17  C   UNL     1      24.133  -1.015  15.615  1.00  0.00    -0.000 C 
BRANCH  17  18
ATOM     18  C   UNL     1      24.871  -2.361  15.705  1.00  0.00    -0.003 C 
ATOM     19  C   UNL     1      25.395  -2.839  14.352  1.00  0.00     0.004 C 
ENDBRANCH  17  18
ENDBRANCH  16  17
ENDBRANCH  15  16
ENDBRANCH  14  15
ENDBRANCH  13  14
ENDBRANCH  12  13
ENDBRANCH   1  12
TORSDOF 14
ENDMDL
MODEL 6
REMARK VINA RESULT:    -3.978      1.605      4.278
REMARK INTER + INTRA:          -9.541
REMARK INTER:                  -7.118
REMARK INTRA:                  -2.423
REMARK UNBOUND:                -2.307
REMARK SMILES CCCCCCCCCCCCCC[C@H](C)C(=O)[O-]
REMARK SMILES IDX 9 1 10 2 11 3 12 4 13 5 14 6 15 7 16 8 17 9 18 10 19 11 8 12
REMARK SMILES IDX 7 13 6 14 5 15 4 16 3 17 2 18 1 19
REMARK H PARENT
REMARK Flexibility Score: inf
ROOT
ATOM      1  C   UNL     1      26.529  -3.152  17.257  1.00  0.00     0.000 C 
ENDROOT
BRANCH   1   2
ATOM      2  C   UNL     1      25.355  -2.526  16.493  1.00  0.00     0.000 C 
BRANCH   2   3
ATOM      3  C   UNL     1      24.695  -3.554  15.560  1.00  0.00     0.000 C 
BRANCH   3   4
ATOM      4  C   UNL     1      23.168  -3.614  15.731  1.00  0.00     0.000 C 
BRANCH   4   5
ATOM      5  C   UNL     1      22.743  -4.466  16.940  1.00  0.00     0.001 C 
BRANCH   5   6
ATOM      6  C   UNL     1      22.224  -3.621  18.118  1.00  0.00     0.009 C 
BRANCH   6   7
ATOM      7  C   UNL     1      22.585  -4.158  19.522  1.00  0.00     0.032 C 
ATOM      8  C   UNL     1      22.765  -5.683  19.539  1.00  0.00     0.014 C 
BRANCH   7   9
ATOM      9  C   UNL     1      21.510  -3.766  20.498  1.00  0.00     0.044 C 
ATOM     10  O   UNL     1      21.596  -4.112  21.707  1.00  0.00    -0.550 OA
ATOM     11  O   UNL     1      20.422  -3.008  20.079  1.00  0.00    -0.550 OA
ENDBRANCH   7   9
ENDBRANCH   6   7
ENDBRANCH   5   6
ENDBRANCH   4   5
ENDBRANCH   3   4
ENDBRANCH   2   3
ENDBRANCH   1   2
BRANCH   1  12
ATOM     12  C   UNL     1      26.054  -3.781  18.576  1.00  0.00     0.000 C 
BRANCH  12  13
ATOM     13  C   UNL     1      26.921  -4.973  19.011  1.00  0.00    -0.000 C 
BRANCH  13  14
ATOM     14  C   UNL     1      26.163  -6.311  18.941  1.00  0.00    -0.000 C 
BRANCH  14  15
ATOM     15  C   UNL     1      26.525  -7.129  17.691  1.00  0.00    -0.000 C 
BRANCH  15  16
ATOM     16  C   UNL     1      25.509  -6.954  16.551  1.00  0.00    -0.000 C 
BRANCH  16  17
ATOM     17  C   UNL     1      24.208  -7.711  16.858  1.00  0.00    -0.000 C 
BRANCH  17  18
ATOM     18  C   UNL     1      24.451  -9.190  17.198  1.00  0.00    -0.003 C 
ATOM     19  C   UNL     1      23.495  -9.714  18.269  1.00  0.00     0.004 C 
ENDBRANCH  17  18
ENDBRANCH  16  17
ENDBRANCH  15  16
ENDBRANCH  14  15
ENDBRANCH  13  14
ENDBRANCH  12  13
ENDBRANCH   1  12
TORSDOF 14
ENDMDL
MODEL 7
REMARK VINA RESULT:    -3.970      2.738      5.388
REMARK INTER + INTRA:          -9.527
REMARK INTER:                  -7.538
REMARK INTRA:                  -1.989
REMARK UNBOUND:                -2.307
REMARK SMILES CCCCCCCCCCCCCC[C@H](C)C(=O)[O-]
REMARK SMILES IDX 9 1 10 2 11 3 12 4 13 5 14 6 15 7 16 8 17 9 18 10 19 11 8 12
REMARK SMILES IDX 7 13 6 14 5 15 4 16 3 17 2 18 1 19
REMARK H PARENT
REMARK Flexibility Score: inf
ROOT
ATOM      1  C   UNL     1      24.715  -5.319  15.792  1.00  0.00     0.000 C 
ENDROOT
BRANCH   1   2
ATOM      2  C   UNL     1      25.693  -6.157  16.626  1.00  0.00     0.000 C 
BRANCH   2   3
ATOM      3  C   UNL     1      25.101  -7.540  16.941  1.00  0.00     0.000 C 
BRANCH   3   4
ATOM      4  C   UNL     1      24.959  -7.793  18.451  1.00  0.00     0.000 C 
BRANCH   4   5
ATOM      5  C   UNL     1      23.525  -7.553  18.957  1.00  0.00     0.001 C 
BRANCH   5   6
ATOM      6  C   UNL     1      23.435  -6.412  19.987  1.00  0.00     0.009 C 
BRANCH   6   7
ATOM      7  C   UNL     1      23.169  -5.009  19.394  1.00  0.00     0.032 C 
ATOM      8  C   UNL     1      24.428  -4.130  19.378  1.00  0.00     0.014 C 
BRANCH   7   9
ATOM      9  C   UNL     1      22.089  -4.328  20.188  1.00  0.00     0.044 C 
ATOM     10  O   UNL     1      21.048  -3.911  19.614  1.00  0.00    -0.550 OA
ATOM     11  O   UNL     1      22.222  -4.166  21.563  1.00  0.00    -0.550 OA
ENDBRANCH   7   9
ENDBRANCH   6   7
ENDBRANCH   5   6
ENDBRANCH   4   5
ENDBRANCH   3   4
ENDBRANCH   2   3
ENDBRANCH   1   2
BRANCH   1  12
ATOM     12  C   UNL     1      23.385  -6.062  15.592  1.00  0.00     0.000 C 
BRANCH  12  13
ATOM     13  C   UNL     1      22.219  -5.115  15.266  1.00  0.00    -0.000 C 
BRANCH  13  14
ATOM     14  C   UNL     1      21.559  -5.435  13.913  1.00  0.00    -0.000 C 
BRANCH  14  15
ATOM     15  C   UNL     1      21.223  -4.170  13.106  1.00  0.00    -0.000 C 
BRANCH  15  16
ATOM     16  C   UNL     1      22.420  -3.644  12.298  1.00  0.00    -0.000 C 
BRANCH  16  17
ATOM     17  C   UNL     1      23.236  -2.638  13.122  1.00  0.00    -0.000 C 
BRANCH  17  18
ATOM     18  C   UNL     1      22.353  -1.586  13.812  1.00  0.00    -0.003 C 
ATOM     19  C   UNL     1      22.707  -1.393  15.286  1.00  0.00     0.004 C 
ENDBRANCH  17  18
ENDBRANCH  16  17
ENDBRANCH  15  16
ENDBRANCH  14  15
ENDBRANCH  13  14
ENDBRANCH  12  13
ENDBRANCH   1  12
TORSDOF 14
ENDMDL
MODEL 8
REMARK VINA RESULT:    -3.965      2.647      4.530
REMARK INTER + INTRA:          -9.517
REMARK INTER:                  -7.607
REMARK INTRA:                  -1.910
REMARK UNBOUND:                -2.307
REMARK SMILES CCCCCCCCCCCCCC[C@H](C)C(=O)[O-]
REMARK SMILES IDX 9 1 10 2 11 3 12 4 13 5 14 6 15 7 16 8 17 9 18 10 19 11 8 12
REMARK SMILES IDX 7 13 6 14 5 15 4 16 3 17 2 18 1 19
REMARK H PARENT
REMARK Flexibility Score: inf
ROOT
ATOM      1  C   UNL     1      22.855  -4.492  20.305  1.00  0.00     0.000 C 
ENDROOT
BRANCH   1   2
ATOM      2  C   UNL     1      21.384  -4.140  20.048  1.00  0.00     0.000 C 
BRANCH   2   3
ATOM      3  C   UNL     1      21.231  -3.328  18.753  1.00  0.00     0.000 C 
BRANCH   3   4
ATOM      4  C   UNL     1      22.521  -3.299  17.916  1.00  0.00     0.000 C 
BRANCH   4   5
ATOM      5  C   UNL     1      22.326  -3.897  16.512  1.00  0.00     0.001 C 
BRANCH   5   6
ATOM      6  C   UNL     1      23.085  -3.122  15.418  1.00  0.00     0.009 C 
BRANCH   6   7
ATOM      7  C   UNL     1      23.124  -1.587  15.605  1.00  0.00     0.032 C 
ATOM      8  C   UNL     1      22.344  -0.842  14.513  1.00  0.00     0.014 C 
BRANCH   7   9
ATOM      9  C   UNL     1      24.554  -1.121  15.611  1.00  0.00     0.044 C 
ATOM     10  O   UNL     1      25.490  -1.951  15.766  1.00  0.00    -0.550 OA
ATOM     11  O   UNL     1      24.857   0.224  15.431  1.00  0.00    -0.550 OA
ENDBRANCH   7   9
ENDBRANCH   6   7
ENDBRANCH   5   6
ENDBRANCH   4   5
ENDBRANCH   3   4
ENDBRANCH   2   3
ENDBRANCH   1   2
BRANCH   1  12
ATOM     12  C   UNL     1      23.082  -6.009  20.211  1.00  0.00     0.000 C 
BRANCH  12  13
ATOM     13  C   UNL     1      23.932  -6.408  18.994  1.00  0.00    -0.000 C 
BRANCH  13  14
ATOM     14  C   UNL     1      25.326  -6.924  19.390  1.00  0.00    -0.000 C 
BRANCH  14  15
ATOM     15  C   UNL     1      26.413  -5.844  19.266  1.00  0.00    -0.000 C 
BRANCH  15  16
ATOM     16  C   UNL     1      26.018  -4.709  18.309  1.00  0.00    -0.000 C 
BRANCH  16  17
ATOM     17  C   UNL     1      26.049  -3.352  19.028  1.00  0.00    -0.000 C 
BRANCH  17  18
ATOM     18  C   UNL     1      27.301  -3.175  19.901  1.00  0.00    -0.003 C 
ATOM     19  C   UNL     1      28.346  -2.264  19.259  1.00  0.00     0.004 C 
ENDBRANCH  17  18
ENDBRANCH  16  17
ENDBRANCH  15  16
ENDBRANCH  14  15
ENDBRANCH  13  14
ENDBRANCH  12  13
ENDBRANCH   1  12
TORSDOF 14
ENDMDL
MODEL 9
REMARK VINA RESULT:    -3.930      3.007      5.565
REMARK INTER + INTRA:          -9.454
REMARK INTER:                  -7.768
REMARK INTRA:                  -1.686
REMARK UNBOUND:                -2.307
REMARK SMILES CCCCCCCCCCCCCC[C@H](C)C(=O)[O-]
REMARK SMILES IDX 9 1 10 2 11 3 12 4 13 5 14 6 15 7 16 8 17 9 18 10 19 11 8 12
REMARK SMILES IDX 7 13 6 14 5 15 4 16 3 17 2 18 1 19
REMARK H PARENT
REMARK Flexibility Score: inf
ROOT
ATOM      1  C   UNL     1      30.612  -2.713  20.772  1.00  0.00     0.000 C 
ENDROOT
BRANCH   1   2
ATOM      2  C   UNL     1      29.114  -2.473  20.997  1.00  0.00     0.000 C 
BRANCH   2   3
ATOM      3  C   UNL     1      28.272  -3.529  20.264  1.00  0.00     0.000 C 
BRANCH   3   4
ATOM      4  C   UNL     1      26.862  -3.025  19.915  1.00  0.00     0.000 C 
BRANCH   4   5
ATOM      5  C   UNL     1      26.435  -3.409  18.487  1.00  0.00     0.001 C 
BRANCH   5   6
ATOM      6  C   UNL     1      24.930  -3.720  18.373  1.00  0.00     0.009 C 
BRANCH   6   7
ATOM      7  C   UNL     1      24.362  -4.638  19.480  1.00  0.00     0.032 C 
ATOM      8  C   UNL     1      24.869  -6.083  19.362  1.00  0.00     0.014 C 
BRANCH   7   9
ATOM      9  C   UNL     1      22.859  -4.625  19.417  1.00  0.00     0.044 C 
ATOM     10  O   UNL     1      22.264  -3.797  18.677  1.00  0.00    -0.550 OA
ATOM     11  O   UNL     1      22.116  -5.533  20.162  1.00  0.00    -0.550 OA
ENDBRANCH   7   9
ENDBRANCH   6   7
ENDBRANCH   5   6
ENDBRANCH   4   5
ENDBRANCH   3   4
ENDBRANCH   2   3
ENDBRANCH   1   2
BRANCH   1  12
ATOM     12  C   UNL     1      31.453  -1.959  21.814  1.00  0.00     0.000 C 
BRANCH  12  13
ATOM     13  C   UNL     1      30.612  -1.005  22.677  1.00  0.00    -0.000 C 
BRANCH  13  14
ATOM     14  C   UNL     1      31.067   0.460  22.551  1.00  0.00    -0.000 C 
BRANCH  14  15
ATOM     15  C   UNL     1      31.865   0.723  21.264  1.00  0.00    -0.000 C 
BRANCH  15  16
ATOM     16  C   UNL     1      31.031   1.420  20.178  1.00  0.00    -0.000 C 
BRANCH  16  17
ATOM     17  C   UNL     1      30.855   0.509  18.955  1.00  0.00    -0.000 C 
BRANCH  17  18
ATOM     18  C   UNL     1      29.487   0.688  18.277  1.00  0.00    -0.003 C 
ATOM     19  C   UNL     1      28.876  -0.637  17.820  1.00  0.00     0.004 C 
ENDBRANCH  17  18
ENDBRANCH  16  17
ENDBRANCH  15  16
ENDBRANCH  14  15
ENDBRANCH  13  14
ENDBRANCH  12  13
ENDBRANCH   1  12
TORSDOF 14
ENDMDL
