MODEL 1
REMARK VINA RESULT:    -4.539      0.000      0.000
REMARK INTER + INTRA:         -13.696
REMARK INTER:                  -9.845
REMARK INTRA:                  -3.851
REMARK UNBOUND:                -3.851
REMARK SMILES CCCCCCCCCCCCCCCCCCCCCC(=O)[O-]
REMARK SMILES IDX 12 1 11 2 10 3 9 4 8 5 7 6 6 7 5 8 4 9 3 10 2 11 1 12 13 13
REMARK SMILES IDX 14 14 15 15 16 16 17 17 18 18 19 19 20 20 21 21 22 22 23 23
REMARK SMILES IDX 24 24
REMARK H PARENT
REMARK Flexibility Score: inf
ROOT
ATOM      1  C   UNL     1      14.525 -17.012 -15.060  1.00  0.00     0.000 C 
ENDROOT
BRANCH   1   2
ATOM      2  C   UNL     1      14.003 -18.120 -15.992  1.00  0.00     0.000 C 
BRANCH   2   3
ATOM      3  C   UNL     1      13.354 -19.321 -15.276  1.00  0.00     0.000 C 
BRANCH   3   4
ATOM      4  C   UNL     1      11.845 -19.477 -15.568  1.00  0.00    -0.000 C 
BRANCH   4   5
ATOM      5  C   UNL     1      10.967 -18.947 -14.422  1.00  0.00    -0.000 C 
BRANCH   5   6
ATOM      6  C   UNL     1      11.495 -19.358 -13.036  1.00  0.00    -0.000 C 
BRANCH   6   7
ATOM      7  C   UNL     1      10.905 -18.502 -11.902  1.00  0.00    -0.000 C 
BRANCH   7   8
ATOM      8  C   UNL     1      10.700 -19.300 -10.605  1.00  0.00    -0.000 C 
BRANCH   8   9
ATOM      9  C   UNL     1      11.150 -18.533  -9.353  1.00  0.00    -0.000 C 
BRANCH   9  10
ATOM     10  C   UNL     1      11.734 -17.165  -9.729  1.00  0.00    -0.000 C 
BRANCH  10  11
ATOM     11  C   UNL     1      12.245 -16.424  -8.488  1.00  0.00    -0.003 C 
ATOM     12  C   UNL     1      13.620 -16.937  -8.067  1.00  0.00     0.004 C 
ENDBRANCH  10  11
ENDBRANCH   9  10
ENDBRANCH   8   9
ENDBRANCH   7   8
ENDBRANCH   6   7
ENDBRANCH   5   6
ENDBRANCH   4   5
ENDBRANCH   3   4
ENDBRANCH   2   3
ENDBRANCH   1   2
BRANCH   1  13
ATOM     13  C   UNL     1      13.460 -16.380 -14.143  1.00  0.00     0.000 C 
BRANCH  13  14
ATOM     14  C   UNL     1      13.831 -16.456 -12.656  1.00  0.00     0.000 C 
BRANCH  14  15
ATOM     15  C   UNL     1      15.131 -17.242 -12.453  1.00  0.00     0.000 C 
BRANCH  15  16
ATOM     16  C   UNL     1      15.013 -18.206 -11.265  1.00  0.00     0.000 C 
BRANCH  16  17
ATOM     17  C   UNL     1      14.894 -19.659 -11.741  1.00  0.00     0.000 C 
BRANCH  17  18
ATOM     18  C   UNL     1      16.012 -20.039 -12.739  1.00  0.00     0.000 C 
BRANCH  18  19
ATOM     19  C   UNL     1      15.776 -21.391 -13.439  1.00  0.00     0.000 C 
BRANCH  19  20
ATOM     20  C   UNL     1      14.382 -22.005 -13.195  1.00  0.00     0.006 C 
BRANCH  20  21
ATOM     21  C   UNL     1      14.195 -23.396 -13.829  1.00  0.00     0.053 C 
BRANCH  21  22
ATOM     22  C   UNL     1      12.756 -23.799 -13.924  1.00  0.00     0.041 C 
ATOM     23  O   UNL     1      12.448 -24.992 -14.189  1.00  0.00    -0.550 OA
ATOM     24  O   UNL     1      11.753 -22.862 -13.703  1.00  0.00    -0.550 OA
ENDBRANCH  21  22
ENDBRANCH  20  21
ENDBRANCH  19  20
ENDBRANCH  18  19
ENDBRANCH  17  18
ENDBRANCH  16  17
ENDBRANCH  15  16
ENDBRANCH  14  15
ENDBRANCH  13  14
ENDBRANCH   1  13
TORSDOF 20
ENDMDL
MODEL 2
REMARK VINA RESULT:    -4.465      3.254      7.467
REMARK INTER + INTRA:         -13.537
REMARK INTER:                 -10.993
REMARK INTRA:                  -2.544
REMARK UNBOUND:                -3.851
REMARK SMILES CCCCCCCCCCCCCCCCCCCCCC(=O)[O-]
REMARK SMILES IDX 12 1 11 2 10 3 9 4 8 5 7 6 6 7 5 8 4 9 3 10 2 11 1 12 13 13
REMARK SMILES IDX 14 14 15 15 16 16 17 17 18 18 19 19 20 20 21 21 22 22 23 23
REMARK SMILES IDX 24 24
REMARK H PARENT
REMARK Flexibility Score: inf
ROOT
ATOM      1  C   UNL     1      11.469 -23.142 -14.202  1.00  0.00     0.000 C 
ENDROOT
BRANCH   1   2
ATOM      2  C   UNL     1      11.402 -24.675 -14.074  1.00  0.00     0.000 C 
BRANCH   2   3
ATOM      3  C   UNL     1      12.770 -25.385 -14.025  1.00  0.00     0.000 C 
BRANCH   3   4
ATOM      4  C   UNL     1      12.716 -26.866 -14.456  1.00  0.00    -0.000 C 
BRANCH   4   5
ATOM      5  C   UNL     1      14.046 -27.351 -15.059  1.00  0.00    -0.000 C 
BRANCH   5   6
ATOM      6  C   UNL     1      14.808 -28.301 -14.119  1.00  0.00    -0.000 C 
BRANCH   6   7
ATOM      7  C   UNL     1      16.269 -27.870 -13.900  1.00  0.00    -0.000 C 
BRANCH   7   8
ATOM      8  C   UNL     1      16.702 -27.974 -12.429  1.00  0.00    -0.000 C 
BRANCH   8   9
ATOM      9  C   UNL     1      16.986 -26.607 -11.791  1.00  0.00    -0.000 C 
BRANCH   9  10
ATOM     10  C   UNL     1      15.727 -25.731 -11.789  1.00  0.00    -0.000 C 
BRANCH  10  11
ATOM     11  C   UNL     1      15.948 -24.445 -12.594  1.00  0.00    -0.003 C 
ATOM     12  C   UNL     1      15.837 -23.211 -11.703  1.00  0.00     0.004 C 
ENDBRANCH  10  11
ENDBRANCH   9  10
ENDBRANCH   8   9
ENDBRANCH   7   8
ENDBRANCH   6   7
ENDBRANCH   5   6
ENDBRANCH   4   5
ENDBRANCH   3   4
ENDBRANCH   2   3
ENDBRANCH   1   2
BRANCH   1  13
ATOM     13  C   UNL     1      12.883 -22.542 -14.083  1.00  0.00     0.000 C 
BRANCH  13  14
ATOM     14  C   UNL     1      12.876 -21.010 -13.996  1.00  0.00     0.000 C 
BRANCH  14  15
ATOM     15  C   UNL     1      11.875 -20.407 -14.989  1.00  0.00     0.000 C 
BRANCH  15  16
ATOM     16  C   UNL     1      11.203 -19.159 -14.404  1.00  0.00     0.000 C 
BRANCH  16  17
ATOM     17  C   UNL     1      11.268 -19.162 -12.871  1.00  0.00     0.000 C 
BRANCH  17  18
ATOM     18  C   UNL     1      11.866 -17.851 -12.311  1.00  0.00     0.000 C 
BRANCH  18  19
ATOM     19  C   UNL     1      13.283 -18.021 -11.732  1.00  0.00     0.000 C 
BRANCH  19  20
ATOM     20  C   UNL     1      14.370 -17.183 -12.438  1.00  0.00     0.006 C 
BRANCH  20  21
ATOM     21  C   UNL     1      15.001 -17.883 -13.656  1.00  0.00     0.053 C 
BRANCH  21  22
ATOM     22  C   UNL     1      14.405 -17.434 -14.954  1.00  0.00     0.041 C 
ATOM     23  O   UNL     1      13.867 -16.299 -15.044  1.00  0.00    -0.550 OA
ATOM     24  O   UNL     1      14.458 -18.262 -16.069  1.00  0.00    -0.550 OA
ENDBRANCH  21  22
ENDBRANCH  20  21
ENDBRANCH  19  20
ENDBRANCH  18  19
ENDBRANCH  17  18
ENDBRANCH  16  17
ENDBRANCH  15  16
ENDBRANCH  14  15
ENDBRANCH  13  14
ENDBRANCH   1  13
TORSDOF 20
ENDMDL
MODEL 3
REMARK VINA RESULT:    -4.451      3.299      6.808
REMARK INTER + INTRA:         -13.506
REMARK INTER:                 -11.695
REMARK INTRA:                  -1.811
REMARK UNBOUND:                -3.851
REMARK SMILES CCCCCCCCCCCCCCCCCCCCCC(=O)[O-]
REMARK SMILES IDX 12 1 11 2 10 3 9 4 8 5 7 6 6 7 5 8 4 9 3 10 2 11 1 12 13 13
REMARK SMILES IDX 14 14 15 15 16 16 17 17 18 18 19 19 20 20 21 21 22 22 23 23
REMARK SMILES IDX 24 24
REMARK H PARENT
REMARK Flexibility Score: inf
ROOT
ATOM      1  C   UNL     1      14.321 -18.367 -15.592  1.00  0.00     0.000 C 
ENDROOT
BRANCH   1   2
ATOM      2  C   UNL     1      13.116 -18.813 -16.439  1.00  0.00     0.000 C 
BRANCH   2   3
ATOM      3  C   UNL     1      12.580 -20.223 -16.118  1.00  0.00     0.000 C 
BRANCH   3   4
ATOM      4  C   UNL     1      11.699 -20.279 -14.851  1.00  0.00    -0.000 C 
BRANCH   4   5
ATOM      5  C   UNL     1      12.329 -21.129 -13.734  1.00  0.00    -0.000 C 
BRANCH   5   6
ATOM      6  C   UNL     1      12.545 -22.592 -14.156  1.00  0.00    -0.000 C 
BRANCH   6   7
ATOM      7  C   UNL     1      11.223 -23.327 -14.437  1.00  0.00    -0.000 C 
BRANCH   7   8
ATOM      8  C   UNL     1      11.289 -24.820 -14.078  1.00  0.00    -0.000 C 
BRANCH   8   9
ATOM      9  C   UNL     1      12.724 -25.367 -14.060  1.00  0.00    -0.000 C 
BRANCH   9  10
ATOM     10  C   UNL     1      12.735 -26.884 -14.291  1.00  0.00    -0.000 C 
BRANCH  10  11
ATOM     11  C   UNL     1      13.985 -27.314 -15.066  1.00  0.00    -0.003 C 
ATOM     12  C   UNL     1      15.150 -26.364 -14.804  1.00  0.00     0.004 C 
ENDBRANCH  10  11
ENDBRANCH   9  10
ENDBRANCH   8   9
ENDBRANCH   7   8
ENDBRANCH   6   7
ENDBRANCH   5   6
ENDBRANCH   4   5
ENDBRANCH   3   4
ENDBRANCH   2   3
ENDBRANCH   1   2
BRANCH   1  13
ATOM     13  C   UNL     1      14.366 -16.861 -15.269  1.00  0.00     0.000 C 
BRANCH  13  14
ATOM     14  C   UNL     1      13.573 -16.498 -14.006  1.00  0.00     0.000 C 
BRANCH  14  15
ATOM     15  C   UNL     1      14.300 -16.978 -12.743  1.00  0.00     0.000 C 
BRANCH  15  16
ATOM     16  C   UNL     1      13.319 -17.151 -11.577  1.00  0.00     0.000 C 
BRANCH  16  17
ATOM     17  C   UNL     1      12.496 -18.436 -11.731  1.00  0.00     0.000 C 
BRANCH  17  18
ATOM     18  C   UNL     1      11.043 -18.262 -11.232  1.00  0.00     0.000 C 
BRANCH  18  19
ATOM     19  C   UNL     1      10.717 -19.107  -9.987  1.00  0.00     0.000 C 
BRANCH  19  20
ATOM     20  C   UNL     1      11.444 -18.662  -8.700  1.00  0.00     0.006 C 
BRANCH  20  21
ATOM     21  C   UNL     1      10.575 -17.807  -7.759  1.00  0.00     0.053 C 
BRANCH  21  22
ATOM     22  C   UNL     1      10.870 -16.343  -7.870  1.00  0.00     0.041 C 
ATOM     23  O   UNL     1      10.084 -15.499  -7.364  1.00  0.00    -0.550 OA
ATOM     24  O   UNL     1      12.020 -15.911  -8.519  1.00  0.00    -0.550 OA
ENDBRANCH  21  22
ENDBRANCH  20  21
ENDBRANCH  19  20
ENDBRANCH  18  19
ENDBRANCH  17  18
ENDBRANCH  16  17
ENDBRANCH  15  16
ENDBRANCH  14  15
ENDBRANCH  13  14
ENDBRANCH   1  13
TORSDOF 20
ENDMDL
MODEL 4
REMARK VINA RESULT:    -4.388      3.768      6.059
REMARK INTER + INTRA:         -13.369
REMARK INTER:                 -10.302
REMARK INTRA:                  -3.067
REMARK UNBOUND:                -3.851
REMARK SMILES CCCCCCCCCCCCCCCCCCCCCC(=O)[O-]
REMARK SMILES IDX 12 1 11 2 10 3 9 4 8 5 7 6 6 7 5 8 4 9 3 10 2 11 1 12 13 13
REMARK SMILES IDX 14 14 15 15 16 16 17 17 18 18 19 19 20 20 21 21 22 22 23 23
REMARK SMILES IDX 24 24
REMARK H PARENT
REMARK Flexibility Score: inf
ROOT
ATOM      1  C   UNL     1      12.401 -19.620 -15.337  1.00  0.00     0.000 C 
ENDROOT
BRANCH   1   2
ATOM      2  C   UNL     1      13.113 -18.808 -16.433  1.00  0.00     0.000 C 
BRANCH   2   3
ATOM      3  C   UNL     1      14.453 -18.176 -16.008  1.00  0.00     0.000 C 
BRANCH   3   4
ATOM      4  C   UNL     1      14.301 -16.806 -15.311  1.00  0.00    -0.000 C 
BRANCH   4   5
ATOM      5  C   UNL     1      15.214 -16.669 -14.081  1.00  0.00    -0.000 C 
BRANCH   5   6
ATOM      6  C   UNL     1      15.494 -18.019 -13.400  1.00  0.00    -0.000 C 
BRANCH   6   7
ATOM      7  C   UNL     1      14.819 -18.138 -12.022  1.00  0.00    -0.000 C 
BRANCH   7   8
ATOM      8  C   UNL     1      14.353 -16.780 -11.474  1.00  0.00    -0.000 C 
BRANCH   8   9
ATOM      9  C   UNL     1      13.579 -16.902 -10.153  1.00  0.00    -0.000 C 
BRANCH   9  10
ATOM     10  C   UNL     1      14.540 -17.067  -8.968  1.00  0.00    -0.000 C 
BRANCH  10  11
ATOM     11  C   UNL     1      14.125 -16.174  -7.794  1.00  0.00    -0.003 C 
ATOM     12  C   UNL     1      12.963 -15.263  -8.178  1.00  0.00     0.004 C 
ENDBRANCH  10  11
ENDBRANCH   9  10
ENDBRANCH   8   9
ENDBRANCH   7   8
ENDBRANCH   6   7
ENDBRANCH   5   6
ENDBRANCH   4   5
ENDBRANCH   3   4
ENDBRANCH   2   3
ENDBRANCH   1   2
BRANCH   1  13
ATOM     13  C   UNL     1      11.136 -18.959 -14.756  1.00  0.00     0.000 C 
BRANCH  13  14
ATOM     14  C   UNL     1      11.406 -18.194 -13.453  1.00  0.00     0.000 C 
BRANCH  14  15
ATOM     15  C   UNL     1      11.303 -19.124 -12.238  1.00  0.00     0.000 C 
BRANCH  15  16
ATOM     16  C   UNL     1      10.428 -18.504 -11.143  1.00  0.00     0.000 C 
BRANCH  16  17
ATOM     17  C   UNL     1      10.572 -19.267  -9.820  1.00  0.00     0.000 C 
BRANCH  17  18
ATOM     18  C   UNL     1      10.849 -18.321  -8.629  1.00  0.00     0.000 C 
BRANCH  18  19
ATOM     19  C   UNL     1      11.733 -18.953  -7.536  1.00  0.00     0.000 C 
BRANCH  19  20
ATOM     20  C   UNL     1      11.265 -18.674  -6.092  1.00  0.00     0.006 C 
BRANCH  20  21
ATOM     21  C   UNL     1      10.556 -17.318  -5.918  1.00  0.00     0.053 C 
BRANCH  21  22
ATOM     22  C   UNL     1       9.104 -17.465  -5.585  1.00  0.00     0.041 C 
ATOM     23  O   UNL     1       8.716 -18.408  -4.846  1.00  0.00    -0.550 OA
ATOM     24  O   UNL     1       8.180 -16.550  -6.077  1.00  0.00    -0.550 OA
ENDBRANCH  21  22
ENDBRANCH  20  21
ENDBRANCH  19  20
ENDBRANCH  18  19
ENDBRANCH  17  18
ENDBRANCH  16  17
ENDBRANCH  15  16
ENDBRANCH  14  15
ENDBRANCH  13  14
ENDBRANCH   1  13
TORSDOF 20
ENDMDL
MODEL 5
REMARK VINA RESULT:    -4.365      2.660      6.133
REMARK INTER + INTRA:         -13.320
REMARK INTER:                 -10.676
REMARK INTRA:                  -2.644
REMARK UNBOUND:                -3.851
REMARK SMILES CCCCCCCCCCCCCCCCCCCCCC(=O)[O-]
REMARK SMILES IDX 12 1 11 2 10 3 9 4 8 5 7 6 6 7 5 8 4 9 3 10 2 11 1 12 13 13
REMARK SMILES IDX 14 14 15 15 16 16 17 17 18 18 19 19 20 20 21 21 22 22 23 23
REMARK SMILES IDX 24 24
REMARK H PARENT
REMARK Flexibility Score: inf
ROOT
ATOM      1  C   UNL     1      11.311 -24.622 -14.192  1.00  0.00     0.000 C 
ENDROOT
BRANCH   1   2
ATOM      2  C   UNL     1      11.401 -23.088 -14.292  1.00  0.00     0.000 C 
BRANCH   2   3
ATOM      3  C   UNL     1      12.760 -22.487 -13.883  1.00  0.00     0.000 C 
BRANCH   3   4
ATOM      4  C   UNL     1      12.941 -21.014 -14.308  1.00  0.00    -0.000 C 
BRANCH   4   5
ATOM      5  C   UNL     1      11.820 -20.531 -15.245  1.00  0.00    -0.000 C 
BRANCH   5   6
ATOM      6  C   UNL     1      11.150 -19.240 -14.747  1.00  0.00    -0.000 C 
BRANCH   6   7
ATOM      7  C   UNL     1      11.377 -18.997 -13.244  1.00  0.00    -0.000 C 
BRANCH   7   8
ATOM      8  C   UNL     1      11.843 -17.564 -12.941  1.00  0.00    -0.000 C 
BRANCH   8   9
ATOM      9  C   UNL     1      13.346 -17.360 -13.186  1.00  0.00    -0.000 C 
BRANCH   9  10
ATOM     10  C   UNL     1      13.585 -16.467 -14.410  1.00  0.00    -0.000 C 
BRANCH  10  11
ATOM     11  C   UNL     1      14.781 -16.964 -15.230  1.00  0.00    -0.003 C 
ATOM     12  C   UNL     1      14.367 -18.080 -16.186  1.00  0.00     0.004 C 
ENDBRANCH  10  11
ENDBRANCH   9  10
ENDBRANCH   8   9
ENDBRANCH   7   8
ENDBRANCH   6   7
ENDBRANCH   5   6
ENDBRANCH   4   5
ENDBRANCH   3   4
ENDBRANCH   2   3
ENDBRANCH   1   2
BRANCH   1  13
ATOM     13  C   UNL     1      12.665 -25.343 -14.044  1.00  0.00     0.000 C 
BRANCH  13  14
ATOM     14  C   UNL     1      12.586 -26.837 -14.386  1.00  0.00     0.000 C 
BRANCH  14  15
ATOM     15  C   UNL     1      13.983 -27.471 -14.404  1.00  0.00     0.000 C 
BRANCH  15  16
ATOM     16  C   UNL     1      15.018 -26.506 -14.994  1.00  0.00     0.000 C 
BRANCH  16  17
ATOM     17  C   UNL     1      16.413 -26.766 -14.411  1.00  0.00     0.000 C 
BRANCH  17  18
ATOM     18  C   UNL     1      16.968 -25.536 -13.657  1.00  0.00     0.000 C 
BRANCH  18  19
ATOM     19  C   UNL     1      16.323 -25.321 -12.275  1.00  0.00     0.000 C 
BRANCH  19  20
ATOM     20  C   UNL     1      15.494 -24.026 -12.148  1.00  0.00     0.006 C 
BRANCH  20  21
ATOM     21  C   UNL     1      16.293 -22.826 -11.606  1.00  0.00     0.053 C 
BRANCH  21  22
ATOM     22  C   UNL     1      16.754 -21.902 -12.690  1.00  0.00     0.041 C 
ATOM     23  O   UNL     1      16.320 -22.038 -13.865  1.00  0.00    -0.550 OA
ATOM     24  O   UNL     1      17.649 -20.880 -12.401  1.00  0.00    -0.550 OA
ENDBRANCH  21  22
ENDBRANCH  20  21
ENDBRANCH  19  20
ENDBRANCH  18  19
ENDBRANCH  17  18
ENDBRANCH  16  17
ENDBRANCH  15  16
ENDBRANCH  14  15
ENDBRANCH  13  14
ENDBRANCH   1  13
TORSDOF 20
ENDMDL
MODEL 6
REMARK VINA RESULT:    -4.349      3.591      6.201
REMARK INTER + INTRA:         -13.284
REMARK INTER:                 -11.117
REMARK INTRA:                  -2.166
REMARK UNBOUND:                -3.851
REMARK SMILES CCCCCCCCCCCCCCCCCCCCCC(=O)[O-]
REMARK SMILES IDX 12 1 11 2 10 3 9 4 8 5 7 6 6 7 5 8 4 9 3 10 2 11 1 12 13 13
REMARK SMILES IDX 14 14 15 15 16 16 17 17 18 18 19 19 20 20 21 21 22 22 23 23
REMARK SMILES IDX 24 24
REMARK H PARENT
REMARK Flexibility Score: inf
ROOT
ATOM      1  C   UNL     1      12.799 -22.894 -14.097  1.00  0.00     0.000 C 
ENDROOT
BRANCH   1   2
ATOM      2  C   UNL     1      12.918 -21.424 -14.538  1.00  0.00     0.000 C 
BRANCH   2   3
ATOM      3  C   UNL     1      11.576 -20.703 -14.773  1.00  0.00     0.000 C 
BRANCH   3   4
ATOM      4  C   UNL     1      11.722 -19.323 -15.450  1.00  0.00    -0.000 C 
BRANCH   4   5
ATOM      5  C   UNL     1      13.132 -19.095 -16.021  1.00  0.00    -0.000 C 
BRANCH   5   6
ATOM      6  C   UNL     1      13.795 -17.823 -15.466  1.00  0.00    -0.000 C 
BRANCH   6   7
ATOM      7  C   UNL     1      13.000 -17.201 -14.305  1.00  0.00    -0.000 C 
BRANCH   7   8
ATOM      8  C   UNL     1      13.909 -16.614 -13.214  1.00  0.00    -0.000 C 
BRANCH   8   9
ATOM      9  C   UNL     1      14.339 -17.655 -12.170  1.00  0.00    -0.000 C 
BRANCH   9  10
ATOM     10  C   UNL     1      13.287 -18.764 -12.037  1.00  0.00    -0.000 C 
BRANCH  10  11
ATOM     11  C   UNL     1      12.215 -18.386 -11.009  1.00  0.00    -0.003 C 
ATOM     12  C   UNL     1      10.820 -18.434 -11.624  1.00  0.00     0.004 C 
ENDBRANCH  10  11
ENDBRANCH   9  10
ENDBRANCH   8   9
ENDBRANCH   7   8
ENDBRANCH   6   7
ENDBRANCH   5   6
ENDBRANCH   4   5
ENDBRANCH   3   4
ENDBRANCH   2   3
ENDBRANCH   1   2
BRANCH   1  13
ATOM     13  C   UNL     1      11.370 -23.469 -14.135  1.00  0.00     0.000 C 
BRANCH  13  14
ATOM     14  C   UNL     1      11.341 -25.002 -14.074  1.00  0.00     0.000 C 
BRANCH  14  15
ATOM     15  C   UNL     1      12.762 -25.577 -14.017  1.00  0.00     0.000 C 
BRANCH  15  16
ATOM     16  C   UNL     1      12.770 -27.063 -14.395  1.00  0.00     0.000 C 
BRANCH  16  17
ATOM     17  C   UNL     1      13.993 -27.410 -15.254  1.00  0.00     0.000 C 
BRANCH  17  18
ATOM     18  C   UNL     1      15.177 -26.450 -14.997  1.00  0.00     0.000 C 
BRANCH  18  19
ATOM     19  C   UNL     1      16.547 -27.058 -15.350  1.00  0.00     0.000 C 
BRANCH  19  20
ATOM     20  C   UNL     1      16.522 -28.573 -15.640  1.00  0.00     0.006 C 
BRANCH  20  21
ATOM     21  C   UNL     1      16.901 -29.445 -14.428  1.00  0.00     0.053 C 
BRANCH  21  22
ATOM     22  C   UNL     1      15.858 -30.469 -14.104  1.00  0.00     0.041 C 
ATOM     23  O   UNL     1      14.967 -30.216 -13.250  1.00  0.00    -0.550 OA
ATOM     24  O   UNL     1      15.860 -31.696 -14.755  1.00  0.00    -0.550 OA
ENDBRANCH  21  22
ENDBRANCH  20  21
ENDBRANCH  19  20
ENDBRANCH  18  19
ENDBRANCH  17  18
ENDBRANCH  16  17
ENDBRANCH  15  16
ENDBRANCH  14  15
ENDBRANCH  13  14
ENDBRANCH   1  13
TORSDOF 20
ENDMDL
MODEL 7
REMARK VINA RESULT:    -4.337      2.776      5.383
REMARK INTER + INTRA:         -13.258
REMARK INTER:                 -11.354
REMARK INTRA:                  -1.904
REMARK UNBOUND:                -3.851
REMARK SMILES CCCCCCCCCCCCCCCCCCCCCC(=O)[O-]
REMARK SMILES IDX 12 1 11 2 10 3 9 4 8 5 7 6 6 7 5 8 4 9 3 10 2 11 1 12 13 13
REMARK SMILES IDX 14 14 15 15 16 16 17 17 18 18 19 19 20 20 21 21 22 22 23 23
REMARK SMILES IDX 24 24
REMARK H PARENT
REMARK Flexibility Score: inf
ROOT
ATOM      1  C   UNL     1      10.564 -19.122  -9.927  1.00  0.00     0.000 C 
ENDROOT
BRANCH   1   2
ATOM      2  C   UNL     1      10.868 -18.424  -8.589  1.00  0.00     0.000 C 
BRANCH   2   3
ATOM      3  C   UNL     1      11.665 -17.110  -8.706  1.00  0.00     0.000 C 
BRANCH   3   4
ATOM      4  C   UNL     1      10.901 -15.872  -8.189  1.00  0.00    -0.000 C 
BRANCH   4   5
ATOM      5  C   UNL     1      10.662 -15.922  -6.670  1.00  0.00    -0.000 C 
BRANCH   5   6
ATOM      6  C   UNL     1       9.351 -15.232  -6.255  1.00  0.00    -0.000 C 
BRANCH   6   7
ATOM      7  C   UNL     1       8.207 -16.232  -6.016  1.00  0.00    -0.000 C 
BRANCH   7   8
ATOM      8  C   UNL     1       8.694 -17.690  -5.980  1.00  0.00    -0.000 C 
BRANCH   8   9
ATOM      9  C   UNL     1       8.912 -18.211  -4.551  1.00  0.00    -0.000 C 
BRANCH   9  10
ATOM     10  C   UNL     1       9.696 -19.529  -4.563  1.00  0.00    -0.000 C 
BRANCH  10  11
ATOM     11  C   UNL     1      11.094 -19.334  -5.159  1.00  0.00    -0.003 C 
ATOM     12  C   UNL     1      12.133 -20.165  -4.411  1.00  0.00     0.004 C 
ENDBRANCH  10  11
ENDBRANCH   9  10
ENDBRANCH   8   9
ENDBRANCH   7   8
ENDBRANCH   6   7
ENDBRANCH   5   6
ENDBRANCH   4   5
ENDBRANCH   3   4
ENDBRANCH   2   3
ENDBRANCH   1   2
BRANCH   1  13
ATOM     13  C   UNL     1      10.764 -18.244 -11.177  1.00  0.00     0.000 C 
BRANCH  13  14
ATOM     14  C   UNL     1      11.361 -19.017 -12.361  1.00  0.00     0.000 C 
BRANCH  14  15
ATOM     15  C   UNL     1      12.500 -18.227 -13.016  1.00  0.00     0.000 C 
BRANCH  15  16
ATOM     16  C   UNL     1      12.450 -18.353 -14.544  1.00  0.00     0.000 C 
BRANCH  16  17
ATOM     17  C   UNL     1      11.273 -19.232 -14.988  1.00  0.00     0.000 C 
BRANCH  17  18
ATOM     18  C   UNL     1      11.745 -20.535 -15.674  1.00  0.00     0.000 C 
BRANCH  18  19
ATOM     19  C   UNL     1      12.946 -21.196 -14.973  1.00  0.00     0.000 C 
BRANCH  19  20
ATOM     20  C   UNL     1      12.568 -22.222 -13.883  1.00  0.00     0.006 C 
BRANCH  20  21
ATOM     21  C   UNL     1      11.415 -23.161 -14.286  1.00  0.00     0.053 C 
BRANCH  21  22
ATOM     22  C   UNL     1      11.781 -24.608 -14.168  1.00  0.00     0.041 C 
ATOM     23  O   UNL     1      10.901 -25.498 -14.310  1.00  0.00    -0.550 OA
ATOM     24  O   UNL     1      13.098 -24.976 -13.918  1.00  0.00    -0.550 OA
ENDBRANCH  21  22
ENDBRANCH  20  21
ENDBRANCH  19  20
ENDBRANCH  18  19
ENDBRANCH  17  18
ENDBRANCH  16  17
ENDBRANCH  15  16
ENDBRANCH  14  15
ENDBRANCH  13  14
ENDBRANCH   1  13
TORSDOF 20
ENDMDL
MODEL 8
REMARK VINA RESULT:    -4.335      2.843      5.814
REMARK INTER + INTRA:         -13.254
REMARK INTER:                 -10.332
REMARK INTRA:                  -2.922
REMARK UNBOUND:                -3.851
REMARK SMILES CCCCCCCCCCCCCCCCCCCCCC(=O)[O-]
REMARK SMILES IDX 12 1 11 2 10 3 9 4 8 5 7 6 6 7 5 8 4 9 3 10 2 11 1 12 13 13
REMARK SMILES IDX 14 14 15 15 16 16 17 17 18 18 19 19 20 20 21 21 22 22 23 23
REMARK SMILES IDX 24 24
REMARK H PARENT
REMARK Flexibility Score: inf
ROOT
ATOM      1  C   UNL     1      10.659 -18.717 -11.122  1.00  0.00     0.000 C 
ENDROOT
BRANCH   1   2
ATOM      2  C   UNL     1      11.237 -17.892  -9.958  1.00  0.00     0.000 C 
BRANCH   2   3
ATOM      3  C   UNL     1      11.249 -18.610  -8.594  1.00  0.00     0.000 C 
BRANCH   3   4
ATOM      4  C   UNL     1      12.063 -17.869  -7.510  1.00  0.00    -0.000 C 
BRANCH   4   5
ATOM      5  C   UNL     1      12.339 -16.402  -7.883  1.00  0.00    -0.000 C 
BRANCH   5   6
ATOM      6  C   UNL     1      11.514 -15.414  -7.041  1.00  0.00    -0.000 C 
BRANCH   6   7
ATOM      7  C   UNL     1      10.144 -15.103  -7.670  1.00  0.00    -0.000 C 
BRANCH   7   8
ATOM      8  C   UNL     1       8.986 -15.261  -6.671  1.00  0.00    -0.000 C 
BRANCH   8   9
ATOM      9  C   UNL     1       9.272 -16.311  -5.587  1.00  0.00    -0.000 C 
BRANCH   9  10
ATOM     10  C   UNL     1       8.708 -17.680  -5.987  1.00  0.00    -0.000 C 
BRANCH  10  11
ATOM     11  C   UNL     1       8.889 -18.702  -4.859  1.00  0.00    -0.003 C 
ATOM     12  C   UNL     1      10.302 -18.647  -4.287  1.00  0.00     0.004 C 
ENDBRANCH  10  11
ENDBRANCH   9  10
ENDBRANCH   8   9
ENDBRANCH   7   8
ENDBRANCH   6   7
ENDBRANCH   5   6
ENDBRANCH   4   5
ENDBRANCH   3   4
ENDBRANCH   2   3
ENDBRANCH   1   2
BRANCH   1  13
ATOM     13  C   UNL     1      11.095 -18.254 -12.526  1.00  0.00     0.000 C 
BRANCH  13  14
ATOM     14  C   UNL     1      11.541 -19.414 -13.426  1.00  0.00     0.000 C 
BRANCH  14  15
ATOM     15  C   UNL     1      11.060 -19.208 -14.867  1.00  0.00     0.000 C 
BRANCH  15  16
ATOM     16  C   UNL     1      12.185 -19.494 -15.869  1.00  0.00     0.000 C 
BRANCH  16  17
ATOM     17  C   UNL     1      13.564 -19.294 -15.225  1.00  0.00     0.000 C 
BRANCH  17  18
ATOM     18  C   UNL     1      14.231 -17.974 -15.674  1.00  0.00     0.000 C 
BRANCH  18  19
ATOM     19  C   UNL     1      13.994 -16.805 -14.699  1.00  0.00     0.000 C 
BRANCH  19  20
ATOM     20  C   UNL     1      14.998 -16.733 -13.528  1.00  0.00     0.006 C 
BRANCH  20  21
ATOM     21  C   UNL     1      14.345 -16.862 -12.140  1.00  0.00     0.053 C 
BRANCH  21  22
ATOM     22  C   UNL     1      14.734 -18.125 -11.435  1.00  0.00     0.041 C 
ATOM     23  O   UNL     1      15.011 -19.160 -12.097  1.00  0.00    -0.550 OA
ATOM     24  O   UNL     1      14.807 -18.154 -10.047  1.00  0.00    -0.550 OA
ENDBRANCH  21  22
ENDBRANCH  20  21
ENDBRANCH  19  20
ENDBRANCH  18  19
ENDBRANCH  17  18
ENDBRANCH  16  17
ENDBRANCH  15  16
ENDBRANCH  14  15
ENDBRANCH  13  14
ENDBRANCH   1  13
TORSDOF 20
ENDMDL
MODEL 9
REMARK VINA RESULT:    -4.272      2.849      6.442
REMARK INTER + INTRA:         -13.117
REMARK INTER:                  -9.800
REMARK INTRA:                  -3.317
REMARK UNBOUND:                -3.851
REMARK SMILES CCCCCCCCCCCCCCCCCCCCCC(=O)[O-]
REMARK SMILES IDX 12 1 11 2 10 3 9 4 8 5 7 6 6 7 5 8 4 9 3 10 2 11 1 12 13 13
REMARK SMILES IDX 14 14 15 15 16 16 17 17 18 18 19 19 20 20 21 21 22 22 23 23
REMARK SMILES IDX 24 24
REMARK H PARENT
REMARK Flexibility Score: inf
ROOT
ATOM      1  C   UNL     1      12.968 -18.814 -16.528  1.00  0.00     0.000 C 
ENDROOT
BRANCH   1   2
ATOM      2  C   UNL     1      14.324 -18.352 -15.965  1.00  0.00     0.000 C 
BRANCH   2   3
ATOM      3  C   UNL     1      14.295 -16.999 -15.227  1.00  0.00     0.000 C 
BRANCH   3   4
ATOM      4  C   UNL     1      15.313 -16.900 -14.071  1.00  0.00    -0.000 C 
BRANCH   4   5
ATOM      5  C   UNL     1      14.635 -16.900 -12.689  1.00  0.00    -0.000 C 
BRANCH   5   6
ATOM      6  C   UNL     1      14.791 -18.243 -11.956  1.00  0.00    -0.000 C 
BRANCH   6   7
ATOM      7  C   UNL     1      15.897 -19.123 -12.563  1.00  0.00    -0.000 C 
BRANCH   7   8
ATOM      8  C   UNL     1      15.630 -20.624 -12.371  1.00  0.00    -0.000 C 
BRANCH   8   9
ATOM      9  C   UNL     1      14.479 -21.143 -13.246  1.00  0.00    -0.000 C 
BRANCH   9  10
ATOM     10  C   UNL     1      14.920 -22.362 -14.065  1.00  0.00    -0.000 C 
BRANCH  10  11
ATOM     11  C   UNL     1      14.169 -23.623 -13.625  1.00  0.00    -0.003 C 
ATOM     12  C   UNL     1      12.667 -23.480 -13.857  1.00  0.00     0.004 C 
ENDBRANCH  10  11
ENDBRANCH   9  10
ENDBRANCH   8   9
ENDBRANCH   7   8
ENDBRANCH   6   7
ENDBRANCH   5   6
ENDBRANCH   4   5
ENDBRANCH   3   4
ENDBRANCH   2   3
ENDBRANCH   1   2
BRANCH   1  13
ATOM     13  C   UNL     1      12.532 -20.227 -16.093  1.00  0.00     0.000 C 
BRANCH  13  14
ATOM     14  C   UNL     1      11.487 -20.210 -14.968  1.00  0.00     0.000 C 
BRANCH  14  15
ATOM     15  C   UNL     1      10.979 -18.786 -14.711  1.00  0.00     0.000 C 
BRANCH  15  16
ATOM     16  C   UNL     1      11.291 -18.340 -13.277  1.00  0.00     0.000 C 
BRANCH  16  17
ATOM     17  C   UNL     1      11.351 -19.542 -12.325  1.00  0.00     0.000 C 
BRANCH  17  18
ATOM     18  C   UNL     1      10.852 -19.186 -10.906  1.00  0.00     0.000 C 
BRANCH  18  19
ATOM     19  C   UNL     1      11.334 -17.808 -10.414  1.00  0.00     0.000 C 
BRANCH  19  20
ATOM     20  C   UNL     1      11.506 -17.698  -8.884  1.00  0.00     0.006 C 
BRANCH  20  21
ATOM     21  C   UNL     1      11.554 -16.248  -8.366  1.00  0.00     0.053 C 
BRANCH  21  22
ATOM     22  C   UNL     1      12.949 -15.712  -8.279  1.00  0.00     0.041 C 
ATOM     23  O   UNL     1      13.160 -14.575  -7.778  1.00  0.00    -0.550 OA
ATOM     24  O   UNL     1      14.018 -16.473  -8.735  1.00  0.00    -0.550 OA
ENDBRANCH  21  22
ENDBRANCH  20  21
ENDBRANCH  19  20
ENDBRANCH  18  19
ENDBRANCH  17  18
ENDBRANCH  16  17
ENDBRANCH  15  16
ENDBRANCH  14  15
ENDBRANCH  13  14
ENDBRANCH   1  13
TORSDOF 20
ENDMDL
