MODEL 1
REMARK VINA RESULT:    -6.753      0.000      0.000
REMARK INTER + INTRA:         -10.215
REMARK INTER:                  -9.714
REMARK INTRA:                  -0.500
REMARK UNBOUND:                -0.500
REMARK SMILES O=c1c(O[C@H]2O[C@@H](CO)[C@H](O)[C@H](O)[C@@H]2O)c(-c2ccc(O)cc2)oc2cc(O)cc(O)c12
REMARK SMILES IDX 4 1 3 2 16 3 24 4 2 5 25 6 1 7 32 8 26 9 30 10 27 11 29 12
REMARK SMILES IDX 17 13 18 14 19 15 20 16 23 17 22 18 21 19 31 21 28 23 5 25
REMARK SMILES IDX 14 26 6 27 12 28 7 29 10 30 15 31 13 33 8 35 9 36 11 38
REMARK H PARENT 21 20 31 22 28 24 15 32 13 34 9 37 11 39
REMARK Flexibility Score: inf
ROOT
ATOM      1  O   UNL     1      -6.691 -19.088  -8.062  1.00  0.00    -0.454 OA
ENDROOT
BRANCH   1   2
ATOM      2  C   UNL     1      -7.833 -19.518  -7.370  1.00  0.00     0.214 A 
ATOM      3  C   UNL     1      -7.730 -20.576  -6.452  1.00  0.00     0.180 A 
ATOM      4  O   UNL     1      -8.800 -20.967  -5.773  1.00  0.00    -0.452 OA
ATOM      5  C   UNL     1      -9.084 -18.910  -7.569  1.00  0.00     0.239 A 
ATOM      6  C   UNL     1      -9.996 -20.407  -5.904  1.00  0.00     0.146 A 
ATOM      7  O   UNL     1      -9.205 -18.052  -8.481  1.00  0.00    -0.285 OA
ATOM      8  C   UNL     1     -10.193 -19.313  -6.788  1.00  0.00     0.111 A 
ATOM      9  C   UNL     1     -11.061 -20.920  -5.161  1.00  0.00     0.094 A 
ATOM     10  C   UNL     1     -11.488 -18.718  -6.852  1.00  0.00     0.134 A 
ATOM     11  C   UNL     1     -12.335 -20.370  -5.278  1.00  0.00     0.123 A 
ATOM     12  C   UNL     1     -12.544 -19.278  -6.124  1.00  0.00     0.093 A 
BRANCH   3  13
ATOM     13  C   UNL     1      -6.442 -21.253  -6.182  1.00  0.00     0.021 A 
ATOM     14  C   UNL     1      -6.017 -22.358  -6.943  1.00  0.00     0.016 A 
ATOM     15  C   UNL     1      -4.792 -22.974  -6.670  1.00  0.00     0.047 A 
ATOM     16  C   UNL     1      -3.984 -22.505  -5.630  1.00  0.00     0.115 A 
ATOM     17  C   UNL     1      -5.635 -20.801  -5.124  1.00  0.00     0.016 A 
ATOM     18  C   UNL     1      -4.410 -21.419  -4.855  1.00  0.00     0.047 A 
BRANCH  16  19
ATOM     19  O   UNL     1      -2.764 -23.125  -5.373  1.00  0.00    -0.508 OA
ATOM     20  H   UNL     1      -2.497 -23.986  -5.842  1.00  0.00     0.293 HD
ENDBRANCH  16  19
ENDBRANCH   3  13
BRANCH  10  21
ATOM     21  O   UNL     1     -11.780 -17.562  -7.585  1.00  0.00    -0.507 OA
ATOM     22  H   UNL     1     -11.398 -16.648  -7.393  1.00  0.00     0.293 HD
ENDBRANCH  10  21
BRANCH  11  23
ATOM     23  O   UNL     1     -13.387 -20.909  -4.541  1.00  0.00    -0.508 OA
ATOM     24  H   UNL     1     -14.337 -20.908  -4.894  1.00  0.00     0.293 HD
ENDBRANCH  11  23
ENDBRANCH   1   2
BRANCH   1  25
ATOM     25  C   UNL     1      -5.462 -18.744  -7.426  1.00  0.00     0.339 C 
ATOM     26  C   UNL     1      -5.323 -17.191  -7.426  1.00  0.00     0.214 C 
ATOM     27  O   UNL     1      -4.400 -19.379  -8.126  1.00  0.00    -0.332 OA
ATOM     28  C   UNL     1      -4.139 -16.738  -8.315  1.00  0.00     0.180 C 
ATOM     29  C   UNL     1      -3.145 -18.979  -7.605  1.00  0.00     0.179 C 
ATOM     30  C   UNL     1      -2.833 -17.504  -7.995  1.00  0.00     0.177 C 
BRANCH  26  31
ATOM     31  O   UNL     1      -5.212 -16.694  -6.113  1.00  0.00    -0.384 OA
ATOM     32  H   UNL     1      -5.944 -17.089  -5.572  1.00  0.00     0.211 HD
ENDBRANCH  26  31
BRANCH  28  33
ATOM     33  O   UNL     1      -3.955 -15.343  -8.286  1.00  0.00    -0.387 OA
ATOM     34  H   UNL     1      -4.512 -14.941  -9.001  1.00  0.00     0.211 HD
ENDBRANCH  28  33
BRANCH  29  35
ATOM     35  C   UNL     1      -2.067 -19.945  -8.115  1.00  0.00     0.191 C 
BRANCH  35  36
ATOM     36  O   UNL     1      -2.649 -21.033  -8.785  1.00  0.00    -0.394 OA
ATOM     37  H   UNL     1      -3.085 -20.677  -9.604  1.00  0.00     0.210 HD
ENDBRANCH  35  36
ENDBRANCH  29  35
BRANCH  30  38
ATOM     38  O   UNL     1      -2.136 -16.873  -6.950  1.00  0.00    -0.387 OA
ATOM     39  H   UNL     1      -2.263 -15.896  -7.069  1.00  0.00     0.211 HD
ENDBRANCH  30  38
ENDBRANCH   1  25
TORSDOF 11
ENDMDL
MODEL 2
REMARK VINA RESULT:    -6.690      1.799      2.840
REMARK INTER + INTRA:         -10.123
REMARK INTER:                  -9.126
REMARK INTRA:                  -0.997
REMARK UNBOUND:                -0.500
REMARK SMILES O=c1c(O[C@H]2O[C@@H](CO)[C@H](O)[C@H](O)[C@@H]2O)c(-c2ccc(O)cc2)oc2cc(O)cc(O)c12
REMARK SMILES IDX 4 1 3 2 16 3 24 4 2 5 25 6 1 7 32 8 26 9 30 10 27 11 29 12
REMARK SMILES IDX 17 13 18 14 19 15 20 16 23 17 22 18 21 19 31 21 28 23 5 25
REMARK SMILES IDX 14 26 6 27 12 28 7 29 10 30 15 31 13 33 8 35 9 36 11 38
REMARK H PARENT 21 20 31 22 28 24 15 32 13 34 9 37 11 39
REMARK Flexibility Score: inf
ROOT
ATOM      1  O   UNL     1      -6.691 -18.780  -7.783  1.00  0.00    -0.454 OA
ENDROOT
BRANCH   1   2
ATOM      2  C   UNL     1      -7.847 -19.274  -7.162  1.00  0.00     0.214 A 
ATOM      3  C   UNL     1      -7.733 -20.264  -6.172  1.00  0.00     0.180 A 
ATOM      4  O   UNL     1      -8.821 -20.714  -5.559  1.00  0.00    -0.452 OA
ATOM      5  C   UNL     1      -9.124 -18.796  -7.500  1.00  0.00     0.239 A 
ATOM      6  C   UNL     1     -10.045 -20.274  -5.824  1.00  0.00     0.146 A 
ATOM      7  O   UNL     1      -9.239 -18.005  -8.472  1.00  0.00    -0.285 OA
ATOM      8  C   UNL     1     -10.259 -19.255  -6.789  1.00  0.00     0.111 A 
ATOM      9  C   UNL     1     -11.123 -20.840  -5.139  1.00  0.00     0.094 A 
ATOM     10  C   UNL     1     -11.590 -18.785  -6.998  1.00  0.00     0.134 A 
ATOM     11  C   UNL     1     -12.424 -20.417  -5.395  1.00  0.00     0.123 A 
ATOM     12  C   UNL     1     -12.652 -19.398  -6.323  1.00  0.00     0.093 A 
BRANCH   3  13
ATOM     13  C   UNL     1      -6.420 -20.804  -5.755  1.00  0.00     0.021 A 
ATOM     14  C   UNL     1      -6.023 -22.114  -6.083  1.00  0.00     0.016 A 
ATOM     15  C   UNL     1      -4.774 -22.595  -5.682  1.00  0.00     0.047 A 
ATOM     16  C   UNL     1      -3.913 -21.783  -4.938  1.00  0.00     0.115 A 
ATOM     17  C   UNL     1      -5.558 -20.001  -4.989  1.00  0.00     0.016 A 
ATOM     18  C   UNL     1      -4.309 -20.486  -4.589  1.00  0.00     0.047 A 
BRANCH  16  19
ATOM     19  O   UNL     1      -2.669 -22.274  -4.550  1.00  0.00    -0.508 OA
ATOM     20  H   UNL     1      -2.046 -22.726  -5.212  1.00  0.00     0.293 HD
ENDBRANCH  16  19
ENDBRANCH   3  13
BRANCH  10  21
ATOM     21  O   UNL     1     -11.916 -17.705  -7.824  1.00  0.00    -0.507 OA
ATOM     22  H   UNL     1     -11.261 -17.005  -8.140  1.00  0.00     0.293 HD
ENDBRANCH  10  21
BRANCH  11  23
ATOM     23  O   UNL     1     -13.486 -21.008  -4.714  1.00  0.00    -0.508 OA
ATOM     24  H   UNL     1     -14.435 -20.954  -5.063  1.00  0.00     0.293 HD
ENDBRANCH  11  23
ENDBRANCH   1   2
BRANCH   1  25
ATOM     25  C   UNL     1      -6.246 -19.196  -9.073  1.00  0.00     0.339 C 
ATOM     26  C   UNL     1      -6.735 -20.656  -9.318  1.00  0.00     0.214 C 
ATOM     27  O   UNL     1      -4.829 -19.088  -9.116  1.00  0.00    -0.332 OA
ATOM     28  C   UNL     1      -5.539 -21.637  -9.400  1.00  0.00     0.180 C 
ATOM     29  C   UNL     1      -4.324 -19.597 -10.338  1.00  0.00     0.179 C 
ATOM     30  C   UNL     1      -4.441 -21.149 -10.377  1.00  0.00     0.177 C 
BRANCH  26  31
ATOM     31  O   UNL     1      -7.552 -20.730 -10.462  1.00  0.00    -0.384 OA
ATOM     32  H   UNL     1      -7.662 -21.687 -10.700  1.00  0.00     0.211 HD
ENDBRANCH  26  31
BRANCH  28  33
ATOM     33  O   UNL     1      -5.949 -22.954  -9.680  1.00  0.00    -0.387 OA
ATOM     34  H   UNL     1      -6.904 -23.043  -9.425  1.00  0.00     0.211 HD
ENDBRANCH  28  33
BRANCH  29  35
ATOM     35  C   UNL     1      -2.872 -19.130 -10.505  1.00  0.00     0.191 C 
BRANCH  35  36
ATOM     36  O   UNL     1      -2.155 -20.018 -11.325  1.00  0.00    -0.394 OA
ATOM     37  H   UNL     1      -2.759 -20.292 -12.063  1.00  0.00     0.210 HD
ENDBRANCH  35  36
ENDBRANCH  29  35
BRANCH  30  38
ATOM     38  O   UNL     1      -4.727 -21.572 -11.688  1.00  0.00    -0.387 OA
ATOM     39  H   UNL     1      -4.983 -20.762 -12.201  1.00  0.00     0.211 HD
ENDBRANCH  30  38
ENDBRANCH   1  25
TORSDOF 11
ENDMDL
MODEL 3
REMARK VINA RESULT:    -6.500      1.754      2.554
REMARK INTER + INTRA:          -9.850
REMARK INTER:                  -8.851
REMARK INTRA:                  -0.999
REMARK UNBOUND:                -0.500
REMARK SMILES O=c1c(O[C@H]2O[C@@H](CO)[C@H](O)[C@H](O)[C@@H]2O)c(-c2ccc(O)cc2)oc2cc(O)cc(O)c12
REMARK SMILES IDX 4 1 3 2 16 3 24 4 2 5 25 6 1 7 32 8 26 9 30 10 27 11 29 12
REMARK SMILES IDX 17 13 18 14 19 15 20 16 23 17 22 18 21 19 31 21 28 23 5 25
REMARK SMILES IDX 14 26 6 27 12 28 7 29 10 30 15 31 13 33 8 35 9 36 11 38
REMARK H PARENT 21 20 31 22 28 24 15 32 13 34 9 37 11 39
REMARK Flexibility Score: inf
ROOT
ATOM      1  O   UNL     1      -6.419 -18.943  -7.736  1.00  0.00    -0.454 OA
ENDROOT
BRANCH   1   2
ATOM      2  C   UNL     1      -7.622 -19.371  -7.157  1.00  0.00     0.214 A 
ATOM      3  C   UNL     1      -7.604 -20.405  -6.207  1.00  0.00     0.180 A 
ATOM      4  O   UNL     1      -8.736 -20.795  -5.634  1.00  0.00    -0.452 OA
ATOM      5  C   UNL     1      -8.852 -18.785  -7.501  1.00  0.00     0.239 A 
ATOM      6  C   UNL     1      -9.917 -20.253  -5.903  1.00  0.00     0.146 A 
ATOM      7  O   UNL     1      -8.886 -17.950  -8.441  1.00  0.00    -0.285 OA
ATOM      8  C   UNL     1     -10.033 -19.184  -6.830  1.00  0.00     0.111 A 
ATOM      9  C   UNL     1     -11.049 -20.763  -5.262  1.00  0.00     0.094 A 
ATOM     10  C   UNL     1     -11.320 -18.608  -7.044  1.00  0.00     0.134 A 
ATOM     11  C   UNL     1     -12.309 -20.233  -5.526  1.00  0.00     0.123 A 
ATOM     12  C   UNL     1     -12.440 -19.164  -6.416  1.00  0.00     0.093 A 
BRANCH   3  13
ATOM     13  C   UNL     1      -6.345 -21.059  -5.787  1.00  0.00     0.021 A 
ATOM     14  C   UNL     1      -5.423 -20.409  -4.945  1.00  0.00     0.016 A 
ATOM     15  C   UNL     1      -4.244 -21.054  -4.557  1.00  0.00     0.047 A 
ATOM     16  C   UNL     1      -3.965 -22.345  -5.015  1.00  0.00     0.115 A 
ATOM     17  C   UNL     1      -6.047 -22.348  -6.260  1.00  0.00     0.016 A 
ATOM     18  C   UNL     1      -4.867 -22.989  -5.870  1.00  0.00     0.047 A 
BRANCH  16  19
ATOM     19  O   UNL     1      -2.789 -22.976  -4.616  1.00  0.00    -0.508 OA
ATOM     20  H   UNL     1      -2.736 -23.501  -3.749  1.00  0.00     0.293 HD
ENDBRANCH  16  19
ENDBRANCH   3  13
BRANCH  10  21
ATOM     21  O   UNL     1     -11.546 -17.474  -7.832  1.00  0.00    -0.507 OA
ATOM     22  H   UNL     1     -12.125 -17.455  -8.658  1.00  0.00     0.293 HD
ENDBRANCH  10  21
BRANCH  11  23
ATOM     23  O   UNL     1     -13.427 -20.768  -4.889  1.00  0.00    -0.508 OA
ATOM     24  H   UNL     1     -13.601 -20.611  -3.904  1.00  0.00     0.293 HD
ENDBRANCH  11  23
ENDBRANCH   1   2
BRANCH   1  25
ATOM     25  C   UNL     1      -5.614 -19.758  -8.586  1.00  0.00     0.339 C 
ATOM     26  C   UNL     1      -4.117 -19.384  -8.357  1.00  0.00     0.214 C 
ATOM     27  O   UNL     1      -6.021 -19.544  -9.931  1.00  0.00    -0.332 OA
ATOM     28  C   UNL     1      -3.504 -18.740  -9.624  1.00  0.00     0.180 C 
ATOM     29  C   UNL     1      -5.178 -20.244 -10.828  1.00  0.00     0.179 C 
ATOM     30  C   UNL     1      -3.775 -19.573 -10.900  1.00  0.00     0.177 C 
BRANCH  26  31
ATOM     31  O   UNL     1      -3.378 -20.503  -7.928  1.00  0.00    -0.384 OA
ATOM     32  H   UNL     1      -3.974 -21.296  -7.958  1.00  0.00     0.211 HD
ENDBRANCH  26  31
BRANCH  28  33
ATOM     33  O   UNL     1      -2.137 -18.447  -9.463  1.00  0.00    -0.387 OA
ATOM     34  H   UNL     1      -2.046 -17.476  -9.284  1.00  0.00     0.211 HD
ENDBRANCH  28  33
BRANCH  29  35
ATOM     35  C   UNL     1      -5.855 -20.299 -12.204  1.00  0.00     0.191 C 
BRANCH  35  36
ATOM     36  O   UNL     1      -7.132 -19.715 -12.155  1.00  0.00    -0.394 OA
ATOM     37  H   UNL     1      -7.700 -20.191 -12.817  1.00  0.00     0.210 HD
ENDBRANCH  35  36
ENDBRANCH  29  35
BRANCH  30  38
ATOM     38  O   UNL     1      -2.784 -20.557 -11.064  1.00  0.00    -0.387 OA
ATOM     39  H   UNL     1      -3.255 -21.416 -11.223  1.00  0.00     0.211 HD
ENDBRANCH  30  38
ENDBRANCH   1  25
TORSDOF 11
ENDMDL
MODEL 4
REMARK VINA RESULT:    -6.434      2.041      2.954
REMARK INTER + INTRA:          -9.755
REMARK INTER:                  -8.788
REMARK INTRA:                  -0.967
REMARK UNBOUND:                -0.500
REMARK SMILES O=c1c(O[C@H]2O[C@@H](CO)[C@H](O)[C@H](O)[C@@H]2O)c(-c2ccc(O)cc2)oc2cc(O)cc(O)c12
REMARK SMILES IDX 4 1 3 2 16 3 24 4 2 5 25 6 1 7 32 8 26 9 30 10 27 11 29 12
REMARK SMILES IDX 17 13 18 14 19 15 20 16 23 17 22 18 21 19 31 21 28 23 5 25
REMARK SMILES IDX 14 26 6 27 12 28 7 29 10 30 15 31 13 33 8 35 9 36 11 38
REMARK H PARENT 21 20 31 22 28 24 15 32 13 34 9 37 11 39
REMARK Flexibility Score: inf
ROOT
ATOM      1  O   UNL     1      -6.972 -18.062  -7.986  1.00  0.00    -0.454 OA
ENDROOT
BRANCH   1   2
ATOM      2  C   UNL     1      -8.192 -18.747  -7.896  1.00  0.00     0.214 A 
ATOM      3  C   UNL     1      -8.300 -20.042  -8.430  1.00  0.00     0.180 A 
ATOM      4  O   UNL     1      -9.443 -20.708  -8.322  1.00  0.00    -0.452 OA
ATOM      5  C   UNL     1      -9.315 -18.172  -7.278  1.00  0.00     0.239 A 
ATOM      6  C   UNL     1     -10.521 -20.219  -7.723  1.00  0.00     0.146 A 
ATOM      7  O   UNL     1      -9.259 -16.968  -6.916  1.00  0.00    -0.285 OA
ATOM      8  C   UNL     1     -10.502 -18.929  -7.130  1.00  0.00     0.111 A 
ATOM      9  C   UNL     1     -11.682 -20.996  -7.695  1.00  0.00     0.094 A 
ATOM     10  C   UNL     1     -11.674 -18.474  -6.456  1.00  0.00     0.134 A 
ATOM     11  C   UNL     1     -12.839 -20.515  -7.088  1.00  0.00     0.123 A 
ATOM     12  C   UNL     1     -12.832 -19.259  -6.477  1.00  0.00     0.093 A 
BRANCH   3  13
ATOM     13  C   UNL     1      -7.155 -20.717  -9.082  1.00  0.00     0.021 A 
ATOM     14  C   UNL     1      -6.767 -20.403 -10.398  1.00  0.00     0.016 A 
ATOM     15  C   UNL     1      -5.677 -21.051 -10.986  1.00  0.00     0.047 A 
ATOM     16  C   UNL     1      -4.970 -22.025 -10.276  1.00  0.00     0.115 A 
ATOM     17  C   UNL     1      -6.453 -21.713  -8.382  1.00  0.00     0.016 A 
ATOM     18  C   UNL     1      -5.363 -22.358  -8.973  1.00  0.00     0.047 A 
BRANCH  16  19
ATOM     19  O   UNL     1      -3.883 -22.658 -10.873  1.00  0.00    -0.508 OA
ATOM     20  H   UNL     1      -2.969 -22.217 -10.914  1.00  0.00     0.293 HD
ENDBRANCH  16  19
ENDBRANCH   3  13
BRANCH  10  21
ATOM     21  O   UNL     1     -11.742 -17.281  -5.728  1.00  0.00    -0.507 OA
ATOM     22  H   UNL     1     -11.100 -17.019  -4.995  1.00  0.00     0.293 HD
ENDBRANCH  10  21
BRANCH  11  23
ATOM     23  O   UNL     1     -13.991 -21.299  -7.087  1.00  0.00    -0.508 OA
ATOM     24  H   UNL     1     -14.531 -21.449  -7.931  1.00  0.00     0.293 HD
ENDBRANCH  11  23
ENDBRANCH   1   2
BRANCH   1  25
ATOM     25  C   UNL     1      -5.982 -18.068  -6.959  1.00  0.00     0.339 C 
ATOM     26  C   UNL     1      -4.617 -17.648  -7.586  1.00  0.00     0.214 C 
ATOM     27  O   UNL     1      -5.935 -19.368  -6.388  1.00  0.00    -0.332 OA
ATOM     28  C   UNL     1      -3.605 -18.819  -7.551  1.00  0.00     0.180 C 
ATOM     29  C   UNL     1      -4.887 -19.461  -5.439  1.00  0.00     0.179 C 
ATOM     30  C   UNL     1      -3.501 -19.468  -6.149  1.00  0.00     0.177 C 
BRANCH  26  31
ATOM     31  O   UNL     1      -4.107 -16.495  -6.959  1.00  0.00    -0.384 OA
ATOM     32  H   UNL     1      -4.869 -15.894  -6.753  1.00  0.00     0.211 HD
ENDBRANCH  26  31
BRANCH  28  33
ATOM     33  O   UNL     1      -2.345 -18.449  -8.057  1.00  0.00    -0.387 OA
ATOM     34  H   UNL     1      -1.656 -19.006  -7.612  1.00  0.00     0.211 HD
ENDBRANCH  28  33
BRANCH  29  35
ATOM     35  C   UNL     1      -5.099 -20.723  -4.590  1.00  0.00     0.191 C 
BRANCH  35  36
ATOM     36  O   UNL     1      -4.267 -20.707  -3.459  1.00  0.00    -0.394 OA
ATOM     37  H   UNL     1      -4.839 -20.503  -2.674  1.00  0.00     0.210 HD
ENDBRANCH  35  36
ENDBRANCH  29  35
BRANCH  30  38
ATOM     38  O   UNL     1      -2.559 -18.784  -5.360  1.00  0.00    -0.387 OA
ATOM     39  H   UNL     1      -2.971 -18.659  -4.465  1.00  0.00     0.211 HD
ENDBRANCH  30  38
ENDBRANCH   1  25
TORSDOF 11
ENDMDL
MODEL 5
REMARK VINA RESULT:    -6.271      1.307      2.177
REMARK INTER + INTRA:          -9.520
REMARK INTER:                  -8.370
REMARK INTRA:                  -1.151
REMARK UNBOUND:                -0.500
REMARK SMILES O=c1c(O[C@H]2O[C@@H](CO)[C@H](O)[C@H](O)[C@@H]2O)c(-c2ccc(O)cc2)oc2cc(O)cc(O)c12
REMARK SMILES IDX 4 1 3 2 16 3 24 4 2 5 25 6 1 7 32 8 26 9 30 10 27 11 29 12
REMARK SMILES IDX 17 13 18 14 19 15 20 16 23 17 22 18 21 19 31 21 28 23 5 25
REMARK SMILES IDX 14 26 6 27 12 28 7 29 10 30 15 31 13 33 8 35 9 36 11 38
REMARK H PARENT 21 20 31 22 28 24 15 32 13 34 9 37 11 39
REMARK Flexibility Score: inf
ROOT
ATOM      1  O   UNL     1      -5.405 -20.517  -8.298  1.00  0.00    -0.454 OA
ENDROOT
BRANCH   1   2
ATOM      2  C   UNL     1      -6.656 -20.521  -7.663  1.00  0.00     0.214 A 
ATOM      3  C   UNL     1      -6.928 -21.479  -6.673  1.00  0.00     0.180 A 
ATOM      4  O   UNL     1      -8.098 -21.469  -6.048  1.00  0.00    -0.452 OA
ATOM      5  C   UNL     1      -7.648 -19.582  -7.990  1.00  0.00     0.239 A 
ATOM      6  C   UNL     1      -9.056 -20.586  -6.301  1.00  0.00     0.146 A 
ATOM      7  O   UNL     1      -7.456 -18.807  -8.963  1.00  0.00    -0.285 OA
ATOM      8  C   UNL     1      -8.865 -19.563  -7.266  1.00  0.00     0.111 A 
ATOM      9  C   UNL     1     -10.262 -20.688  -5.604  1.00  0.00     0.094 A 
ATOM     10  C   UNL     1      -9.909 -18.610  -7.463  1.00  0.00     0.134 A 
ATOM     11  C   UNL     1     -11.297 -19.790  -5.848  1.00  0.00     0.123 A 
ATOM     12  C   UNL     1     -11.119 -18.761  -6.776  1.00  0.00     0.093 A 
BRANCH   3  13
ATOM     13  C   UNL     1      -5.925 -22.489  -6.267  1.00  0.00     0.021 A 
ATOM     14  C   UNL     1      -4.977 -22.224  -5.261  1.00  0.00     0.016 A 
ATOM     15  C   UNL     1      -4.047 -23.200  -4.892  1.00  0.00     0.047 A 
ATOM     16  C   UNL     1      -4.041 -24.444  -5.530  1.00  0.00     0.115 A 
ATOM     17  C   UNL     1      -5.899 -23.734  -6.918  1.00  0.00     0.016 A 
ATOM     18  C   UNL     1      -4.967 -24.707  -6.547  1.00  0.00     0.047 A 
BRANCH  16  19
ATOM     19  O   UNL     1      -3.112 -25.408  -5.148  1.00  0.00    -0.508 OA
ATOM     20  H   UNL     1      -2.748 -26.086  -5.811  1.00  0.00     0.293 HD
ENDBRANCH  16  19
ENDBRANCH   3  13
BRANCH  10  21
ATOM     21  O   UNL     1      -9.796 -17.487  -8.289  1.00  0.00    -0.507 OA
ATOM     22  H   UNL     1      -9.695 -16.539  -7.958  1.00  0.00     0.293 HD
ENDBRANCH  10  21
BRANCH  11  23
ATOM     23  O   UNL     1     -12.499 -19.921  -5.155  1.00  0.00    -0.508 OA
ATOM     24  H   UNL     1     -13.023 -20.787  -5.162  1.00  0.00     0.293 HD
ENDBRANCH  11  23
ENDBRANCH   1   2
BRANCH   1  25
ATOM     25  C   UNL     1      -4.341 -19.635  -7.948  1.00  0.00     0.339 C 
ATOM     26  C   UNL     1      -4.741 -18.869  -6.649  1.00  0.00     0.214 C 
ATOM     27  O   UNL     1      -4.108 -18.756  -9.041  1.00  0.00    -0.332 OA
ATOM     28  C   UNL     1      -4.921 -17.356  -6.928  1.00  0.00     0.180 C 
ATOM     29  C   UNL     1      -3.136 -17.782  -8.703  1.00  0.00     0.179 C 
ATOM     30  C   UNL     1      -3.720 -16.750  -7.694  1.00  0.00     0.177 C 
BRANCH  26  31
ATOM     31  O   UNL     1      -3.811 -19.104  -5.618  1.00  0.00    -0.384 OA
ATOM     32  H   UNL     1      -4.313 -19.387  -4.811  1.00  0.00     0.211 HD
ENDBRANCH  26  31
BRANCH  28  33
ATOM     33  O   UNL     1      -5.224 -16.633  -5.760  1.00  0.00    -0.387 OA
ATOM     34  H   UNL     1      -4.449 -16.697  -5.145  1.00  0.00     0.211 HD
ENDBRANCH  28  33
BRANCH  29  35
ATOM     35  C   UNL     1      -2.645 -17.106  -9.990  1.00  0.00     0.191 C 
BRANCH  35  36
ATOM     36  O   UNL     1      -2.589 -15.711  -9.830  1.00  0.00    -0.394 OA
ATOM     37  H   UNL     1      -1.654 -15.479  -9.591  1.00  0.00     0.210 HD
ENDBRANCH  35  36
ENDBRANCH  29  35
BRANCH  30  38
ATOM     38  O   UNL     1      -2.718 -16.345  -6.794  1.00  0.00    -0.387 OA
ATOM     39  H   UNL     1      -2.233 -15.593  -7.224  1.00  0.00     0.211 HD
ENDBRANCH  30  38
ENDBRANCH   1  25
TORSDOF 11
ENDMDL
MODEL 6
REMARK VINA RESULT:    -6.189      2.439      6.857
REMARK INTER + INTRA:          -9.403
REMARK INTER:                  -8.032
REMARK INTRA:                  -1.370
REMARK UNBOUND:                -0.500
REMARK SMILES O=c1c(O[C@H]2O[C@@H](CO)[C@H](O)[C@H](O)[C@@H]2O)c(-c2ccc(O)cc2)oc2cc(O)cc(O)c12
REMARK SMILES IDX 4 1 3 2 16 3 24 4 2 5 25 6 1 7 32 8 26 9 30 10 27 11 29 12
REMARK SMILES IDX 17 13 18 14 19 15 20 16 23 17 22 18 21 19 31 21 28 23 5 25
REMARK SMILES IDX 14 26 6 27 12 28 7 29 10 30 15 31 13 33 8 35 9 36 11 38
REMARK H PARENT 21 20 31 22 28 24 15 32 13 34 9 37 11 39
REMARK Flexibility Score: inf
ROOT
ATOM      1  O   UNL     1      -5.421 -22.019  -7.334  1.00  0.00    -0.454 OA
ENDROOT
BRANCH   1   2
ATOM      2  C   UNL     1      -4.921 -22.388  -6.077  1.00  0.00     0.214 A 
ATOM      3  C   UNL     1      -4.225 -21.443  -5.305  1.00  0.00     0.180 A 
ATOM      4  O   UNL     1      -3.775 -21.777  -4.102  1.00  0.00    -0.452 OA
ATOM      5  C   UNL     1      -5.103 -23.683  -5.565  1.00  0.00     0.239 A 
ATOM      6  C   UNL     1      -3.947 -22.977  -3.563  1.00  0.00     0.146 A 
ATOM      7  O   UNL     1      -5.611 -24.564  -6.306  1.00  0.00    -0.285 OA
ATOM      8  C   UNL     1      -4.660 -23.990  -4.256  1.00  0.00     0.111 A 
ATOM      9  C   UNL     1      -3.403 -23.229  -2.301  1.00  0.00     0.094 A 
ATOM     10  C   UNL     1      -4.857 -25.246  -3.609  1.00  0.00     0.134 A 
ATOM     11  C   UNL     1      -3.549 -24.479  -1.705  1.00  0.00     0.123 A 
ATOM     12  C   UNL     1      -4.269 -25.480  -2.360  1.00  0.00     0.093 A 
BRANCH   3  13
ATOM     13  C   UNL     1      -4.008 -20.057  -5.774  1.00  0.00     0.021 A 
ATOM     14  C   UNL     1      -4.914 -19.024  -5.467  1.00  0.00     0.016 A 
ATOM     15  C   UNL     1      -4.680 -17.722  -5.918  1.00  0.00     0.047 A 
ATOM     16  C   UNL     1      -3.549 -17.437  -6.689  1.00  0.00     0.115 A 
ATOM     17  C   UNL     1      -2.886 -19.766  -6.568  1.00  0.00     0.016 A 
ATOM     18  C   UNL     1      -2.655 -18.463  -7.017  1.00  0.00     0.047 A 
BRANCH  16  19
ATOM     19  O   UNL     1      -3.326 -16.133  -7.126  1.00  0.00    -0.508 OA
ATOM     20  H   UNL     1      -3.212 -15.916  -8.112  1.00  0.00     0.293 HD
ENDBRANCH  16  19
ENDBRANCH   3  13
BRANCH  10  21
ATOM     21  O   UNL     1      -5.646 -26.278  -4.129  1.00  0.00    -0.507 OA
ATOM     22  H   UNL     1      -5.353 -26.913  -4.857  1.00  0.00     0.293 HD
ENDBRANCH  10  21
BRANCH  11  23
ATOM     23  O   UNL     1      -2.983 -24.713  -0.453  1.00  0.00    -0.508 OA
ATOM     24  H   UNL     1      -3.490 -25.204   0.274  1.00  0.00     0.293 HD
ENDBRANCH  11  23
ENDBRANCH   1   2
BRANCH   1  25
ATOM     25  C   UNL     1      -6.790 -21.708  -7.582  1.00  0.00     0.339 C 
ATOM     26  C   UNL     1      -6.860 -20.679  -8.752  1.00  0.00     0.214 C 
ATOM     27  O   UNL     1      -7.360 -21.199  -6.384  1.00  0.00    -0.332 OA
ATOM     28  C   UNL     1      -7.402 -19.314  -8.261  1.00  0.00     0.180 C 
ATOM     29  C   UNL     1      -8.691 -20.767  -6.605  1.00  0.00     0.179 C 
ATOM     30  C   UNL     1      -8.710 -19.457  -7.447  1.00  0.00     0.177 C 
BRANCH  26  31
ATOM     31  O   UNL     1      -7.614 -21.186  -9.827  1.00  0.00    -0.384 OA
ATOM     32  H   UNL     1      -8.483 -20.708  -9.845  1.00  0.00     0.211 HD
ENDBRANCH  26  31
BRANCH  28  33
ATOM     33  O   UNL     1      -7.530 -18.384  -9.310  1.00  0.00    -0.387 OA
ATOM     34  H   UNL     1      -8.406 -17.929  -9.217  1.00  0.00     0.211 HD
ENDBRANCH  28  33
BRANCH  29  35
ATOM     35  C   UNL     1      -9.384 -20.583  -5.248  1.00  0.00     0.191 C 
BRANCH  35  36
ATOM     36  O   UNL     1     -10.758 -20.345  -5.418  1.00  0.00    -0.394 OA
ATOM     37  H   UNL     1     -10.862 -19.398  -5.696  1.00  0.00     0.210 HD
ENDBRANCH  35  36
ENDBRANCH  29  35
BRANCH  30  38
ATOM     38  O   UNL     1      -9.825 -19.458  -8.304  1.00  0.00    -0.387 OA
ATOM     39  H   UNL     1     -10.510 -20.041  -7.884  1.00  0.00     0.211 HD
ENDBRANCH  30  38
ENDBRANCH   1  25
TORSDOF 11
ENDMDL
MODEL 7
REMARK VINA RESULT:    -5.918      2.803      6.960
REMARK INTER + INTRA:          -9.012
REMARK INTER:                  -8.759
REMARK INTRA:                  -0.254
REMARK UNBOUND:                -0.500
REMARK SMILES O=c1c(O[C@H]2O[C@@H](CO)[C@H](O)[C@H](O)[C@@H]2O)c(-c2ccc(O)cc2)oc2cc(O)cc(O)c12
REMARK SMILES IDX 4 1 3 2 16 3 24 4 2 5 25 6 1 7 32 8 26 9 30 10 27 11 29 12
REMARK SMILES IDX 17 13 18 14 19 15 20 16 23 17 22 18 21 19 31 21 28 23 5 25
REMARK SMILES IDX 14 26 6 27 12 28 7 29 10 30 15 31 13 33 8 35 9 36 11 38
REMARK H PARENT 21 20 31 22 28 24 15 32 13 34 9 37 11 39
REMARK Flexibility Score: inf
ROOT
ATOM      1  O   UNL     1      -8.415 -19.960  -7.147  1.00  0.00    -0.454 OA
ENDROOT
BRANCH   1   2
ATOM      2  C   UNL     1      -7.537 -20.447  -8.125  1.00  0.00     0.214 A 
ATOM      3  C   UNL     1      -6.151 -20.299  -7.948  1.00  0.00     0.180 A 
ATOM      4  O   UNL     1      -5.314 -20.783  -8.856  1.00  0.00    -0.452 OA
ATOM      5  C   UNL     1      -8.009 -21.089  -9.282  1.00  0.00     0.239 A 
ATOM      6  C   UNL     1      -5.710 -21.422  -9.950  1.00  0.00     0.146 A 
ATOM      7  O   UNL     1      -9.247 -21.109  -9.504  1.00  0.00    -0.285 OA
ATOM      8  C   UNL     1      -7.089 -21.644 -10.203  1.00  0.00     0.111 A 
ATOM      9  C   UNL     1      -4.741 -21.864 -10.854  1.00  0.00     0.094 A 
ATOM     10  C   UNL     1      -7.454 -22.379 -11.370  1.00  0.00     0.134 A 
ATOM     11  C   UNL     1      -5.113 -22.526 -12.021  1.00  0.00     0.123 A 
ATOM     12  C   UNL     1      -6.464 -22.777 -12.276  1.00  0.00     0.093 A 
BRANCH   3  13
ATOM     13  C   UNL     1      -5.583 -19.646  -6.747  1.00  0.00     0.021 A 
ATOM     14  C   UNL     1      -5.404 -20.349  -5.541  1.00  0.00     0.016 A 
ATOM     15  C   UNL     1      -4.858 -19.710  -4.425  1.00  0.00     0.047 A 
ATOM     16  C   UNL     1      -4.495 -18.361  -4.494  1.00  0.00     0.115 A 
ATOM     17  C   UNL     1      -5.236 -18.286  -6.802  1.00  0.00     0.016 A 
ATOM     18  C   UNL     1      -4.689 -17.649  -5.684  1.00  0.00     0.047 A 
BRANCH  16  19
ATOM     19  O   UNL     1      -3.947 -17.739  -3.375  1.00  0.00    -0.508 OA
ATOM     20  H   UNL     1      -3.832 -16.731  -3.331  1.00  0.00     0.293 HD
ENDBRANCH  16  19
ENDBRANCH   3  13
BRANCH  10  21
ATOM     21  O   UNL     1      -8.764 -22.772 -11.666  1.00  0.00    -0.507 OA
ATOM     22  H   UNL     1      -9.116 -23.713 -11.572  1.00  0.00     0.293 HD
ENDBRANCH  10  21
BRANCH  11  23
ATOM     23  O   UNL     1      -4.132 -22.942 -12.918  1.00  0.00    -0.508 OA
ATOM     24  H   UNL     1      -4.371 -23.403 -13.788  1.00  0.00     0.293 HD
ENDBRANCH  11  23
ENDBRANCH   1   2
BRANCH   1  25
ATOM     25  C   UNL     1      -9.776 -20.370  -7.028  1.00  0.00     0.339 C 
ATOM     26  C   UNL     1     -10.687 -19.216  -7.549  1.00  0.00     0.214 C 
ATOM     27  O   UNL     1     -10.034 -20.687  -5.667  1.00  0.00    -0.332 OA
ATOM     28  C   UNL     1     -11.536 -18.617  -6.401  1.00  0.00     0.180 C 
ATOM     29  C   UNL     1     -11.404 -20.991  -5.474  1.00  0.00     0.179 C 
ATOM     30  C   UNL     1     -12.274 -19.704  -5.582  1.00  0.00     0.177 C 
BRANCH  26  31
ATOM     31  O   UNL     1     -11.489 -19.650  -8.622  1.00  0.00    -0.384 OA
ATOM     32  H   UNL     1     -10.961 -19.557  -9.457  1.00  0.00     0.211 HD
ENDBRANCH  26  31
BRANCH  28  33
ATOM     33  O   UNL     1     -12.411 -17.612  -6.855  1.00  0.00    -0.387 OA
ATOM     34  H   UNL     1     -11.866 -16.870  -7.224  1.00  0.00     0.211 HD
ENDBRANCH  28  33
BRANCH  29  35
ATOM     35  C   UNL     1     -11.570 -21.678  -4.111  1.00  0.00     0.191 C 
BRANCH  35  36
ATOM     36  O   UNL     1     -10.817 -22.863  -4.055  1.00  0.00    -0.394 OA
ATOM     37  H   UNL     1     -10.932 -23.327  -4.925  1.00  0.00     0.210 HD
ENDBRANCH  35  36
ENDBRANCH  29  35
BRANCH  30  38
ATOM     38  O   UNL     1     -13.510 -20.013  -6.177  1.00  0.00    -0.387 OA
ATOM     39  H   UNL     1     -13.457 -19.714  -7.122  1.00  0.00     0.211 HD
ENDBRANCH  30  38
ENDBRANCH   1  25
TORSDOF 11
ENDMDL
MODEL 8
REMARK VINA RESULT:    -5.877      3.108      7.072
REMARK INTER + INTRA:          -8.955
REMARK INTER:                  -7.961
REMARK INTRA:                  -0.993
REMARK UNBOUND:                -0.500
REMARK SMILES O=c1c(O[C@H]2O[C@@H](CO)[C@H](O)[C@H](O)[C@@H]2O)c(-c2ccc(O)cc2)oc2cc(O)cc(O)c12
REMARK SMILES IDX 4 1 3 2 16 3 24 4 2 5 25 6 1 7 32 8 26 9 30 10 27 11 29 12
REMARK SMILES IDX 17 13 18 14 19 15 20 16 23 17 22 18 21 19 31 21 28 23 5 25
REMARK SMILES IDX 14 26 6 27 12 28 7 29 10 30 15 31 13 33 8 35 9 36 11 38
REMARK H PARENT 21 20 31 22 28 24 15 32 13 34 9 37 11 39
REMARK Flexibility Score: inf
ROOT
ATOM      1  O   UNL     1      -4.528 -22.825  -6.669  1.00  0.00    -0.454 OA
ENDROOT
BRANCH   1   2
ATOM      2  C   UNL     1      -4.375 -23.044  -5.292  1.00  0.00     0.214 A 
ATOM      3  C   UNL     1      -4.074 -21.964  -4.447  1.00  0.00     0.180 A 
ATOM      4  O   UNL     1      -3.958 -22.160  -3.140  1.00  0.00    -0.452 OA
ATOM      5  C   UNL     1      -4.522 -24.324  -4.732  1.00  0.00     0.239 A 
ATOM      6  C   UNL     1      -4.116 -23.343  -2.561  1.00  0.00     0.146 A 
ATOM      7  O   UNL     1      -4.664 -25.311  -5.499  1.00  0.00    -0.285 OA
ATOM      8  C   UNL     1      -4.448 -24.490  -3.328  1.00  0.00     0.111 A 
ATOM      9  C   UNL     1      -3.940 -23.440  -1.178  1.00  0.00     0.094 A 
ATOM     10  C   UNL     1      -4.654 -25.727  -2.647  1.00  0.00     0.134 A 
ATOM     11  C   UNL     1      -4.083 -24.666  -0.532  1.00  0.00     0.123 A 
ATOM     12  C   UNL     1      -4.434 -25.801  -1.267  1.00  0.00     0.093 A 
BRANCH   3  13
ATOM     13  C   UNL     1      -3.919 -20.586  -4.965  1.00  0.00     0.021 A 
ATOM     14  C   UNL     1      -2.922 -20.259  -5.903  1.00  0.00     0.016 A 
ATOM     15  C   UNL     1      -2.803 -18.951  -6.381  1.00  0.00     0.047 A 
ATOM     16  C   UNL     1      -3.667 -17.953  -5.921  1.00  0.00     0.115 A 
ATOM     17  C   UNL     1      -4.770 -19.573  -4.492  1.00  0.00     0.016 A 
ATOM     18  C   UNL     1      -4.648 -18.265  -4.972  1.00  0.00     0.047 A 
BRANCH  16  19
ATOM     19  O   UNL     1      -3.541 -16.655  -6.411  1.00  0.00    -0.508 OA
ATOM     20  H   UNL     1      -2.887 -16.429  -7.154  1.00  0.00     0.293 HD
ENDBRANCH  16  19
ENDBRANCH   3  13
BRANCH  10  21
ATOM     21  O   UNL     1      -5.105 -26.895  -3.270  1.00  0.00    -0.507 OA
ATOM     22  H   UNL     1      -4.614 -27.380  -4.007  1.00  0.00     0.293 HD
ENDBRANCH  10  21
BRANCH  11  23
ATOM     23  O   UNL     1      -3.885 -24.744   0.845  1.00  0.00    -0.508 OA
ATOM     24  H   UNL     1      -4.607 -24.470   1.500  1.00  0.00     0.293 HD
ENDBRANCH  11  23
ENDBRANCH   1   2
BRANCH   1  25
ATOM     25  C   UNL     1      -5.787 -22.616  -7.304  1.00  0.00     0.339 C 
ATOM     26  C   UNL     1      -5.628 -22.906  -8.828  1.00  0.00     0.214 C 
ATOM     27  O   UNL     1      -6.202 -21.280  -7.051  1.00  0.00    -0.332 OA
ATOM     28  C   UNL     1      -5.823 -21.617  -9.663  1.00  0.00     0.180 C 
ATOM     29  C   UNL     1      -7.395 -20.984  -7.755  1.00  0.00     0.179 C 
ATOM     30  C   UNL     1      -7.116 -20.856  -9.281  1.00  0.00     0.177 C 
BRANCH  26  31
ATOM     31  O   UNL     1      -6.497 -23.934  -9.240  1.00  0.00    -0.384 OA
ATOM     32  H   UNL     1      -6.089 -24.802  -8.983  1.00  0.00     0.211 HD
ENDBRANCH  26  31
BRANCH  28  33
ATOM     33  O   UNL     1      -5.742 -21.863 -11.046  1.00  0.00    -0.387 OA
ATOM     34  H   UNL     1      -6.242 -21.148 -11.519  1.00  0.00     0.211 HD
ENDBRANCH  28  33
BRANCH  29  35
ATOM     35  C   UNL     1      -8.004 -19.699  -7.178  1.00  0.00     0.191 C 
BRANCH  35  36
ATOM     36  O   UNL     1      -8.761 -19.024  -8.151  1.00  0.00    -0.394 OA
ATOM     37  H   UNL     1      -9.705 -19.024  -7.844  1.00  0.00     0.210 HD
ENDBRANCH  35  36
ENDBRANCH  29  35
BRANCH  30  38
ATOM     38  O   UNL     1      -8.211 -21.354 -10.009  1.00  0.00    -0.387 OA
ATOM     39  H   UNL     1      -9.022 -20.907  -9.650  1.00  0.00     0.211 HD
ENDBRANCH  30  38
ENDBRANCH   1  25
TORSDOF 11
ENDMDL
MODEL 9
REMARK VINA RESULT:    -5.817      1.766      4.883
REMARK INTER + INTRA:          -8.868
REMARK INTER:                  -7.598
REMARK INTRA:                  -1.271
REMARK UNBOUND:                -0.500
REMARK SMILES O=c1c(O[C@H]2O[C@@H](CO)[C@H](O)[C@H](O)[C@@H]2O)c(-c2ccc(O)cc2)oc2cc(O)cc(O)c12
REMARK SMILES IDX 4 1 3 2 16 3 24 4 2 5 25 6 1 7 32 8 26 9 30 10 27 11 29 12
REMARK SMILES IDX 17 13 18 14 19 15 20 16 23 17 22 18 21 19 31 21 28 23 5 25
REMARK SMILES IDX 14 26 6 27 12 28 7 29 10 30 15 31 13 33 8 35 9 36 11 38
REMARK H PARENT 21 20 31 22 28 24 15 32 13 34 9 37 11 39
REMARK Flexibility Score: inf
ROOT
ATOM      1  O   UNL     1      -6.202 -21.104  -5.957  1.00  0.00    -0.454 OA
ENDROOT
BRANCH   1   2
ATOM      2  C   UNL     1      -7.300 -20.335  -6.367  1.00  0.00     0.214 A 
ATOM      3  C   UNL     1      -7.089 -19.183  -7.142  1.00  0.00     0.180 A 
ATOM      4  O   UNL     1      -8.126 -18.468  -7.559  1.00  0.00    -0.452 OA
ATOM      5  C   UNL     1      -8.615 -20.693  -6.026  1.00  0.00     0.239 A 
ATOM      6  C   UNL     1      -9.387 -18.780  -7.287  1.00  0.00     0.146 A 
ATOM      7  O   UNL     1      -8.799 -21.647  -5.228  1.00  0.00    -0.285 OA
ATOM      8  C   UNL     1      -9.702 -19.941  -6.533  1.00  0.00     0.111 A 
ATOM      9  C   UNL     1     -10.400 -17.937  -7.751  1.00  0.00     0.094 A 
ATOM     10  C   UNL     1     -11.077 -20.254  -6.312  1.00  0.00     0.134 A 
ATOM     11  C   UNL     1     -11.735 -18.221  -7.477  1.00  0.00     0.123 A 
ATOM     12  C   UNL     1     -12.067 -19.371  -6.758  1.00  0.00     0.093 A 
BRANCH   3  13
ATOM     13  C   UNL     1      -5.733 -18.754  -7.551  1.00  0.00     0.021 A 
ATOM     14  C   UNL     1      -4.959 -17.894  -6.750  1.00  0.00     0.016 A 
ATOM     15  C   UNL     1      -3.677 -17.511  -7.157  1.00  0.00     0.047 A 
ATOM     16  C   UNL     1      -3.159 -17.970  -8.372  1.00  0.00     0.115 A 
ATOM     17  C   UNL     1      -5.213 -19.194  -8.780  1.00  0.00     0.016 A 
ATOM     18  C   UNL     1      -3.931 -18.809  -9.185  1.00  0.00     0.047 A 
BRANCH  16  19
ATOM     19  O   UNL     1      -1.879 -17.585  -8.762  1.00  0.00    -0.508 OA
ATOM     20  H   UNL     1      -1.057 -18.108  -8.477  1.00  0.00     0.293 HD
ENDBRANCH  16  19
ENDBRANCH   3  13
BRANCH  10  21
ATOM     21  O   UNL     1     -11.520 -21.430  -5.697  1.00  0.00    -0.507 OA
ATOM     22  H   UNL     1     -10.920 -22.187  -5.407  1.00  0.00     0.293 HD
ENDBRANCH  10  21
BRANCH  11  23
ATOM     23  O   UNL     1     -12.729 -17.357  -7.933  1.00  0.00    -0.508 OA
ATOM     24  H   UNL     1     -13.023 -17.353  -8.903  1.00  0.00     0.293 HD
ENDBRANCH  11  23
ENDBRANCH   1   2
BRANCH   1  25
ATOM     25  C   UNL     1      -5.659 -22.181  -6.718  1.00  0.00     0.339 C 
ATOM     26  C   UNL     1      -6.003 -23.520  -5.996  1.00  0.00     0.214 C 
ATOM     27  O   UNL     1      -4.257 -21.982  -6.843  1.00  0.00    -0.332 OA
ATOM     28  C   UNL     1      -4.722 -24.215  -5.473  1.00  0.00     0.180 C 
ATOM     29  C   UNL     1      -3.650 -23.084  -7.495  1.00  0.00     0.179 C 
ATOM     30  C   UNL     1      -3.626 -24.329  -6.561  1.00  0.00     0.177 C 
BRANCH  26  31
ATOM     31  O   UNL     1      -6.754 -24.367  -6.833  1.00  0.00    -0.384 OA
ATOM     32  H   UNL     1      -6.398 -25.288  -6.738  1.00  0.00     0.211 HD
ENDBRANCH  26  31
BRANCH  28  33
ATOM     33  O   UNL     1      -4.999 -25.455  -4.869  1.00  0.00    -0.387 OA
ATOM     34  H   UNL     1      -5.727 -25.895  -5.380  1.00  0.00     0.211 HD
ENDBRANCH  28  33
BRANCH  29  35
ATOM     35  C   UNL     1      -2.239 -22.678  -7.941  1.00  0.00     0.191 C 
BRANCH  35  36
ATOM     36  O   UNL     1      -1.998 -21.322  -7.663  1.00  0.00    -0.394 OA
ATOM     37  H   UNL     1      -2.048 -21.209  -6.678  1.00  0.00     0.210 HD
ENDBRANCH  35  36
ENDBRANCH  29  35
BRANCH  30  38
ATOM     38  O   UNL     1      -3.809 -25.498  -7.321  1.00  0.00    -0.387 OA
ATOM     39  H   UNL     1      -3.104 -26.137  -7.039  1.00  0.00     0.211 HD
ENDBRANCH  30  38
ENDBRANCH   1  25
TORSDOF 11
ENDMDL
