MODEL 1
REMARK VINA RESULT:    -3.806      0.000      0.000
REMARK INTER + INTRA:          -3.917
REMARK INTER:                  -3.917
REMARK INTRA:                   0.000
REMARK UNBOUND:                 0.000
REMARK SMILES CC1(C)[C@@H]2CC[C@@](C)(C2)[C@H]1O
REMARK SMILES IDX 1 1 2 2 4 3 5 4 6 5 7 6 9 7 10 8 8 9 3 10 11 11
REMARK H PARENT 11 12
REMARK Flexibility Score: inf
ROOT
ATOM      1  C   UNL     1      -2.564   4.302  -4.219  1.00  0.00     0.014 C 
ATOM      2  C   UNL     1      -1.880   3.453  -5.322  1.00  0.00    -0.006 C 
ATOM      3  C   UNL     1      -1.059   4.387  -6.276  1.00  0.00    -0.002 C 
ATOM      4  C   UNL     1      -0.605   3.634  -7.544  1.00  0.00     0.005 C 
ATOM      5  C   UNL     1       0.422   2.631  -6.996  1.00  0.00     0.010 C 
ATOM      6  C   UNL     1       0.507   3.014  -5.500  1.00  0.00    -0.006 C 
ATOM      7  C   UNL     1       0.269   4.507  -5.551  1.00  0.00     0.013 C 
ATOM      8  C   UNL     1      -0.766   2.497  -4.774  1.00  0.00     0.126 C 
ATOM      9  C   UNL     1       1.839   2.613  -4.851  1.00  0.00     0.014 C 
ATOM     10  C   UNL     1      -2.995   2.658  -6.046  1.00  0.00     0.014 C 
ENDROOT
BRANCH   8  11
ATOM     11  O   UNL     1      -0.632   2.607  -3.376  1.00  0.00    -0.392 OA
ATOM     12  H   UNL     1       0.320   2.819  -3.191  1.00  0.00     0.211 HD
ENDBRANCH   8  11
TORSDOF 1
ENDMDL
MODEL 2
REMARK VINA RESULT:    -3.608      1.358      3.084
REMARK INTER + INTRA:          -3.713
REMARK INTER:                  -3.713
REMARK INTRA:                   0.000
REMARK UNBOUND:                 0.000
REMARK SMILES CC1(C)[C@@H]2CC[C@@](C)(C2)[C@H]1O
REMARK SMILES IDX 1 1 2 2 4 3 5 4 6 5 7 6 9 7 10 8 8 9 3 10 11 11
REMARK H PARENT 11 12
REMARK Flexibility Score: inf
ROOT
ATOM      1  C   UNL     1       0.185   2.107  -4.125  1.00  0.00     0.014 C 
ATOM      2  C   UNL     1      -0.406   3.002  -5.246  1.00  0.00    -0.006 C 
ATOM      3  C   UNL     1      -1.972   2.939  -5.204  1.00  0.00    -0.002 C 
ATOM      4  C   UNL     1      -2.592   3.573  -6.466  1.00  0.00     0.005 C 
ATOM      5  C   UNL     1      -2.254   5.063  -6.300  1.00  0.00     0.010 C 
ATOM      6  C   UNL     1      -1.580   5.107  -4.908  1.00  0.00    -0.006 C 
ATOM      7  C   UNL     1      -2.313   4.004  -4.177  1.00  0.00     0.013 C 
ATOM      8  C   UNL     1      -0.142   4.531  -5.027  1.00  0.00     0.126 C 
ATOM      9  C   UNL     1      -1.681   6.482  -4.233  1.00  0.00     0.014 C 
ATOM     10  C   UNL     1       0.195   2.515  -6.587  1.00  0.00     0.014 C 
ENDROOT
BRANCH   8  11
ATOM     11  O   UNL     1       0.596   4.765  -3.850  1.00  0.00    -0.392 OA
ATOM     12  H   UNL     1       1.119   3.940  -3.666  1.00  0.00     0.211 HD
ENDBRANCH   8  11
TORSDOF 1
ENDMDL
MODEL 3
REMARK VINA RESULT:    -3.356      1.327      3.174
REMARK INTER + INTRA:          -3.454
REMARK INTER:                  -3.454
REMARK INTRA:                   0.000
REMARK UNBOUND:                 0.000
REMARK SMILES CC1(C)[C@@H]2CC[C@@](C)(C2)[C@H]1O
REMARK SMILES IDX 1 1 2 2 4 3 5 4 6 5 7 6 9 7 10 8 8 9 3 10 11 11
REMARK H PARENT 11 12
REMARK Flexibility Score: inf
ROOT
ATOM      1  C   UNL     1       0.924   1.548  -4.046  1.00  0.00     0.014 C 
ATOM      2  C   UNL     1       1.100   2.881  -4.819  1.00  0.00    -0.006 C 
ATOM      3  C   UNL     1       0.891   2.636  -6.353  1.00  0.00    -0.002 C 
ATOM      4  C   UNL     1       1.339   3.857  -7.183  1.00  0.00     0.005 C 
ATOM      5  C   UNL     1       0.297   4.923  -6.809  1.00  0.00     0.010 C 
ATOM      6  C   UNL     1      -0.680   4.141  -5.900  1.00  0.00    -0.006 C 
ATOM      7  C   UNL     1      -0.615   2.755  -6.500  1.00  0.00     0.013 C 
ATOM      8  C   UNL     1      -0.017   3.935  -4.509  1.00  0.00     0.126 C 
ATOM      9  C   UNL     1      -2.090   4.746  -5.869  1.00  0.00     0.014 C 
ATOM     10  C   UNL     1       2.504   3.432  -4.468  1.00  0.00     0.014 C 
ENDROOT
BRANCH   8  11
ATOM     11  O   UNL     1      -0.947   3.442  -3.572  1.00  0.00    -0.392 OA
ATOM     12  H   UNL     1      -0.426   3.008  -2.847  1.00  0.00     0.211 HD
ENDBRANCH   8  11
TORSDOF 1
ENDMDL
MODEL 4
REMARK VINA RESULT:    -3.316     12.592     13.835
REMARK INTER + INTRA:          -3.413
REMARK INTER:                  -3.413
REMARK INTRA:                   0.000
REMARK UNBOUND:                 0.000
REMARK SMILES CC1(C)[C@@H]2CC[C@@](C)(C2)[C@H]1O
REMARK SMILES IDX 1 1 2 2 4 3 5 4 6 5 7 6 9 7 10 8 8 9 3 10 11 11
REMARK H PARENT 11 12
REMARK Flexibility Score: inf
ROOT
ATOM      1  C   UNL     1       0.361   2.914   8.622  1.00  0.00     0.014 C 
ATOM      2  C   UNL     1      -0.860   1.961   8.706  1.00  0.00    -0.006 C 
ATOM      3  C   UNL     1      -1.838   2.247   7.516  1.00  0.00    -0.002 C 
ATOM      4  C   UNL     1      -3.191   1.535   7.718  1.00  0.00     0.005 C 
ATOM      5  C   UNL     1      -2.820   0.050   7.573  1.00  0.00     0.010 C 
ATOM      6  C   UNL     1      -1.321   0.110   7.195  1.00  0.00    -0.006 C 
ATOM      7  C   UNL     1      -1.255   1.396   6.402  1.00  0.00     0.013 C 
ATOM      8  C   UNL     1      -0.494   0.456   8.465  1.00  0.00     0.126 C 
ATOM      9  C   UNL     1      -0.845  -1.128   6.422  1.00  0.00     0.014 C 
ATOM     10  C   UNL     1      -1.505   2.164  10.099  1.00  0.00     0.014 C 
ENDROOT
BRANCH   8  11
ATOM     11  O   UNL     1       0.885   0.290   8.232  1.00  0.00    -0.392 OA
ATOM     12  H   UNL     1       1.344   0.421   9.103  1.00  0.00     0.211 HD
ENDBRANCH   8  11
TORSDOF 1
ENDMDL
MODEL 5
REMARK VINA RESULT:    -3.311     12.468     13.747
REMARK INTER + INTRA:          -3.408
REMARK INTER:                  -3.408
REMARK INTRA:                   0.000
REMARK UNBOUND:                 0.000
REMARK SMILES CC1(C)[C@@H]2CC[C@@](C)(C2)[C@H]1O
REMARK SMILES IDX 1 1 2 2 4 3 5 4 6 5 7 6 9 7 10 8 8 9 3 10 11 11
REMARK H PARENT 11 12
REMARK Flexibility Score: inf
ROOT
ATOM      1  C   UNL     1      -3.642   2.310   8.469  1.00  0.00     0.014 C 
ATOM      2  C   UNL     1      -2.186   1.780   8.529  1.00  0.00    -0.006 C 
ATOM      3  C   UNL     1      -2.195   0.224   8.713  1.00  0.00    -0.002 C 
ATOM      4  C   UNL     1      -0.791  -0.308   9.067  1.00  0.00     0.005 C 
ATOM      5  C   UNL     1      -0.000  -0.070   7.771  1.00  0.00     0.010 C 
ATOM      6  C   UNL     1      -1.083   0.464   6.804  1.00  0.00    -0.006 C 
ATOM      7  C   UNL     1      -2.314  -0.273   7.284  1.00  0.00     0.013 C 
ATOM      8  C   UNL     1      -1.409   1.937   7.177  1.00  0.00     0.126 C 
ATOM      9  C   UNL     1      -0.744   0.222   5.327  1.00  0.00     0.014 C 
ATOM     10  C   UNL     1      -1.471   2.534   9.677  1.00  0.00     0.014 C 
ENDROOT
BRANCH   8  11
ATOM     11  O   UNL     1      -2.208   2.545   6.189  1.00  0.00    -0.392 OA
ATOM     12  H   UNL     1      -1.725   2.449   5.326  1.00  0.00     0.211 HD
ENDBRANCH   8  11
TORSDOF 1
ENDMDL
MODEL 6
REMARK VINA RESULT:    -3.309     10.458     11.771
REMARK INTER + INTRA:          -3.406
REMARK INTER:                  -3.406
REMARK INTRA:                   0.000
REMARK UNBOUND:                 0.000
REMARK SMILES CC1(C)[C@@H]2CC[C@@](C)(C2)[C@H]1O
REMARK SMILES IDX 1 1 2 2 4 3 5 4 6 5 7 6 9 7 10 8 8 9 3 10 11 11
REMARK H PARENT 11 12
REMARK Flexibility Score: inf
ROOT
ATOM      1  C   UNL     1      -0.355  -6.546   1.027  1.00  0.00     0.014 C 
ATOM      2  C   UNL     1       0.852  -5.998   0.222  1.00  0.00    -0.006 C 
ATOM      3  C   UNL     1       2.143  -6.037   1.110  1.00  0.00    -0.002 C 
ATOM      4  C   UNL     1       3.294  -5.241   0.462  1.00  0.00     0.005 C 
ATOM      5  C   UNL     1       3.641  -6.088  -0.773  1.00  0.00     0.010 C 
ATOM      6  C   UNL     1       2.719  -7.319  -0.611  1.00  0.00    -0.006 C 
ATOM      7  C   UNL     1       2.646  -7.453   0.893  1.00  0.00     0.013 C 
ATOM      8  C   UNL     1       1.265  -6.912  -0.982  1.00  0.00     0.126 C 
ATOM      9  C   UNL     1       3.251  -8.568  -1.327  1.00  0.00     0.014 C 
ATOM     10  C   UNL     1       0.476  -4.575  -0.257  1.00  0.00     0.014 C 
ENDROOT
BRANCH   8  11
ATOM     11  O   UNL     1       0.432  -8.043  -1.083  1.00  0.00    -0.392 OA
ATOM     12  H   UNL     1       0.534  -8.555  -0.238  1.00  0.00     0.211 HD
ENDBRANCH   8  11
TORSDOF 1
ENDMDL
MODEL 7
REMARK VINA RESULT:    -3.307      1.454      2.543
REMARK INTER + INTRA:          -3.404
REMARK INTER:                  -3.404
REMARK INTRA:                   0.000
REMARK UNBOUND:                 0.000
REMARK SMILES CC1(C)[C@@H]2CC[C@@](C)(C2)[C@H]1O
REMARK SMILES IDX 1 1 2 2 4 3 5 4 6 5 7 6 9 7 10 8 8 9 3 10 11 11
REMARK H PARENT 11 12
REMARK Flexibility Score: inf
ROOT
ATOM      1  C   UNL     1       0.951   5.721  -6.454  1.00  0.00     0.014 C 
ATOM      2  C   UNL     1      -0.202   4.912  -5.803  1.00  0.00    -0.006 C 
ATOM      3  C   UNL     1      -0.568   3.688  -6.710  1.00  0.00    -0.002 C 
ATOM      4  C   UNL     1      -1.887   3.028  -6.257  1.00  0.00     0.005 C 
ATOM      5  C   UNL     1      -1.512   2.413  -4.900  1.00  0.00     0.010 C 
ATOM      6  C   UNL     1       0.005   2.703  -4.802  1.00  0.00    -0.006 C 
ATOM      7  C   UNL     1       0.425   2.634  -6.253  1.00  0.00     0.013 C 
ATOM      8  C   UNL     1       0.210   4.206  -4.466  1.00  0.00     0.126 C 
ATOM      9  C   UNL     1       0.748   1.720  -3.887  1.00  0.00     0.014 C 
ATOM     10  C   UNL     1      -1.380   5.891  -5.581  1.00  0.00     0.014 C 
ENDROOT
BRANCH   8  11
ATOM     11  O   UNL     1       1.552   4.473  -4.132  1.00  0.00    -0.392 OA
ATOM     12  H   UNL     1       1.572   4.690  -3.163  1.00  0.00     0.211 HD
ENDBRANCH   8  11
TORSDOF 1
ENDMDL
MODEL 8
REMARK VINA RESULT:    -3.269      1.681      3.016
REMARK INTER + INTRA:          -3.365
REMARK INTER:                  -3.365
REMARK INTRA:                   0.000
REMARK UNBOUND:                 0.000
REMARK SMILES CC1(C)[C@@H]2CC[C@@](C)(C2)[C@H]1O
REMARK SMILES IDX 1 1 2 2 4 3 5 4 6 5 7 6 9 7 10 8 8 9 3 10 11 11
REMARK H PARENT 11 12
REMARK Flexibility Score: inf
ROOT
ATOM      1  C   UNL     1      -2.141   2.951  -8.379  1.00  0.00     0.014 C 
ATOM      2  C   UNL     1      -1.773   3.776  -7.118  1.00  0.00    -0.006 C 
ATOM      3  C   UNL     1      -2.856   3.556  -6.006  1.00  0.00    -0.002 C 
ATOM      4  C   UNL     1      -2.691   4.569  -4.854  1.00  0.00     0.005 C 
ATOM      5  C   UNL     1      -1.367   4.136  -4.206  1.00  0.00     0.010 C 
ATOM      6  C   UNL     1      -1.000   2.860  -4.999  1.00  0.00    -0.006 C 
ATOM      7  C   UNL     1      -2.365   2.293  -5.319  1.00  0.00     0.013 C 
ATOM      8  C   UNL     1      -0.473   3.274  -6.402  1.00  0.00     0.126 C 
ATOM      9  C   UNL     1      -0.092   1.903  -4.215  1.00  0.00     0.014 C 
ATOM     10  C   UNL     1      -1.635   5.253  -7.560  1.00  0.00     0.014 C 
ENDROOT
BRANCH   8  11
ATOM     11  O   UNL     1       0.096   2.174  -7.074  1.00  0.00    -0.392 OA
ATOM     12  H   UNL     1       0.342   1.506  -6.382  1.00  0.00     0.211 HD
ENDBRANCH   8  11
TORSDOF 1
ENDMDL
MODEL 9
REMARK VINA RESULT:    -3.260      1.763      3.669
REMARK INTER + INTRA:          -3.355
REMARK INTER:                  -3.355
REMARK INTRA:                   0.000
REMARK UNBOUND:                 0.000
REMARK SMILES CC1(C)[C@@H]2CC[C@@](C)(C2)[C@H]1O
REMARK SMILES IDX 1 1 2 2 4 3 5 4 6 5 7 6 9 7 10 8 8 9 3 10 11 11
REMARK H PARENT 11 12
REMARK Flexibility Score: inf
ROOT
ATOM      1  C   UNL     1       0.357   2.598  -6.790  1.00  0.00     0.014 C 
ATOM      2  C   UNL     1      -0.712   2.938  -5.719  1.00  0.00    -0.006 C 
ATOM      3  C   UNL     1      -0.704   4.479  -5.432  1.00  0.00    -0.002 C 
ATOM      4  C   UNL     1      -1.536   4.821  -4.179  1.00  0.00     0.005 C 
ATOM      5  C   UNL     1      -2.973   4.512  -4.630  1.00  0.00     0.010 C 
ATOM      6  C   UNL     1      -2.790   4.140  -6.120  1.00  0.00    -0.006 C 
ATOM      7  C   UNL     1      -1.623   5.016  -6.515  1.00  0.00     0.013 C 
ATOM      8  C   UNL     1      -2.182   2.712  -6.212  1.00  0.00     0.126 C 
ATOM      9  C   UNL     1      -4.056   4.367  -6.957  1.00  0.00     0.014 C 
ATOM     10  C   UNL     1      -0.401   2.077  -4.470  1.00  0.00     0.014 C 
ENDROOT
BRANCH   8  11
ATOM     11  O   UNL     1      -2.216   2.231  -7.535  1.00  0.00    -0.392 OA
ATOM     12  H   UNL     1      -2.831   1.451  -7.544  1.00  0.00     0.211 HD
ENDBRANCH   8  11
TORSDOF 1
ENDMDL
