MODEL 1
REMARK VINA RESULT:    -3.355      0.000      0.000
REMARK INTER + INTRA:          -6.788
REMARK INTER:                  -6.100
REMARK INTRA:                  -0.688
REMARK UNBOUND:                -0.688
REMARK SMILES CCCCCCCCCCCCCC[C@H](C)C(=O)[O-]
REMARK SMILES IDX 9 1 10 2 11 3 12 4 13 5 14 6 15 7 16 8 17 9 18 10 19 11 8 12
REMARK SMILES IDX 7 13 6 14 5 15 4 16 3 17 2 18 1 19
REMARK H PARENT
REMARK Flexibility Score: inf
ROOT
ATOM      1  C   UNL     1      -3.533  -2.581   9.328  1.00  0.00     0.000 C 
ENDROOT
BRANCH   1   2
ATOM      2  C   UNL     1      -4.566  -3.417  10.099  1.00  0.00     0.000 C 
BRANCH   2   3
ATOM      3  C   UNL     1      -4.221  -4.915  10.120  1.00  0.00     0.000 C 
BRANCH   3   4
ATOM      4  C   UNL     1      -5.467  -5.810  10.009  1.00  0.00     0.000 C 
BRANCH   4   5
ATOM      5  C   UNL     1      -6.533  -5.236   9.059  1.00  0.00     0.001 C 
BRANCH   5   6
ATOM      6  C   UNL     1      -7.331  -6.280   8.250  1.00  0.00     0.009 C 
BRANCH   6   7
ATOM      7  C   UNL     1      -7.891  -7.462   9.074  1.00  0.00     0.032 C 
ATOM      8  C   UNL     1      -7.311  -8.811   8.628  1.00  0.00     0.014 C 
BRANCH   7   9
ATOM      9  C   UNL     1      -9.390  -7.490   8.953  1.00  0.00     0.044 C 
ATOM     10  O   UNL     1     -10.084  -6.580   9.479  1.00  0.00    -0.550 OA
ATOM     11  O   UNL     1     -10.019  -8.508   8.246  1.00  0.00    -0.550 OA
ENDBRANCH   7   9
ENDBRANCH   6   7
ENDBRANCH   5   6
ENDBRANCH   4   5
ENDBRANCH   3   4
ENDBRANCH   2   3
ENDBRANCH   1   2
BRANCH   1  12
ATOM     12  C   UNL     1      -3.554  -1.118   9.798  1.00  0.00     0.000 C 
BRANCH  12  13
ATOM     13  C   UNL     1      -2.150  -0.580  10.125  1.00  0.00    -0.000 C 
BRANCH  13  14
ATOM     14  C   UNL     1      -1.031  -1.439   9.511  1.00  0.00    -0.000 C 
BRANCH  14  15
ATOM     15  C   UNL     1       0.377  -0.887   9.804  1.00  0.00    -0.000 C 
BRANCH  15  16
ATOM     16  C   UNL     1       0.468   0.644   9.941  1.00  0.00    -0.000 C 
BRANCH  16  17
ATOM     17  C   UNL     1       1.917   1.157   9.999  1.00  0.00    -0.000 C 
BRANCH  17  18
ATOM     18  C   UNL     1       2.004   2.687   9.888  1.00  0.00    -0.003 C 
ATOM     19  C   UNL     1       3.441   3.206   9.952  1.00  0.00     0.004 C 
ENDBRANCH  17  18
ENDBRANCH  16  17
ENDBRANCH  15  16
ENDBRANCH  14  15
ENDBRANCH  13  14
ENDBRANCH  12  13
ENDBRANCH   1  12
TORSDOF 14
ENDMDL
MODEL 2
REMARK VINA RESULT:    -2.912     20.336     21.483
REMARK INTER + INTRA:          -5.982
REMARK INTER:                  -5.532
REMARK INTRA:                  -0.450
REMARK UNBOUND:                -0.688
REMARK SMILES CCCCCCCCCCCCCC[C@H](C)C(=O)[O-]
REMARK SMILES IDX 9 1 10 2 11 3 12 4 13 5 14 6 15 7 16 8 17 9 18 10 19 11 8 12
REMARK SMILES IDX 7 13 6 14 5 15 4 16 3 17 2 18 1 19
REMARK H PARENT
REMARK Flexibility Score: inf
ROOT
ATOM      1  C   UNL     1       1.073  -1.699  -9.192  1.00  0.00     0.000 C 
ENDROOT
BRANCH   1   2
ATOM      2  C   UNL     1       2.147  -2.477  -9.968  1.00  0.00     0.000 C 
BRANCH   2   3
ATOM      3  C   UNL     1       3.550  -1.865  -9.814  1.00  0.00     0.000 C 
BRANCH   3   4
ATOM      4  C   UNL     1       4.670  -2.878 -10.105  1.00  0.00     0.000 C 
BRANCH   4   5
ATOM      5  C   UNL     1       4.317  -4.307  -9.657  1.00  0.00     0.001 C 
BRANCH   5   6
ATOM      6  C   UNL     1       5.458  -5.339  -9.774  1.00  0.00     0.009 C 
BRANCH   6   7
ATOM      7  C   UNL     1       5.525  -6.378  -8.631  1.00  0.00     0.032 C 
ATOM      8  C   UNL     1       6.879  -6.363  -7.908  1.00  0.00     0.014 C 
BRANCH   7   9
ATOM      9  C   UNL     1       5.263  -7.751  -9.186  1.00  0.00     0.044 C 
ATOM     10  O   UNL     1       4.238  -7.964  -9.887  1.00  0.00    -0.550 OA
ATOM     11  O   UNL     1       6.157  -8.788  -8.948  1.00  0.00    -0.550 OA
ENDBRANCH   7   9
ENDBRANCH   6   7
ENDBRANCH   5   6
ENDBRANCH   4   5
ENDBRANCH   3   4
ENDBRANCH   2   3
ENDBRANCH   1   2
BRANCH   1  12
ATOM     12  C   UNL     1       0.306  -0.749 -10.125  1.00  0.00     0.000 C 
BRANCH  12  13
ATOM     13  C   UNL     1      -1.040  -0.295  -9.534  1.00  0.00    -0.000 C 
BRANCH  13  14
ATOM     14  C   UNL     1      -1.086   1.220  -9.267  1.00  0.00    -0.000 C 
BRANCH  14  15
ATOM     15  C   UNL     1      -2.177   1.939 -10.083  1.00  0.00    -0.000 C 
BRANCH  15  16
ATOM     16  C   UNL     1      -3.354   2.494  -9.261  1.00  0.00    -0.000 C 
BRANCH  16  17
ATOM     17  C   UNL     1      -4.600   2.785 -10.117  1.00  0.00    -0.000 C 
BRANCH  17  18
ATOM     18  C   UNL     1      -5.095   4.231  -9.961  1.00  0.00    -0.003 C 
ATOM     19  C   UNL     1      -6.616   4.351 -10.061  1.00  0.00     0.004 C 
ENDBRANCH  17  18
ENDBRANCH  16  17
ENDBRANCH  15  16
ENDBRANCH  14  15
ENDBRANCH  13  14
ENDBRANCH  12  13
ENDBRANCH   1  12
TORSDOF 14
ENDMDL
MODEL 3
REMARK VINA RESULT:    -2.356     20.902     22.283
REMARK INTER + INTRA:          -4.972
REMARK INTER:                  -4.451
REMARK INTRA:                  -0.521
REMARK UNBOUND:                -0.688
REMARK SMILES CCCCCCCCCCCCCC[C@H](C)C(=O)[O-]
REMARK SMILES IDX 9 1 10 2 11 3 12 4 13 5 14 6 15 7 16 8 17 9 18 10 19 11 8 12
REMARK SMILES IDX 7 13 6 14 5 15 4 16 3 17 2 18 1 19
REMARK H PARENT
REMARK Flexibility Score: inf
ROOT
ATOM      1  C   UNL     1       4.447  -4.731  -9.264  1.00  0.00     0.000 C 
ENDROOT
BRANCH   1   2
ATOM      2  C   UNL     1       5.866  -5.161  -9.667  1.00  0.00     0.000 C 
BRANCH   2   3
ATOM      3  C   UNL     1       6.941  -4.640  -8.699  1.00  0.00     0.000 C 
BRANCH   3   4
ATOM      4  C   UNL     1       8.317  -4.493  -9.370  1.00  0.00     0.000 C 
BRANCH   4   5
ATOM      5  C   UNL     1       8.805  -5.797 -10.027  1.00  0.00     0.001 C 
BRANCH   5   6
ATOM      6  C   UNL     1       9.177  -6.932  -9.050  1.00  0.00     0.009 C 
BRANCH   6   7
ATOM      7  C   UNL     1       7.988  -7.783  -8.550  1.00  0.00     0.032 C 
ATOM      8  C   UNL     1       7.838  -7.736  -7.023  1.00  0.00     0.014 C 
BRANCH   7   9
ATOM      9  C   UNL     1       8.169  -9.208  -8.997  1.00  0.00     0.044 C 
ATOM     10  O   UNL     1       7.467 -10.124  -8.490  1.00  0.00    -0.550 OA
ATOM     11  O   UNL     1       9.096  -9.523  -9.983  1.00  0.00    -0.550 OA
ENDBRANCH   7   9
ENDBRANCH   6   7
ENDBRANCH   5   6
ENDBRANCH   4   5
ENDBRANCH   3   4
ENDBRANCH   2   3
ENDBRANCH   1   2
BRANCH   1  12
ATOM     12  C   UNL     1       3.975  -3.541 -10.115  1.00  0.00     0.000 C 
BRANCH  12  13
ATOM     13  C   UNL     1       3.374  -2.406  -9.268  1.00  0.00    -0.000 C 
BRANCH  13  14
ATOM     14  C   UNL     1       2.593  -1.387 -10.115  1.00  0.00    -0.000 C 
BRANCH  14  15
ATOM     15  C   UNL     1       1.133  -1.218  -9.654  1.00  0.00    -0.000 C 
BRANCH  15  16
ATOM     16  C   UNL     1       0.519   0.170  -9.912  1.00  0.00    -0.000 C 
BRANCH  16  17
ATOM     17  C   UNL     1      -1.004   0.123 -10.124  1.00  0.00    -0.000 C 
BRANCH  17  18
ATOM     18  C   UNL     1      -1.727   1.307  -9.464  1.00  0.00    -0.003 C 
ATOM     19  C   UNL     1      -3.202   1.396  -9.857  1.00  0.00     0.004 C 
ENDBRANCH  17  18
ENDBRANCH  16  17
ENDBRANCH  15  16
ENDBRANCH  14  15
ENDBRANCH  13  14
ENDBRANCH  12  13
ENDBRANCH   1  12
TORSDOF 14
ENDMDL
MODEL 4
REMARK VINA RESULT:    -1.236     20.858     21.943
REMARK INTER + INTRA:          -2.936
REMARK INTER:                  -2.444
REMARK INTRA:                  -0.492
REMARK UNBOUND:                -0.688
REMARK SMILES CCCCCCCCCCCCCC[C@H](C)C(=O)[O-]
REMARK SMILES IDX 9 1 10 2 11 3 12 4 13 5 14 6 15 7 16 8 17 9 18 10 19 11 8 12
REMARK SMILES IDX 7 13 6 14 5 15 4 16 3 17 2 18 1 19
REMARK H PARENT
REMARK Flexibility Score: inf
ROOT
ATOM      1  C   UNL     1      -4.732   3.993 -10.081  1.00  0.00     0.000 C 
ENDROOT
BRANCH   1   2
ATOM      2  C   UNL     1      -4.380   2.716  -9.302  1.00  0.00     0.000 C 
BRANCH   2   3
ATOM      3  C   UNL     1      -3.474   1.765 -10.101  1.00  0.00     0.000 C 
BRANCH   3   4
ATOM      4  C   UNL     1      -1.992   1.893  -9.710  1.00  0.00     0.000 C 
BRANCH   4   5
ATOM      5  C   UNL     1      -1.279   0.533  -9.609  1.00  0.00     0.001 C 
BRANCH   5   6
ATOM      6  C   UNL     1       0.259   0.598  -9.506  1.00  0.00     0.009 C 
BRANCH   6   7
ATOM      7  C   UNL     1       1.010  -0.604 -10.123  1.00  0.00     0.032 C 
ATOM      8  C   UNL     1       0.519  -1.947  -9.565  1.00  0.00     0.014 C 
BRANCH   7   9
ATOM      9  C   UNL     1       2.485  -0.458  -9.866  1.00  0.00     0.044 C 
ATOM     10  O   UNL     1       3.061   0.639 -10.094  1.00  0.00    -0.550 OA
ATOM     11  O   UNL     1       3.219  -1.524  -9.359  1.00  0.00    -0.550 OA
ENDBRANCH   7   9
ENDBRANCH   6   7
ENDBRANCH   5   6
ENDBRANCH   4   5
ENDBRANCH   3   4
ENDBRANCH   2   3
ENDBRANCH   1   2
BRANCH   1  12
ATOM     12  C   UNL     1      -4.547   5.239  -9.200  1.00  0.00     0.000 C 
BRANCH  12  13
ATOM     13  C   UNL     1      -5.034   6.528  -9.885  1.00  0.00    -0.000 C 
BRANCH  13  14
ATOM     14  C   UNL     1      -6.352   7.051  -9.288  1.00  0.00    -0.000 C 
BRANCH  14  15
ATOM     15  C   UNL     1      -6.648   8.511  -9.676  1.00  0.00    -0.000 C 
BRANCH  15  16
ATOM     16  C   UNL     1      -7.558   9.280  -8.701  1.00  0.00    -0.000 C 
BRANCH  16  17
ATOM     17  C   UNL     1      -8.894   9.707  -9.334  1.00  0.00    -0.000 C 
BRANCH  17  18
ATOM     18  C   UNL     1     -10.103   9.029  -8.671  1.00  0.00    -0.003 C 
ATOM     19  C   UNL     1      -9.891   7.533  -8.439  1.00  0.00     0.004 C 
ENDBRANCH  17  18
ENDBRANCH  16  17
ENDBRANCH  15  16
ENDBRANCH  14  15
ENDBRANCH  13  14
ENDBRANCH  12  13
ENDBRANCH   1  12
TORSDOF 14
ENDMDL
MODEL 5
REMARK VINA RESULT:    -0.919     20.912     21.969
REMARK INTER + INTRA:          -2.360
REMARK INTER:                  -2.170
REMARK INTRA:                  -0.189
REMARK UNBOUND:                -0.688
REMARK SMILES CCCCCCCCCCCCCC[C@H](C)C(=O)[O-]
REMARK SMILES IDX 9 1 10 2 11 3 12 4 13 5 14 6 15 7 16 8 17 9 18 10 19 11 8 12
REMARK SMILES IDX 7 13 6 14 5 15 4 16 3 17 2 18 1 19
REMARK H PARENT
REMARK Flexibility Score: inf
ROOT
ATOM      1  C   UNL     1      -6.047   5.236  -8.497  1.00  0.00     0.000 C 
ENDROOT
BRANCH   1   2
ATOM      2  C   UNL     1      -5.456   6.635  -8.727  1.00  0.00     0.000 C 
BRANCH   2   3
ATOM      3  C   UNL     1      -4.459   6.673  -9.897  1.00  0.00     0.000 C 
BRANCH   3   4
ATOM      4  C   UNL     1      -3.245   5.756  -9.668  1.00  0.00     0.000 C 
BRANCH   4   5
ATOM      5  C   UNL     1      -3.545   4.278  -9.974  1.00  0.00     0.001 C 
BRANCH   5   6
ATOM      6  C   UNL     1      -2.307   3.369 -10.125  1.00  0.00     0.009 C 
BRANCH   6   7
ATOM      7  C   UNL     1      -2.393   2.014  -9.385  1.00  0.00     0.032 C 
ATOM      8  C   UNL     1      -1.191   1.108  -9.687  1.00  0.00     0.014 C 
BRANCH   7   9
ATOM      9  C   UNL     1      -3.666   1.312  -9.770  1.00  0.00     0.044 C 
ATOM     10  O   UNL     1      -3.650   0.084 -10.051  1.00  0.00    -0.550 OA
ATOM     11  O   UNL     1      -4.870   2.006  -9.801  1.00  0.00    -0.550 OA
ENDBRANCH   7   9
ENDBRANCH   6   7
ENDBRANCH   5   6
ENDBRANCH   4   5
ENDBRANCH   3   4
ENDBRANCH   2   3
ENDBRANCH   1   2
BRANCH   1  12
ATOM     12  C   UNL     1      -7.581   5.268  -8.599  1.00  0.00     0.000 C 
BRANCH  12  13
ATOM     13  C   UNL     1      -8.074   5.804  -9.953  1.00  0.00    -0.000 C 
BRANCH  13  14
ATOM     14  C   UNL     1      -9.437   6.510  -9.847  1.00  0.00    -0.000 C 
BRANCH  14  15
ATOM     15  C   UNL     1      -9.567   7.373  -8.578  1.00  0.00    -0.000 C 
BRANCH  15  16
ATOM     16  C   UNL     1      -9.672   8.890  -8.822  1.00  0.00    -0.000 C 
BRANCH  16  17
ATOM     17  C   UNL     1      -8.987   9.338 -10.124  1.00  0.00    -0.000 C 
BRANCH  17  18
ATOM     18  C   UNL     1      -7.517   9.730  -9.910  1.00  0.00    -0.003 C 
ATOM     19  C   UNL     1      -7.139   9.831  -8.432  1.00  0.00     0.004 C 
ENDBRANCH  17  18
ENDBRANCH  16  17
ENDBRANCH  15  16
ENDBRANCH  14  15
ENDBRANCH  13  14
ENDBRANCH  12  13
ENDBRANCH   1  12
TORSDOF 14
ENDMDL
MODEL 6
REMARK VINA RESULT:    -0.891     20.454     21.419
REMARK INTER + INTRA:          -2.308
REMARK INTER:                  -3.319
REMARK INTRA:                   1.011
REMARK UNBOUND:                -0.688
REMARK SMILES CCCCCCCCCCCCCC[C@H](C)C(=O)[O-]
REMARK SMILES IDX 9 1 10 2 11 3 12 4 13 5 14 6 15 7 16 8 17 9 18 10 19 11 8 12
REMARK SMILES IDX 7 13 6 14 5 15 4 16 3 17 2 18 1 19
REMARK H PARENT
REMARK Flexibility Score: inf
ROOT
ATOM      1  C   UNL     1      -3.780   3.373 -10.085  1.00  0.00     0.000 C 
ENDROOT
BRANCH   1   2
ATOM      2  C   UNL     1      -3.975   2.143  -9.185  1.00  0.00     0.000 C 
BRANCH   2   3
ATOM      3  C   UNL     1      -3.785   0.817  -9.942  1.00  0.00     0.000 C 
BRANCH   3   4
ATOM      4  C   UNL     1      -2.303   0.437 -10.103  1.00  0.00     0.000 C 
BRANCH   4   5
ATOM      5  C   UNL     1      -2.074  -1.085 -10.109  1.00  0.00     0.001 C 
BRANCH   5   6
ATOM      6  C   UNL     1      -0.631  -1.538  -9.801  1.00  0.00     0.009 C 
BRANCH   6   7
ATOM      7  C   UNL     1       0.294  -0.441  -9.225  1.00  0.00     0.032 C 
ATOM      8  C   UNL     1      -0.140   0.969  -9.649  1.00  0.00     0.014 C 
BRANCH   7   9
ATOM      9  C   UNL     1       1.708  -0.691  -9.673  1.00  0.00     0.044 C 
ATOM     10  O   UNL     1       2.421   0.265 -10.078  1.00  0.00    -0.550 OA
ATOM     11  O   UNL     1       2.244  -1.972  -9.625  1.00  0.00    -0.550 OA
ENDBRANCH   7   9
ENDBRANCH   6   7
ENDBRANCH   5   6
ENDBRANCH   4   5
ENDBRANCH   3   4
ENDBRANCH   2   3
ENDBRANCH   1   2
BRANCH   1  12
ATOM     12  C   UNL     1      -3.518   4.630  -9.242  1.00  0.00     0.000 C 
BRANCH  12  13
ATOM     13  C   UNL     1      -4.673   5.644  -9.314  1.00  0.00    -0.000 C 
BRANCH  13  14
ATOM     14  C   UNL     1      -6.054   4.970  -9.249  1.00  0.00    -0.000 C 
BRANCH  14  15
ATOM     15  C   UNL     1      -7.034   5.699  -8.310  1.00  0.00    -0.000 C 
BRANCH  15  16
ATOM     16  C   UNL     1      -8.305   6.247  -8.983  1.00  0.00    -0.000 C 
BRANCH  16  17
ATOM     17  C   UNL     1      -8.517   7.751  -8.733  1.00  0.00    -0.000 C 
BRANCH  17  18
ATOM     18  C   UNL     1      -7.893   8.623  -9.833  1.00  0.00    -0.003 C 
ATOM     19  C   UNL     1      -6.626   9.344  -9.372  1.00  0.00     0.004 C 
ENDBRANCH  17  18
ENDBRANCH  16  17
ENDBRANCH  15  16
ENDBRANCH  14  15
ENDBRANCH  13  14
ENDBRANCH  12  13
ENDBRANCH   1  12
TORSDOF 14
ENDMDL
