MODEL 1
REMARK VINA RESULT:    -5.144      0.000      0.000
REMARK INTER + INTRA:         -10.191
REMARK INTER:                  -9.504
REMARK INTRA:                  -0.688
REMARK UNBOUND:                -0.688
REMARK SMILES CCCCCCCCCCCCCCCCO
REMARK SMILES IDX 9 1 8 2 7 3 6 4 5 5 4 6 3 7 2 8 1 9 10 10 11 11 12 12 13 13
REMARK SMILES IDX 14 14 15 15 16 16 17 17
REMARK H PARENT 17 18
REMARK Flexibility Score: inf
ROOT
ATOM      1  C   UNL     1      -6.191 -20.238 -13.908  1.00  0.00     0.000 C 
ENDROOT
BRANCH   1   2
ATOM      2  C   UNL     1      -6.358 -19.522 -15.258  1.00  0.00    -0.000 C 
BRANCH   2   3
ATOM      3  C   UNL     1      -6.590 -18.009 -15.097  1.00  0.00    -0.000 C 
BRANCH   3   4
ATOM      4  C   UNL     1      -8.031 -17.667 -14.677  1.00  0.00    -0.000 C 
BRANCH   4   5
ATOM      5  C   UNL     1      -9.109 -18.011 -15.721  1.00  0.00    -0.000 C 
BRANCH   5   6
ATOM      6  C   UNL     1      -8.698 -17.637 -17.152  1.00  0.00    -0.000 C 
BRANCH   6   7
ATOM      7  C   UNL     1      -9.846 -17.902 -18.139  1.00  0.00    -0.000 C 
BRANCH   7   8
ATOM      8  C   UNL     1      -9.363 -17.997 -19.595  1.00  0.00    -0.003 C 
ATOM      9  C   UNL     1      -9.365 -16.646 -20.308  1.00  0.00     0.004 C 
ENDBRANCH   7   8
ENDBRANCH   6   7
ENDBRANCH   5   6
ENDBRANCH   4   5
ENDBRANCH   3   4
ENDBRANCH   2   3
ENDBRANCH   1   2
BRANCH   1  10
ATOM     10  C   UNL     1      -5.244 -19.485 -12.957  1.00  0.00     0.000 C 
BRANCH  10  11
ATOM     11  C   UNL     1      -5.440 -19.884 -11.485  1.00  0.00     0.000 C 
BRANCH  11  12
ATOM     12  C   UNL     1      -4.943 -21.310 -11.189  1.00  0.00     0.000 C 
BRANCH  12  13
ATOM     13  C   UNL     1      -3.488 -21.532 -11.636  1.00  0.00     0.000 C 
BRANCH  13  14
ATOM     14  C   UNL     1      -3.026 -22.986 -11.437  1.00  0.00     0.002 C 
BRANCH  14  15
ATOM     15  C   UNL     1      -1.656 -23.265 -12.081  1.00  0.00     0.028 C 
BRANCH  15  16
ATOM     16  C   UNL     1      -0.656 -22.111 -11.928  1.00  0.00     0.156 C 
BRANCH  16  17
ATOM     17  O   UNL     1       0.485 -22.324 -12.713  1.00  0.00    -0.396 OA
ATOM     18  H   UNL     1       1.262 -22.022 -12.173  1.00  0.00     0.210 HD
ENDBRANCH  16  17
ENDBRANCH  15  16
ENDBRANCH  14  15
ENDBRANCH  13  14
ENDBRANCH  12  13
ENDBRANCH  11  12
ENDBRANCH  10  11
ENDBRANCH   1  10
TORSDOF 15
ENDMDL
MODEL 2
REMARK VINA RESULT:    -5.043      3.444      9.252
REMARK INTER + INTRA:         -10.006
REMARK INTER:                  -9.371
REMARK INTRA:                  -0.635
REMARK UNBOUND:                -0.688
REMARK SMILES CCCCCCCCCCCCCCCCO
REMARK SMILES IDX 9 1 8 2 7 3 6 4 5 5 4 6 3 7 2 8 1 9 10 10 11 11 12 12 13 13
REMARK SMILES IDX 14 14 15 15 16 16 17 17
REMARK H PARENT 17 18
REMARK Flexibility Score: inf
ROOT
ATOM      1  C   UNL     1      -6.427 -18.506 -13.991  1.00  0.00     0.000 C 
ENDROOT
BRANCH   1   2
ATOM      2  C   UNL     1      -5.522 -19.626 -13.453  1.00  0.00    -0.000 C 
BRANCH   2   3
ATOM      3  C   UNL     1      -5.644 -19.800 -11.929  1.00  0.00    -0.000 C 
BRANCH   3   4
ATOM      4  C   UNL     1      -5.482 -21.263 -11.480  1.00  0.00    -0.000 C 
BRANCH   4   5
ATOM      5  C   UNL     1      -4.798 -21.449 -10.112  1.00  0.00    -0.000 C 
BRANCH   5   6
ATOM      6  C   UNL     1      -3.404 -22.083 -10.220  1.00  0.00    -0.000 C 
BRANCH   6   7
ATOM      7  C   UNL     1      -3.242 -22.829 -11.554  1.00  0.00    -0.000 C 
BRANCH   7   8
ATOM      8  C   UNL     1      -1.786 -23.234 -11.831  1.00  0.00    -0.003 C 
ATOM      9  C   UNL     1      -0.807 -22.073 -11.667  1.00  0.00     0.004 C 
ENDBRANCH   7   8
ENDBRANCH   6   7
ENDBRANCH   5   6
ENDBRANCH   4   5
ENDBRANCH   3   4
ENDBRANCH   2   3
ENDBRANCH   1   2
BRANCH   1  10
ATOM     10  C   UNL     1      -6.943 -18.798 -15.411  1.00  0.00     0.000 C 
BRANCH  10  11
ATOM     11  C   UNL     1      -7.766 -17.638 -15.994  1.00  0.00     0.000 C 
BRANCH  11  12
ATOM     12  C   UNL     1      -9.282 -17.864 -15.857  1.00  0.00     0.000 C 
BRANCH  12  13
ATOM     13  C   UNL     1      -9.979 -18.035 -17.217  1.00  0.00     0.000 C 
BRANCH  13  14
ATOM     14  C   UNL     1      -9.098 -17.577 -18.392  1.00  0.00     0.002 C 
BRANCH  14  15
ATOM     15  C   UNL     1      -9.637 -18.047 -19.755  1.00  0.00     0.028 C 
BRANCH  15  16
ATOM     16  C   UNL     1      -9.272 -17.113 -20.917  1.00  0.00     0.156 C 
BRANCH  16  17
ATOM     17  O   UNL     1      -8.917 -15.839 -20.451  1.00  0.00    -0.396 OA
ATOM     18  H   UNL     1      -9.162 -15.811 -19.489  1.00  0.00     0.210 HD
ENDBRANCH  16  17
ENDBRANCH  15  16
ENDBRANCH  14  15
ENDBRANCH  13  14
ENDBRANCH  12  13
ENDBRANCH  11  12
ENDBRANCH  10  11
ENDBRANCH   1  10
TORSDOF 15
ENDMDL
MODEL 3
REMARK VINA RESULT:    -4.942      3.160      9.074
REMARK INTER + INTRA:          -9.819
REMARK INTER:                  -9.029
REMARK INTRA:                  -0.790
REMARK UNBOUND:                -0.688
REMARK SMILES CCCCCCCCCCCCCCCCO
REMARK SMILES IDX 9 1 8 2 7 3 6 4 5 5 4 6 3 7 2 8 1 9 10 10 11 11 12 12 13 13
REMARK SMILES IDX 14 14 15 15 16 16 17 17
REMARK H PARENT 17 18
REMARK Flexibility Score: inf
ROOT
ATOM      1  C   UNL     1      -5.851 -20.274 -13.670  1.00  0.00     0.000 C 
ENDROOT
BRANCH   1   2
ATOM      2  C   UNL     1      -5.655 -19.485 -12.365  1.00  0.00    -0.000 C 
BRANCH   2   3
ATOM      3  C   UNL     1      -5.232 -20.385 -11.191  1.00  0.00    -0.000 C 
BRANCH   3   4
ATOM      4  C   UNL     1      -4.998 -21.847 -11.613  1.00  0.00    -0.000 C 
BRANCH   4   5
ATOM      5  C   UNL     1      -3.654 -22.445 -11.158  1.00  0.00    -0.000 C 
BRANCH   5   6
ATOM      6  C   UNL     1      -2.440 -21.710 -11.744  1.00  0.00    -0.000 C 
BRANCH   6   7
ATOM      7  C   UNL     1      -1.299 -22.691 -12.049  1.00  0.00    -0.000 C 
BRANCH   7   8
ATOM      8  C   UNL     1      -0.348 -22.880 -10.858  1.00  0.00    -0.003 C 
ATOM      9  C   UNL     1       0.068 -21.557 -10.217  1.00  0.00     0.004 C 
ENDBRANCH   7   8
ENDBRANCH   6   7
ENDBRANCH   5   6
ENDBRANCH   4   5
ENDBRANCH   3   4
ENDBRANCH   2   3
ENDBRANCH   1   2
BRANCH   1  10
ATOM     10  C   UNL     1      -6.459 -19.413 -14.791  1.00  0.00     0.000 C 
BRANCH  10  11
ATOM     11  C   UNL     1      -6.392 -17.907 -14.487  1.00  0.00     0.000 C 
BRANCH  11  12
ATOM     12  C   UNL     1      -7.757 -17.213 -14.638  1.00  0.00     0.000 C 
BRANCH  12  13
ATOM     13  C   UNL     1      -8.718 -17.994 -15.550  1.00  0.00     0.000 C 
BRANCH  13  14
ATOM     14  C   UNL     1      -8.563 -17.615 -17.033  1.00  0.00     0.002 C 
BRANCH  14  15
ATOM     15  C   UNL     1      -9.833 -17.902 -17.853  1.00  0.00     0.028 C 
BRANCH  15  16
ATOM     16  C   UNL     1      -9.729 -17.468 -19.322  1.00  0.00     0.156 C 
BRANCH  16  17
ATOM     17  O   UNL     1      -8.942 -18.365 -20.059  1.00  0.00    -0.396 OA
ATOM     18  H   UNL     1      -8.823 -17.964 -20.960  1.00  0.00     0.210 HD
ENDBRANCH  16  17
ENDBRANCH  15  16
ENDBRANCH  14  15
ENDBRANCH  13  14
ENDBRANCH  12  13
ENDBRANCH  11  12
ENDBRANCH  10  11
ENDBRANCH   1  10
TORSDOF 15
ENDMDL
MODEL 4
REMARK VINA RESULT:    -4.871      3.617     10.212
REMARK INTER + INTRA:          -9.688
REMARK INTER:                  -8.937
REMARK INTRA:                  -0.751
REMARK UNBOUND:                -0.688
REMARK SMILES CCCCCCCCCCCCCCCCO
REMARK SMILES IDX 9 1 8 2 7 3 6 4 5 5 4 6 3 7 2 8 1 9 10 10 11 11 12 12 13 13
REMARK SMILES IDX 14 14 15 15 16 16 17 17
REMARK H PARENT 17 18
REMARK Flexibility Score: inf
ROOT
ATOM      1  C   UNL     1      -2.948 -23.371 -11.722  1.00  0.00     0.000 C 
ENDROOT
BRANCH   1   2
ATOM      2  C   UNL     1      -1.487 -23.187 -12.162  1.00  0.00    -0.000 C 
BRANCH   2   3
ATOM      3  C   UNL     1      -0.758 -22.107 -11.343  1.00  0.00    -0.000 C 
BRANCH   3   4
ATOM      4  C   UNL     1      -0.009 -22.683 -10.128  1.00  0.00    -0.000 C 
BRANCH   4   5
ATOM      5  C   UNL     1       0.332 -24.181 -10.227  1.00  0.00    -0.000 C 
BRANCH   5   6
ATOM      6  C   UNL     1       1.560 -24.573  -9.392  1.00  0.00    -0.000 C 
BRANCH   6   7
ATOM      7  C   UNL     1       1.769 -26.095  -9.405  1.00  0.00    -0.000 C 
BRANCH   7   8
ATOM      8  C   UNL     1       0.843 -26.811 -10.400  1.00  0.00    -0.003 C 
ATOM      9  C   UNL     1       1.605 -27.690 -11.390  1.00  0.00     0.004 C 
ENDBRANCH   7   8
ENDBRANCH   6   7
ENDBRANCH   5   6
ENDBRANCH   4   5
ENDBRANCH   3   4
ENDBRANCH   2   3
ENDBRANCH   1   2
BRANCH   1  10
ATOM     10  C   UNL     1      -3.469 -22.180 -10.899  1.00  0.00     0.000 C 
BRANCH  10  11
ATOM     11  C   UNL     1      -4.747 -21.564 -11.490  1.00  0.00     0.000 C 
BRANCH  11  12
ATOM     12  C   UNL     1      -4.472 -20.262 -12.263  1.00  0.00     0.000 C 
BRANCH  12  13
ATOM     13  C   UNL     1      -5.755 -19.470 -12.560  1.00  0.00     0.000 C 
BRANCH  13  14
ATOM     14  C   UNL     1      -6.236 -19.647 -14.011  1.00  0.00     0.002 C 
BRANCH  14  15
ATOM     15  C   UNL     1      -6.447 -18.305 -14.733  1.00  0.00     0.028 C 
BRANCH  15  16
ATOM     16  C   UNL     1      -7.478 -17.394 -14.052  1.00  0.00     0.156 C 
BRANCH  16  17
ATOM     17  O   UNL     1      -7.236 -16.045 -14.350  1.00  0.00    -0.396 OA
ATOM     18  H   UNL     1      -7.991 -15.740 -14.918  1.00  0.00     0.210 HD
ENDBRANCH  16  17
ENDBRANCH  15  16
ENDBRANCH  14  15
ENDBRANCH  13  14
ENDBRANCH  12  13
ENDBRANCH  11  12
ENDBRANCH  10  11
ENDBRANCH   1  10
TORSDOF 15
ENDMDL
MODEL 5
REMARK VINA RESULT:    -4.858      2.835      5.658
REMARK INTER + INTRA:          -9.664
REMARK INTER:                  -8.681
REMARK INTRA:                  -0.983
REMARK UNBOUND:                -0.688
REMARK SMILES CCCCCCCCCCCCCCCCO
REMARK SMILES IDX 9 1 8 2 7 3 6 4 5 5 4 6 3 7 2 8 1 9 10 10 11 11 12 12 13 13
REMARK SMILES IDX 14 14 15 15 16 16 17 17
REMARK H PARENT 17 18
REMARK Flexibility Score: inf
ROOT
ATOM      1  C   UNL     1      -1.801 -23.030 -12.028  1.00  0.00     0.000 C 
ENDROOT
BRANCH   1   2
ATOM      2  C   UNL     1      -3.267 -23.236 -11.617  1.00  0.00    -0.000 C 
BRANCH   2   3
ATOM      3  C   UNL     1      -3.797 -22.093 -10.732  1.00  0.00    -0.000 C 
BRANCH   3   4
ATOM      4  C   UNL     1      -4.955 -21.318 -11.386  1.00  0.00    -0.000 C 
BRANCH   4   5
ATOM      5  C   UNL     1      -4.523 -20.230 -12.386  1.00  0.00    -0.000 C 
BRANCH   5   6
ATOM      6  C   UNL     1      -5.704 -19.414 -12.931  1.00  0.00    -0.000 C 
BRANCH   6   7
ATOM      7  C   UNL     1      -6.043 -19.834 -14.370  1.00  0.00    -0.000 C 
BRANCH   7   8
ATOM      8  C   UNL     1      -6.675 -18.695 -15.185  1.00  0.00    -0.003 C 
ATOM      9  C   UNL     1      -7.061 -17.494 -14.323  1.00  0.00     0.004 C 
ENDBRANCH   7   8
ENDBRANCH   6   7
ENDBRANCH   5   6
ENDBRANCH   4   5
ENDBRANCH   3   4
ENDBRANCH   2   3
ENDBRANCH   1   2
BRANCH   1  10
ATOM     10  C   UNL     1      -1.187 -21.766 -11.400  1.00  0.00     0.000 C 
BRANCH  10  11
ATOM     11  C   UNL     1       0.057 -22.071 -10.548  1.00  0.00     0.000 C 
BRANCH  11  12
ATOM     12  C   UNL     1      -0.237 -23.061  -9.408  1.00  0.00     0.000 C 
BRANCH  12  13
ATOM     13  C   UNL     1       0.882 -24.099  -9.223  1.00  0.00     0.000 C 
BRANCH  13  14
ATOM     14  C   UNL     1       0.750 -25.288 -10.189  1.00  0.00     0.002 C 
BRANCH  14  15
ATOM     15  C   UNL     1       1.968 -26.227 -10.144  1.00  0.00     0.028 C 
BRANCH  15  16
ATOM     16  C   UNL     1       1.904 -27.370 -11.167  1.00  0.00     0.156 C 
BRANCH  16  17
ATOM     17  O   UNL     1       2.876 -27.211 -12.164  1.00  0.00    -0.396 OA
ATOM     18  H   UNL     1       2.499 -26.580 -12.831  1.00  0.00     0.210 HD
ENDBRANCH  16  17
ENDBRANCH  15  16
ENDBRANCH  14  15
ENDBRANCH  13  14
ENDBRANCH  12  13
ENDBRANCH  11  12
ENDBRANCH  10  11
ENDBRANCH   1  10
TORSDOF 15
ENDMDL
MODEL 6
REMARK VINA RESULT:    -4.816      2.456      3.601
REMARK INTER + INTRA:          -9.586
REMARK INTER:                  -8.424
REMARK INTRA:                  -1.162
REMARK UNBOUND:                -0.688
REMARK SMILES CCCCCCCCCCCCCCCCO
REMARK SMILES IDX 9 1 8 2 7 3 6 4 5 5 4 6 3 7 2 8 1 9 10 10 11 11 12 12 13 13
REMARK SMILES IDX 14 14 15 15 16 16 17 17
REMARK H PARENT 17 18
REMARK Flexibility Score: inf
ROOT
ATOM      1  C   UNL     1      -5.894 -21.386 -12.209  1.00  0.00     0.000 C 
ENDROOT
BRANCH   1   2
ATOM      2  C   UNL     1      -4.870 -20.259 -12.421  1.00  0.00    -0.000 C 
BRANCH   2   3
ATOM      3  C   UNL     1      -5.400 -19.150 -13.346  1.00  0.00    -0.000 C 
BRANCH   3   4
ATOM      4  C   UNL     1      -6.336 -19.684 -14.445  1.00  0.00    -0.000 C 
BRANCH   4   5
ATOM      5  C   UNL     1      -6.657 -18.679 -15.567  1.00  0.00    -0.000 C 
BRANCH   5   6
ATOM      6  C   UNL     1      -7.954 -17.895 -15.316  1.00  0.00    -0.000 C 
BRANCH   6   7
ATOM      7  C   UNL     1      -7.731 -16.782 -14.282  1.00  0.00    -0.000 C 
BRANCH   7   8
ATOM      8  C   UNL     1      -8.444 -17.060 -12.950  1.00  0.00    -0.003 C 
ATOM      9  C   UNL     1      -9.950 -16.814 -13.022  1.00  0.00     0.004 C 
ENDBRANCH   7   8
ENDBRANCH   6   7
ENDBRANCH   5   6
ENDBRANCH   4   5
ENDBRANCH   3   4
ENDBRANCH   2   3
ENDBRANCH   1   2
BRANCH   1  10
ATOM     10  C   UNL     1      -6.063 -21.755 -10.725  1.00  0.00     0.000 C 
BRANCH  10  11
ATOM     11  C   UNL     1      -4.989 -21.116  -9.828  1.00  0.00     0.000 C 
BRANCH  11  12
ATOM     12  C   UNL     1      -4.007 -22.152  -9.255  1.00  0.00     0.000 C 
BRANCH  12  13
ATOM     13  C   UNL     1      -2.546 -21.678  -9.316  1.00  0.00     0.000 C 
BRANCH  13  14
ATOM     14  C   UNL     1      -1.677 -22.557 -10.231  1.00  0.00     0.002 C 
BRANCH  14  15
ATOM     15  C   UNL     1      -2.298 -22.755 -11.625  1.00  0.00     0.028 C 
BRANCH  15  16
ATOM     16  C   UNL     1      -2.419 -24.227 -12.043  1.00  0.00     0.156 C 
BRANCH  16  17
ATOM     17  O   UNL     1      -3.759 -24.584 -12.254  1.00  0.00    -0.396 OA
ATOM     18  H   UNL     1      -4.268 -23.737 -12.343  1.00  0.00     0.210 HD
ENDBRANCH  16  17
ENDBRANCH  15  16
ENDBRANCH  14  15
ENDBRANCH  13  14
ENDBRANCH  12  13
ENDBRANCH  11  12
ENDBRANCH  10  11
ENDBRANCH   1  10
TORSDOF 15
ENDMDL
MODEL 7
REMARK VINA RESULT:    -4.802      3.784     10.682
REMARK INTER + INTRA:          -9.559
REMARK INTER:                  -8.727
REMARK INTRA:                  -0.832
REMARK UNBOUND:                -0.688
REMARK SMILES CCCCCCCCCCCCCCCCO
REMARK SMILES IDX 9 1 8 2 7 3 6 4 5 5 4 6 3 7 2 8 1 9 10 10 11 11 12 12 13 13
REMARK SMILES IDX 14 14 15 15 16 16 17 17
REMARK H PARENT 17 18
REMARK Flexibility Score: inf
ROOT
ATOM      1  C   UNL     1      -1.723 -22.182 -12.122  1.00  0.00     0.000 C 
ENDROOT
BRANCH   1   2
ATOM      2  C   UNL     1      -0.316 -22.479 -11.579  1.00  0.00    -0.000 C 
BRANCH   2   3
ATOM      3  C   UNL     1      -0.212 -22.257 -10.060  1.00  0.00    -0.000 C 
BRANCH   3   4
ATOM      4  C   UNL     1       0.482 -23.422  -9.332  1.00  0.00    -0.000 C 
BRANCH   4   5
ATOM      5  C   UNL     1       0.393 -24.780 -10.051  1.00  0.00    -0.000 C 
BRANCH   5   6
ATOM      6  C   UNL     1       1.433 -25.793  -9.548  1.00  0.00    -0.000 C 
BRANCH   6   7
ATOM      7  C   UNL     1       2.681 -25.787 -10.442  1.00  0.00    -0.000 C 
BRANCH   7   8
ATOM      8  C   UNL     1       3.935 -25.295  -9.703  1.00  0.00    -0.003 C 
ATOM      9  C   UNL     1       5.228 -25.853 -10.295  1.00  0.00     0.004 C 
ENDBRANCH   7   8
ENDBRANCH   6   7
ENDBRANCH   5   6
ENDBRANCH   4   5
ENDBRANCH   3   4
ENDBRANCH   2   3
ENDBRANCH   1   2
BRANCH   1  10
ATOM     10  C   UNL     1      -2.808 -23.034 -11.439  1.00  0.00     0.000 C 
BRANCH  10  11
ATOM     11  C   UNL     1      -4.082 -22.232 -11.127  1.00  0.00     0.000 C 
BRANCH  11  12
ATOM     12  C   UNL     1      -4.134 -20.891 -11.879  1.00  0.00     0.000 C 
BRANCH  12  13
ATOM     13  C   UNL     1      -5.569 -20.372 -12.063  1.00  0.00     0.000 C 
BRANCH  13  14
ATOM     14  C   UNL     1      -5.658 -19.236 -13.096  1.00  0.00     0.002 C 
BRANCH  14  15
ATOM     15  C   UNL     1      -6.154 -19.722 -14.470  1.00  0.00     0.028 C 
BRANCH  15  16
ATOM     16  C   UNL     1      -6.800 -18.618 -15.318  1.00  0.00     0.156 C 
BRANCH  16  17
ATOM     17  O   UNL     1      -6.429 -17.346 -14.860  1.00  0.00    -0.396 OA
ATOM     18  H   UNL     1      -5.516 -17.435 -14.482  1.00  0.00     0.210 HD
ENDBRANCH  16  17
ENDBRANCH  15  16
ENDBRANCH  14  15
ENDBRANCH  13  14
ENDBRANCH  12  13
ENDBRANCH  11  12
ENDBRANCH  10  11
ENDBRANCH   1  10
TORSDOF 15
ENDMDL
MODEL 8
REMARK VINA RESULT:    -4.785      3.584      6.548
REMARK INTER + INTRA:          -9.529
REMARK INTER:                  -9.084
REMARK INTRA:                  -0.445
REMARK UNBOUND:                -0.688
REMARK SMILES CCCCCCCCCCCCCCCCO
REMARK SMILES IDX 9 1 8 2 7 3 6 4 5 5 4 6 3 7 2 8 1 9 10 10 11 11 12 12 13 13
REMARK SMILES IDX 14 14 15 15 16 16 17 17
REMARK H PARENT 17 18
REMARK Flexibility Score: inf
ROOT
ATOM      1  C   UNL     1      -0.879 -22.635 -11.805  1.00  0.00     0.000 C 
ENDROOT
BRANCH   1   2
ATOM      2  C   UNL     1      -2.164 -21.806 -11.651  1.00  0.00    -0.000 C 
BRANCH   2   3
ATOM      3  C   UNL     1      -3.351 -22.648 -11.151  1.00  0.00    -0.000 C 
BRANCH   3   4
ATOM      4  C   UNL     1      -4.699 -22.185 -11.731  1.00  0.00    -0.000 C 
BRANCH   4   5
ATOM      5  C   UNL     1      -5.034 -20.702 -11.488  1.00  0.00    -0.000 C 
BRANCH   5   6
ATOM      6  C   UNL     1      -4.685 -19.804 -12.684  1.00  0.00    -0.000 C 
BRANCH   6   7
ATOM      7  C   UNL     1      -5.947 -19.152 -13.268  1.00  0.00    -0.000 C 
BRANCH   7   8
ATOM      8  C   UNL     1      -6.222 -19.587 -14.715  1.00  0.00    -0.003 C 
ATOM      9  C   UNL     1      -6.947 -18.515 -15.527  1.00  0.00     0.004 C 
ENDBRANCH   7   8
ENDBRANCH   6   7
ENDBRANCH   5   6
ENDBRANCH   4   5
ENDBRANCH   3   4
ENDBRANCH   2   3
ENDBRANCH   1   2
BRANCH   1  10
ATOM     10  C   UNL     1      -0.869 -23.878 -10.898  1.00  0.00     0.000 C 
BRANCH  10  11
ATOM     11  C   UNL     1       0.262 -23.844  -9.857  1.00  0.00     0.000 C 
BRANCH  11  12
ATOM     12  C   UNL     1       0.739 -25.252  -9.458  1.00  0.00     0.000 C 
BRANCH  12  13
ATOM     13  C   UNL     1       1.963 -25.712 -10.267  1.00  0.00     0.000 C 
BRANCH  13  14
ATOM     14  C   UNL     1       1.841 -27.170 -10.743  1.00  0.00     0.002 C 
BRANCH  14  15
ATOM     15  C   UNL     1       2.905 -27.542 -11.791  1.00  0.00     0.028 C 
BRANCH  15  16
ATOM     16  C   UNL     1       2.515 -28.740 -12.668  1.00  0.00     0.156 C 
BRANCH  16  17
ATOM     17  O   UNL     1       2.949 -28.563 -13.989  1.00  0.00    -0.396 OA
ATOM     18  H   UNL     1       2.232 -28.062 -14.459  1.00  0.00     0.210 HD
ENDBRANCH  16  17
ENDBRANCH  15  16
ENDBRANCH  14  15
ENDBRANCH  13  14
ENDBRANCH  12  13
ENDBRANCH  11  12
ENDBRANCH  10  11
ENDBRANCH   1  10
TORSDOF 15
ENDMDL
MODEL 9
REMARK VINA RESULT:    -4.745      2.572      4.234
REMARK INTER + INTRA:          -9.454
REMARK INTER:                  -8.415
REMARK INTRA:                  -1.040
REMARK UNBOUND:                -0.688
REMARK SMILES CCCCCCCCCCCCCCCCO
REMARK SMILES IDX 9 1 8 2 7 3 6 4 5 5 4 6 3 7 2 8 1 9 10 10 11 11 12 12 13 13
REMARK SMILES IDX 14 14 15 15 16 16 17 17
REMARK H PARENT 17 18
REMARK Flexibility Score: inf
ROOT
ATOM      1  C   UNL     1      -4.959 -21.078 -10.141  1.00  0.00     0.000 C 
ENDROOT
BRANCH   1   2
ATOM      2  C   UNL     1      -6.052 -21.738 -10.997  1.00  0.00    -0.000 C 
BRANCH   2   3
ATOM      3  C   UNL     1      -6.013 -21.269 -12.463  1.00  0.00    -0.000 C 
BRANCH   3   4
ATOM      4  C   UNL     1      -5.110 -20.040 -12.673  1.00  0.00    -0.000 C 
BRANCH   4   5
ATOM      5  C   UNL     1      -5.767 -18.878 -13.442  1.00  0.00    -0.000 C 
BRANCH   5   6
ATOM      6  C   UNL     1      -6.450 -19.329 -14.741  1.00  0.00    -0.000 C 
BRANCH   6   7
ATOM      7  C   UNL     1      -7.598 -18.380 -15.116  1.00  0.00    -0.000 C 
BRANCH   7   8
ATOM      8  C   UNL     1      -7.582 -17.081 -14.296  1.00  0.00    -0.003 C 
ATOM      9  C   UNL     1      -8.742 -16.992 -13.306  1.00  0.00     0.004 C 
ENDBRANCH   7   8
ENDBRANCH   6   7
ENDBRANCH   5   6
ENDBRANCH   4   5
ENDBRANCH   3   4
ENDBRANCH   2   3
ENDBRANCH   1   2
BRANCH   1  10
ATOM     10  C   UNL     1      -3.890 -22.083  -9.677  1.00  0.00     0.000 C 
BRANCH  10  11
ATOM     11  C   UNL     1      -3.194 -22.792 -10.851  1.00  0.00     0.000 C 
BRANCH  11  12
ATOM     12  C   UNL     1      -2.280 -21.848 -11.652  1.00  0.00     0.000 C 
BRANCH  12  13
ATOM     13  C   UNL     1      -0.860 -22.412 -11.829  1.00  0.00     0.000 C 
BRANCH  13  14
ATOM     14  C   UNL     1       0.110 -21.919 -10.742  1.00  0.00     0.002 C 
BRANCH  14  15
ATOM     15  C   UNL     1       0.261 -22.921  -9.584  1.00  0.00     0.028 C 
BRANCH  15  16
ATOM     16  C   UNL     1       0.306 -24.386 -10.039  1.00  0.00     0.156 C 
BRANCH  16  17
ATOM     17  O   UNL     1       0.624 -25.237  -8.970  1.00  0.00    -0.396 OA
ATOM     18  H   UNL     1       0.071 -26.054  -9.084  1.00  0.00     0.210 HD
ENDBRANCH  16  17
ENDBRANCH  15  16
ENDBRANCH  14  15
ENDBRANCH  13  14
ENDBRANCH  12  13
ENDBRANCH  11  12
ENDBRANCH  10  11
ENDBRANCH   1  10
TORSDOF 15
ENDMDL
