MODEL 1
REMARK VINA RESULT:    -5.296      0.000      0.000
REMARK INTER + INTRA:          -6.015
REMARK INTER:                  -5.915
REMARK INTRA:                  -0.101
REMARK UNBOUND:                -0.101
REMARK SMILES CCc1ccc(O)cc1O
REMARK SMILES IDX 3 1 9 2 8 3 6 4 5 5 4 6 2 7 1 8 10 9 7 11
REMARK H PARENT 10 10 7 12
REMARK Flexibility Score: inf
ROOT
ATOM      1  C   UNL     1      -6.122  68.283 -27.331  1.00  0.00    -0.006 A 
ATOM      2  C   UNL     1      -5.414  68.666 -26.173  1.00  0.00     0.122 A 
ATOM      3  C   UNL     1      -4.152  68.112 -25.912  1.00  0.00     0.092 A 
ATOM      4  C   UNL     1      -3.596  67.172 -26.786  1.00  0.00     0.119 A 
ATOM      5  C   UNL     1      -4.305  66.781 -27.928  1.00  0.00     0.047 A 
ATOM      6  C   UNL     1      -5.562  67.329 -28.197  1.00  0.00     0.011 A 
ENDROOT
BRANCH   1   7
ATOM      7  C   UNL     1      -7.493  68.840 -27.621  1.00  0.00     0.036 C 
ATOM      8  C   UNL     1      -7.442  69.825 -28.784  1.00  0.00     0.009 C 
ENDBRANCH   1   7
BRANCH   2   9
ATOM      9  O   UNL     1      -5.965  69.591 -25.288  1.00  0.00    -0.508 OA
ATOM     10  H   UNL     1      -6.752  70.173 -25.550  1.00  0.00     0.293 HD
ENDBRANCH   2   9
BRANCH   4  11
ATOM     11  O   UNL     1      -2.342  66.633 -26.509  1.00  0.00    -0.508 OA
ATOM     12  H   UNL     1      -2.198  66.000 -25.732  1.00  0.00     0.293 HD
ENDBRANCH   4  11
TORSDOF 3
ENDMDL
MODEL 2
REMARK VINA RESULT:    -5.092     15.028     16.212
REMARK INTER + INTRA:          -5.787
REMARK INTER:                  -5.702
REMARK INTRA:                  -0.086
REMARK UNBOUND:                -0.101
REMARK SMILES CCc1ccc(O)cc1O
REMARK SMILES IDX 3 1 9 2 8 3 6 4 5 5 4 6 2 7 1 8 10 9 7 11
REMARK H PARENT 10 10 7 12
REMARK Flexibility Score: inf
ROOT
ATOM      1  C   UNL     1      -4.177  60.819 -13.752  1.00  0.00    -0.006 A 
ATOM      2  C   UNL     1      -3.820  60.198 -12.538  1.00  0.00     0.122 A 
ATOM      3  C   UNL     1      -4.811  59.885 -11.596  1.00  0.00     0.092 A 
ATOM      4  C   UNL     1      -6.151  60.195 -11.848  1.00  0.00     0.119 A 
ATOM      5  C   UNL     1      -6.505  60.824 -13.048  1.00  0.00     0.047 A 
ATOM      6  C   UNL     1      -5.524  61.139 -13.992  1.00  0.00     0.011 A 
ENDROOT
BRANCH   1   7
ATOM      7  C   UNL     1      -3.130  61.194 -14.770  1.00  0.00     0.036 C 
ATOM      8  C   UNL     1      -3.765  61.892 -15.968  1.00  0.00     0.009 C 
ENDBRANCH   1   7
BRANCH   2   9
ATOM      9  O   UNL     1      -2.485  59.897 -12.271  1.00  0.00    -0.508 OA
ATOM     10  H   UNL     1      -2.189  58.955 -12.041  1.00  0.00     0.293 HD
ENDBRANCH   2   9
BRANCH   4  11
ATOM     11  O   UNL     1      -7.121  59.876 -10.901  1.00  0.00    -0.508 OA
ATOM     12  H   UNL     1      -7.986  60.399 -10.831  1.00  0.00     0.293 HD
ENDBRANCH   4  11
TORSDOF 3
ENDMDL
MODEL 3
REMARK VINA RESULT:    -4.934      1.806      3.427
REMARK INTER + INTRA:          -5.611
REMARK INTER:                  -5.526
REMARK INTRA:                  -0.086
REMARK UNBOUND:                -0.101
REMARK SMILES CCc1ccc(O)cc1O
REMARK SMILES IDX 3 1 9 2 8 3 6 4 5 5 4 6 2 7 1 8 10 9 7 11
REMARK H PARENT 10 10 7 12
REMARK Flexibility Score: inf
ROOT
ATOM      1  C   UNL     1      -4.196  67.683 -26.434  1.00  0.00    -0.006 A 
ATOM      2  C   UNL     1      -2.915  67.319 -25.970  1.00  0.00     0.122 A 
ATOM      3  C   UNL     1      -2.488  67.737 -24.701  1.00  0.00     0.092 A 
ATOM      4  C   UNL     1      -3.320  68.523 -23.897  1.00  0.00     0.119 A 
ATOM      5  C   UNL     1      -4.586  68.896 -24.363  1.00  0.00     0.047 A 
ATOM      6  C   UNL     1      -5.020  68.483 -25.625  1.00  0.00     0.011 A 
ENDROOT
BRANCH   1   7
ATOM      7  C   UNL     1      -4.669  67.273 -27.805  1.00  0.00     0.036 C 
ATOM      8  C   UNL     1      -6.103  67.735 -28.043  1.00  0.00     0.009 C 
ENDBRANCH   1   7
BRANCH   2   9
ATOM      9  O   UNL     1      -2.073  66.548 -26.769  1.00  0.00    -0.508 OA
ATOM     10  H   UNL     1      -1.082  66.747 -26.842  1.00  0.00     0.293 HD
ENDBRANCH   2   9
BRANCH   4  11
ATOM     11  O   UNL     1      -2.878  68.928 -22.639  1.00  0.00    -0.508 OA
ATOM     12  H   UNL     1      -2.588  69.883 -22.462  1.00  0.00     0.293 HD
ENDBRANCH   4  11
TORSDOF 3
ENDMDL
MODEL 4
REMARK VINA RESULT:    -4.900      1.790      3.909
REMARK INTER + INTRA:          -5.573
REMARK INTER:                  -5.465
REMARK INTRA:                  -0.108
REMARK UNBOUND:                -0.101
REMARK SMILES CCc1ccc(O)cc1O
REMARK SMILES IDX 3 1 9 2 8 3 6 4 5 5 4 6 2 7 1 8 10 9 7 11
REMARK H PARENT 10 10 7 12
REMARK Flexibility Score: inf
ROOT
ATOM      1  C   UNL     1      -4.104  68.280 -25.745  1.00  0.00    -0.006 A 
ATOM      2  C   UNL     1      -3.577  67.267 -26.573  1.00  0.00     0.122 A 
ATOM      3  C   UNL     1      -4.297  66.842 -27.699  1.00  0.00     0.092 A 
ATOM      4  C   UNL     1      -5.539  67.408 -28.002  1.00  0.00     0.119 A 
ATOM      5  C   UNL     1      -6.069  68.404 -27.172  1.00  0.00     0.047 A 
ATOM      6  C   UNL     1      -5.359  68.834 -26.049  1.00  0.00     0.011 A 
ENDROOT
BRANCH   1   7
ATOM      7  C   UNL     1      -3.366  68.735 -24.512  1.00  0.00     0.036 C 
ATOM      8  C   UNL     1      -3.924  68.054 -23.266  1.00  0.00     0.009 C 
ENDBRANCH   1   7
BRANCH   2   9
ATOM      9  O   UNL     1      -2.346  66.687 -26.273  1.00  0.00    -0.508 OA
ATOM     10  H   UNL     1      -2.103  65.758 -26.599  1.00  0.00     0.293 HD
ENDBRANCH   2   9
BRANCH   4  11
ATOM     11  O   UNL     1      -6.239  66.973 -29.125  1.00  0.00    -0.508 OA
ATOM     12  H   UNL     1      -7.143  67.360 -29.369  1.00  0.00     0.293 HD
ENDBRANCH   4  11
TORSDOF 3
ENDMDL
MODEL 5
REMARK VINA RESULT:    -4.880     14.067     15.336
REMARK INTER + INTRA:          -5.551
REMARK INTER:                  -5.466
REMARK INTRA:                  -0.085
REMARK UNBOUND:                -0.101
REMARK SMILES CCc1ccc(O)cc1O
REMARK SMILES IDX 3 1 9 2 8 3 6 4 5 5 4 6 2 7 1 8 10 9 7 11
REMARK H PARENT 10 10 7 12
REMARK Flexibility Score: inf
ROOT
ATOM      1  C   UNL     1      -3.293  61.829 -13.540  1.00  0.00    -0.006 A 
ATOM      2  C   UNL     1      -3.425  61.277 -14.831  1.00  0.00     0.122 A 
ATOM      3  C   UNL     1      -4.615  60.631 -15.195  1.00  0.00     0.092 A 
ATOM      4  C   UNL     1      -5.669  60.520 -14.283  1.00  0.00     0.119 A 
ATOM      5  C   UNL     1      -5.533  61.055 -12.996  1.00  0.00     0.047 A 
ATOM      6  C   UNL     1      -4.352  61.702 -12.625  1.00  0.00     0.011 A 
ENDROOT
BRANCH   1   7
ATOM      7  C   UNL     1      -2.014  62.502 -13.111  1.00  0.00     0.036 C 
ATOM      8  C   UNL     1      -2.223  63.290 -11.822  1.00  0.00     0.009 C 
ENDBRANCH   1   7
BRANCH   2   9
ATOM      9  O   UNL     1      -2.375  61.370 -15.744  1.00  0.00    -0.508 OA
ATOM     10  H   UNL     1      -1.764  60.584 -15.931  1.00  0.00     0.293 HD
ENDBRANCH   2   9
BRANCH   4  11
ATOM     11  O   UNL     1      -6.844  59.875 -14.663  1.00  0.00    -0.508 OA
ATOM     12  H   UNL     1      -7.063  58.940 -14.340  1.00  0.00     0.293 HD
ENDBRANCH   4  11
TORSDOF 3
ENDMDL
MODEL 6
REMARK VINA RESULT:    -4.862      6.784      7.383
REMARK INTER + INTRA:          -5.531
REMARK INTER:                  -5.448
REMARK INTRA:                  -0.083
REMARK UNBOUND:                -0.101
REMARK SMILES CCc1ccc(O)cc1O
REMARK SMILES IDX 3 1 9 2 8 3 6 4 5 5 4 6 2 7 1 8 10 9 7 11
REMARK H PARENT 10 10 7 12
REMARK Flexibility Score: inf
ROOT
ATOM      1  C   UNL     1      -2.661  67.780 -20.308  1.00  0.00    -0.006 A 
ATOM      2  C   UNL     1      -1.843  68.914 -20.126  1.00  0.00     0.122 A 
ATOM      3  C   UNL     1      -0.539  68.925 -20.643  1.00  0.00     0.092 A 
ATOM      4  C   UNL     1      -0.040  67.812 -21.328  1.00  0.00     0.119 A 
ATOM      5  C   UNL     1      -0.846  66.680 -21.496  1.00  0.00     0.047 A 
ATOM      6  C   UNL     1      -2.146  66.661 -20.986  1.00  0.00     0.011 A 
ENDROOT
BRANCH   1   7
ATOM      7  C   UNL     1      -4.055  67.729 -19.737  1.00  0.00     0.036 C 
ATOM      8  C   UNL     1      -5.060  68.344 -20.706  1.00  0.00     0.009 C 
ENDBRANCH   1   7
BRANCH   2   9
ATOM      9  O   UNL     1      -2.326  70.023 -19.433  1.00  0.00    -0.508 OA
ATOM     10  H   UNL     1      -2.861  69.923 -18.578  1.00  0.00     0.293 HD
ENDBRANCH   2   9
BRANCH   4  11
ATOM     11  O   UNL     1       1.258  67.842 -21.835  1.00  0.00    -0.508 OA
ATOM     12  H   UNL     1       1.457  67.586 -22.795  1.00  0.00     0.293 HD
ENDBRANCH   4  11
TORSDOF 3
ENDMDL
MODEL 7
REMARK VINA RESULT:    -4.854     14.377     15.472
REMARK INTER + INTRA:          -5.522
REMARK INTER:                  -5.437
REMARK INTRA:                  -0.085
REMARK UNBOUND:                -0.101
REMARK SMILES CCc1ccc(O)cc1O
REMARK SMILES IDX 3 1 9 2 8 3 6 4 5 5 4 6 2 7 1 8 10 9 7 11
REMARK H PARENT 10 10 7 12
REMARK Flexibility Score: inf
ROOT
ATOM      1  C   UNL     1      -4.781  60.904 -14.669  1.00  0.00    -0.006 A 
ATOM      2  C   UNL     1      -6.093  60.412 -14.511  1.00  0.00     0.122 A 
ATOM      3  C   UNL     1      -6.563  60.076 -13.233  1.00  0.00     0.092 A 
ATOM      4  C   UNL     1      -5.735  60.214 -12.114  1.00  0.00     0.119 A 
ATOM      5  C   UNL     1      -4.427  60.690 -12.273  1.00  0.00     0.047 A 
ATOM      6  C   UNL     1      -3.951  61.028 -13.542  1.00  0.00     0.011 A 
ENDROOT
BRANCH   1   7
ATOM      7  C   UNL     1      -4.240  61.244 -16.034  1.00  0.00     0.036 C 
ATOM      8  C   UNL     1      -3.013  62.143 -15.921  1.00  0.00     0.009 C 
ENDBRANCH   1   7
BRANCH   2   9
ATOM      9  O   UNL     1      -6.922  60.256 -15.621  1.00  0.00    -0.508 OA
ATOM     10  H   UNL     1      -6.934  59.397 -16.158  1.00  0.00     0.293 HD
ENDBRANCH   2   9
BRANCH   4  11
ATOM     11  O   UNL     1      -6.219  59.875 -10.853  1.00  0.00    -0.508 OA
ATOM     12  H   UNL     1      -5.909  60.360 -10.019  1.00  0.00     0.293 HD
ENDBRANCH   4  11
TORSDOF 3
ENDMDL
MODEL 8
REMARK VINA RESULT:    -4.824     14.954     16.162
REMARK INTER + INTRA:          -5.489
REMARK INTER:                  -5.395
REMARK INTRA:                  -0.094
REMARK UNBOUND:                -0.101
REMARK SMILES CCc1ccc(O)cc1O
REMARK SMILES IDX 3 1 9 2 8 3 6 4 5 5 4 6 2 7 1 8 10 9 7 11
REMARK H PARENT 10 10 7 12
REMARK Flexibility Score: inf
ROOT
ATOM      1  C   UNL     1      -3.905  60.404 -12.704  1.00  0.00    -0.006 A 
ATOM      2  C   UNL     1      -5.265  60.122 -12.461  1.00  0.00     0.122 A 
ATOM      3  C   UNL     1      -6.171  60.084 -13.530  1.00  0.00     0.092 A 
ATOM      4  C   UNL     1      -5.738  60.336 -14.836  1.00  0.00     0.119 A 
ATOM      5  C   UNL     1      -4.390  60.629 -15.076  1.00  0.00     0.047 A 
ATOM      6  C   UNL     1      -3.480  60.668 -14.017  1.00  0.00     0.011 A 
ENDROOT
BRANCH   1   7
ATOM      7  C   UNL     1      -2.914  60.481 -11.570  1.00  0.00     0.036 C 
ATOM      8  C   UNL     1      -2.147  61.799 -11.609  1.00  0.00     0.009 C 
ENDBRANCH   1   7
BRANCH   2   9
ATOM      9  O   UNL     1      -5.710  59.884 -11.161  1.00  0.00    -0.508 OA
ATOM     10  H   UNL     1      -6.652  59.560 -10.974  1.00  0.00     0.293 HD
ENDBRANCH   2   9
BRANCH   4  11
ATOM     11  O   UNL     1      -6.653  60.293 -15.885  1.00  0.00    -0.508 OA
ATOM     12  H   UNL     1      -7.025  61.141 -16.298  1.00  0.00     0.293 HD
ENDBRANCH   4  11
TORSDOF 3
ENDMDL
MODEL 9
REMARK VINA RESULT:    -4.620     16.545     18.203
REMARK INTER + INTRA:          -5.260
REMARK INTER:                  -5.175
REMARK INTRA:                  -0.086
REMARK UNBOUND:                -0.101
REMARK SMILES CCc1ccc(O)cc1O
REMARK SMILES IDX 3 1 9 2 8 3 6 4 5 5 4 6 2 7 1 8 10 9 7 11
REMARK H PARENT 10 10 7 12
REMARK Flexibility Score: inf
ROOT
ATOM      1  C   UNL     1      -0.893  62.310 -10.398  1.00  0.00    -0.006 A 
ATOM      2  C   UNL     1      -1.631  62.616 -11.560  1.00  0.00     0.122 A 
ATOM      3  C   UNL     1      -2.376  63.802 -11.622  1.00  0.00     0.092 A 
ATOM      4  C   UNL     1      -2.402  64.680 -10.533  1.00  0.00     0.119 A 
ATOM      5  C   UNL     1      -1.681  64.370  -9.373  1.00  0.00     0.047 A 
ATOM      6  C   UNL     1      -0.935  63.191  -9.304  1.00  0.00     0.011 A 
ENDROOT
BRANCH   1   7
ATOM      7  C   UNL     1      -0.108  61.027 -10.292  1.00  0.00     0.036 C 
ATOM      8  C   UNL     1       0.420  60.831  -8.875  1.00  0.00     0.009 C 
ENDBRANCH   1   7
BRANCH   2   9
ATOM      9  O   UNL     1      -1.623  61.741 -12.646  1.00  0.00    -0.508 OA
ATOM     10  H   UNL     1      -2.477  61.321 -12.994  1.00  0.00     0.293 HD
ENDBRANCH   2   9
BRANCH   4  11
ATOM     11  O   UNL     1      -3.147  65.854 -10.613  1.00  0.00    -0.508 OA
ATOM     12  H   UNL     1      -2.706  66.752 -10.775  1.00  0.00     0.293 HD
ENDBRANCH   4  11
TORSDOF 3
ENDMDL
