MODEL 1
REMARK VINA RESULT:    -3.906      0.000      0.000
REMARK INTER + INTRA:          -3.906
REMARK INTER:                  -3.906
REMARK INTRA:                   0.000
REMARK UNBOUND:                 0.000
REMARK SMILES C=C1CC[C@H]2C[C@@H]1C2(C)C
REMARK SMILES IDX 9 1 8 2 5 3 4 4 3 5 2 6 1 7 7 8 6 9 10 10
REMARK H PARENT
REMARK Flexibility Score: inf
ROOT
ATOM      1  C   UNL     1     134.798 134.369 132.553  1.00  0.00     0.012 C 
ATOM      2  C   UNL     1     134.677 135.043 131.164  1.00  0.00    -0.026 C 
ATOM      3  C   UNL     1     133.837 136.345 131.223  1.00  0.00    -0.004 C 
ATOM      4  C   UNL     1     134.055 137.213 129.942  1.00  0.00     0.008 C 
ATOM      5  C   UNL     1     133.853 136.391 128.613  1.00  0.00     0.031 C 
ATOM      6  C   UNL     1     133.656 134.891 128.879  1.00  0.00    -0.074 C 
ATOM      7  C   UNL     1     133.609 134.007 127.876  1.00  0.00     0.008 C 
ATOM      8  C   UNL     1     133.511 134.455 130.333  1.00  0.00     0.021 C 
ATOM      9  C   UNL     1     132.578 135.499 130.968  1.00  0.00     0.012 C 
ATOM     10  C   UNL     1     136.089 135.096 130.520  1.00  0.00     0.012 C 
ENDROOT
TORSDOF 0
ENDMDL
MODEL 2
REMARK VINA RESULT:    -3.854      1.051      3.059
REMARK INTER + INTRA:          -3.854
REMARK INTER:                  -3.854
REMARK INTRA:                   0.000
REMARK UNBOUND:                 0.000
REMARK SMILES C=C1CC[C@H]2C[C@@H]1C2(C)C
REMARK SMILES IDX 9 1 8 2 5 3 4 4 3 5 2 6 1 7 7 8 6 9 10 10
REMARK H PARENT
REMARK Flexibility Score: inf
ROOT
ATOM      1  C   UNL     1     136.761 134.843 130.813  1.00  0.00     0.012 C 
ATOM      2  C   UNL     1     135.250 135.055 131.080  1.00  0.00    -0.026 C 
ATOM      3  C   UNL     1     134.400 134.839 129.802  1.00  0.00    -0.004 C 
ATOM      4  C   UNL     1     132.889 134.653 130.156  1.00  0.00     0.008 C 
ATOM      5  C   UNL     1     132.343 135.798 131.092  1.00  0.00     0.031 C 
ATOM      6  C   UNL     1     133.458 136.736 131.578  1.00  0.00    -0.074 C 
ATOM      7  C   UNL     1     133.221 137.684 132.491  1.00  0.00     0.008 C 
ATOM      8  C   UNL     1     134.844 136.544 130.970  1.00  0.00     0.021 C 
ATOM      9  C   UNL     1     134.592 136.328 129.469  1.00  0.00     0.012 C 
ATOM     10  C   UNL     1     134.867 134.279 132.369  1.00  0.00     0.012 C 
ENDROOT
TORSDOF 0
ENDMDL
MODEL 3
REMARK VINA RESULT:    -3.848      5.160      6.844
REMARK INTER + INTRA:          -3.848
REMARK INTER:                  -3.848
REMARK INTRA:                   0.000
REMARK UNBOUND:                 0.000
REMARK SMILES C=C1CC[C@H]2C[C@@H]1C2(C)C
REMARK SMILES IDX 9 1 8 2 5 3 4 4 3 5 2 6 1 7 7 8 6 9 10 10
REMARK H PARENT
REMARK Flexibility Score: inf
ROOT
ATOM      1  C   UNL     1     138.958 139.233 132.588  1.00  0.00     0.012 C 
ATOM      2  C   UNL     1     139.046 138.584 131.184  1.00  0.00    -0.026 C 
ATOM      3  C   UNL     1     139.884 137.281 131.199  1.00  0.00    -0.004 C 
ATOM      4  C   UNL     1     139.635 136.436 129.908  1.00  0.00     0.008 C 
ATOM      5  C   UNL     1     139.806 137.282 128.590  1.00  0.00     0.031 C 
ATOM      6  C   UNL     1     140.012 138.777 128.878  1.00  0.00    -0.074 C 
ATOM      7  C   UNL     1     140.037 139.679 127.891  1.00  0.00     0.008 C 
ATOM      8  C   UNL     1     140.192 139.186 130.337  1.00  0.00     0.021 C 
ATOM      9  C   UNL     1     141.138 138.130 130.930  1.00  0.00     0.012 C 
ATOM     10  C   UNL     1     137.619 138.544 130.573  1.00  0.00     0.012 C 
ENDROOT
TORSDOF 0
ENDMDL
MODEL 4
REMARK VINA RESULT:    -3.782      3.481      5.319
REMARK INTER + INTRA:          -3.782
REMARK INTER:                  -3.782
REMARK INTRA:                   0.000
REMARK UNBOUND:                 0.000
REMARK SMILES C=C1CC[C@H]2C[C@@H]1C2(C)C
REMARK SMILES IDX 9 1 8 2 5 3 4 4 3 5 2 6 1 7 7 8 6 9 10 10
REMARK H PARENT
REMARK Flexibility Score: inf
ROOT
ATOM      1  C   UNL     1     134.877 136.916 130.945  1.00  0.00     0.012 C 
ATOM      2  C   UNL     1     135.101 138.436 131.144  1.00  0.00    -0.026 C 
ATOM      3  C   UNL     1     134.825 139.237 129.845  1.00  0.00    -0.004 C 
ATOM      4  C   UNL     1     134.656 140.760 130.150  1.00  0.00     0.008 C 
ATOM      5  C   UNL     1     135.843 141.340 131.009  1.00  0.00     0.031 C 
ATOM      6  C   UNL     1     136.803 140.243 131.493  1.00  0.00    -0.074 C 
ATOM      7  C   UNL     1     137.793 140.513 132.351  1.00  0.00     0.008 C 
ATOM      8  C   UNL     1     136.583 138.835 130.949  1.00  0.00     0.021 C 
ATOM      9  C   UNL     1     136.297 139.030 129.451  1.00  0.00     0.012 C 
ATOM     10  C   UNL     1     134.386 138.869 132.452  1.00  0.00     0.012 C 
ENDROOT
TORSDOF 0
ENDMDL
MODEL 5
REMARK VINA RESULT:    -3.778      4.429      5.792
REMARK INTER + INTRA:          -3.778
REMARK INTER:                  -3.778
REMARK INTRA:                   0.000
REMARK UNBOUND:                 0.000
REMARK SMILES C=C1CC[C@H]2C[C@@H]1C2(C)C
REMARK SMILES IDX 9 1 8 2 5 3 4 4 3 5 2 6 1 7 7 8 6 9 10 10
REMARK H PARENT
REMARK Flexibility Score: inf
ROOT
ATOM      1  C   UNL     1     134.324 138.906 131.886  1.00  0.00     0.012 C 
ATOM      2  C   UNL     1     135.860 139.077 131.974  1.00  0.00    -0.026 C 
ATOM      3  C   UNL     1     136.257 140.380 132.715  1.00  0.00    -0.004 C 
ATOM      4  C   UNL     1     137.757 140.344 133.152  1.00  0.00     0.008 C 
ATOM      5  C   UNL     1     138.724 139.974 131.964  1.00  0.00     0.031 C 
ATOM      6  C   UNL     1     137.960 139.568 130.694  1.00  0.00    -0.074 C 
ATOM      7  C   UNL     1     138.598 139.085 129.623  1.00  0.00     0.008 C 
ATOM      8  C   UNL     1     136.445 139.746 130.707  1.00  0.00     0.021 C 
ATOM      9  C   UNL     1     136.212 141.115 131.365  1.00  0.00     0.012 C 
ATOM     10  C   UNL     1     136.476 137.733 132.450  1.00  0.00     0.012 C 
ENDROOT
TORSDOF 0
ENDMDL
MODEL 6
REMARK VINA RESULT:    -3.776      3.293      4.821
REMARK INTER + INTRA:          -3.776
REMARK INTER:                  -3.776
REMARK INTRA:                   0.000
REMARK UNBOUND:                 0.000
REMARK SMILES C=C1CC[C@H]2C[C@@H]1C2(C)C
REMARK SMILES IDX 9 1 8 2 5 3 4 4 3 5 2 6 1 7 7 8 6 9 10 10
REMARK H PARENT
REMARK Flexibility Score: inf
ROOT
ATOM      1  C   UNL     1     139.244 134.752 132.594  1.00  0.00     0.012 C 
ATOM      2  C   UNL     1     138.583 134.641 131.197  1.00  0.00    -0.026 C 
ATOM      3  C   UNL     1     137.294 133.780 131.233  1.00  0.00    -0.004 C 
ATOM      4  C   UNL     1     136.433 134.004 129.948  1.00  0.00     0.008 C 
ATOM      5  C   UNL     1     137.269 133.835 128.623  1.00  0.00     0.031 C 
ATOM      6  C   UNL     1     138.770 133.657 128.898  1.00  0.00    -0.074 C 
ATOM      7  C   UNL     1     139.663 133.638 127.903  1.00  0.00     0.008 C 
ATOM      8  C   UNL     1     139.196 133.497 130.354  1.00  0.00     0.021 C 
ATOM      9  C   UNL     1     138.162 132.539 130.967  1.00  0.00     0.012 C 
ATOM     10  C   UNL     1     138.513 136.061 130.573  1.00  0.00     0.012 C 
ENDROOT
TORSDOF 0
ENDMDL
MODEL 7
REMARK VINA RESULT:    -3.766      5.317      7.266
REMARK INTER + INTRA:          -3.766
REMARK INTER:                  -3.766
REMARK INTRA:                   0.000
REMARK UNBOUND:                 0.000
REMARK SMILES C=C1CC[C@H]2C[C@@H]1C2(C)C
REMARK SMILES IDX 9 1 8 2 5 3 4 4 3 5 2 6 1 7 7 8 6 9 10 10
REMARK H PARENT
REMARK Flexibility Score: inf
ROOT
ATOM      1  C   UNL     1     139.711 139.097 130.253  1.00  0.00     0.012 C 
ATOM      2  C   UNL     1     140.063 137.998 131.287  1.00  0.00    -0.026 C 
ATOM      3  C   UNL     1     139.141 136.759 131.151  1.00  0.00    -0.004 C 
ATOM      4  C   UNL     1     139.744 135.525 131.895  1.00  0.00     0.008 C 
ATOM      5  C   UNL     1     140.147 135.853 133.383  1.00  0.00     0.031 C 
ATOM      6  C   UNL     1     140.011 137.349 133.708  1.00  0.00    -0.074 C 
ATOM      7  C   UNL     1     140.437 137.849 134.873  1.00  0.00     0.008 C 
ATOM      8  C   UNL     1     139.366 138.235 132.647  1.00  0.00     0.021 C 
ATOM      9  C   UNL     1     138.164 137.427 132.133  1.00  0.00     0.012 C 
ATOM     10  C   UNL     1     141.601 137.786 131.272  1.00  0.00     0.012 C 
ENDROOT
TORSDOF 0
ENDMDL
MODEL 8
REMARK VINA RESULT:    -3.765      3.078      5.125
REMARK INTER + INTRA:          -3.765
REMARK INTER:                  -3.765
REMARK INTRA:                   0.000
REMARK UNBOUND:                 0.000
REMARK SMILES C=C1CC[C@H]2C[C@@H]1C2(C)C
REMARK SMILES IDX 9 1 8 2 5 3 4 4 3 5 2 6 1 7 7 8 6 9 10 10
REMARK H PARENT
REMARK Flexibility Score: inf
ROOT
ATOM      1  C   UNL     1     139.026 133.966 130.097  1.00  0.00     0.012 C 
ATOM      2  C   UNL     1     137.947 133.642 131.160  1.00  0.00    -0.026 C 
ATOM      3  C   UNL     1     136.685 134.526 130.993  1.00  0.00    -0.004 C 
ATOM      4  C   UNL     1     135.474 133.933 131.783  1.00  0.00     0.008 C 
ATOM      5  C   UNL     1     135.829 133.616 133.286  1.00  0.00     0.031 C 
ATOM      6  C   UNL     1     137.325 133.803 133.584  1.00  0.00    -0.074 C 
ATOM      7  C   UNL     1     137.849 133.450 134.762  1.00  0.00     0.008 C 
ATOM      8  C   UNL     1     138.183 134.414 132.481  1.00  0.00     0.021 C 
ATOM      9  C   UNL     1     137.340 135.568 131.916  1.00  0.00     0.012 C 
ATOM     10  C   UNL     1     137.773 132.100 131.227  1.00  0.00     0.012 C 
ENDROOT
TORSDOF 0
ENDMDL
MODEL 9
REMARK VINA RESULT:    -3.761      4.891      6.570
REMARK INTER + INTRA:          -3.761
REMARK INTER:                  -3.761
REMARK INTRA:                   0.000
REMARK UNBOUND:                 0.000
REMARK SMILES C=C1CC[C@H]2C[C@@H]1C2(C)C
REMARK SMILES IDX 9 1 8 2 5 3 4 4 3 5 2 6 1 7 7 8 6 9 10 10
REMARK H PARENT
REMARK Flexibility Score: inf
ROOT
ATOM      1  C   UNL     1     138.899 139.532 131.964  1.00  0.00     0.012 C 
ATOM      2  C   UNL     1     139.065 137.994 132.041  1.00  0.00    -0.026 C 
ATOM      3  C   UNL     1     140.365 137.588 132.783  1.00  0.00    -0.004 C 
ATOM      4  C   UNL     1     140.323 136.085 133.208  1.00  0.00     0.008 C 
ATOM      5  C   UNL     1     139.953 135.128 132.012  1.00  0.00     0.031 C 
ATOM      6  C   UNL     1     139.553 135.903 130.747  1.00  0.00    -0.074 C 
ATOM      7  C   UNL     1     139.071 135.275 129.670  1.00  0.00     0.008 C 
ATOM      8  C   UNL     1     139.735 137.417 130.772  1.00  0.00     0.021 C 
ATOM      9  C   UNL     1     141.104 137.641 131.435  1.00  0.00     0.012 C 
ATOM     10  C   UNL     1     137.718 137.379 132.509  1.00  0.00     0.012 C 
ENDROOT
TORSDOF 0
ENDMDL
