MODEL 1
REMARK VINA RESULT:    -3.528      0.000      0.000
REMARK INTER + INTRA:          -3.631
REMARK INTER:                  -3.631
REMARK INTRA:                   0.000
REMARK UNBOUND:                 0.000
REMARK SMILES Cc1ccccc1O
REMARK SMILES IDX 1 1 2 2 3 3 4 4 5 5 6 6 7 7 8 8
REMARK H PARENT 8 9
REMARK Flexibility Score: inf
ROOT
ATOM      1  C   UNL     1     177.398 161.512 176.811  1.00  0.00     0.048 C 
ATOM      2  C   UNL     1     178.192 161.194 175.576  1.00  0.00    -0.009 A 
ATOM      3  C   UNL     1     177.772 160.171 174.708  1.00  0.00     0.007 A 
ATOM      4  C   UNL     1     178.511 159.875 173.559  1.00  0.00     0.001 A 
ATOM      5  C   UNL     1     179.672 160.595 173.266  1.00  0.00     0.004 A 
ATOM      6  C   UNL     1     180.097 161.613 174.124  1.00  0.00     0.046 A 
ATOM      7  C   UNL     1     179.363 161.918 175.279  1.00  0.00     0.118 A 
ENDROOT
BRANCH   7   8
ATOM      8  O   UNL     1     179.791 162.936 176.132  1.00  0.00    -0.508 OA
ATOM      9  H   UNL     1     180.773 163.159 176.240  1.00  0.00     0.293 HD
ENDBRANCH   7   8
TORSDOF 1
ENDMDL
MODEL 2
REMARK VINA RESULT:    -3.485     21.363     22.641
REMARK INTER + INTRA:          -3.586
REMARK INTER:                  -3.586
REMARK INTRA:                   0.000
REMARK UNBOUND:                 0.000
REMARK SMILES Cc1ccccc1O
REMARK SMILES IDX 1 1 2 2 3 3 4 4 5 5 6 6 7 7 8 8
REMARK H PARENT 8 9
REMARK Flexibility Score: inf
ROOT
ATOM      1  C   UNL     1     160.059 162.130 184.749  1.00  0.00     0.048 C 
ATOM      2  C   UNL     1     160.002 162.527 186.196  1.00  0.00    -0.009 A 
ATOM      3  C   UNL     1     160.021 161.544 187.202  1.00  0.00     0.007 A 
ATOM      4  C   UNL     1     159.968 161.913 188.549  1.00  0.00     0.001 A 
ATOM      5  C   UNL     1     159.895 163.262 188.904  1.00  0.00     0.004 A 
ATOM      6  C   UNL     1     159.875 164.246 187.912  1.00  0.00     0.046 A 
ATOM      7  C   UNL     1     159.929 163.886 186.558  1.00  0.00     0.118 A 
ENDROOT
BRANCH   7   8
ATOM      8  O   UNL     1     159.908 164.872 185.571  1.00  0.00    -0.508 OA
ATOM      9  H   UNL     1     159.937 164.636 184.586  1.00  0.00     0.293 HD
ENDBRANCH   7   8
TORSDOF 1
ENDMDL
MODEL 3
REMARK VINA RESULT:    -3.473     24.692     26.401
REMARK INTER + INTRA:          -3.574
REMARK INTER:                  -3.574
REMARK INTRA:                   0.000
REMARK UNBOUND:                 0.000
REMARK SMILES Cc1ccccc1O
REMARK SMILES IDX 1 1 2 2 3 3 4 4 5 5 6 6 7 7 8 8
REMARK H PARENT 8 9
REMARK Flexibility Score: inf
ROOT
ATOM      1  C   UNL     1     163.639 176.877 185.896  1.00  0.00     0.048 C 
ATOM      2  C   UNL     1     162.328 176.777 186.622  1.00  0.00    -0.009 A 
ATOM      3  C   UNL     1     162.293 176.383 187.971  1.00  0.00     0.007 A 
ATOM      4  C   UNL     1     161.073 176.290 188.646  1.00  0.00     0.001 A 
ATOM      5  C   UNL     1     159.880 176.588 187.984  1.00  0.00     0.004 A 
ATOM      6  C   UNL     1     159.904 176.980 186.643  1.00  0.00     0.046 A 
ATOM      7  C   UNL     1     161.123 177.077 185.957  1.00  0.00     0.118 A 
ENDROOT
BRANCH   7   8
ATOM      8  O   UNL     1     161.143 177.469 184.617  1.00  0.00    -0.508 OA
ATOM      9  H   UNL     1     160.292 177.705 184.122  1.00  0.00     0.293 HD
ENDBRANCH   7   8
TORSDOF 1
ENDMDL
MODEL 4
REMARK VINA RESULT:    -3.402     20.418     21.465
REMARK INTER + INTRA:          -3.502
REMARK INTER:                  -3.502
REMARK INTRA:                   0.000
REMARK UNBOUND:                 0.000
REMARK SMILES Cc1ccccc1O
REMARK SMILES IDX 1 1 2 2 3 3 4 4 5 5 6 6 7 7 8 8
REMARK H PARENT 8 9
REMARK Flexibility Score: inf
ROOT
ATOM      1  C   UNL     1     163.535 160.800 188.505  1.00  0.00     0.048 C 
ATOM      2  C   UNL     1     162.260 161.380 187.962  1.00  0.00    -0.009 A 
ATOM      3  C   UNL     1     161.360 162.038 188.817  1.00  0.00     0.007 A 
ATOM      4  C   UNL     1     160.173 162.577 188.312  1.00  0.00     0.001 A 
ATOM      5  C   UNL     1     159.875 162.464 186.952  1.00  0.00     0.004 A 
ATOM      6  C   UNL     1     160.764 161.811 186.094  1.00  0.00     0.046 A 
ATOM      7  C   UNL     1     161.957 161.267 186.591  1.00  0.00     0.118 A 
ENDROOT
BRANCH   7   8
ATOM      8  O   UNL     1     162.841 160.616 185.730  1.00  0.00    -0.508 OA
ATOM      9  H   UNL     1     163.022 160.961 184.795  1.00  0.00     0.293 HD
ENDBRANCH   7   8
TORSDOF 1
ENDMDL
MODEL 5
REMARK VINA RESULT:    -3.372     21.975     22.621
REMARK INTER + INTRA:          -3.470
REMARK INTER:                  -3.470
REMARK INTRA:                   0.000
REMARK UNBOUND:                 0.000
REMARK SMILES Cc1ccccc1O
REMARK SMILES IDX 1 1 2 2 3 3 4 4 5 5 6 6 7 7 8 8
REMARK H PARENT 8 9
REMARK Flexibility Score: inf
ROOT
ATOM      1  C   UNL     1     159.945 165.625 187.101  1.00  0.00     0.048 C 
ATOM      2  C   UNL     1     159.921 164.123 187.141  1.00  0.00    -0.009 A 
ATOM      3  C   UNL     1     159.919 163.447 188.373  1.00  0.00     0.007 A 
ATOM      4  C   UNL     1     159.897 162.049 188.410  1.00  0.00     0.001 A 
ATOM      5  C   UNL     1     159.876 161.317 187.222  1.00  0.00     0.004 A 
ATOM      6  C   UNL     1     159.878 161.980 185.992  1.00  0.00     0.046 A 
ATOM      7  C   UNL     1     159.900 163.381 185.944  1.00  0.00     0.118 A 
ENDROOT
BRANCH   7   8
ATOM      8  O   UNL     1     159.902 164.040 184.714  1.00  0.00    -0.508 OA
ATOM      9  H   UNL     1     159.589 163.581 183.866  1.00  0.00     0.293 HD
ENDBRANCH   7   8
TORSDOF 1
ENDMDL
MODEL 6
REMARK VINA RESULT:    -3.304     19.825     21.410
REMARK INTER + INTRA:          -3.401
REMARK INTER:                  -3.401
REMARK INTRA:                   0.000
REMARK UNBOUND:                 0.000
REMARK SMILES Cc1ccccc1O
REMARK SMILES IDX 1 1 2 2 3 3 4 4 5 5 6 6 7 7 8 8
REMARK H PARENT 8 9
REMARK Flexibility Score: inf
ROOT
ATOM      1  C   UNL     1     161.643 160.921 184.751  1.00  0.00     0.048 C 
ATOM      2  C   UNL     1     161.358 161.353 186.161  1.00  0.00    -0.009 A 
ATOM      3  C   UNL     1     160.143 161.988 186.476  1.00  0.00     0.007 A 
ATOM      4  C   UNL     1     159.878 162.390 187.789  1.00  0.00     0.001 A 
ATOM      5  C   UNL     1     160.819 162.163 188.795  1.00  0.00     0.004 A 
ATOM      6  C   UNL     1     162.029 161.533 188.492  1.00  0.00     0.046 A 
ATOM      7  C   UNL     1     162.304 161.126 187.179  1.00  0.00     0.118 A 
ENDROOT
BRANCH   7   8
ATOM      8  O   UNL     1     163.514 160.497 186.880  1.00  0.00    -0.508 OA
ATOM      9  H   UNL     1     163.894 160.498 185.941  1.00  0.00     0.293 HD
ENDBRANCH   7   8
TORSDOF 1
ENDMDL
MODEL 7
REMARK VINA RESULT:    -3.268     24.570     25.063
REMARK INTER + INTRA:          -3.364
REMARK INTER:                  -3.364
REMARK INTRA:                   0.000
REMARK UNBOUND:                 0.000
REMARK SMILES Cc1ccccc1O
REMARK SMILES IDX 1 1 2 2 3 3 4 4 5 5 6 6 7 7 8 8
REMARK H PARENT 8 9
REMARK Flexibility Score: inf
ROOT
ATOM      1  C   UNL     1     164.678 177.385 187.434  1.00  0.00     0.048 C 
ATOM      2  C   UNL     1     165.880 178.175 187.868  1.00  0.00    -0.009 A 
ATOM      3  C   UNL     1     166.234 178.239 189.227  1.00  0.00     0.007 A 
ATOM      4  C   UNL     1     167.353 178.975 189.630  1.00  0.00     0.001 A 
ATOM      5  C   UNL     1     168.126 179.651 188.684  1.00  0.00     0.004 A 
ATOM      6  C   UNL     1     167.781 179.594 187.330  1.00  0.00     0.046 A 
ATOM      7  C   UNL     1     166.662 178.859 186.916  1.00  0.00     0.118 A 
ENDROOT
BRANCH   7   8
ATOM      8  O   UNL     1     166.321 178.805 185.564  1.00  0.00    -0.508 OA
ATOM      9  H   UNL     1     166.971 178.460 184.867  1.00  0.00     0.293 HD
ENDBRANCH   7   8
TORSDOF 1
ENDMDL
MODEL 8
REMARK VINA RESULT:    -3.239     20.567     21.975
REMARK INTER + INTRA:          -3.333
REMARK INTER:                  -3.333
REMARK INTRA:                   0.000
REMARK UNBOUND:                 0.000
REMARK SMILES Cc1ccccc1O
REMARK SMILES IDX 1 1 2 2 3 3 4 4 5 5 6 6 7 7 8 8
REMARK H PARENT 8 9
REMARK Flexibility Score: inf
ROOT
ATOM      1  C   UNL     1     163.525 161.158 188.502  1.00  0.00     0.048 C 
ATOM      2  C   UNL     1     162.273 161.982 188.406  1.00  0.00    -0.009 A 
ATOM      3  C   UNL     1     161.040 161.368 188.122  1.00  0.00     0.007 A 
ATOM      4  C   UNL     1     159.875 162.135 188.032  1.00  0.00     0.001 A 
ATOM      5  C   UNL     1     159.928 163.517 188.224  1.00  0.00     0.004 A 
ATOM      6  C   UNL     1     161.149 164.137 188.505  1.00  0.00     0.046 A 
ATOM      7  C   UNL     1     162.323 163.376 188.598  1.00  0.00     0.118 A 
ENDROOT
BRANCH   7   8
ATOM      8  O   UNL     1     163.540 163.999 188.880  1.00  0.00    -0.508 OA
ATOM      9  H   UNL     1     164.419 163.616 188.555  1.00  0.00     0.293 HD
ENDBRANCH   7   8
TORSDOF 1
ENDMDL
