MODEL 1
REMARK VINA RESULT:    -6.878      0.000      0.000
REMARK INTER + INTRA:         -11.445
REMARK INTER:                 -10.095
REMARK INTRA:                  -1.350
REMARK UNBOUND:                -1.350
REMARK SMILES O=c1c(O[C@H]2O[C@H](CO)[C@@H](O)[C@@H](O)[C@H]2O)c(-c2ccc(O)c(O)c2)oc2cc(O)cc(O)c12
REMARK SMILES IDX 4 1 3 2 16 3 25 4 2 5 26 6 1 7 33 8 27 9 31 10 28 11 30 12
REMARK SMILES IDX 17 13 18 14 19 15 20 16 24 17 22 18 21 19 23 21 32 23 29 25
REMARK SMILES IDX 5 27 14 28 6 29 12 30 7 31 10 32 15 33 13 35 8 37 9 38 11 40
REMARK H PARENT 21 20 23 22 32 24 29 26 15 34 13 36 9 39 11 41
REMARK Flexibility Score: inf
ROOT
ATOM      1  O   UNL     1      16.899   2.377 141.059  1.00  0.00    -0.454 OA
ENDROOT
BRANCH   1   2
ATOM      2  C   UNL     1      17.906   3.350 141.118  1.00  0.00     0.214 A 
ATOM      3  C   UNL     1      17.621   4.707 141.387  1.00  0.00     0.180 A 
ATOM      4  O   UNL     1      18.619   5.574 141.523  1.00  0.00    -0.452 OA
ATOM      5  C   UNL     1      19.235   2.967 140.911  1.00  0.00     0.239 A 
ATOM      6  C   UNL     1      19.897   5.245 141.376  1.00  0.00     0.146 A 
ATOM      7  O   UNL     1      19.493   1.767 140.624  1.00  0.00    -0.285 OA
ATOM      8  C   UNL     1      20.266   3.920 141.045  1.00  0.00     0.111 A 
ATOM      9  C   UNL     1      20.877   6.228 141.540  1.00  0.00     0.094 A 
ATOM     10  C   UNL     1      21.636   3.607 140.876  1.00  0.00     0.134 A 
ATOM     11  C   UNL     1      22.227   5.915 141.375  1.00  0.00     0.123 A 
ATOM     12  C   UNL     1      22.604   4.608 141.043  1.00  0.00     0.093 A 
BRANCH   3  13
ATOM     13  C   UNL     1      16.237   5.217 141.502  1.00  0.00     0.025 A 
ATOM     14  C   UNL     1      15.664   5.915 140.428  1.00  0.00     0.016 A 
ATOM     15  C   UNL     1      14.352   6.388 140.513  1.00  0.00     0.051 A 
ATOM     16  C   UNL     1      13.591   6.157 141.666  1.00  0.00     0.157 A 
ATOM     17  C   UNL     1      15.464   4.969 142.649  1.00  0.00     0.062 A 
ATOM     18  C   UNL     1      14.148   5.439 142.737  1.00  0.00     0.158 A 
BRANCH  16  19
ATOM     19  O   UNL     1      12.282   6.632 141.748  1.00  0.00    -0.504 OA
ATOM     20  H   UNL     1      11.728   6.807 140.919  1.00  0.00     0.293 HD
ENDBRANCH  16  19
BRANCH  18  21
ATOM     21  O   UNL     1      13.412   5.180 143.892  1.00  0.00    -0.504 OA
ATOM     22  H   UNL     1      13.794   4.650 144.667  1.00  0.00     0.293 HD
ENDBRANCH  18  21
ENDBRANCH   3  13
BRANCH  10  23
ATOM     23  O   UNL     1      22.042   2.312 140.546  1.00  0.00    -0.507 OA
ATOM     24  H   UNL     1      23.005   2.099 140.312  1.00  0.00     0.293 HD
ENDBRANCH  10  23
BRANCH  11  25
ATOM     25  O   UNL     1      23.188   6.909 141.543  1.00  0.00    -0.508 OA
ATOM     26  H   UNL     1      23.501   7.194 142.465  1.00  0.00     0.293 HD
ENDBRANCH  11  25
ENDBRANCH   1   2
BRANCH   1  27
ATOM     27  C   UNL     1      16.326   1.769 142.225  1.00  0.00     0.339 C 
ATOM     28  C   UNL     1      16.582   0.249 142.250  1.00  0.00     0.214 C 
ATOM     29  O   UNL     1      14.940   2.055 142.310  1.00  0.00    -0.332 OA
ATOM     30  C   UNL     1      15.788  -0.460 141.135  1.00  0.00     0.180 C 
ATOM     31  C   UNL     1      14.227   1.528 141.201  1.00  0.00     0.179 C 
ATOM     32  C   UNL     1      14.316  -0.016 141.182  1.00  0.00     0.177 C 
BRANCH  28  33
ATOM     33  O   UNL     1      17.957  -0.006 142.121  1.00  0.00    -0.384 OA
ATOM     34  H   UNL     1      18.294  -0.225 143.030  1.00  0.00     0.211 HD
ENDBRANCH  28  33
BRANCH  30  35
ATOM     35  O   UNL     1      16.335  -0.160 139.875  1.00  0.00    -0.387 OA
ATOM     36  H   UNL     1      16.162   0.804 139.703  1.00  0.00     0.211 HD
ENDBRANCH  30  35
BRANCH  31  37
ATOM     37  C   UNL     1      12.764   1.984 141.307  1.00  0.00     0.191 C 
BRANCH  37  38
ATOM     38  O   UNL     1      12.499   2.498 142.584  1.00  0.00    -0.394 OA
ATOM     39  H   UNL     1      11.547   2.781 142.587  1.00  0.00     0.210 HD
ENDBRANCH  37  38
ENDBRANCH  31  37
BRANCH  32  40
ATOM     40  O   UNL     1      13.628  -0.522 140.067  1.00  0.00    -0.387 OA
ATOM     41  H   UNL     1      13.749   0.137 139.333  1.00  0.00     0.211 HD
ENDBRANCH  32  40
ENDBRANCH   1  27
TORSDOF 12
ENDMDL
MODEL 2
REMARK VINA RESULT:    -6.803      2.095      6.862
REMARK INTER + INTRA:         -11.334
REMARK INTER:                  -9.237
REMARK INTRA:                  -2.097
REMARK UNBOUND:                -1.350
REMARK SMILES O=c1c(O[C@H]2O[C@H](CO)[C@@H](O)[C@@H](O)[C@H]2O)c(-c2ccc(O)c(O)c2)oc2cc(O)cc(O)c12
REMARK SMILES IDX 4 1 3 2 16 3 25 4 2 5 26 6 1 7 33 8 27 9 31 10 28 11 30 12
REMARK SMILES IDX 17 13 18 14 19 15 20 16 24 17 22 18 21 19 23 21 32 23 29 25
REMARK SMILES IDX 5 27 14 28 6 29 12 30 7 31 10 32 15 33 13 35 8 37 9 38 11 40
REMARK H PARENT 21 20 23 22 32 24 29 26 15 34 13 36 9 39 11 41
REMARK Flexibility Score: inf
ROOT
ATOM      1  O   UNL     1      15.451   2.899 141.509  1.00  0.00    -0.454 OA
ENDROOT
BRANCH   1   2
ATOM      2  C   UNL     1      14.262   3.640 141.531  1.00  0.00     0.214 A 
ATOM      3  C   UNL     1      14.248   5.040 141.351  1.00  0.00     0.180 A 
ATOM      4  O   UNL     1      13.088   5.685 141.289  1.00  0.00    -0.452 OA
ATOM      5  C   UNL     1      13.048   2.974 141.732  1.00  0.00     0.239 A 
ATOM      6  C   UNL     1      11.911   5.085 141.432  1.00  0.00     0.146 A 
ATOM      7  O   UNL     1      13.056   1.731 141.942  1.00  0.00    -0.285 OA
ATOM      8  C   UNL     1      11.838   3.695 141.679  1.00  0.00     0.111 A 
ATOM      9  C   UNL     1      10.743   5.848 141.350  1.00  0.00     0.094 A 
ATOM     10  C   UNL     1      10.569   3.090 141.847  1.00  0.00     0.134 A 
ATOM     11  C   UNL     1       9.494   5.248 141.514  1.00  0.00     0.123 A 
ATOM     12  C   UNL     1       9.409   3.873 141.763  1.00  0.00     0.093 A 
BRANCH   3  13
ATOM     13  C   UNL     1      15.492   5.838 141.250  1.00  0.00     0.025 A 
ATOM     14  C   UNL     1      15.958   6.238 139.988  1.00  0.00     0.016 A 
ATOM     15  C   UNL     1      17.119   7.006 139.876  1.00  0.00     0.051 A 
ATOM     16  C   UNL     1      17.822   7.397 141.024  1.00  0.00     0.157 A 
ATOM     17  C   UNL     1      16.187   6.249 142.401  1.00  0.00     0.062 A 
ATOM     18  C   UNL     1      17.350   7.020 142.292  1.00  0.00     0.158 A 
BRANCH  16  19
ATOM     19  O   UNL     1      18.982   8.162 140.908  1.00  0.00    -0.504 OA
ATOM     20  H   UNL     1      19.035   8.954 140.279  1.00  0.00     0.293 HD
ENDBRANCH  16  19
BRANCH  18  21
ATOM     21  O   UNL     1      18.018   7.406 143.454  1.00  0.00    -0.504 OA
ATOM     22  H   UNL     1      18.164   6.768 144.228  1.00  0.00     0.293 HD
ENDBRANCH  18  21
ENDBRANCH   3  13
BRANCH  10  23
ATOM     23  O   UNL     1      10.453   1.720 142.095  1.00  0.00    -0.507 OA
ATOM     24  H   UNL     1      11.161   1.210 142.610  1.00  0.00     0.293 HD
ENDBRANCH  10  23
BRANCH  11  25
ATOM     25  O   UNL     1       8.342   6.026 141.428  1.00  0.00    -0.508 OA
ATOM     26  H   UNL     1       8.285   6.823 140.804  1.00  0.00     0.293 HD
ENDBRANCH  11  25
ENDBRANCH   1   2
BRANCH   1  27
ATOM     27  C   UNL     1      16.048   2.408 140.301  1.00  0.00     0.339 C 
ATOM     28  C   UNL     1      16.390   0.910 140.411  1.00  0.00     0.214 C 
ATOM     29  O   UNL     1      17.194   3.171 139.962  1.00  0.00    -0.332 OA
ATOM     30  C   UNL     1      17.539   0.682 141.414  1.00  0.00     0.180 C 
ATOM     31  C   UNL     1      18.198   3.080 140.961  1.00  0.00     0.179 C 
ATOM     32  C   UNL     1      18.709   1.626 141.087  1.00  0.00     0.177 C 
BRANCH  28  33
ATOM     33  O   UNL     1      15.248   0.185 140.790  1.00  0.00    -0.384 OA
ATOM     34  H   UNL     1      15.427  -0.177 141.698  1.00  0.00     0.211 HD
ENDBRANCH  28  33
BRANCH  30  35
ATOM     35  O   UNL     1      17.097   0.909 142.729  1.00  0.00    -0.387 OA
ATOM     36  H   UNL     1      17.861   0.709 143.333  1.00  0.00     0.211 HD
ENDBRANCH  30  35
BRANCH  31  37
ATOM     37  C   UNL     1      19.348   4.025 140.577  1.00  0.00     0.191 C 
BRANCH  37  38
ATOM     38  O   UNL     1      19.888   4.631 141.720  1.00  0.00    -0.394 OA
ATOM     39  H   UNL     1      19.526   4.141 142.503  1.00  0.00     0.210 HD
ENDBRANCH  37  38
ENDBRANCH  31  37
BRANCH  32  40
ATOM     40  O   UNL     1      19.683   1.546 142.096  1.00  0.00    -0.387 OA
ATOM     41  H   UNL     1      19.207   1.639 142.962  1.00  0.00     0.211 HD
ENDBRANCH  32  40
ENDBRANCH   1  27
TORSDOF 12
ENDMDL
MODEL 3
REMARK VINA RESULT:    -6.789      1.884      7.578
REMARK INTER + INTRA:         -11.315
REMARK INTER:                  -9.615
REMARK INTRA:                  -1.699
REMARK UNBOUND:                -1.350
REMARK SMILES O=c1c(O[C@H]2O[C@H](CO)[C@@H](O)[C@@H](O)[C@H]2O)c(-c2ccc(O)c(O)c2)oc2cc(O)cc(O)c12
REMARK SMILES IDX 4 1 3 2 16 3 25 4 2 5 26 6 1 7 33 8 27 9 31 10 28 11 30 12
REMARK SMILES IDX 17 13 18 14 19 15 20 16 24 17 22 18 21 19 23 21 32 23 29 25
REMARK SMILES IDX 5 27 14 28 6 29 12 30 7 31 10 32 15 33 13 35 8 37 9 38 11 40
REMARK H PARENT 21 20 23 22 32 24 29 26 15 34 13 36 9 39 11 41
REMARK Flexibility Score: inf
ROOT
ATOM      1  O   UNL     1      18.599   4.381 141.064  1.00  0.00    -0.454 OA
ENDROOT
BRANCH   1   2
ATOM      2  C   UNL     1      17.217   4.169 141.164  1.00  0.00     0.214 A 
ATOM      3  C   UNL     1      16.663   2.875 141.263  1.00  0.00     0.180 A 
ATOM      4  O   UNL     1      15.354   2.731 141.449  1.00  0.00    -0.452 OA
ATOM      5  C   UNL     1      16.359   5.274 141.173  1.00  0.00     0.239 A 
ATOM      6  C   UNL     1      14.509   3.754 141.505  1.00  0.00     0.146 A 
ATOM      7  O   UNL     1      16.842   6.430 141.037  1.00  0.00    -0.285 OA
ATOM      8  C   UNL     1      14.974   5.081 141.353  1.00  0.00     0.111 A 
ATOM      9  C   UNL     1      13.148   3.503 141.705  1.00  0.00     0.094 A 
ATOM     10  C   UNL     1      14.043   6.147 141.398  1.00  0.00     0.134 A 
ATOM     11  C   UNL     1      12.235   4.557 141.751  1.00  0.00     0.123 A 
ATOM     12  C   UNL     1      12.682   5.875 141.596  1.00  0.00     0.093 A 
BRANCH   3  13
ATOM     13  C   UNL     1      17.486   1.650 141.144  1.00  0.00     0.025 A 
ATOM     14  C   UNL     1      18.266   1.448 139.996  1.00  0.00     0.016 A 
ATOM     15  C   UNL     1      19.063   0.307 139.876  1.00  0.00     0.051 A 
ATOM     16  C   UNL     1      19.101  -0.641 140.908  1.00  0.00     0.157 A 
ATOM     17  C   UNL     1      17.542   0.708 142.187  1.00  0.00     0.062 A 
ATOM     18  C   UNL     1      18.340  -0.435 142.071  1.00  0.00     0.158 A 
BRANCH  16  19
ATOM     19  O   UNL     1      19.895  -1.780 140.784  1.00  0.00    -0.504 OA
ATOM     20  H   UNL     1      20.639  -1.982 141.441  1.00  0.00     0.293 HD
ENDBRANCH  16  19
BRANCH  18  21
ATOM     21  O   UNL     1      18.368  -1.351 143.122  1.00  0.00    -0.504 OA
ATOM     22  H   UNL     1      17.699  -2.109 143.193  1.00  0.00     0.293 HD
ENDBRANCH  18  21
ENDBRANCH   3  13
BRANCH  10  23
ATOM     23  O   UNL     1      14.460   7.472 141.248  1.00  0.00    -0.507 OA
ATOM     24  H   UNL     1      13.842   8.187 140.883  1.00  0.00     0.293 HD
ENDBRANCH  10  23
BRANCH  11  25
ATOM     25  O   UNL     1      10.883   4.286 141.951  1.00  0.00    -0.508 OA
ATOM     26  H   UNL     1      10.364   4.711 142.711  1.00  0.00     0.293 HD
ENDBRANCH  11  25
ENDBRANCH   1   2
BRANCH   1  27
ATOM     27  C   UNL     1      19.491   4.284 142.182  1.00  0.00     0.339 C 
ATOM     28  C   UNL     1      20.151   5.642 142.495  1.00  0.00     0.214 C 
ATOM     29  O   UNL     1      20.467   3.280 141.960  1.00  0.00    -0.332 OA
ATOM     30  C   UNL     1      21.132   6.045 141.377  1.00  0.00     0.180 C 
ATOM     31  C   UNL     1      21.280   3.580 140.835  1.00  0.00     0.179 C 
ATOM     32  C   UNL     1      22.087   4.876 141.077  1.00  0.00     0.177 C 
BRANCH  28  33
ATOM     33  O   UNL     1      19.163   6.625 142.668  1.00  0.00    -0.384 OA
ATOM     34  H   UNL     1      18.327   6.264 142.270  1.00  0.00     0.211 HD
ENDBRANCH  28  33
BRANCH  30  35
ATOM     35  O   UNL     1      20.432   6.398 140.210  1.00  0.00    -0.387 OA
ATOM     36  H   UNL     1      19.462   6.312 140.414  1.00  0.00     0.211 HD
ENDBRANCH  30  35
BRANCH  31  37
ATOM     37  C   UNL     1      22.224   2.392 140.591  1.00  0.00     0.191 C 
BRANCH  37  38
ATOM     38  O   UNL     1      23.368   2.500 141.394  1.00  0.00    -0.394 OA
ATOM     39  H   UNL     1      24.042   1.877 141.016  1.00  0.00     0.210 HD
ENDBRANCH  37  38
ENDBRANCH  31  37
BRANCH  32  40
ATOM     40  O   UNL     1      22.866   5.174 139.946  1.00  0.00    -0.387 OA
ATOM     41  H   UNL     1      22.289   5.698 139.331  1.00  0.00     0.211 HD
ENDBRANCH  32  40
ENDBRANCH   1  27
TORSDOF 12
ENDMDL
MODEL 4
REMARK VINA RESULT:    -6.738      1.372      1.511
REMARK INTER + INTRA:         -11.239
REMARK INTER:                  -9.280
REMARK INTRA:                  -1.959
REMARK UNBOUND:                -1.350
REMARK SMILES O=c1c(O[C@H]2O[C@H](CO)[C@@H](O)[C@@H](O)[C@H]2O)c(-c2ccc(O)c(O)c2)oc2cc(O)cc(O)c12
REMARK SMILES IDX 4 1 3 2 16 3 25 4 2 5 26 6 1 7 33 8 27 9 31 10 28 11 30 12
REMARK SMILES IDX 17 13 18 14 19 15 20 16 24 17 22 18 21 19 23 21 32 23 29 25
REMARK SMILES IDX 5 27 14 28 6 29 12 30 7 31 10 32 15 33 13 35 8 37 9 38 11 40
REMARK H PARENT 21 20 23 22 32 24 29 26 15 34 13 36 9 39 11 41
REMARK Flexibility Score: inf
ROOT
ATOM      1  O   UNL     1      17.379   1.132 141.284  1.00  0.00    -0.454 OA
ENDROOT
BRANCH   1   2
ATOM      2  C   UNL     1      18.137   2.312 141.264  1.00  0.00     0.214 A 
ATOM      3  C   UNL     1      17.536   3.589 141.288  1.00  0.00     0.180 A 
ATOM      4  O   UNL     1      18.299   4.674 141.360  1.00  0.00    -0.452 OA
ATOM      5  C   UNL     1      19.532   2.222 141.225  1.00  0.00     0.239 A 
ATOM      6  C   UNL     1      19.627   4.633 141.368  1.00  0.00     0.146 A 
ATOM      7  O   UNL     1      20.075   1.087 141.155  1.00  0.00    -0.285 OA
ATOM      8  C   UNL     1      20.309   3.397 141.284  1.00  0.00     0.111 A 
ATOM      9  C   UNL     1      20.345   5.830 141.447  1.00  0.00     0.094 A 
ATOM     10  C   UNL     1      21.725   3.390 141.274  1.00  0.00     0.134 A 
ATOM     11  C   UNL     1      21.740   5.819 141.440  1.00  0.00     0.123 A 
ATOM     12  C   UNL     1      22.427   4.602 141.352  1.00  0.00     0.093 A 
BRANCH   3  13
ATOM     13  C   UNL     1      16.069   3.775 141.212  1.00  0.00     0.025 A 
ATOM     14  C   UNL     1      15.395   3.488 140.015  1.00  0.00     0.016 A 
ATOM     15  C   UNL     1      14.009   3.641 139.931  1.00  0.00     0.051 A 
ATOM     16  C   UNL     1      13.277   4.069 141.047  1.00  0.00     0.157 A 
ATOM     17  C   UNL     1      15.329   4.184 142.335  1.00  0.00     0.062 A 
ATOM     18  C   UNL     1      13.940   4.336 142.256  1.00  0.00     0.158 A 
BRANCH  16  19
ATOM     19  O   UNL     1      11.893   4.222 140.959  1.00  0.00    -0.504 OA
ATOM     20  H   UNL     1      11.349   4.579 141.735  1.00  0.00     0.293 HD
ENDBRANCH  16  19
BRANCH  18  21
ATOM     21  O   UNL     1      13.238   4.749 143.387  1.00  0.00    -0.504 OA
ATOM     22  H   UNL     1      12.294   5.113 143.332  1.00  0.00     0.293 HD
ENDBRANCH  18  21
ENDBRANCH   3  13
BRANCH  10  23
ATOM     23  O   UNL     1      22.437   2.192 141.189  1.00  0.00    -0.507 OA
ATOM     24  H   UNL     1      23.401   2.166 140.878  1.00  0.00     0.293 HD
ENDBRANCH  10  23
BRANCH  11  25
ATOM     25  O   UNL     1      22.437   7.022 141.520  1.00  0.00    -0.508 OA
ATOM     26  H   UNL     1      23.420   7.051 141.767  1.00  0.00     0.293 HD
ENDBRANCH  11  25
ENDBRANCH   1   2
BRANCH   1  27
ATOM     27  C   UNL     1      16.862   0.553 142.489  1.00  0.00     0.339 C 
ATOM     28  C   UNL     1      17.286  -0.922 142.631  1.00  0.00     0.214 C 
ATOM     29  O   UNL     1      15.451   0.687 142.545  1.00  0.00    -0.332 OA
ATOM     30  C   UNL     1      16.592  -1.797 141.569  1.00  0.00     0.180 C 
ATOM     31  C   UNL     1      14.817   0.001 141.476  1.00  0.00     0.179 C 
ATOM     32  C   UNL     1      15.078  -1.520 141.575  1.00  0.00     0.177 C 
BRANCH  28  33
ATOM     33  O   UNL     1      18.683  -1.030 142.529  1.00  0.00    -0.384 OA
ATOM     34  H   UNL     1      18.868  -1.846 141.994  1.00  0.00     0.211 HD
ENDBRANCH  28  33
BRANCH  30  35
ATOM     35  O   UNL     1      17.118  -1.533 140.292  1.00  0.00    -0.387 OA
ATOM     36  H   UNL     1      17.827  -2.209 140.122  1.00  0.00     0.211 HD
ENDBRANCH  30  35
BRANCH  31  37
ATOM     37  C   UNL     1      13.310   0.296 141.540  1.00  0.00     0.191 C 
BRANCH  37  38
ATOM     38  O   UNL     1      12.684  -0.537 142.478  1.00  0.00    -0.394 OA
ATOM     39  H   UNL     1      11.752  -0.210 142.574  1.00  0.00     0.210 HD
ENDBRANCH  37  38
ENDBRANCH  31  37
BRANCH  32  40
ATOM     40  O   UNL     1      14.467  -2.182 140.497  1.00  0.00    -0.387 OA
ATOM     41  H   UNL     1      15.186  -2.667 140.014  1.00  0.00     0.211 HD
ENDBRANCH  32  40
ENDBRANCH   1  27
TORSDOF 12
ENDMDL
MODEL 5
REMARK VINA RESULT:    -6.620      1.043      2.166
REMARK INTER + INTRA:         -11.066
REMARK INTER:                 -10.100
REMARK INTRA:                  -0.966
REMARK UNBOUND:                -1.350
REMARK SMILES O=c1c(O[C@H]2O[C@H](CO)[C@@H](O)[C@@H](O)[C@H]2O)c(-c2ccc(O)c(O)c2)oc2cc(O)cc(O)c12
REMARK SMILES IDX 4 1 3 2 16 3 25 4 2 5 26 6 1 7 33 8 27 9 31 10 28 11 30 12
REMARK SMILES IDX 17 13 18 14 19 15 20 16 24 17 22 18 21 19 23 21 32 23 29 25
REMARK SMILES IDX 5 27 14 28 6 29 12 30 7 31 10 32 15 33 13 35 8 37 9 38 11 40
REMARK H PARENT 21 20 23 22 32 24 29 26 15 34 13 36 9 39 11 41
REMARK Flexibility Score: inf
ROOT
ATOM      1  O   UNL     1      16.865   2.361 141.608  1.00  0.00    -0.454 OA
ENDROOT
BRANCH   1   2
ATOM      2  C   UNL     1      17.874   3.330 141.520  1.00  0.00     0.214 A 
ATOM      3  C   UNL     1      17.593   4.712 141.582  1.00  0.00     0.180 A 
ATOM      4  O   UNL     1      18.592   5.588 141.586  1.00  0.00    -0.452 OA
ATOM      5  C   UNL     1      19.203   2.917 141.372  1.00  0.00     0.239 A 
ATOM      6  C   UNL     1      19.870   5.237 141.490  1.00  0.00     0.146 A 
ATOM      7  O   UNL     1      19.457   1.687 141.268  1.00  0.00    -0.285 OA
ATOM      8  C   UNL     1      20.235   3.877 141.361  1.00  0.00     0.111 A 
ATOM      9  C   UNL     1      20.852   6.232 141.505  1.00  0.00     0.094 A 
ATOM     10  C   UNL     1      21.605   3.539 141.241  1.00  0.00     0.134 A 
ATOM     11  C   UNL     1      22.201   5.894 141.388  1.00  0.00     0.123 A 
ATOM     12  C   UNL     1      22.575   4.551 141.255  1.00  0.00     0.093 A 
BRANCH   3  13
ATOM     13  C   UNL     1      16.209   5.237 141.620  1.00  0.00     0.025 A 
ATOM     14  C   UNL     1      15.718   5.975 140.532  1.00  0.00     0.016 A 
ATOM     15  C   UNL     1      14.408   6.462 140.544  1.00  0.00     0.051 A 
ATOM     16  C   UNL     1      13.569   6.206 141.636  1.00  0.00     0.157 A 
ATOM     17  C   UNL     1      15.358   4.965 142.705  1.00  0.00     0.062 A 
ATOM     18  C   UNL     1      14.045   5.449 142.720  1.00  0.00     0.158 A 
BRANCH  16  19
ATOM     19  O   UNL     1      12.263   6.696 141.645  1.00  0.00    -0.504 OA
ATOM     20  H   UNL     1      11.661   6.617 140.834  1.00  0.00     0.293 HD
ENDBRANCH  16  19
BRANCH  18  21
ATOM     21  O   UNL     1      13.230   5.165 143.814  1.00  0.00    -0.504 OA
ATOM     22  H   UNL     1      12.645   5.870 144.247  1.00  0.00     0.293 HD
ENDBRANCH  18  21
ENDBRANCH   3  13
BRANCH  10  23
ATOM     23  O   UNL     1      22.008   2.209 141.108  1.00  0.00    -0.507 OA
ATOM     24  H   UNL     1      21.898   1.541 141.863  1.00  0.00     0.293 HD
ENDBRANCH  10  23
BRANCH  11  25
ATOM     25  O   UNL     1      23.164   6.900 141.404  1.00  0.00    -0.508 OA
ATOM     26  H   UNL     1      23.588   7.243 140.550  1.00  0.00     0.293 HD
ENDBRANCH  11  25
ENDBRANCH   1   2
BRANCH   1  27
ATOM     27  C   UNL     1      16.558   1.449 140.546  1.00  0.00     0.339 C 
ATOM     28  C   UNL     1      15.065   1.507 140.168  1.00  0.00     0.214 C 
ATOM     29  O   UNL     1      16.948   0.129 140.889  1.00  0.00    -0.332 OA
ATOM     30  C   UNL     1      14.190   0.935 141.301  1.00  0.00     0.180 C 
ATOM     31  C   UNL     1      16.246  -0.345 142.028  1.00  0.00     0.179 C 
ATOM     32  C   UNL     1      14.731  -0.440 141.733  1.00  0.00     0.177 C 
BRANCH  28  33
ATOM     33  O   UNL     1      14.697   2.830 139.875  1.00  0.00    -0.384 OA
ATOM     34  H   UNL     1      14.988   3.008 138.942  1.00  0.00     0.211 HD
ENDBRANCH  28  33
BRANCH  30  35
ATOM     35  O   UNL     1      14.179   1.808 142.403  1.00  0.00    -0.387 OA
ATOM     36  H   UNL     1      14.709   1.376 143.125  1.00  0.00     0.211 HD
ENDBRANCH  30  35
BRANCH  31  37
ATOM     37  C   UNL     1      16.811  -1.723 142.404  1.00  0.00     0.191 C 
BRANCH  37  38
ATOM     38  O   UNL     1      17.007  -1.814 143.790  1.00  0.00    -0.394 OA
ATOM     39  H   UNL     1      17.987  -1.864 143.937  1.00  0.00     0.210 HD
ENDBRANCH  37  38
ENDBRANCH  31  37
BRANCH  32  40
ATOM     40  O   UNL     1      14.047  -0.885 142.876  1.00  0.00    -0.387 OA
ATOM     41  H   UNL     1      13.086  -0.944 142.630  1.00  0.00     0.211 HD
ENDBRANCH  32  40
ENDBRANCH   1  27
TORSDOF 12
ENDMDL
MODEL 6
REMARK VINA RESULT:    -6.518      4.276      8.066
REMARK INTER + INTRA:         -10.917
REMARK INTER:                  -9.028
REMARK INTRA:                  -1.889
REMARK UNBOUND:                -1.350
REMARK SMILES O=c1c(O[C@H]2O[C@H](CO)[C@@H](O)[C@@H](O)[C@H]2O)c(-c2ccc(O)c(O)c2)oc2cc(O)cc(O)c12
REMARK SMILES IDX 4 1 3 2 16 3 25 4 2 5 26 6 1 7 33 8 27 9 31 10 28 11 30 12
REMARK SMILES IDX 17 13 18 14 19 15 20 16 24 17 22 18 21 19 23 21 32 23 29 25
REMARK SMILES IDX 5 27 14 28 6 29 12 30 7 31 10 32 15 33 13 35 8 37 9 38 11 40
REMARK H PARENT 21 20 23 22 32 24 29 26 15 34 13 36 9 39 11 41
REMARK Flexibility Score: inf
ROOT
ATOM      1  O   UNL     1       9.967   1.394 141.675  1.00  0.00    -0.454 OA
ENDROOT
BRANCH   1   2
ATOM      2  C   UNL     1      11.151   2.133 141.537  1.00  0.00     0.214 A 
ATOM      3  C   UNL     1      12.381   1.523 141.209  1.00  0.00     0.180 A 
ATOM      4  O   UNL     1      13.455   2.277 141.000  1.00  0.00    -0.452 OA
ATOM      5  C   UNL     1      11.112   3.519 141.723  1.00  0.00     0.239 A 
ATOM      6  C   UNL     1      13.453   3.600 141.124  1.00  0.00     0.146 A 
ATOM      7  O   UNL     1      10.028   4.065 142.062  1.00  0.00    -0.285 OA
ATOM      8  C   UNL     1      12.277   4.285 141.510  1.00  0.00     0.111 A 
ATOM      9  C   UNL     1      14.632   4.309 140.881  1.00  0.00     0.094 A 
ATOM     10  C   UNL     1      12.314   5.693 141.653  1.00  0.00     0.134 A 
ATOM     11  C   UNL     1      14.664   5.697 141.020  1.00  0.00     0.123 A 
ATOM     12  C   UNL     1      13.508   6.385 141.407  1.00  0.00     0.093 A 
BRANCH   3  13
ATOM     13  C   UNL     1      12.535   0.054 141.111  1.00  0.00     0.025 A 
ATOM     14  C   UNL     1      13.192  -0.501 140.003  1.00  0.00     0.016 A 
ATOM     15  C   UNL     1      13.363  -1.885 139.903  1.00  0.00     0.051 A 
ATOM     16  C   UNL     1      12.890  -2.730 140.916  1.00  0.00     0.157 A 
ATOM     17  C   UNL     1      12.080  -0.795 142.136  1.00  0.00     0.062 A 
ATOM     18  C   UNL     1      12.251  -2.181 142.040  1.00  0.00     0.158 A 
BRANCH  16  19
ATOM     19  O   UNL     1      13.060  -4.110 140.813  1.00  0.00    -0.504 OA
ATOM     20  H   UNL     1      12.309  -4.715 140.501  1.00  0.00     0.293 HD
ENDBRANCH  16  19
BRANCH  18  21
ATOM     21  O   UNL     1      11.783  -2.993 143.072  1.00  0.00    -0.504 OA
ATOM     22  H   UNL     1      12.411  -3.525 143.665  1.00  0.00     0.293 HD
ENDBRANCH  18  21
ENDBRANCH   3  13
BRANCH  10  23
ATOM     23  O   UNL     1      11.176   6.406 142.035  1.00  0.00    -0.507 OA
ATOM     24  H   UNL     1      11.106   6.849 142.944  1.00  0.00     0.293 HD
ENDBRANCH  10  23
BRANCH  11  25
ATOM     25  O   UNL     1      15.850   6.385 140.773  1.00  0.00    -0.508 OA
ATOM     26  H   UNL     1      16.017   6.855 139.890  1.00  0.00     0.293 HD
ENDBRANCH  11  25
ENDBRANCH   1   2
BRANCH   1  27
ATOM     27  C   UNL     1       9.168   0.977 140.561  1.00  0.00     0.339 C 
ATOM     28  C   UNL     1       7.748   1.573 140.634  1.00  0.00     0.214 C 
ATOM     29  O   UNL     1       9.125  -0.437 140.475  1.00  0.00    -0.332 OA
ATOM     30  C   UNL     1       6.955   0.958 141.804  1.00  0.00     0.180 C 
ATOM     31  C   UNL     1       8.526  -1.014 141.625  1.00  0.00     0.179 C 
ATOM     32  C   UNL     1       7.047  -0.576 141.746  1.00  0.00     0.177 C 
BRANCH  28  33
ATOM     33  O   UNL     1       7.821   2.970 140.761  1.00  0.00    -0.384 OA
ATOM     34  H   UNL     1       7.102   3.347 140.189  1.00  0.00     0.211 HD
ENDBRANCH  28  33
BRANCH  30  35
ATOM     35  O   UNL     1       7.456   1.419 143.034  1.00  0.00    -0.387 OA
ATOM     36  H   UNL     1       6.698   1.844 143.518  1.00  0.00     0.211 HD
ENDBRANCH  30  35
BRANCH  31  37
ATOM     37  C   UNL     1       8.629  -2.543 141.508  1.00  0.00     0.191 C 
BRANCH  37  38
ATOM     38  O   UNL     1       8.865  -3.118 142.765  1.00  0.00    -0.394 OA
ATOM     39  H   UNL     1       9.613  -3.760 142.649  1.00  0.00     0.210 HD
ENDBRANCH  37  38
ENDBRANCH  31  37
BRANCH  32  40
ATOM     40  O   UNL     1       6.476  -1.134 142.902  1.00  0.00    -0.387 OA
ATOM     41  H   UNL     1       6.895  -2.025 143.027  1.00  0.00     0.211 HD
ENDBRANCH  32  40
ENDBRANCH   1  27
TORSDOF 12
ENDMDL
MODEL 7
REMARK VINA RESULT:    -6.495      3.889      7.077
REMARK INTER + INTRA:         -10.883
REMARK INTER:                  -8.755
REMARK INTRA:                  -2.128
REMARK UNBOUND:                -1.350
REMARK SMILES O=c1c(O[C@H]2O[C@H](CO)[C@@H](O)[C@@H](O)[C@H]2O)c(-c2ccc(O)c(O)c2)oc2cc(O)cc(O)c12
REMARK SMILES IDX 4 1 3 2 16 3 25 4 2 5 26 6 1 7 33 8 27 9 31 10 28 11 30 12
REMARK SMILES IDX 17 13 18 14 19 15 20 16 24 17 22 18 21 19 23 21 32 23 29 25
REMARK SMILES IDX 5 27 14 28 6 29 12 30 7 31 10 32 15 33 13 35 8 37 9 38 11 40
REMARK H PARENT 21 20 23 22 32 24 29 26 15 34 13 36 9 39 11 41
REMARK Flexibility Score: inf
ROOT
ATOM      1  O   UNL     1      12.888  -0.244 141.616  1.00  0.00    -0.454 OA
ENDROOT
BRANCH   1   2
ATOM      2  C   UNL     1      13.345   1.080 141.661  1.00  0.00     0.214 A 
ATOM      3  C   UNL     1      14.720   1.398 141.656  1.00  0.00     0.180 A 
ATOM      4  O   UNL     1      15.101   2.671 141.607  1.00  0.00    -0.452 OA
ATOM      5  C   UNL     1      12.411   2.121 141.706  1.00  0.00     0.239 A 
ATOM      6  C   UNL     1      14.248   3.689 141.606  1.00  0.00     0.146 A 
ATOM      7  O   UNL     1      11.182   1.844 141.759  1.00  0.00    -0.285 OA
ATOM      8  C   UNL     1      12.854   3.459 141.672  1.00  0.00     0.111 A 
ATOM      9  C   UNL     1      14.745   4.994 141.551  1.00  0.00     0.094 A 
ATOM     10  C   UNL     1      11.972   4.567 141.689  1.00  0.00     0.134 A 
ATOM     11  C   UNL     1      13.872   6.083 141.565  1.00  0.00     0.123 A 
ATOM     12  C   UNL     1      12.490   5.869 141.636  1.00  0.00     0.093 A 
BRANCH   3  13
ATOM     13  C   UNL     1      15.773   0.360 141.728  1.00  0.00     0.025 A 
ATOM     14  C   UNL     1      16.512   0.042 140.578  1.00  0.00     0.016 A 
ATOM     15  C   UNL     1      17.522  -0.922 140.633  1.00  0.00     0.051 A 
ATOM     16  C   UNL     1      17.816  -1.570 141.840  1.00  0.00     0.157 A 
ATOM     17  C   UNL     1      16.085  -0.275 142.943  1.00  0.00     0.062 A 
ATOM     18  C   UNL     1      17.097  -1.240 143.001  1.00  0.00     0.158 A 
BRANCH  16  19
ATOM     19  O   UNL     1      18.823  -2.533 141.891  1.00  0.00    -0.504 OA
ATOM     20  H   UNL     1      19.792  -2.280 142.047  1.00  0.00     0.293 HD
ENDBRANCH  16  19
BRANCH  18  21
ATOM     21  O   UNL     1      17.377  -1.855 144.221  1.00  0.00    -0.504 OA
ATOM     22  H   UNL     1      18.203  -1.627 144.762  1.00  0.00     0.293 HD
ENDBRANCH  18  21
ENDBRANCH   3  13
BRANCH  10  23
ATOM     23  O   UNL     1      10.590   4.384 141.757  1.00  0.00    -0.507 OA
ATOM     24  H   UNL     1      10.117   4.218 142.638  1.00  0.00     0.293 HD
ENDBRANCH  10  23
BRANCH  11  25
ATOM     25  O   UNL     1      14.387   7.376 141.510  1.00  0.00    -0.508 OA
ATOM     26  H   UNL     1      15.336   7.582 141.802  1.00  0.00     0.293 HD
ENDBRANCH  11  25
ENDBRANCH   1   2
BRANCH   1  27
ATOM     27  C   UNL     1      12.475  -0.891 140.405  1.00  0.00     0.339 C 
ATOM     28  C   UNL     1      11.161  -1.673 140.605  1.00  0.00     0.214 C 
ATOM     29  O   UNL     1      13.502  -1.735 139.911  1.00  0.00    -0.332 OA
ATOM     30  C   UNL     1      11.382  -2.891 141.522  1.00  0.00     0.180 C 
ATOM     31  C   UNL     1      13.810  -2.775 140.827  1.00  0.00     0.179 C 
ATOM     32  C   UNL     1      12.590  -3.705 141.025  1.00  0.00     0.177 C 
BRANCH  28  33
ATOM     33  O   UNL     1      10.175  -0.824 141.134  1.00  0.00    -0.384 OA
ATOM     34  H   UNL     1       9.784  -0.327 140.368  1.00  0.00     0.211 HD
ENDBRANCH  28  33
BRANCH  30  35
ATOM     35  O   UNL     1      11.601  -2.477 142.847  1.00  0.00    -0.387 OA
ATOM     36  H   UNL     1      11.028  -1.679 143.003  1.00  0.00     0.211 HD
ENDBRANCH  30  35
BRANCH  31  37
ATOM     37  C   UNL     1      15.007  -3.565 140.275  1.00  0.00     0.191 C 
BRANCH  37  38
ATOM     38  O   UNL     1      15.670  -4.241 141.309  1.00  0.00    -0.394 OA
ATOM     39  H   UNL     1      16.626  -4.295 141.049  1.00  0.00     0.210 HD
ENDBRANCH  37  38
ENDBRANCH  31  37
BRANCH  32  40
ATOM     40  O   UNL     1      12.901  -4.713 141.951  1.00  0.00    -0.387 OA
ATOM     41  H   UNL     1      13.860  -4.600 142.187  1.00  0.00     0.211 HD
ENDBRANCH  32  40
ENDBRANCH   1  27
TORSDOF 12
ENDMDL
MODEL 8
REMARK VINA RESULT:    -6.413      1.830      6.243
REMARK INTER + INTRA:         -10.761
REMARK INTER:                  -8.834
REMARK INTRA:                  -1.927
REMARK UNBOUND:                -1.350
REMARK SMILES O=c1c(O[C@H]2O[C@H](CO)[C@@H](O)[C@@H](O)[C@H]2O)c(-c2ccc(O)c(O)c2)oc2cc(O)cc(O)c12
REMARK SMILES IDX 4 1 3 2 16 3 25 4 2 5 26 6 1 7 33 8 27 9 31 10 28 11 30 12
REMARK SMILES IDX 17 13 18 14 19 15 20 16 24 17 22 18 21 19 23 21 32 23 29 25
REMARK SMILES IDX 5 27 14 28 6 29 12 30 7 31 10 32 15 33 13 35 8 37 9 38 11 40
REMARK H PARENT 21 20 23 22 32 24 29 26 15 34 13 36 9 39 11 41
REMARK Flexibility Score: inf
ROOT
ATOM      1  O   UNL     1      18.431   2.491 141.486  1.00  0.00    -0.454 OA
ENDROOT
BRANCH   1   2
ATOM      2  C   UNL     1      17.509   1.435 141.445  1.00  0.00     0.214 A 
ATOM      3  C   UNL     1      16.124   1.657 141.282  1.00  0.00     0.180 A 
ATOM      4  O   UNL     1      15.302   0.620 141.158  1.00  0.00    -0.452 OA
ATOM      5  C   UNL     1      17.974   0.121 141.562  1.00  0.00     0.239 A 
ATOM      6  C   UNL     1      15.706  -0.644 141.221  1.00  0.00     0.146 A 
ATOM      7  O   UNL     1      19.203  -0.082 141.756  1.00  0.00    -0.285 OA
ATOM      8  C   UNL     1      17.068  -0.953 141.444  1.00  0.00     0.111 A 
ATOM      9  C   UNL     1      14.766  -1.668 141.076  1.00  0.00     0.094 A 
ATOM     10  C   UNL     1      17.463  -2.310 141.526  1.00  0.00     0.134 A 
ATOM     11  C   UNL     1      15.160  -3.005 141.155  1.00  0.00     0.123 A 
ATOM     12  C   UNL     1      16.504  -3.323 141.381  1.00  0.00     0.093 A 
BRANCH   3  13
ATOM     13  C   UNL     1      15.536   3.015 141.268  1.00  0.00     0.025 A 
ATOM     14  C   UNL     1      15.351   3.677 140.045  1.00  0.00     0.016 A 
ATOM     15  C   UNL     1      14.780   4.952 140.012  1.00  0.00     0.051 A 
ATOM     16  C   UNL     1      14.373   5.575 141.200  1.00  0.00     0.157 A 
ATOM     17  C   UNL     1      15.108   3.634 142.456  1.00  0.00     0.062 A 
ATOM     18  C   UNL     1      14.534   4.910 142.426  1.00  0.00     0.158 A 
BRANCH  16  19
ATOM     19  O   UNL     1      13.806   6.848 141.163  1.00  0.00    -0.504 OA
ATOM     20  H   UNL     1      13.237   7.154 140.382  1.00  0.00     0.293 HD
ENDBRANCH  16  19
BRANCH  18  21
ATOM     21  O   UNL     1      14.125   5.497 143.623  1.00  0.00    -0.504 OA
ATOM     22  H   UNL     1      14.755   6.047 144.195  1.00  0.00     0.293 HD
ENDBRANCH  18  21
ENDBRANCH   3  13
BRANCH  10  23
ATOM     23  O   UNL     1      18.797  -2.659 141.748  1.00  0.00    -0.507 OA
ATOM     24  H   UNL     1      19.560  -2.056 141.462  1.00  0.00     0.293 HD
ENDBRANCH  10  23
BRANCH  11  25
ATOM     25  O   UNL     1      14.207  -4.010 141.009  1.00  0.00    -0.508 OA
ATOM     26  H   UNL     1      13.655  -4.336 141.794  1.00  0.00     0.293 HD
ENDBRANCH  11  25
ENDBRANCH   1   2
BRANCH   1  27
ATOM     27  C   UNL     1      19.047   3.041 140.314  1.00  0.00     0.339 C 
ATOM     28  C   UNL     1      20.582   3.074 140.448  1.00  0.00     0.214 C 
ATOM     29  O   UNL     1      18.530   4.331 140.035  1.00  0.00    -0.332 OA
ATOM     30  C   UNL     1      21.018   4.100 141.512  1.00  0.00     0.180 C 
ATOM     31  C   UNL     1      18.804   5.244 141.088  1.00  0.00     0.179 C 
ATOM     32  C   UNL     1      20.328   5.450 141.246  1.00  0.00     0.177 C 
BRANCH  28  33
ATOM     33  O   UNL     1      21.062   1.793 140.766  1.00  0.00    -0.384 OA
ATOM     34  H   UNL     1      21.685   1.903 141.531  1.00  0.00     0.211 HD
ENDBRANCH  28  33
BRANCH  30  35
ATOM     35  O   UNL     1      20.689   3.643 142.800  1.00  0.00    -0.387 OA
ATOM     36  H   UNL     1      19.897   3.050 142.707  1.00  0.00     0.211 HD
ENDBRANCH  30  35
BRANCH  31  37
ATOM     37  C   UNL     1      18.109   6.576 140.764  1.00  0.00     0.191 C 
BRANCH  37  38
ATOM     38  O   UNL     1      18.951   7.398 140.002  1.00  0.00    -0.394 OA
ATOM     39  H   UNL     1      19.837   6.952 139.974  1.00  0.00     0.210 HD
ENDBRANCH  37  38
ENDBRANCH  31  37
BRANCH  32  40
ATOM     40  O   UNL     1      20.585   6.334 142.307  1.00  0.00    -0.387 OA
ATOM     41  H   UNL     1      19.916   6.135 143.014  1.00  0.00     0.211 HD
ENDBRANCH  32  40
ENDBRANCH   1  27
TORSDOF 12
ENDMDL
MODEL 9
REMARK VINA RESULT:    -5.216      1.671      6.851
REMARK INTER + INTRA:          -9.004
REMARK INTER:                  -8.004
REMARK INTRA:                  -1.001
REMARK UNBOUND:                -1.350
REMARK SMILES O=c1c(O[C@H]2O[C@H](CO)[C@@H](O)[C@@H](O)[C@H]2O)c(-c2ccc(O)c(O)c2)oc2cc(O)cc(O)c12
REMARK SMILES IDX 4 1 3 2 16 3 25 4 2 5 26 6 1 7 33 8 27 9 31 10 28 11 30 12
REMARK SMILES IDX 17 13 18 14 19 15 20 16 24 17 22 18 21 19 23 21 32 23 29 25
REMARK SMILES IDX 5 27 14 28 6 29 12 30 7 31 10 32 15 33 13 35 8 37 9 38 11 40
REMARK H PARENT 21 20 23 22 32 24 29 26 15 34 13 36 9 39 11 41
REMARK Flexibility Score: inf
ROOT
ATOM      1  O   UNL     1      18.195   2.714 141.290  1.00  0.00    -0.454 OA
ENDROOT
BRANCH   1   2
ATOM      2  C   UNL     1      16.881   3.184 141.426  1.00  0.00     0.214 A 
ATOM      3  C   UNL     1      15.810   2.328 141.760  1.00  0.00     0.180 A 
ATOM      4  O   UNL     1      14.600   2.837 141.967  1.00  0.00    -0.452 OA
ATOM      5  C   UNL     1      16.622   4.545 141.230  1.00  0.00     0.239 A 
ATOM      6  C   UNL     1      14.319   4.129 141.833  1.00  0.00     0.146 A 
ATOM      7  O   UNL     1      17.565   5.307 140.884  1.00  0.00    -0.285 OA
ATOM      8  C   UNL     1      15.321   5.046 141.440  1.00  0.00     0.111 A 
ATOM      9  C   UNL     1      13.015   4.571 142.073  1.00  0.00     0.094 A 
ATOM     10  C   UNL     1      14.984   6.412 141.286  1.00  0.00     0.134 A 
ATOM     11  C   UNL     1      12.688   5.919 141.924  1.00  0.00     0.123 A 
ATOM     12  C   UNL     1      13.670   6.836 141.530  1.00  0.00     0.093 A 
BRANCH   3  13
ATOM     13  C   UNL     1      15.973   0.860 141.870  1.00  0.00     0.025 A 
ATOM     14  C   UNL     1      15.535   0.034 140.824  1.00  0.00     0.016 A 
ATOM     15  C   UNL     1      15.698  -1.351 140.903  1.00  0.00     0.051 A 
ATOM     16  C   UNL     1      16.315  -1.927 142.022  1.00  0.00     0.157 A 
ATOM     17  C   UNL     1      16.611   0.282 142.981  1.00  0.00     0.062 A 
ATOM     18  C   UNL     1      16.778  -1.105 143.063  1.00  0.00     0.158 A 
BRANCH  16  19
ATOM     19  O   UNL     1      16.475  -3.310 142.099  1.00  0.00    -0.504 OA
ATOM     20  H   UNL     1      15.862  -3.944 141.600  1.00  0.00     0.293 HD
ENDBRANCH  16  19
BRANCH  18  21
ATOM     21  O   UNL     1      17.410  -1.647 144.182  1.00  0.00    -0.504 OA
ATOM     22  H   UNL     1      18.318  -1.325 144.496  1.00  0.00     0.293 HD
ENDBRANCH  18  21
ENDBRANCH   3  13
BRANCH  10  23
ATOM     23  O   UNL     1      15.943   7.350 140.896  1.00  0.00    -0.507 OA
ATOM     24  H   UNL     1      15.725   8.337 140.823  1.00  0.00     0.293 HD
ENDBRANCH  10  23
BRANCH  11  25
ATOM     25  O   UNL     1      11.382   6.340 142.168  1.00  0.00    -0.508 OA
ATOM     26  H   UNL     1      11.006   7.178 141.741  1.00  0.00     0.293 HD
ENDBRANCH  11  25
ENDBRANCH   1   2
BRANCH   1  27
ATOM     27  C   UNL     1      18.880   2.650 140.032  1.00  0.00     0.339 C 
ATOM     28  C   UNL     1      19.648   1.323 139.876  1.00  0.00     0.214 C 
ATOM     29  O   UNL     1      19.744   3.763 139.875  1.00  0.00    -0.332 OA
ATOM     30  C   UNL     1      20.836   1.259 140.855  1.00  0.00     0.180 C 
ATOM     31  C   UNL     1      20.755   3.786 140.872  1.00  0.00     0.179 C 
ATOM     32  C   UNL     1      21.672   2.546 140.745  1.00  0.00     0.177 C 
BRANCH  28  33
ATOM     33  O   UNL     1      18.777   0.240 140.078  1.00  0.00    -0.384 OA
ATOM     34  H   UNL     1      18.787   0.043 141.052  1.00  0.00     0.211 HD
ENDBRANCH  28  33
BRANCH  30  35
ATOM     35  O   UNL     1      20.379   1.100 142.175  1.00  0.00    -0.387 OA
ATOM     36  H   UNL     1      21.182   1.061 142.760  1.00  0.00     0.211 HD
ENDBRANCH  30  35
BRANCH  31  37
ATOM     37  C   UNL     1      21.568   5.079 140.705  1.00  0.00     0.191 C 
BRANCH  37  38
ATOM     38  O   UNL     1      20.735   6.202 140.809  1.00  0.00    -0.394 OA
ATOM     39  H   UNL     1      21.282   6.927 141.209  1.00  0.00     0.210 HD
ENDBRANCH  37  38
ENDBRANCH  31  37
BRANCH  32  40
ATOM     40  O   UNL     1      22.650   2.569 141.752  1.00  0.00    -0.387 OA
ATOM     41  H   UNL     1      22.286   2.050 142.517  1.00  0.00     0.211 HD
ENDBRANCH  32  40
ENDBRANCH   1  27
TORSDOF 12
ENDMDL
