MODEL 1
REMARK VINA RESULT:    -4.020      0.000      0.000
REMARK INTER + INTRA:         -14.109
REMARK INTER:                 -10.600
REMARK INTRA:                  -3.509
REMARK UNBOUND:                -3.509
REMARK SMILES CCCCCCCCCCCCCCCCCCCCCCCCCCCCCC(=O)[O-]
REMARK SMILES IDX 16 1 17 2 18 3 19 4 20 5 21 6 22 7 23 8 24 9 25 10 26 11
REMARK SMILES IDX 27 12 28 13 29 14 30 15 31 16 32 17 15 18 14 19 13 20 12 21
REMARK SMILES IDX 11 22 10 23 9 24 8 25 7 26 6 27 5 28 4 29 3 30 2 31 1 32
REMARK H PARENT
REMARK Flexibility Score: inf
ROOT
ATOM      1  C   UNL     1     159.084 152.823 163.316  1.00  0.00     0.000 C 
ENDROOT
BRANCH   1   2
ATOM      2  C   UNL     1     158.049 151.868 163.936  1.00  0.00     0.000 C 
BRANCH   2   3
ATOM      3  C   UNL     1     156.651 152.500 164.068  1.00  0.00     0.000 C 
BRANCH   3   4
ATOM      4  C   UNL     1     156.582 154.012 163.781  1.00  0.00     0.000 C 
BRANCH   4   5
ATOM      5  C   UNL     1     155.273 154.431 163.090  1.00  0.00     0.000 C 
BRANCH   5   6
ATOM      6  C   UNL     1     155.111 155.958 163.007  1.00  0.00     0.000 C 
BRANCH   6   7
ATOM      7  C   UNL     1     153.854 156.458 163.736  1.00  0.00     0.000 C 
BRANCH   7   8
ATOM      8  C   UNL     1     152.794 155.350 163.818  1.00  0.00     0.000 C 
BRANCH   8   9
ATOM      9  C   UNL     1     151.451 155.756 163.183  1.00  0.00     0.000 C 
BRANCH   9  10
ATOM     10  C   UNL     1     151.207 155.211 161.762  1.00  0.00     0.000 C 
BRANCH  10  11
ATOM     11  C   UNL     1     151.090 156.283 160.664  1.00  0.00     0.000 C 
BRANCH  11  12
ATOM     12  C   UNL     1     151.339 157.706 161.192  1.00  0.00     0.000 C 
BRANCH  12  13
ATOM     13  C   UNL     1     152.671 158.293 160.699  1.00  0.00     0.006 C 
BRANCH  13  14
ATOM     14  C   UNL     1     152.834 159.774 161.068  1.00  0.00     0.053 C 
BRANCH  14  15
ATOM     15  C   UNL     1     153.653 159.915 162.312  1.00  0.00     0.041 C 
ATOM     16  O   UNL     1     153.091 160.125 163.420  1.00  0.00    -0.550 OA
ATOM     17  O   UNL     1     155.033 159.764 162.258  1.00  0.00    -0.550 OA
ENDBRANCH  14  15
ENDBRANCH  13  14
ENDBRANCH  12  13
ENDBRANCH  11  12
ENDBRANCH  10  11
ENDBRANCH   9  10
ENDBRANCH   8   9
ENDBRANCH   7   8
ENDBRANCH   6   7
ENDBRANCH   5   6
ENDBRANCH   4   5
ENDBRANCH   3   4
ENDBRANCH   2   3
ENDBRANCH   1   2
BRANCH   1  18
ATOM     18  C   UNL     1     160.512 152.253 163.354  1.00  0.00     0.000 C 
BRANCH  18  19
ATOM     19  C   UNL     1     161.565 153.301 163.741  1.00  0.00     0.000 C 
BRANCH  19  20
ATOM     20  C   UNL     1     160.897 154.632 164.116  1.00  0.00     0.000 C 
BRANCH  20  21
ATOM     21  C   UNL     1     161.595 155.852 163.488  1.00  0.00     0.000 C 
BRANCH  21  22
ATOM     22  C   UNL     1     161.340 157.196 164.201  1.00  0.00     0.000 C 
BRANCH  22  23
ATOM     23  C   UNL     1     162.595 157.902 164.749  1.00  0.00     0.000 C 
BRANCH  23  24
ATOM     24  C   UNL     1     162.722 157.798 166.277  1.00  0.00    -0.000 C 
BRANCH  24  25
ATOM     25  C   UNL     1     162.757 156.340 166.772  1.00  0.00    -0.000 C 
BRANCH  25  26
ATOM     26  C   UNL     1     164.148 155.675 166.754  1.00  0.00    -0.000 C 
BRANCH  26  27
ATOM     27  C   UNL     1     164.541 155.018 165.416  1.00  0.00    -0.000 C 
BRANCH  27  28
ATOM     28  C   UNL     1     165.641 155.759 164.629  1.00  0.00    -0.000 C 
BRANCH  28  29
ATOM     29  C   UNL     1     166.045 155.096 163.297  1.00  0.00    -0.000 C 
BRANCH  29  30
ATOM     30  C   UNL     1     164.900 154.386 162.547  1.00  0.00    -0.000 C 
BRANCH  30  31
ATOM     31  C   UNL     1     165.068 152.864 162.400  1.00  0.00    -0.003 C 
ATOM     32  C   UNL     1     166.067 152.277 163.397  1.00  0.00     0.004 C 
ENDBRANCH  30  31
ENDBRANCH  29  30
ENDBRANCH  28  29
ENDBRANCH  27  28
ENDBRANCH  26  27
ENDBRANCH  25  26
ENDBRANCH  24  25
ENDBRANCH  23  24
ENDBRANCH  22  23
ENDBRANCH  21  22
ENDBRANCH  20  21
ENDBRANCH  19  20
ENDBRANCH  18  19
ENDBRANCH   1  18
TORSDOF 28
ENDMDL
MODEL 2
REMARK VINA RESULT:    -4.011      4.586      7.066
REMARK INTER + INTRA:         -14.087
REMARK INTER:                  -9.197
REMARK INTRA:                  -4.889
REMARK UNBOUND:                -3.509
REMARK SMILES CCCCCCCCCCCCCCCCCCCCCCCCCCCCCC(=O)[O-]
REMARK SMILES IDX 16 1 17 2 18 3 19 4 20 5 21 6 22 7 23 8 24 9 25 10 26 11
REMARK SMILES IDX 27 12 28 13 29 14 30 15 31 16 32 17 15 18 14 19 13 20 12 21
REMARK SMILES IDX 11 22 10 23 9 24 8 25 7 26 6 27 5 28 4 29 3 30 2 31 1 32
REMARK H PARENT
REMARK Flexibility Score: inf
ROOT
ATOM      1  C   UNL     1     162.657 150.317 163.766  1.00  0.00     0.000 C 
ENDROOT
BRANCH   1   2
ATOM      2  C   UNL     1     161.246 150.139 164.355  1.00  0.00     0.000 C 
BRANCH   2   3
ATOM      3  C   UNL     1     160.129 150.445 163.339  1.00  0.00     0.000 C 
BRANCH   3   4
ATOM      4  C   UNL     1     160.183 151.845 162.700  1.00  0.00     0.000 C 
BRANCH   4   5
ATOM      5  C   UNL     1     159.504 152.923 163.561  1.00  0.00     0.000 C 
BRANCH   5   6
ATOM      6  C   UNL     1     160.451 154.080 163.917  1.00  0.00     0.000 C 
BRANCH   6   7
ATOM      7  C   UNL     1     161.801 153.983 163.189  1.00  0.00     0.000 C 
BRANCH   7   8
ATOM      8  C   UNL     1     162.051 155.234 162.334  1.00  0.00     0.000 C 
BRANCH   8   9
ATOM      9  C   UNL     1     162.773 154.922 161.011  1.00  0.00     0.000 C 
BRANCH   9  10
ATOM     10  C   UNL     1     162.867 153.426 160.653  1.00  0.00     0.000 C 
BRANCH  10  11
ATOM     11  C   UNL     1     161.888 152.954 159.562  1.00  0.00     0.000 C 
BRANCH  11  12
ATOM     12  C   UNL     1     161.157 154.120 158.874  1.00  0.00     0.000 C 
BRANCH  12  13
ATOM     13  C   UNL     1     159.697 153.784 158.536  1.00  0.00     0.006 C 
BRANCH  13  14
ATOM     14  C   UNL     1     159.049 152.858 159.574  1.00  0.00     0.053 C 
BRANCH  14  15
ATOM     15  C   UNL     1     157.588 153.155 159.700  1.00  0.00     0.041 C 
ATOM     16  O   UNL     1     156.945 152.757 160.707  1.00  0.00    -0.550 OA
ATOM     17  O   UNL     1     156.947 153.914 158.729  1.00  0.00    -0.550 OA
ENDBRANCH  14  15
ENDBRANCH  13  14
ENDBRANCH  12  13
ENDBRANCH  11  12
ENDBRANCH  10  11
ENDBRANCH   9  10
ENDBRANCH   8   9
ENDBRANCH   7   8
ENDBRANCH   6   7
ENDBRANCH   5   6
ENDBRANCH   4   5
ENDBRANCH   3   4
ENDBRANCH   2   3
ENDBRANCH   1   2
BRANCH   1  18
ATOM     18  C   UNL     1     163.760 150.192 164.830  1.00  0.00     0.000 C 
BRANCH  18  19
ATOM     19  C   UNL     1     164.877 151.233 164.659  1.00  0.00     0.000 C 
BRANCH  19  20
ATOM     20  C   UNL     1     164.740 151.963 163.314  1.00  0.00     0.000 C 
BRANCH  20  21
ATOM     21  C   UNL     1     166.097 152.366 162.710  1.00  0.00     0.000 C 
BRANCH  21  22
ATOM     22  C   UNL     1     167.141 152.883 163.722  1.00  0.00     0.000 C 
BRANCH  22  23
ATOM     23  C   UNL     1     167.543 154.362 163.561  1.00  0.00     0.000 C 
BRANCH  23  24
ATOM     24  C   UNL     1     166.332 155.306 163.476  1.00  0.00    -0.000 C 
BRANCH  24  25
ATOM     25  C   UNL     1     165.825 155.748 164.862  1.00  0.00    -0.000 C 
BRANCH  25  26
ATOM     26  C   UNL     1     164.449 155.183 165.268  1.00  0.00    -0.000 C 
BRANCH  26  27
ATOM     27  C   UNL     1     163.893 155.713 166.603  1.00  0.00    -0.000 C 
BRANCH  27  28
ATOM     28  C   UNL     1     162.418 156.159 166.560  1.00  0.00    -0.000 C 
BRANCH  28  29
ATOM     29  C   UNL     1     162.044 157.052 165.360  1.00  0.00    -0.000 C 
BRANCH  29  30
ATOM     30  C   UNL     1     162.222 158.566 165.592  1.00  0.00    -0.000 C 
BRANCH  30  31
ATOM     31  C   UNL     1     161.025 159.432 165.162  1.00  0.00    -0.003 C 
ATOM     32  C   UNL     1     159.955 158.638 164.414  1.00  0.00     0.004 C 
ENDBRANCH  30  31
ENDBRANCH  29  30
ENDBRANCH  28  29
ENDBRANCH  27  28
ENDBRANCH  26  27
ENDBRANCH  25  26
ENDBRANCH  24  25
ENDBRANCH  23  24
ENDBRANCH  22  23
ENDBRANCH  21  22
ENDBRANCH  20  21
ENDBRANCH  19  20
ENDBRANCH  18  19
ENDBRANCH   1  18
TORSDOF 28
ENDMDL
MODEL 3
REMARK VINA RESULT:    -3.985      1.735      5.750
REMARK INTER + INTRA:         -14.016
REMARK INTER:                  -9.840
REMARK INTRA:                  -4.176
REMARK UNBOUND:                -3.509
REMARK SMILES CCCCCCCCCCCCCCCCCCCCCCCCCCCCCC(=O)[O-]
REMARK SMILES IDX 16 1 17 2 18 3 19 4 20 5 21 6 22 7 23 8 24 9 25 10 26 11
REMARK SMILES IDX 27 12 28 13 29 14 30 15 31 16 32 17 15 18 14 19 13 20 12 21
REMARK SMILES IDX 11 22 10 23 9 24 8 25 7 26 6 27 5 28 4 29 3 30 2 31 1 32
REMARK H PARENT
REMARK Flexibility Score: inf
ROOT
ATOM      1  C   UNL     1     164.944 153.578 164.690  1.00  0.00     0.000 C 
ENDROOT
BRANCH   1   2
ATOM      2  C   UNL     1     165.511 152.374 163.917  1.00  0.00     0.000 C 
BRANCH   2   3
ATOM      3  C   UNL     1     164.414 151.490 163.294  1.00  0.00     0.000 C 
BRANCH   3   4
ATOM      4  C   UNL     1     163.045 151.542 163.999  1.00  0.00     0.000 C 
BRANCH   4   5
ATOM      5  C   UNL     1     161.874 151.724 163.019  1.00  0.00     0.000 C 
BRANCH   5   6
ATOM      6  C   UNL     1     160.506 151.686 163.720  1.00  0.00     0.000 C 
BRANCH   6   7
ATOM      7  C   UNL     1     159.429 152.473 162.957  1.00  0.00     0.000 C 
BRANCH   7   8
ATOM      8  C   UNL     1     158.501 153.214 163.932  1.00  0.00     0.000 C 
BRANCH   8   9
ATOM      9  C   UNL     1     157.044 152.722 163.864  1.00  0.00     0.000 C 
BRANCH   9  10
ATOM     10  C   UNL     1     156.098 153.593 163.014  1.00  0.00     0.000 C 
BRANCH  10  11
ATOM     11  C   UNL     1     155.723 154.949 163.639  1.00  0.00     0.000 C 
BRANCH  11  12
ATOM     12  C   UNL     1     154.551 155.635 162.915  1.00  0.00     0.000 C 
BRANCH  12  13
ATOM     13  C   UNL     1     154.291 157.059 163.431  1.00  0.00     0.006 C 
BRANCH  13  14
ATOM     14  C   UNL     1     154.180 158.085 162.295  1.00  0.00     0.053 C 
BRANCH  14  15
ATOM     15  C   UNL     1     154.380 159.471 162.823  1.00  0.00     0.041 C 
ATOM     16  O   UNL     1     153.403 160.123 163.277  1.00  0.00    -0.550 OA
ATOM     17  O   UNL     1     155.655 160.023 162.859  1.00  0.00    -0.550 OA
ENDBRANCH  14  15
ENDBRANCH  13  14
ENDBRANCH  12  13
ENDBRANCH  11  12
ENDBRANCH  10  11
ENDBRANCH   9  10
ENDBRANCH   8   9
ENDBRANCH   7   8
ENDBRANCH   6   7
ENDBRANCH   5   6
ENDBRANCH   4   5
ENDBRANCH   3   4
ENDBRANCH   2   3
ENDBRANCH   1   2
BRANCH   1  18
ATOM     18  C   UNL     1     165.817 154.836 164.547  1.00  0.00     0.000 C 
BRANCH  18  19
ATOM     19  C   UNL     1     167.140 154.566 163.814  1.00  0.00     0.000 C 
BRANCH  19  20
ATOM     20  C   UNL     1     167.685 155.856 163.183  1.00  0.00     0.000 C 
BRANCH  20  21
ATOM     21  C   UNL     1     167.558 155.872 161.648  1.00  0.00     0.000 C 
BRANCH  21  22
ATOM     22  C   UNL     1     166.996 154.580 161.020  1.00  0.00     0.000 C 
BRANCH  22  23
ATOM     23  C   UNL     1     165.688 154.746 160.225  1.00  0.00     0.000 C 
BRANCH  23  24
ATOM     24  C   UNL     1     164.457 154.219 160.980  1.00  0.00    -0.000 C 
BRANCH  24  25
ATOM     25  C   UNL     1     163.130 154.693 160.357  1.00  0.00    -0.000 C 
BRANCH  25  26
ATOM     26  C   UNL     1     161.992 154.959 161.362  1.00  0.00    -0.000 C 
BRANCH  26  27
ATOM     27  C   UNL     1     162.447 155.446 162.751  1.00  0.00    -0.000 C 
BRANCH  27  28
ATOM     28  C   UNL     1     161.322 155.560 163.799  1.00  0.00    -0.000 C 
BRANCH  28  29
ATOM     29  C   UNL     1     161.768 155.337 165.258  1.00  0.00    -0.000 C 
BRANCH  29  30
ATOM     30  C   UNL     1     162.165 156.616 166.022  1.00  0.00    -0.000 C 
BRANCH  30  31
ATOM     31  C   UNL     1     163.315 157.418 165.388  1.00  0.00    -0.003 C 
ATOM     32  C   UNL     1     162.917 158.852 165.039  1.00  0.00     0.004 C 
ENDBRANCH  30  31
ENDBRANCH  29  30
ENDBRANCH  28  29
ENDBRANCH  27  28
ENDBRANCH  26  27
ENDBRANCH  25  26
ENDBRANCH  24  25
ENDBRANCH  23  24
ENDBRANCH  22  23
ENDBRANCH  21  22
ENDBRANCH  20  21
ENDBRANCH  19  20
ENDBRANCH  18  19
ENDBRANCH   1  18
TORSDOF 28
ENDMDL
MODEL 4
REMARK VINA RESULT:    -3.966      6.507      8.356
REMARK INTER + INTRA:         -13.966
REMARK INTER:                  -7.508
REMARK INTRA:                  -6.458
REMARK UNBOUND:                -3.509
REMARK SMILES CCCCCCCCCCCCCCCCCCCCCCCCCCCCCC(=O)[O-]
REMARK SMILES IDX 16 1 17 2 18 3 19 4 20 5 21 6 22 7 23 8 24 9 25 10 26 11
REMARK SMILES IDX 27 12 28 13 29 14 30 15 31 16 32 17 15 18 14 19 13 20 12 21
REMARK SMILES IDX 11 22 10 23 9 24 8 25 7 26 6 27 5 28 4 29 3 30 2 31 1 32
REMARK H PARENT
REMARK Flexibility Score: inf
ROOT
ATOM      1  C   UNL     1     162.835 150.377 160.255  1.00  0.00     0.000 C 
ENDROOT
BRANCH   1   2
ATOM      2  C   UNL     1     164.278 149.987 160.619  1.00  0.00     0.000 C 
BRANCH   2   3
ATOM      3  C   UNL     1     165.321 150.998 160.104  1.00  0.00     0.000 C 
BRANCH   3   4
ATOM      4  C   UNL     1     164.745 152.225 159.373  1.00  0.00     0.000 C 
BRANCH   4   5
ATOM      5  C   UNL     1     165.614 153.483 159.538  1.00  0.00     0.000 C 
BRANCH   5   6
ATOM      6  C   UNL     1     164.797 154.714 159.966  1.00  0.00     0.000 C 
BRANCH   6   7
ATOM      7  C   UNL     1     163.690 154.367 160.973  1.00  0.00     0.000 C 
BRANCH   7   8
ATOM      8  C   UNL     1     162.332 154.906 160.499  1.00  0.00     0.000 C 
BRANCH   8   9
ATOM      9  C   UNL     1     161.323 153.790 160.177  1.00  0.00     0.000 C 
BRANCH   9  10
ATOM     10  C   UNL     1     160.598 153.933 158.824  1.00  0.00     0.000 C 
BRANCH  10  11
ATOM     11  C   UNL     1     161.382 153.411 157.607  1.00  0.00     0.000 C 
BRANCH  11  12
ATOM     12  C   UNL     1     161.705 154.518 156.588  1.00  0.00     0.000 C 
BRANCH  12  13
ATOM     13  C   UNL     1     163.121 155.088 156.765  1.00  0.00     0.006 C 
BRANCH  13  14
ATOM     14  C   UNL     1     164.198 154.196 156.133  1.00  0.00     0.053 C 
BRANCH  14  15
ATOM     15  C   UNL     1     165.474 154.959 155.962  1.00  0.00     0.041 C 
ATOM     16  O   UNL     1     165.450 156.148 155.544  1.00  0.00    -0.550 OA
ATOM     17  O   UNL     1     166.686 154.376 156.310  1.00  0.00    -0.550 OA
ENDBRANCH  14  15
ENDBRANCH  13  14
ENDBRANCH  12  13
ENDBRANCH  11  12
ENDBRANCH  10  11
ENDBRANCH   9  10
ENDBRANCH   8   9
ENDBRANCH   7   8
ENDBRANCH   6   7
ENDBRANCH   5   6
ENDBRANCH   4   5
ENDBRANCH   3   4
ENDBRANCH   2   3
ENDBRANCH   1   2
BRANCH   1  18
ATOM     18  C   UNL     1     161.943 150.560 161.494  1.00  0.00     0.000 C 
BRANCH  18  19
ATOM     19  C   UNL     1     162.683 150.284 162.811  1.00  0.00     0.000 C 
BRANCH  19  20
ATOM     20  C   UNL     1     162.103 151.135 163.951  1.00  0.00     0.000 C 
BRANCH  20  21
ATOM     21  C   UNL     1     162.321 152.645 163.742  1.00  0.00     0.000 C 
BRANCH  21  22
ATOM     22  C   UNL     1     161.038 153.502 163.747  1.00  0.00     0.000 C 
BRANCH  22  23
ATOM     23  C   UNL     1     161.139 154.841 164.500  1.00  0.00     0.000 C 
BRANCH  23  24
ATOM     24  C   UNL     1     162.494 155.540 164.300  1.00  0.00    -0.000 C 
BRANCH  24  25
ATOM     25  C   UNL     1     163.291 155.677 165.611  1.00  0.00    -0.000 C 
BRANCH  25  26
ATOM     26  C   UNL     1     164.780 155.289 165.516  1.00  0.00    -0.000 C 
BRANCH  26  27
ATOM     27  C   UNL     1     165.594 156.075 164.470  1.00  0.00    -0.000 C 
BRANCH  27  28
ATOM     28  C   UNL     1     166.332 155.203 163.434  1.00  0.00    -0.000 C 
BRANCH  28  29
ATOM     29  C   UNL     1     166.719 153.795 163.927  1.00  0.00    -0.000 C 
BRANCH  29  30
ATOM     30  C   UNL     1     165.920 152.638 163.296  1.00  0.00    -0.000 C 
BRANCH  30  31
ATOM     31  C   UNL     1     166.044 151.290 164.026  1.00  0.00    -0.003 C 
ATOM     32  C   UNL     1     165.531 151.345 165.466  1.00  0.00     0.004 C 
ENDBRANCH  30  31
ENDBRANCH  29  30
ENDBRANCH  28  29
ENDBRANCH  27  28
ENDBRANCH  26  27
ENDBRANCH  25  26
ENDBRANCH  24  25
ENDBRANCH  23  24
ENDBRANCH  22  23
ENDBRANCH  21  22
ENDBRANCH  20  21
ENDBRANCH  19  20
ENDBRANCH  18  19
ENDBRANCH   1  18
TORSDOF 28
ENDMDL
MODEL 5
REMARK VINA RESULT:    -3.923      3.879      6.925
REMARK INTER + INTRA:         -13.855
REMARK INTER:                  -8.378
REMARK INTRA:                  -5.477
REMARK UNBOUND:                -3.509
REMARK SMILES CCCCCCCCCCCCCCCCCCCCCCCCCCCCCC(=O)[O-]
REMARK SMILES IDX 16 1 17 2 18 3 19 4 20 5 21 6 22 7 23 8 24 9 25 10 26 11
REMARK SMILES IDX 27 12 28 13 29 14 30 15 31 16 32 17 15 18 14 19 13 20 12 21
REMARK SMILES IDX 11 22 10 23 9 24 8 25 7 26 6 27 5 28 4 29 3 30 2 31 1 32
REMARK H PARENT
REMARK Flexibility Score: inf
ROOT
ATOM      1  C   UNL     1     164.335 153.174 159.351  1.00  0.00     0.000 C 
ENDROOT
BRANCH   1   2
ATOM      2  C   UNL     1     164.941 154.517 158.907  1.00  0.00     0.000 C 
BRANCH   2   3
ATOM      3  C   UNL     1     164.616 154.869 157.443  1.00  0.00     0.000 C 
BRANCH   3   4
ATOM      4  C   UNL     1     163.150 155.255 157.169  1.00  0.00     0.000 C 
BRANCH   4   5
ATOM      5  C   UNL     1     162.466 154.325 156.152  1.00  0.00     0.000 C 
BRANCH   5   6
ATOM      6  C   UNL     1     161.005 154.019 156.521  1.00  0.00     0.000 C 
BRANCH   6   7
ATOM      7  C   UNL     1     160.883 153.178 157.801  1.00  0.00     0.000 C 
BRANCH   7   8
ATOM      8  C   UNL     1     160.055 153.919 158.862  1.00  0.00     0.000 C 
BRANCH   8   9
ATOM      9  C   UNL     1     159.349 152.968 159.845  1.00  0.00     0.000 C 
BRANCH   9  10
ATOM     10  C   UNL     1     160.075 151.631 160.099  1.00  0.00     0.000 C 
BRANCH  10  11
ATOM     11  C   UNL     1     160.367 151.320 161.577  1.00  0.00     0.000 C 
BRANCH  11  12
ATOM     12  C   UNL     1     159.801 152.384 162.533  1.00  0.00     0.000 C 
BRANCH  12  13
ATOM     13  C   UNL     1     158.555 151.897 163.289  1.00  0.00     0.006 C 
BRANCH  13  14
ATOM     14  C   UNL     1     157.866 153.020 164.075  1.00  0.00     0.053 C 
BRANCH  14  15
ATOM     15  C   UNL     1     156.573 153.396 163.422  1.00  0.00     0.041 C 
ATOM     16  O   UNL     1     156.305 152.985 162.262  1.00  0.00    -0.550 OA
ATOM     17  O   UNL     1     155.641 154.161 164.114  1.00  0.00    -0.550 OA
ENDBRANCH  14  15
ENDBRANCH  13  14
ENDBRANCH  12  13
ENDBRANCH  11  12
ENDBRANCH  10  11
ENDBRANCH   9  10
ENDBRANCH   8   9
ENDBRANCH   7   8
ENDBRANCH   6   7
ENDBRANCH   5   6
ENDBRANCH   4   5
ENDBRANCH   3   4
ENDBRANCH   2   3
ENDBRANCH   1   2
BRANCH   1  18
ATOM     18  C   UNL     1     163.372 153.325 160.540  1.00  0.00     0.000 C 
BRANCH  18  19
ATOM     19  C   UNL     1     163.126 154.790 160.930  1.00  0.00     0.000 C 
BRANCH  19  20
ATOM     20  C   UNL     1     161.864 154.919 161.795  1.00  0.00     0.000 C 
BRANCH  20  21
ATOM     21  C   UNL     1     162.071 155.816 163.029  1.00  0.00     0.000 C 
BRANCH  21  22
ATOM     22  C   UNL     1     161.338 155.357 164.306  1.00  0.00     0.000 C 
BRANCH  22  23
ATOM     23  C   UNL     1     162.039 155.705 165.633  1.00  0.00     0.000 C 
BRANCH  23  24
ATOM     24  C   UNL     1     163.404 156.384 165.428  1.00  0.00    -0.000 C 
BRANCH  24  25
ATOM     25  C   UNL     1     164.586 155.434 165.699  1.00  0.00    -0.000 C 
BRANCH  25  26
ATOM     26  C   UNL     1     165.540 155.220 164.507  1.00  0.00    -0.000 C 
BRANCH  26  27
ATOM     27  C   UNL     1     165.328 153.908 163.728  1.00  0.00    -0.000 C 
BRANCH  27  28
ATOM     28  C   UNL     1     164.655 152.777 164.532  1.00  0.00    -0.000 C 
BRANCH  28  29
ATOM     29  C   UNL     1     163.320 152.271 163.951  1.00  0.00    -0.000 C 
BRANCH  29  30
ATOM     30  C   UNL     1     163.105 150.747 164.040  1.00  0.00    -0.000 C 
BRANCH  30  31
ATOM     31  C   UNL     1     163.868 150.050 165.180  1.00  0.00    -0.003 C 
ATOM     32  C   UNL     1     163.127 148.835 165.736  1.00  0.00     0.004 C 
ENDBRANCH  30  31
ENDBRANCH  29  30
ENDBRANCH  28  29
ENDBRANCH  27  28
ENDBRANCH  26  27
ENDBRANCH  25  26
ENDBRANCH  24  25
ENDBRANCH  23  24
ENDBRANCH  22  23
ENDBRANCH  21  22
ENDBRANCH  20  21
ENDBRANCH  19  20
ENDBRANCH  18  19
ENDBRANCH   1  18
TORSDOF 28
ENDMDL
MODEL 6
REMARK VINA RESULT:    -3.922      5.978      9.924
REMARK INTER + INTRA:         -13.851
REMARK INTER:                  -8.606
REMARK INTRA:                  -5.245
REMARK UNBOUND:                -3.509
REMARK SMILES CCCCCCCCCCCCCCCCCCCCCCCCCCCCCC(=O)[O-]
REMARK SMILES IDX 16 1 17 2 18 3 19 4 20 5 21 6 22 7 23 8 24 9 25 10 26 11
REMARK SMILES IDX 27 12 28 13 29 14 30 15 31 16 32 17 15 18 14 19 13 20 12 21
REMARK SMILES IDX 11 22 10 23 9 24 8 25 7 26 6 27 5 28 4 29 3 30 2 31 1 32
REMARK H PARENT
REMARK Flexibility Score: inf
ROOT
ATOM      1  C   UNL     1     161.538 154.993 162.967  1.00  0.00     0.000 C 
ENDROOT
BRANCH   1   2
ATOM      2  C   UNL     1     161.823 156.458 163.342  1.00  0.00     0.000 C 
BRANCH   2   3
ATOM      3  C   UNL     1     160.909 156.978 164.467  1.00  0.00     0.000 C 
BRANCH   3   4
ATOM      4  C   UNL     1     161.496 158.120 165.319  1.00  0.00     0.000 C 
BRANCH   4   5
ATOM      5  C   UNL     1     162.908 157.809 165.843  1.00  0.00     0.000 C 
BRANCH   5   6
ATOM      6  C   UNL     1     162.928 156.623 166.822  1.00  0.00     0.000 C 
BRANCH   6   7
ATOM      7  C   UNL     1     164.061 155.629 166.522  1.00  0.00     0.000 C 
BRANCH   7   8
ATOM      8  C   UNL     1     164.746 155.968 165.190  1.00  0.00     0.000 C 
BRANCH   8   9
ATOM      9  C   UNL     1     165.355 154.736 164.497  1.00  0.00     0.000 C 
BRANCH   9  10
ATOM     10  C   UNL     1     165.163 153.402 165.247  1.00  0.00     0.000 C 
BRANCH  10  11
ATOM     11  C   UNL     1     165.550 152.145 164.448  1.00  0.00     0.000 C 
BRANCH  11  12
ATOM     12  C   UNL     1     166.108 151.021 165.339  1.00  0.00     0.000 C 
BRANCH  12  13
ATOM     13  C   UNL     1     165.277 149.731 165.252  1.00  0.00     0.006 C 
BRANCH  13  14
ATOM     14  C   UNL     1     163.988 149.915 164.441  1.00  0.00     0.053 C 
BRANCH  14  15
ATOM     15  C   UNL     1     162.844 149.227 165.117  1.00  0.00     0.041 C 
ATOM     16  O   UNL     1     162.987 148.744 166.272  1.00  0.00    -0.550 OA
ATOM     17  O   UNL     1     161.604 149.163 164.493  1.00  0.00    -0.550 OA
ENDBRANCH  14  15
ENDBRANCH  13  14
ENDBRANCH  12  13
ENDBRANCH  11  12
ENDBRANCH  10  11
ENDBRANCH   9  10
ENDBRANCH   8   9
ENDBRANCH   7   8
ENDBRANCH   6   7
ENDBRANCH   5   6
ENDBRANCH   4   5
ENDBRANCH   3   4
ENDBRANCH   2   3
ENDBRANCH   1   2
BRANCH   1  18
ATOM     18  C   UNL     1     161.691 154.037 164.161  1.00  0.00     0.000 C 
BRANCH  18  19
ATOM     19  C   UNL     1     161.564 152.558 163.765  1.00  0.00     0.000 C 
BRANCH  19  20
ATOM     20  C   UNL     1     160.180 152.273 163.163  1.00  0.00     0.000 C 
BRANCH  20  21
ATOM     21  C   UNL     1     160.254 151.571 161.795  1.00  0.00     0.000 C 
BRANCH  21  22
ATOM     22  C   UNL     1     160.539 152.497 160.595  1.00  0.00     0.000 C 
BRANCH  22  23
ATOM     23  C   UNL     1     159.353 152.726 159.639  1.00  0.00     0.000 C 
BRANCH  23  24
ATOM     24  C   UNL     1     159.632 153.811 158.586  1.00  0.00    -0.000 C 
BRANCH  24  25
ATOM     25  C   UNL     1     160.065 153.227 157.229  1.00  0.00    -0.000 C 
BRANCH  25  26
ATOM     26  C   UNL     1     161.517 153.539 156.814  1.00  0.00    -0.000 C 
BRANCH  26  27
ATOM     27  C   UNL     1     162.072 154.878 157.338  1.00  0.00    -0.000 C 
BRANCH  27  28
ATOM     28  C   UNL     1     163.375 154.763 158.155  1.00  0.00    -0.000 C 
BRANCH  28  29
ATOM     29  C   UNL     1     163.189 154.806 159.685  1.00  0.00    -0.000 C 
BRANCH  29  30
ATOM     30  C   UNL     1     164.435 154.419 160.506  1.00  0.00    -0.000 C 
BRANCH  30  31
ATOM     31  C   UNL     1     164.282 153.142 161.351  1.00  0.00    -0.003 C 
ATOM     32  C   UNL     1     164.148 151.879 160.502  1.00  0.00     0.004 C 
ENDBRANCH  30  31
ENDBRANCH  29  30
ENDBRANCH  28  29
ENDBRANCH  27  28
ENDBRANCH  26  27
ENDBRANCH  25  26
ENDBRANCH  24  25
ENDBRANCH  23  24
ENDBRANCH  22  23
ENDBRANCH  21  22
ENDBRANCH  20  21
ENDBRANCH  19  20
ENDBRANCH  18  19
ENDBRANCH   1  18
TORSDOF 28
ENDMDL
MODEL 7
REMARK VINA RESULT:    -3.915      2.231      4.153
REMARK INTER + INTRA:         -13.833
REMARK INTER:                  -8.809
REMARK INTRA:                  -5.024
REMARK UNBOUND:                -3.509
REMARK SMILES CCCCCCCCCCCCCCCCCCCCCCCCCCCCCC(=O)[O-]
REMARK SMILES IDX 16 1 17 2 18 3 19 4 20 5 21 6 22 7 23 8 24 9 25 10 26 11
REMARK SMILES IDX 27 12 28 13 29 14 30 15 31 16 32 17 15 18 14 19 13 20 12 21
REMARK SMILES IDX 11 22 10 23 9 24 8 25 7 26 6 27 5 28 4 29 3 30 2 31 1 32
REMARK H PARENT
REMARK Flexibility Score: inf
ROOT
ATOM      1  C   UNL     1     160.806 153.416 161.078  1.00  0.00     0.000 C 
ENDROOT
BRANCH   1   2
ATOM      2  C   UNL     1     160.806 152.376 159.943  1.00  0.00     0.000 C 
BRANCH   2   3
ATOM      3  C   UNL     1     160.331 152.956 158.598  1.00  0.00     0.000 C 
BRANCH   3   4
ATOM      4  C   UNL     1     158.990 153.714 158.643  1.00  0.00     0.000 C 
BRANCH   4   5
ATOM      5  C   UNL     1     157.788 152.790 158.898  1.00  0.00     0.000 C 
BRANCH   5   6
ATOM      6  C   UNL     1     157.152 153.014 160.280  1.00  0.00     0.000 C 
BRANCH   6   7
ATOM      7  C   UNL     1     156.509 151.740 160.848  1.00  0.00     0.000 C 
BRANCH   7   8
ATOM      8  C   UNL     1     157.248 151.274 162.112  1.00  0.00     0.000 C 
BRANCH   8   9
ATOM      9  C   UNL     1     157.972 152.420 162.841  1.00  0.00     0.000 C 
BRANCH   9  10
ATOM     10  C   UNL     1     157.238 152.978 164.077  1.00  0.00     0.000 C 
BRANCH  10  11
ATOM     11  C   UNL     1     156.556 154.342 163.869  1.00  0.00     0.000 C 
BRANCH  11  12
ATOM     12  C   UNL     1     155.143 154.218 163.275  1.00  0.00     0.000 C 
BRANCH  12  13
ATOM     13  C   UNL     1     154.303 155.488 163.479  1.00  0.00     0.006 C 
BRANCH  13  14
ATOM     14  C   UNL     1     154.753 156.643 162.574  1.00  0.00     0.053 C 
BRANCH  14  15
ATOM     15  C   UNL     1     154.737 157.934 163.330  1.00  0.00     0.041 C 
ATOM     16  O   UNL     1     155.818 158.477 163.681  1.00  0.00    -0.550 OA
ATOM     17  O   UNL     1     153.529 158.565 163.605  1.00  0.00    -0.550 OA
ENDBRANCH  14  15
ENDBRANCH  13  14
ENDBRANCH  12  13
ENDBRANCH  11  12
ENDBRANCH  10  11
ENDBRANCH   9  10
ENDBRANCH   8   9
ENDBRANCH   7   8
ENDBRANCH   6   7
ENDBRANCH   5   6
ENDBRANCH   4   5
ENDBRANCH   3   4
ENDBRANCH   2   3
ENDBRANCH   1   2
BRANCH   1  18
ATOM     18  C   UNL     1     162.052 154.316 161.054  1.00  0.00     0.000 C 
BRANCH  18  19
ATOM     19  C   UNL     1     162.139 155.251 162.269  1.00  0.00     0.000 C 
BRANCH  19  20
ATOM     20  C   UNL     1     161.484 154.607 163.500  1.00  0.00     0.000 C 
BRANCH  20  21
ATOM     21  C   UNL     1     160.962 155.643 164.513  1.00  0.00     0.000 C 
BRANCH  21  22
ATOM     22  C   UNL     1     161.474 157.083 164.304  1.00  0.00     0.000 C 
BRANCH  22  23
ATOM     23  C   UNL     1     162.715 157.470 165.130  1.00  0.00     0.000 C 
BRANCH  23  24
ATOM     24  C   UNL     1     162.748 156.798 166.512  1.00  0.00    -0.000 C 
BRANCH  24  25
ATOM     25  C   UNL     1     163.948 155.848 166.682  1.00  0.00    -0.000 C 
BRANCH  25  26
ATOM     26  C   UNL     1     164.714 155.521 165.385  1.00  0.00    -0.000 C 
BRANCH  26  27
ATOM     27  C   UNL     1     164.759 154.026 165.011  1.00  0.00    -0.000 C 
BRANCH  27  28
ATOM     28  C   UNL     1     165.200 153.733 163.563  1.00  0.00    -0.000 C 
BRANCH  28  29
ATOM     29  C   UNL     1     164.630 152.433 162.961  1.00  0.00    -0.000 C 
BRANCH  29  30
ATOM     30  C   UNL     1     163.635 151.677 163.863  1.00  0.00    -0.000 C 
BRANCH  30  31
ATOM     31  C   UNL     1     162.549 150.888 163.111  1.00  0.00    -0.003 C 
ATOM     32  C   UNL     1     161.217 150.850 163.860  1.00  0.00     0.004 C 
ENDBRANCH  30  31
ENDBRANCH  29  30
ENDBRANCH  28  29
ENDBRANCH  27  28
ENDBRANCH  26  27
ENDBRANCH  25  26
ENDBRANCH  24  25
ENDBRANCH  23  24
ENDBRANCH  22  23
ENDBRANCH  21  22
ENDBRANCH  20  21
ENDBRANCH  19  20
ENDBRANCH  18  19
ENDBRANCH   1  18
TORSDOF 28
ENDMDL
MODEL 8
REMARK VINA RESULT:    -3.891      4.631      8.189
REMARK INTER + INTRA:         -13.769
REMARK INTER:                  -7.660
REMARK INTRA:                  -6.108
REMARK UNBOUND:                -3.509
REMARK SMILES CCCCCCCCCCCCCCCCCCCCCCCCCCCCCC(=O)[O-]
REMARK SMILES IDX 16 1 17 2 18 3 19 4 20 5 21 6 22 7 23 8 24 9 25 10 26 11
REMARK SMILES IDX 27 12 28 13 29 14 30 15 31 16 32 17 15 18 14 19 13 20 12 21
REMARK SMILES IDX 11 22 10 23 9 24 8 25 7 26 6 27 5 28 4 29 3 30 2 31 1 32
REMARK H PARENT
REMARK Flexibility Score: inf
ROOT
ATOM      1  C   UNL     1     161.363 153.684 160.745  1.00  0.00     0.000 C 
ENDROOT
BRANCH   1   2
ATOM      2  C   UNL     1     160.471 153.777 159.495  1.00  0.00     0.000 C 
BRANCH   2   3
ATOM      3  C   UNL     1     161.277 153.914 158.189  1.00  0.00     0.000 C 
BRANCH   3   4
ATOM      4  C   UNL     1     161.693 152.585 157.529  1.00  0.00     0.000 C 
BRANCH   4   5
ATOM      5  C   UNL     1     163.208 152.331 157.598  1.00  0.00     0.000 C 
BRANCH   5   6
ATOM      6  C   UNL     1     163.600 151.406 158.763  1.00  0.00     0.000 C 
BRANCH   6   7
ATOM      7  C   UNL     1     162.437 150.515 159.226  1.00  0.00     0.000 C 
BRANCH   7   8
ATOM      8  C   UNL     1     162.537 150.228 160.732  1.00  0.00     0.000 C 
BRANCH   8   9
ATOM      9  C   UNL     1     163.877 150.678 161.342  1.00  0.00     0.000 C 
BRANCH   9  10
ATOM     10  C   UNL     1     163.777 151.319 162.740  1.00  0.00     0.000 C 
BRANCH  10  11
ATOM     11  C   UNL     1     162.500 150.973 163.526  1.00  0.00     0.000 C 
BRANCH  11  12
ATOM     12  C   UNL     1     161.628 152.205 163.819  1.00  0.00     0.000 C 
BRANCH  12  13
ATOM     13  C   UNL     1     160.127 151.919 163.655  1.00  0.00     0.006 C 
BRANCH  13  14
ATOM     14  C   UNL     1     159.273 153.192 163.727  1.00  0.00     0.053 C 
BRANCH  14  15
ATOM     15  C   UNL     1     157.820 152.843 163.783  1.00  0.00     0.041 C 
ATOM     16  O   UNL     1     157.074 153.074 162.795  1.00  0.00    -0.550 OA
ATOM     17  O   UNL     1     157.298 152.217 164.909  1.00  0.00    -0.550 OA
ENDBRANCH  14  15
ENDBRANCH  13  14
ENDBRANCH  12  13
ENDBRANCH  11  12
ENDBRANCH  10  11
ENDBRANCH   9  10
ENDBRANCH   8   9
ENDBRANCH   7   8
ENDBRANCH   6   7
ENDBRANCH   5   6
ENDBRANCH   4   5
ENDBRANCH   3   4
ENDBRANCH   2   3
ENDBRANCH   1   2
BRANCH   1  18
ATOM     18  C   UNL     1     162.304 154.891 160.891  1.00  0.00     0.000 C 
BRANCH  18  19
ATOM     19  C   UNL     1     163.783 154.489 160.989  1.00  0.00     0.000 C 
BRANCH  19  20
ATOM     20  C   UNL     1     164.546 154.905 159.723  1.00  0.00     0.000 C 
BRANCH  20  21
ATOM     21  C   UNL     1     166.055 154.612 159.808  1.00  0.00     0.000 C 
BRANCH  21  22
ATOM     22  C   UNL     1     166.433 153.324 160.569  1.00  0.00     0.000 C 
BRANCH  22  23
ATOM     23  C   UNL     1     167.401 153.515 161.751  1.00  0.00     0.000 C 
BRANCH  23  24
ATOM     24  C   UNL     1     167.305 152.387 162.792  1.00  0.00    -0.000 C 
BRANCH  24  25
ATOM     25  C   UNL     1     166.723 152.866 164.135  1.00  0.00    -0.000 C 
BRANCH  25  26
ATOM     26  C   UNL     1     166.090 154.272 164.111  1.00  0.00    -0.000 C 
BRANCH  26  27
ATOM     27  C   UNL     1     164.763 154.404 164.882  1.00  0.00    -0.000 C 
BRANCH  27  28
ATOM     28  C   UNL     1     164.290 155.853 165.115  1.00  0.00    -0.000 C 
BRANCH  28  29
ATOM     29  C   UNL     1     163.003 155.990 165.953  1.00  0.00    -0.000 C 
BRANCH  29  30
ATOM     30  C   UNL     1     161.707 155.567 165.234  1.00  0.00    -0.000 C 
BRANCH  30  31
ATOM     31  C   UNL     1     161.282 156.482 164.073  1.00  0.00    -0.003 C 
ATOM     32  C   UNL     1     160.878 157.882 164.537  1.00  0.00     0.004 C 
ENDBRANCH  30  31
ENDBRANCH  29  30
ENDBRANCH  28  29
ENDBRANCH  27  28
ENDBRANCH  26  27
ENDBRANCH  25  26
ENDBRANCH  24  25
ENDBRANCH  23  24
ENDBRANCH  22  23
ENDBRANCH  21  22
ENDBRANCH  20  21
ENDBRANCH  19  20
ENDBRANCH  18  19
ENDBRANCH   1  18
TORSDOF 28
ENDMDL
MODEL 9
REMARK VINA RESULT:    -3.798      5.442      9.327
REMARK INTER + INTRA:         -13.524
REMARK INTER:                  -7.615
REMARK INTRA:                  -5.909
REMARK UNBOUND:                -3.509
REMARK SMILES CCCCCCCCCCCCCCCCCCCCCCCCCCCCCC(=O)[O-]
REMARK SMILES IDX 16 1 17 2 18 3 19 4 20 5 21 6 22 7 23 8 24 9 25 10 26 11
REMARK SMILES IDX 27 12 28 13 29 14 30 15 31 16 32 17 15 18 14 19 13 20 12 21
REMARK SMILES IDX 11 22 10 23 9 24 8 25 7 26 6 27 5 28 4 29 3 30 2 31 1 32
REMARK H PARENT
REMARK Flexibility Score: inf
ROOT
ATOM      1  C   UNL     1     163.008 151.476 161.327  1.00  0.00     0.000 C 
ENDROOT
BRANCH   1   2
ATOM      2  C   UNL     1     163.585 151.204 159.926  1.00  0.00     0.000 C 
BRANCH   2   3
ATOM      3  C   UNL     1     164.082 152.481 159.223  1.00  0.00     0.000 C 
BRANCH   3   4
ATOM      4  C   UNL     1     163.509 153.802 159.772  1.00  0.00     0.000 C 
BRANCH   4   5
ATOM      5  C   UNL     1     164.538 154.945 159.775  1.00  0.00     0.000 C 
BRANCH   5   6
ATOM      6  C   UNL     1     165.974 154.447 160.006  1.00  0.00     0.000 C 
BRANCH   6   7
ATOM      7  C   UNL     1     166.444 154.649 161.456  1.00  0.00     0.000 C 
BRANCH   7   8
ATOM      8  C   UNL     1     166.453 153.314 162.216  1.00  0.00     0.000 C 
BRANCH   8   9
ATOM      9  C   UNL     1     165.467 153.291 163.399  1.00  0.00     0.000 C 
BRANCH   9  10
ATOM     10  C   UNL     1     164.573 154.539 163.531  1.00  0.00     0.000 C 
BRANCH  10  11
ATOM     11  C   UNL     1     163.068 154.251 163.674  1.00  0.00     0.000 C 
BRANCH  11  12
ATOM     12  C   UNL     1     162.190 155.309 162.985  1.00  0.00     0.000 C 
BRANCH  12  13
ATOM     13  C   UNL     1     161.829 156.475 163.918  1.00  0.00     0.006 C 
BRANCH  13  14
ATOM     14  C   UNL     1     161.841 156.070 165.398  1.00  0.00     0.053 C 
BRANCH  14  15
ATOM     15  C   UNL     1     162.640 157.047 166.200  1.00  0.00     0.041 C 
ATOM     16  O   UNL     1     163.066 158.107 165.668  1.00  0.00    -0.550 OA
ATOM     17  O   UNL     1     162.874 156.813 167.550  1.00  0.00    -0.550 OA
ENDBRANCH  14  15
ENDBRANCH  13  14
ENDBRANCH  12  13
ENDBRANCH  11  12
ENDBRANCH  10  11
ENDBRANCH   9  10
ENDBRANCH   8   9
ENDBRANCH   7   8
ENDBRANCH   6   7
ENDBRANCH   5   6
ENDBRANCH   4   5
ENDBRANCH   3   4
ENDBRANCH   2   3
ENDBRANCH   1   2
BRANCH   1  18
ATOM     18  C   UNL     1     163.089 150.248 162.247  1.00  0.00     0.000 C 
BRANCH  18  19
ATOM     19  C   UNL     1     162.698 150.561 163.699  1.00  0.00     0.000 C 
BRANCH  19  20
ATOM     20  C   UNL     1     161.191 150.351 163.914  1.00  0.00     0.000 C 
BRANCH  20  21
ATOM     21  C   UNL     1     160.375 151.645 163.741  1.00  0.00     0.000 C 
BRANCH  21  22
ATOM     22  C   UNL     1     159.151 151.531 162.809  1.00  0.00     0.000 C 
BRANCH  22  23
ATOM     23  C   UNL     1     159.095 152.557 161.662  1.00  0.00     0.000 C 
BRANCH  23  24
ATOM     24  C   UNL     1     159.487 151.956 160.302  1.00  0.00    -0.000 C 
BRANCH  24  25
ATOM     25  C   UNL     1     160.105 152.997 159.349  1.00  0.00    -0.000 C 
BRANCH  25  26
ATOM     26  C   UNL     1     159.923 152.699 157.847  1.00  0.00    -0.000 C 
BRANCH  26  27
ATOM     27  C   UNL     1     161.176 152.923 156.980  1.00  0.00    -0.000 C 
BRANCH  27  28
ATOM     28  C   UNL     1     161.344 154.359 156.442  1.00  0.00    -0.000 C 
BRANCH  28  29
ATOM     29  C   UNL     1     162.798 154.868 156.391  1.00  0.00    -0.000 C 
BRANCH  29  30
ATOM     30  C   UNL     1     163.806 153.901 155.739  1.00  0.00    -0.000 C 
BRANCH  30  31
ATOM     31  C   UNL     1     165.279 154.160 156.102  1.00  0.00    -0.003 C 
ATOM     32  C   UNL     1     165.683 155.625 155.940  1.00  0.00     0.004 C 
ENDBRANCH  30  31
ENDBRANCH  29  30
ENDBRANCH  28  29
ENDBRANCH  27  28
ENDBRANCH  26  27
ENDBRANCH  25  26
ENDBRANCH  24  25
ENDBRANCH  23  24
ENDBRANCH  22  23
ENDBRANCH  21  22
ENDBRANCH  20  21
ENDBRANCH  19  20
ENDBRANCH  18  19
ENDBRANCH   1  18
TORSDOF 28
ENDMDL
