MODEL 1
REMARK VINA RESULT:    -4.780      0.000      0.000
REMARK INTER + INTRA:          -5.249
REMARK INTER:                  -5.200
REMARK INTRA:                  -0.050
REMARK UNBOUND:                -0.050
REMARK SMILES CC1(C)[C@H]2CC=C(CO)[C@@H]1C2
REMARK SMILES IDX 8 1 7 2 1 3 2 4 4 5 3 6 10 7 5 8 11 9 6 10 9 11
REMARK H PARENT 9 12
REMARK Flexibility Score: inf
ROOT
ATOM      1  C   UNL     1      25.951  31.044  -0.975  1.00  0.00     0.187 C 
ENDROOT
BRANCH   1   2
ATOM      2  C   UNL     1      25.554  32.444  -0.608  1.00  0.00    -0.045 C 
ATOM      3  C   UNL     1      26.287  34.577   2.576  1.00  0.00     0.012 C 
ATOM      4  C   UNL     1      26.123  34.231   1.073  1.00  0.00    -0.026 C 
ATOM      5  C   UNL     1      24.855  34.884   0.457  1.00  0.00    -0.000 C 
ATOM      6  C   UNL     1      27.492  34.452   0.371  1.00  0.00     0.012 C 
ATOM      7  C   UNL     1      25.393  32.880   0.856  1.00  0.00     0.023 C 
ATOM      8  C   UNL     1      24.912  34.812  -1.109  1.00  0.00     0.031 C 
ATOM      9  C   UNL     1      24.055  33.643   0.902  1.00  0.00     0.013 C 
ATOM     10  C   UNL     1      25.293  33.388  -1.560  1.00  0.00    -0.025 C 
ENDBRANCH   1   2
BRANCH   1  11
ATOM     11  O   UNL     1      27.291  31.030  -1.381  1.00  0.00    -0.392 OA
ATOM     12  H   UNL     1      27.362  31.694  -2.115  1.00  0.00     0.211 HD
ENDBRANCH   1  11
TORSDOF 2
ENDMDL
MODEL 2
REMARK VINA RESULT:    -4.490      2.089      3.581
REMARK INTER + INTRA:          -4.934
REMARK INTER:                  -4.898
REMARK INTRA:                  -0.036
REMARK UNBOUND:                -0.050
REMARK SMILES CC1(C)[C@H]2CC=C(CO)[C@@H]1C2
REMARK SMILES IDX 8 1 7 2 1 3 2 4 4 5 3 6 10 7 5 8 11 9 6 10 9 11
REMARK H PARENT 9 12
REMARK Flexibility Score: inf
ROOT
ATOM      1  C   UNL     1      25.380  33.348   3.046  1.00  0.00     0.187 C 
ENDROOT
BRANCH   1   2
ATOM      2  C   UNL     1      25.247  33.452   1.555  1.00  0.00    -0.045 C 
ATOM      3  C   UNL     1      26.782  31.310  -1.322  1.00  0.00     0.012 C 
ATOM      4  C   UNL     1      25.720  32.106  -0.521  1.00  0.00    -0.026 C 
ATOM      5  C   UNL     1      25.374  33.463  -1.194  1.00  0.00    -0.000 C 
ATOM      6  C   UNL     1      24.560  31.139  -0.155  1.00  0.00     0.012 C 
ATOM      7  C   UNL     1      26.353  32.959   0.609  1.00  0.00     0.023 C 
ATOM      8  C   UNL     1      24.068  34.065  -0.568  1.00  0.00     0.031 C 
ATOM      9  C   UNL     1      26.542  34.097  -0.412  1.00  0.00     0.013 C 
ATOM     10  C   UNL     1      24.147  34.012   0.971  1.00  0.00    -0.025 C 
ENDBRANCH   1   2
BRANCH   1  11
ATOM     11  O   UNL     1      24.259  32.693   3.571  1.00  0.00    -0.392 OA
ATOM     12  H   UNL     1      24.610  31.916   4.080  1.00  0.00     0.211 HD
ENDBRANCH   1  11
TORSDOF 2
ENDMDL
MODEL 3
REMARK VINA RESULT:    -4.413      2.150      3.563
REMARK INTER + INTRA:          -4.850
REMARK INTER:                  -4.827
REMARK INTRA:                  -0.023
REMARK UNBOUND:                -0.050
REMARK SMILES CC1(C)[C@H]2CC=C(CO)[C@@H]1C2
REMARK SMILES IDX 8 1 7 2 1 3 2 4 4 5 3 6 10 7 5 8 11 9 6 10 9 11
REMARK H PARENT 9 12
REMARK Flexibility Score: inf
ROOT
ATOM      1  C   UNL     1      24.261  31.940   2.436  1.00  0.00     0.187 C 
ENDROOT
BRANCH   1   2
ATOM      2  C   UNL     1      25.093  32.724   1.464  1.00  0.00    -0.045 C 
ATOM      3  C   UNL     1      24.738  33.261  -2.384  1.00  0.00     0.012 C 
ATOM      4  C   UNL     1      24.987  33.605  -0.892  1.00  0.00    -0.026 C 
ATOM      5  C   UNL     1      26.486  33.893  -0.601  1.00  0.00    -0.000 C 
ATOM      6  C   UNL     1      23.928  34.653  -0.450  1.00  0.00     0.012 C 
ATOM      7  C   UNL     1      25.180  32.337  -0.020  1.00  0.00     0.023 C 
ATOM      8  C   UNL     1      26.647  34.573   0.803  1.00  0.00     0.031 C 
ATOM      9  C   UNL     1      26.683  32.383  -0.358  1.00  0.00     0.013 C 
ATOM     10  C   UNL     1      25.833  33.801   1.861  1.00  0.00    -0.025 C 
ENDBRANCH   1   2
BRANCH   1  11
ATOM     11  O   UNL     1      24.251  32.592   3.675  1.00  0.00    -0.392 OA
ATOM     12  H   UNL     1      25.152  32.994   3.780  1.00  0.00     0.211 HD
ENDBRANCH   1  11
TORSDOF 2
ENDMDL
MODEL 4
REMARK VINA RESULT:    -4.221      2.144      4.369
REMARK INTER + INTRA:          -4.641
REMARK INTER:                  -4.603
REMARK INTRA:                  -0.038
REMARK UNBOUND:                -0.050
REMARK SMILES CC1(C)[C@H]2CC=C(CO)[C@@H]1C2
REMARK SMILES IDX 8 1 7 2 1 3 2 4 4 5 3 6 10 7 5 8 11 9 6 10 9 11
REMARK H PARENT 9 12
REMARK Flexibility Score: inf
ROOT
ATOM      1  C   UNL     1      26.512  33.773  -0.133  1.00  0.00     0.187 C 
ENDROOT
BRANCH   1   2
ATOM      2  C   UNL     1      25.854  32.576  -0.755  1.00  0.00    -0.045 C 
ATOM      3  C   UNL     1      26.783  30.474  -3.907  1.00  0.00     0.012 C 
ATOM      4  C   UNL     1      26.329  30.782  -2.457  1.00  0.00    -0.026 C 
ATOM      5  C   UNL     1      24.813  30.512  -2.249  1.00  0.00    -0.000 C 
ATOM      6  C   UNL     1      27.344  30.126  -1.480  1.00  0.00     0.012 C 
ATOM      7  C   UNL     1      25.973  32.278  -2.257  1.00  0.00     0.023 C 
ATOM      8  C   UNL     1      24.469  30.489  -0.719  1.00  0.00     0.031 C 
ATOM      9  C   UNL     1      24.537  31.956  -2.716  1.00  0.00     0.013 C 
ATOM     10  C   UNL     1      25.097  31.710  -0.017  1.00  0.00    -0.025 C 
ENDBRANCH   1   2
BRANCH   1  11
ATOM     11  O   UNL     1      25.758  34.919  -0.416  1.00  0.00    -0.392 OA
ATOM     12  H   UNL     1      25.350  35.197   0.445  1.00  0.00     0.211 HD
ENDBRANCH   1  11
TORSDOF 2
ENDMDL
MODEL 5
REMARK VINA RESULT:    -4.190     18.420     20.376
REMARK INTER + INTRA:          -4.607
REMARK INTER:                  -4.581
REMARK INTRA:                  -0.026
REMARK UNBOUND:                -0.050
REMARK SMILES CC1(C)[C@H]2CC=C(CO)[C@@H]1C2
REMARK SMILES IDX 8 1 7 2 1 3 2 4 4 5 3 6 10 7 5 8 11 9 6 10 9 11
REMARK H PARENT 9 12
REMARK Flexibility Score: inf
ROOT
ATOM      1  C   UNL     1      36.103  45.372   8.509  1.00  0.00     0.187 C 
ENDROOT
BRANCH   1   2
ATOM      2  C   UNL     1      36.378  46.127   9.777  1.00  0.00    -0.045 C 
ATOM      3  C   UNL     1      39.726  47.012  11.573  1.00  0.00     0.012 C 
ATOM      4  C   UNL     1      38.297  47.202  11.003  1.00  0.00    -0.026 C 
ATOM      5  C   UNL     1      37.226  47.285  12.125  1.00  0.00    -0.000 C 
ATOM      6  C   UNL     1      38.346  48.330   9.934  1.00  0.00     0.012 C 
ATOM      7  C   UNL     1      37.630  45.854  10.624  1.00  0.00     0.023 C 
ATOM      8  C   UNL     1      35.872  47.826  11.547  1.00  0.00     0.031 C 
ATOM      9  C   UNL     1      37.117  45.748  12.073  1.00  0.00     0.013 C 
ATOM     10  C   UNL     1      35.514  47.074  10.249  1.00  0.00    -0.025 C 
ENDBRANCH   1   2
BRANCH   1  11
ATOM     11  O   UNL     1      34.928  44.625   8.656  1.00  0.00    -0.392 OA
ATOM     12  H   UNL     1      34.179  45.261   8.514  1.00  0.00     0.211 HD
ENDBRANCH   1  11
TORSDOF 2
ENDMDL
MODEL 6
REMARK VINA RESULT:    -4.174      2.058      3.560
REMARK INTER + INTRA:          -4.590
REMARK INTER:                  -4.566
REMARK INTRA:                  -0.023
REMARK UNBOUND:                -0.050
REMARK SMILES CC1(C)[C@H]2CC=C(CO)[C@@H]1C2
REMARK SMILES IDX 8 1 7 2 1 3 2 4 4 5 3 6 10 7 5 8 11 9 6 10 9 11
REMARK H PARENT 9 12
REMARK Flexibility Score: inf
ROOT
ATOM      1  C   UNL     1      27.366  34.719   1.403  1.00  0.00     0.187 C 
ENDROOT
BRANCH   1   2
ATOM      2  C   UNL     1      26.312  34.187   0.476  1.00  0.00    -0.045 C 
ATOM      3  C   UNL     1      25.520  30.555  -0.707  1.00  0.00     0.012 C 
ATOM      4  C   UNL     1      25.267  31.998  -0.200  1.00  0.00    -0.026 C 
ATOM      5  C   UNL     1      24.646  32.904  -1.299  1.00  0.00    -0.000 C 
ATOM      6  C   UNL     1      24.560  31.912   1.181  1.00  0.00     0.012 C 
ATOM      7  C   UNL     1      26.524  32.897  -0.331  1.00  0.00     0.023 C 
ATOM      8  C   UNL     1      24.083  34.223  -0.664  1.00  0.00     0.031 C 
ATOM      9  C   UNL     1      26.077  33.244  -1.765  1.00  0.00     0.013 C 
ATOM     10  C   UNL     1      25.127  34.840   0.287  1.00  0.00    -0.025 C 
ENDBRANCH   1   2
BRANCH   1  11
ATOM     11  O   UNL     1      27.049  36.036   1.763  1.00  0.00    -0.392 OA
ATOM     12  H   UNL     1      26.387  35.966   2.498  1.00  0.00     0.211 HD
ENDBRANCH   1  11
TORSDOF 2
ENDMDL
MODEL 7
REMARK VINA RESULT:    -4.055      2.102      3.664
REMARK INTER + INTRA:          -4.460
REMARK INTER:                  -4.430
REMARK INTRA:                  -0.030
REMARK UNBOUND:                -0.050
REMARK SMILES CC1(C)[C@H]2CC=C(CO)[C@@H]1C2
REMARK SMILES IDX 8 1 7 2 1 3 2 4 4 5 3 6 10 7 5 8 11 9 6 10 9 11
REMARK H PARENT 9 12
REMARK Flexibility Score: inf
ROOT
ATOM      1  C   UNL     1      27.610  35.096   1.272  1.00  0.00     0.187 C 
ENDROOT
BRANCH   1   2
ATOM      2  C   UNL     1      26.395  34.329   0.838  1.00  0.00    -0.045 C 
ATOM      3  C   UNL     1      25.280  33.042  -2.672  1.00  0.00     0.012 C 
ATOM      4  C   UNL     1      25.541  33.031  -1.144  1.00  0.00    -0.026 C 
ATOM      5  C   UNL     1      24.222  33.104  -0.325  1.00  0.00    -0.000 C 
ATOM      6  C   UNL     1      26.551  31.892  -0.830  1.00  0.00     0.012 C 
ATOM      7  C   UNL     1      25.830  34.449  -0.586  1.00  0.00     0.023 C 
ATOM      8  C   UNL     1      24.492  32.736   1.176  1.00  0.00     0.031 C 
ATOM      9  C   UNL     1      24.313  34.641  -0.400  1.00  0.00     0.013 C 
ATOM     10  C   UNL     1      25.719  33.510   1.697  1.00  0.00    -0.025 C 
ENDBRANCH   1   2
BRANCH   1  11
ATOM     11  O   UNL     1      27.215  36.204   2.033  1.00  0.00    -0.392 OA
ATOM     12  H   UNL     1      27.197  35.896   2.976  1.00  0.00     0.211 HD
ENDBRANCH   1  11
TORSDOF 2
ENDMDL
MODEL 8
REMARK VINA RESULT:    -3.783      2.111      3.170
REMARK INTER + INTRA:          -4.165
REMARK INTER:                  -4.141
REMARK INTRA:                  -0.023
REMARK UNBOUND:                -0.050
REMARK SMILES CC1(C)[C@H]2CC=C(CO)[C@@H]1C2
REMARK SMILES IDX 8 1 7 2 1 3 2 4 4 5 3 6 10 7 5 8 11 9 6 10 9 11
REMARK H PARENT 9 12
REMARK Flexibility Score: inf
ROOT
ATOM      1  C   UNL     1      28.013  29.286  -1.532  1.00  0.00     0.187 C 
ENDROOT
BRANCH   1   2
ATOM      2  C   UNL     1      26.835  30.191  -1.747  1.00  0.00    -0.045 C 
ATOM      3  C   UNL     1      24.661  32.231   0.769  1.00  0.00     0.012 C 
ATOM      4  C   UNL     1      25.476  31.913  -0.511  1.00  0.00    -0.026 C 
ATOM      5  C   UNL     1      24.565  31.746  -1.758  1.00  0.00    -0.000 C 
ATOM      6  C   UNL     1      26.669  32.906  -0.588  1.00  0.00     0.012 C 
ATOM      7  C   UNL     1      25.767  30.397  -0.663  1.00  0.00     0.023 C 
ATOM      8  C   UNL     1      25.424  31.782  -3.070  1.00  0.00     0.031 C 
ATOM      9  C   UNL     1      24.419  30.254  -1.396  1.00  0.00     0.013 C 
ATOM     10  C   UNL     1      26.645  30.852  -2.928  1.00  0.00    -0.025 C 
ENDBRANCH   1   2
BRANCH   1  11
ATOM     11  O   UNL     1      28.725  29.154  -2.731  1.00  0.00    -0.392 OA
ATOM     12  H   UNL     1      29.012  30.070  -2.982  1.00  0.00     0.211 HD
ENDBRANCH   1  11
TORSDOF 2
ENDMDL
MODEL 9
REMARK VINA RESULT:    -3.685      2.417      5.097
REMARK INTER + INTRA:          -4.058
REMARK INTER:                  -4.034
REMARK INTRA:                  -0.023
REMARK UNBOUND:                -0.050
REMARK SMILES CC1(C)[C@H]2CC=C(CO)[C@@H]1C2
REMARK SMILES IDX 8 1 7 2 1 3 2 4 4 5 3 6 10 7 5 8 11 9 6 10 9 11
REMARK H PARENT 9 12
REMARK Flexibility Score: inf
ROOT
ATOM      1  C   UNL     1      25.761  33.200  -1.198  1.00  0.00     0.187 C 
ENDROOT
BRANCH   1   2
ATOM      2  C   UNL     1      25.881  31.759  -1.603  1.00  0.00    -0.045 C 
ATOM      3  C   UNL     1      24.396  29.804  -4.635  1.00  0.00     0.012 C 
ATOM      4  C   UNL     1      25.437  30.271  -3.585  1.00  0.00    -0.026 C 
ATOM      5  C   UNL     1      25.735  29.172  -2.528  1.00  0.00    -0.000 C 
ATOM      6  C   UNL     1      26.630  30.923  -4.339  1.00  0.00     0.012 C 
ATOM      7  C   UNL     1      24.784  31.055  -2.417  1.00  0.00     0.023 C 
ATOM      8  C   UNL     1      27.025  29.535  -1.713  1.00  0.00     0.031 C 
ATOM      9  C   UNL     1      24.552  29.712  -1.698  1.00  0.00     0.013 C 
ATOM     10  C   UNL     1      26.958  31.001  -1.243  1.00  0.00    -0.025 C 
ENDBRANCH   1   2
BRANCH   1  11
ATOM     11  O   UNL     1      26.988  33.646  -0.692  1.00  0.00    -0.392 OA
ATOM     12  H   UNL     1      26.809  33.939   0.239  1.00  0.00     0.211 HD
ENDBRANCH   1  11
TORSDOF 2
ENDMDL
