MODEL 1
REMARK VINA RESULT:    -6.467      0.000      0.000
REMARK INTER + INTRA:          -8.103
REMARK INTER:                  -7.790
REMARK INTRA:                  -0.314
REMARK UNBOUND:                -0.314
REMARK SMILES O=c1c(O)c(-c2ccc(O)c(O)c2)oc2cc(O)cc(O)c12
REMARK SMILES IDX 5 1 3 2 2 3 1 4 22 5 20 6 19 7 17 8 16 9 15 10 14 11 6 12
REMARK SMILES IDX 7 13 8 14 9 15 13 16 11 17 10 18 12 20 4 22 21 24 18 26
REMARK H PARENT 10 19 12 21 4 23 21 25 18 27
REMARK Flexibility Score: inf
ROOT
ATOM      1  C   UNL     1      -1.866   6.209  13.769  1.00  0.00     0.180 A 
ATOM      2  C   UNL     1      -0.608   6.460  14.352  1.00  0.00     0.208 A 
ATOM      3  C   UNL     1       0.237   7.409  13.756  1.00  0.00     0.238 A 
ATOM      4  O   UNL     1       1.371   7.634  14.262  1.00  0.00    -0.285 OA
ATOM      5  C   UNL     1      -0.193   8.103  12.606  1.00  0.00     0.111 A 
ATOM      6  C   UNL     1       0.597   9.076  11.948  1.00  0.00     0.134 A 
ATOM      7  C   UNL     1       0.093   9.730  10.813  1.00  0.00     0.093 A 
ATOM      8  C   UNL     1      -1.185   9.428  10.326  1.00  0.00     0.123 A 
ATOM      9  C   UNL     1      -1.966   8.469  10.971  1.00  0.00     0.094 A 
ATOM     10  C   UNL     1      -1.481   7.805  12.103  1.00  0.00     0.146 A 
ATOM     11  O   UNL     1      -2.244   6.893  12.693  1.00  0.00    -0.452 OA
ENDROOT
BRANCH   1  12
ATOM     12  C   UNL     1      -2.806   5.210  14.327  1.00  0.00     0.025 A 
ATOM     13  C   UNL     1      -2.885   3.907  13.804  1.00  0.00     0.016 A 
ATOM     14  C   UNL     1      -3.796   2.989  14.330  1.00  0.00     0.051 A 
ATOM     15  C   UNL     1      -4.650   3.362  15.377  1.00  0.00     0.157 A 
ATOM     16  C   UNL     1      -3.679   5.585  15.362  1.00  0.00     0.062 A 
ATOM     17  C   UNL     1      -4.594   4.664  15.891  1.00  0.00     0.158 A 
BRANCH  15  18
ATOM     18  O   UNL     1      -5.561   2.448  15.906  1.00  0.00    -0.504 OA
ATOM     19  H   UNL     1      -5.820   2.467  16.886  1.00  0.00     0.293 HD
ENDBRANCH  15  18
BRANCH  17  20
ATOM     20  O   UNL     1      -5.450   5.035  16.926  1.00  0.00    -0.504 OA
ATOM     21  H   UNL     1      -5.809   4.356  17.587  1.00  0.00     0.293 HD
ENDBRANCH  17  20
ENDBRANCH   1  12
BRANCH   2  22
ATOM     22  O   UNL     1      -0.225   5.795  15.519  1.00  0.00    -0.502 OA
ATOM     23  H   UNL     1       0.737   5.762  15.834  1.00  0.00     0.293 HD
ENDBRANCH   2  22
BRANCH   6  24
ATOM     24  O   UNL     1       1.873   9.398  12.410  1.00  0.00    -0.507 OA
ATOM     25  H   UNL     1       2.353  10.239  12.111  1.00  0.00     0.293 HD
ENDBRANCH   6  24
BRANCH   8  26
ATOM     26  O   UNL     1      -1.686  10.079   9.200  1.00  0.00    -0.508 OA
ATOM     27  H   UNL     1      -1.091  10.306   8.412  1.00  0.00     0.293 HD
ENDBRANCH   8  26
TORSDOF 6
ENDMDL
MODEL 2
REMARK VINA RESULT:    -6.425      1.696      7.013
REMARK INTER + INTRA:          -8.053
REMARK INTER:                  -7.731
REMARK INTRA:                  -0.322
REMARK UNBOUND:                -0.314
REMARK SMILES O=c1c(O)c(-c2ccc(O)c(O)c2)oc2cc(O)cc(O)c12
REMARK SMILES IDX 5 1 3 2 2 3 1 4 22 5 20 6 19 7 17 8 16 9 15 10 14 11 6 12
REMARK SMILES IDX 7 13 8 14 9 15 13 16 11 17 10 18 12 20 4 22 21 24 18 26
REMARK H PARENT 10 19 12 21 4 23 21 25 18 27
REMARK Flexibility Score: inf
ROOT
ATOM      1  C   UNL     1      -1.626   6.242  13.266  1.00  0.00     0.180 A 
ATOM      2  C   UNL     1      -2.464   6.668  14.314  1.00  0.00     0.208 A 
ATOM      3  C   UNL     1      -3.118   5.701  15.094  1.00  0.00     0.238 A 
ATOM      4  O   UNL     1      -3.880   6.071  16.029  1.00  0.00    -0.285 OA
ATOM      5  C   UNL     1      -2.908   4.332  14.829  1.00  0.00     0.111 A 
ATOM      6  C   UNL     1      -3.526   3.296  15.571  1.00  0.00     0.134 A 
ATOM      7  C   UNL     1      -3.258   1.956  15.250  1.00  0.00     0.093 A 
ATOM      8  C   UNL     1      -2.386   1.635  14.204  1.00  0.00     0.123 A 
ATOM      9  C   UNL     1      -1.776   2.653  13.470  1.00  0.00     0.094 A 
ATOM     10  C   UNL     1      -2.030   3.995  13.772  1.00  0.00     0.146 A 
ATOM     11  O   UNL     1      -1.440   4.942  13.054  1.00  0.00    -0.452 OA
ENDROOT
BRANCH   1  12
ATOM     12  C   UNL     1      -0.917   7.200  12.386  1.00  0.00     0.025 A 
ATOM     13  C   UNL     1       0.385   7.642  12.683  1.00  0.00     0.016 A 
ATOM     14  C   UNL     1       1.025   8.563  11.852  1.00  0.00     0.051 A 
ATOM     15  C   UNL     1       0.370   9.067  10.720  1.00  0.00     0.157 A 
ATOM     16  C   UNL     1      -1.576   7.724  11.262  1.00  0.00     0.062 A 
ATOM     17  C   UNL     1      -0.934   8.649  10.426  1.00  0.00     0.158 A 
BRANCH  15  18
ATOM     18  O   UNL     1       1.006   9.987   9.887  1.00  0.00    -0.504 OA
ATOM     19  H   UNL     1       1.127  10.955  10.162  1.00  0.00     0.293 HD
ENDBRANCH  15  18
BRANCH  17  20
ATOM     20  O   UNL     1      -1.586   9.158   9.305  1.00  0.00    -0.504 OA
ATOM     21  H   UNL     1      -2.589   9.077   9.193  1.00  0.00     0.293 HD
ENDBRANCH  17  20
ENDBRANCH   1  12
BRANCH   2  22
ATOM     22  O   UNL     1      -2.617   8.029  14.588  1.00  0.00    -0.502 OA
ATOM     23  H   UNL     1      -1.999   8.529  15.216  1.00  0.00     0.293 HD
ENDBRANCH   2  22
BRANCH   6  24
ATOM     24  O   UNL     1      -4.399   3.586  16.619  1.00  0.00    -0.507 OA
ATOM     25  H   UNL     1      -4.099   4.105  17.436  1.00  0.00     0.293 HD
ENDBRANCH   6  24
BRANCH   8  26
ATOM     26  O   UNL     1      -2.119   0.305  13.886  1.00  0.00    -0.508 OA
ATOM     27  H   UNL     1      -1.613  -0.300  14.522  1.00  0.00     0.293 HD
ENDBRANCH   8  26
TORSDOF 6
ENDMDL
MODEL 3
REMARK VINA RESULT:    -6.419      3.731      3.876
REMARK INTER + INTRA:          -8.046
REMARK INTER:                  -7.892
REMARK INTRA:                  -0.154
REMARK UNBOUND:                -0.314
REMARK SMILES O=c1c(O)c(-c2ccc(O)c(O)c2)oc2cc(O)cc(O)c12
REMARK SMILES IDX 5 1 3 2 2 3 1 4 22 5 20 6 19 7 17 8 16 9 15 10 14 11 6 12
REMARK SMILES IDX 7 13 8 14 9 15 13 16 11 17 10 18 12 20 4 22 21 24 18 26
REMARK H PARENT 10 19 12 21 4 23 21 25 18 27
REMARK Flexibility Score: inf
ROOT
ATOM      1  C   UNL     1      -2.485   3.686  12.452  1.00  0.00     0.180 A 
ATOM      2  C   UNL     1      -1.203   3.146  12.237  1.00  0.00     0.208 A 
ATOM      3  C   UNL     1      -0.577   3.359  10.998  1.00  0.00     0.238 A 
ATOM      4  O   UNL     1       0.567   2.870  10.790  1.00  0.00    -0.285 OA
ATOM      5  C   UNL     1      -1.230   4.122  10.009  1.00  0.00     0.111 A 
ATOM      6  C   UNL     1      -0.666   4.385   8.737  1.00  0.00     0.134 A 
ATOM      7  C   UNL     1      -1.377   5.162   7.809  1.00  0.00     0.093 A 
ATOM      8  C   UNL     1      -2.638   5.679   8.129  1.00  0.00     0.123 A 
ATOM      9  C   UNL     1      -3.197   5.420   9.381  1.00  0.00     0.094 A 
ATOM     10  C   UNL     1      -2.506   4.647  10.320  1.00  0.00     0.146 A 
ATOM     11  O   UNL     1      -3.065   4.413  11.501  1.00  0.00    -0.452 OA
ENDROOT
BRANCH   1  12
ATOM     12  C   UNL     1      -3.219   3.490  13.723  1.00  0.00     0.025 A 
ATOM     13  C   UNL     1      -3.571   2.205  14.175  1.00  0.00     0.016 A 
ATOM     14  C   UNL     1      -4.284   2.045  15.365  1.00  0.00     0.051 A 
ATOM     15  C   UNL     1      -4.667   3.165  16.115  1.00  0.00     0.157 A 
ATOM     16  C   UNL     1      -3.623   4.610  14.469  1.00  0.00     0.062 A 
ATOM     17  C   UNL     1      -4.338   4.450  15.664  1.00  0.00     0.158 A 
BRANCH  15  18
ATOM     18  O   UNL     1      -5.377   3.010  17.305  1.00  0.00    -0.504 OA
ATOM     19  H   UNL     1      -5.792   3.803  17.780  1.00  0.00     0.293 HD
ENDBRANCH  15  18
BRANCH  17  20
ATOM     20  O   UNL     1      -4.727   5.563  16.408  1.00  0.00    -0.504 OA
ATOM     21  H   UNL     1      -5.592   6.053  16.215  1.00  0.00     0.293 HD
ENDBRANCH  17  20
ENDBRANCH   1  12
BRANCH   2  22
ATOM     22  O   UNL     1      -0.557   2.435  13.251  1.00  0.00    -0.502 OA
ATOM     23  H   UNL     1      -1.060   1.861  13.917  1.00  0.00     0.293 HD
ENDBRANCH   2  22
BRANCH   6  24
ATOM     24  O   UNL     1       0.588   3.884   8.389  1.00  0.00    -0.507 OA
ATOM     25  H   UNL     1       0.822   2.905   8.503  1.00  0.00     0.293 HD
ENDBRANCH   6  24
BRANCH   8  26
ATOM     26  O   UNL     1      -3.343   6.451   7.208  1.00  0.00    -0.508 OA
ATOM     27  H   UNL     1      -4.356   6.470   7.198  1.00  0.00     0.293 HD
ENDBRANCH   8  26
TORSDOF 6
ENDMDL
MODEL 4
REMARK VINA RESULT:    -6.406      1.722      7.051
REMARK INTER + INTRA:          -8.030
REMARK INTER:                  -7.699
REMARK INTRA:                  -0.331
REMARK UNBOUND:                -0.314
REMARK SMILES O=c1c(O)c(-c2ccc(O)c(O)c2)oc2cc(O)cc(O)c12
REMARK SMILES IDX 5 1 3 2 2 3 1 4 22 5 20 6 19 7 17 8 16 9 15 10 14 11 6 12
REMARK SMILES IDX 7 13 8 14 9 15 13 16 11 17 10 18 12 20 4 22 21 24 18 26
REMARK H PARENT 10 19 12 21 4 23 21 25 18 27
REMARK Flexibility Score: inf
ROOT
ATOM      1  C   UNL     1      -1.462   6.316  14.182  1.00  0.00     0.180 A 
ATOM      2  C   UNL     1      -2.482   6.801  15.023  1.00  0.00     0.208 A 
ATOM      3  C   UNL     1      -3.449   5.904  15.503  1.00  0.00     0.238 A 
ATOM      4  O   UNL     1      -4.374   6.330  16.248  1.00  0.00    -0.285 OA
ATOM      5  C   UNL     1      -3.370   4.541  15.154  1.00  0.00     0.111 A 
ATOM      6  C   UNL     1      -4.302   3.572  15.598  1.00  0.00     0.134 A 
ATOM      7  C   UNL     1      -4.149   2.231  15.213  1.00  0.00     0.093 A 
ATOM      8  C   UNL     1      -3.083   1.843  14.394  1.00  0.00     0.123 A 
ATOM      9  C   UNL     1      -2.163   2.794  13.953  1.00  0.00     0.094 A 
ATOM     10  C   UNL     1      -2.298   4.136  14.324  1.00  0.00     0.146 A 
ATOM     11  O   UNL     1      -1.410   5.020  13.886  1.00  0.00    -0.452 OA
ENDROOT
BRANCH   1  12
ATOM     12  C   UNL     1      -0.416   7.202  13.620  1.00  0.00     0.025 A 
ATOM     13  C   UNL     1      -0.628   7.921  12.430  1.00  0.00     0.016 A 
ATOM     14  C   UNL     1       0.381   8.732  11.907  1.00  0.00     0.051 A 
ATOM     15  C   UNL     1       1.620   8.826  12.555  1.00  0.00     0.157 A 
ATOM     16  C   UNL     1       0.834   7.284  14.255  1.00  0.00     0.062 A 
ATOM     17  C   UNL     1       1.848   8.099  13.730  1.00  0.00     0.158 A 
BRANCH  15  18
ATOM     18  O   UNL     1       2.629   9.636  12.037  1.00  0.00    -0.504 OA
ATOM     19  H   UNL     1       2.460  10.255  11.252  1.00  0.00     0.293 HD
ENDBRANCH  15  18
BRANCH  17  20
ATOM     20  O   UNL     1       3.083   8.188  14.369  1.00  0.00    -0.504 OA
ATOM     21  H   UNL     1       3.803   8.823  14.045  1.00  0.00     0.293 HD
ENDBRANCH  17  20
ENDBRANCH   1  12
BRANCH   2  22
ATOM     22  O   UNL     1      -2.509   8.148  15.395  1.00  0.00    -0.502 OA
ATOM     23  H   UNL     1      -2.067   8.873  14.842  1.00  0.00     0.293 HD
ENDBRANCH   2  22
BRANCH   6  24
ATOM     24  O   UNL     1      -5.375   3.929  16.416  1.00  0.00    -0.507 OA
ATOM     25  H   UNL     1      -6.007   4.682  16.168  1.00  0.00     0.293 HD
ENDBRANCH   6  24
BRANCH   8  26
ATOM     26  O   UNL     1      -2.930   0.511  14.012  1.00  0.00    -0.508 OA
ATOM     27  H   UNL     1      -2.435   0.256  13.166  1.00  0.00     0.293 HD
ENDBRANCH   8  26
TORSDOF 6
ENDMDL
MODEL 5
REMARK VINA RESULT:    -6.345      3.564      4.523
REMARK INTER + INTRA:          -7.956
REMARK INTER:                  -7.714
REMARK INTRA:                  -0.243
REMARK UNBOUND:                -0.314
REMARK SMILES O=c1c(O)c(-c2ccc(O)c(O)c2)oc2cc(O)cc(O)c12
REMARK SMILES IDX 5 1 3 2 2 3 1 4 22 5 20 6 19 7 17 8 16 9 15 10 14 11 6 12
REMARK SMILES IDX 7 13 8 14 9 15 13 16 11 17 10 18 12 20 4 22 21 24 18 26
REMARK H PARENT 10 19 12 21 4 23 21 25 18 27
REMARK Flexibility Score: inf
ROOT
ATOM      1  C   UNL     1      -2.107   3.873  11.844  1.00  0.00     0.180 A 
ATOM      2  C   UNL     1      -2.769   3.444  10.677  1.00  0.00     0.208 A 
ATOM      3  C   UNL     1      -2.192   3.727   9.429  1.00  0.00     0.238 A 
ATOM      4  O   UNL     1      -2.781   3.358   8.376  1.00  0.00    -0.285 OA
ATOM      5  C   UNL     1      -0.961   4.411   9.368  1.00  0.00     0.111 A 
ATOM      6  C   UNL     1      -0.312   4.731   8.151  1.00  0.00     0.134 A 
ATOM      7  C   UNL     1       0.918   5.407   8.175  1.00  0.00     0.093 A 
ATOM      8  C   UNL     1       1.509   5.767   9.391  1.00  0.00     0.123 A 
ATOM      9  C   UNL     1       0.873   5.454  10.592  1.00  0.00     0.094 A 
ATOM     10  C   UNL     1      -0.354   4.783  10.591  1.00  0.00     0.146 A 
ATOM     11  O   UNL     1      -0.940   4.502  11.749  1.00  0.00    -0.452 OA
ENDROOT
BRANCH   1  12
ATOM     12  C   UNL     1      -2.660   3.630  13.196  1.00  0.00     0.025 A 
ATOM     13  C   UNL     1      -2.667   2.343  13.765  1.00  0.00     0.016 A 
ATOM     14  C   UNL     1      -3.215   2.134  15.032  1.00  0.00     0.051 A 
ATOM     15  C   UNL     1      -3.775   3.202  15.744  1.00  0.00     0.157 A 
ATOM     16  C   UNL     1      -3.242   4.693  13.907  1.00  0.00     0.062 A 
ATOM     17  C   UNL     1      -3.791   4.484  15.179  1.00  0.00     0.158 A 
BRANCH  15  18
ATOM     18  O   UNL     1      -4.322   2.998  17.010  1.00  0.00    -0.504 OA
ATOM     19  H   UNL     1      -3.854   2.425  17.703  1.00  0.00     0.293 HD
ENDBRANCH  15  18
BRANCH  17  20
ATOM     20  O   UNL     1      -4.357   5.543  15.887  1.00  0.00    -0.504 OA
ATOM     21  H   UNL     1      -3.912   6.452  15.925  1.00  0.00     0.293 HD
ENDBRANCH  17  20
ENDBRANCH   1  12
BRANCH   2  22
ATOM     22  O   UNL     1      -3.963   2.725  10.766  1.00  0.00    -0.502 OA
ATOM     23  H   UNL     1      -4.292   2.124  10.019  1.00  0.00     0.293 HD
ENDBRANCH   2  22
BRANCH   6  24
ATOM     24  O   UNL     1      -0.877   4.385   6.923  1.00  0.00    -0.507 OA
ATOM     25  H   UNL     1      -0.309   4.242   6.096  1.00  0.00     0.293 HD
ENDBRANCH   6  24
BRANCH   8  26
ATOM     26  O   UNL     1       2.731   6.437   9.415  1.00  0.00    -0.508 OA
ATOM     27  H   UNL     1       2.940   7.130  10.123  1.00  0.00     0.293 HD
ENDBRANCH   8  26
TORSDOF 6
ENDMDL
MODEL 6
REMARK VINA RESULT:    -6.139      2.006      7.185
REMARK INTER + INTRA:          -7.709
REMARK INTER:                  -7.385
REMARK INTRA:                  -0.324
REMARK UNBOUND:                -0.314
REMARK SMILES O=c1c(O)c(-c2ccc(O)c(O)c2)oc2cc(O)cc(O)c12
REMARK SMILES IDX 5 1 3 2 2 3 1 4 22 5 20 6 19 7 17 8 16 9 15 10 14 11 6 12
REMARK SMILES IDX 7 13 8 14 9 15 13 16 11 17 10 18 12 20 4 22 21 24 18 26
REMARK H PARENT 10 19 12 21 4 23 21 25 18 27
REMARK Flexibility Score: inf
ROOT
ATOM      1  C   UNL     1      -1.522   7.246  12.073  1.00  0.00     0.180 A 
ATOM      2  C   UNL     1      -1.815   6.499  10.916  1.00  0.00     0.208 A 
ATOM      3  C   UNL     1      -2.479   5.270  11.053  1.00  0.00     0.238 A 
ATOM      4  O   UNL     1      -2.737   4.586  10.025  1.00  0.00    -0.285 OA
ATOM      5  C   UNL     1      -2.856   4.820  12.335  1.00  0.00     0.111 A 
ATOM      6  C   UNL     1      -3.531   3.595  12.558  1.00  0.00     0.134 A 
ATOM      7  C   UNL     1      -3.881   3.222  13.865  1.00  0.00     0.093 A 
ATOM      8  C   UNL     1      -3.568   4.050  14.950  1.00  0.00     0.123 A 
ATOM      9  C   UNL     1      -2.902   5.256  14.734  1.00  0.00     0.094 A 
ATOM     10  C   UNL     1      -2.543   5.646  13.440  1.00  0.00     0.146 A 
ATOM     11  O   UNL     1      -1.906   6.797  13.265  1.00  0.00    -0.452 OA
ENDROOT
BRANCH   1  12
ATOM     12  C   UNL     1      -0.807   8.542  12.013  1.00  0.00     0.025 A 
ATOM     13  C   UNL     1      -1.499   9.751  11.820  1.00  0.00     0.016 A 
ATOM     14  C   UNL     1      -0.802  10.959  11.744  1.00  0.00     0.051 A 
ATOM     15  C   UNL     1       0.596  10.975  11.845  1.00  0.00     0.157 A 
ATOM     16  C   UNL     1       0.595   8.562  12.093  1.00  0.00     0.062 A 
ATOM     17  C   UNL     1       1.296   9.774  12.017  1.00  0.00     0.158 A 
BRANCH  15  18
ATOM     18  O   UNL     1       1.296  12.179  11.770  1.00  0.00    -0.504 OA
ATOM     19  H   UNL     1       1.355  12.703  10.905  1.00  0.00     0.293 HD
ENDBRANCH  15  18
BRANCH  17  20
ATOM     20  O   UNL     1       2.686   9.792  12.109  1.00  0.00    -0.504 OA
ATOM     21  H   UNL     1       3.271   9.380  11.392  1.00  0.00     0.293 HD
ENDBRANCH  17  20
ENDBRANCH   1  12
BRANCH   2  22
ATOM     22  O   UNL     1      -1.474   6.990   9.653  1.00  0.00    -0.502 OA
ATOM     23  H   UNL     1      -0.984   6.428   8.966  1.00  0.00     0.293 HD
ENDBRANCH   2  22
BRANCH   6  24
ATOM     24  O   UNL     1      -3.856   2.750  11.497  1.00  0.00    -0.507 OA
ATOM     25  H   UNL     1      -4.753   2.282  11.444  1.00  0.00     0.293 HD
ENDBRANCH   6  24
BRANCH   8  26
ATOM     26  O   UNL     1      -3.916   3.680  16.248  1.00  0.00    -0.508 OA
ATOM     27  H   UNL     1      -4.033   4.369  16.981  1.00  0.00     0.293 HD
ENDBRANCH   8  26
TORSDOF 6
ENDMDL
MODEL 7
REMARK VINA RESULT:    -6.124      3.228      4.279
REMARK INTER + INTRA:          -7.691
REMARK INTER:                  -7.387
REMARK INTRA:                  -0.304
REMARK UNBOUND:                -0.314
REMARK SMILES O=c1c(O)c(-c2ccc(O)c(O)c2)oc2cc(O)cc(O)c12
REMARK SMILES IDX 5 1 3 2 2 3 1 4 22 5 20 6 19 7 17 8 16 9 15 10 14 11 6 12
REMARK SMILES IDX 7 13 8 14 9 15 13 16 11 17 10 18 12 20 4 22 21 24 18 26
REMARK H PARENT 10 19 12 21 4 23 21 25 18 27
REMARK Flexibility Score: inf
ROOT
ATOM      1  C   UNL     1      -2.618   4.431  12.571  1.00  0.00     0.180 A 
ATOM      2  C   UNL     1      -2.584   5.811  12.295  1.00  0.00     0.208 A 
ATOM      3  C   UNL     1      -2.303   6.234  10.986  1.00  0.00     0.238 A 
ATOM      4  O   UNL     1      -2.259   7.468  10.729  1.00  0.00    -0.285 OA
ATOM      5  C   UNL     1      -2.082   5.275   9.976  1.00  0.00     0.111 A 
ATOM      6  C   UNL     1      -1.797   5.618   8.632  1.00  0.00     0.134 A 
ATOM      7  C   UNL     1      -1.599   4.604   7.683  1.00  0.00     0.093 A 
ATOM      8  C   UNL     1      -1.680   3.256   8.052  1.00  0.00     0.123 A 
ATOM      9  C   UNL     1      -1.960   2.914   9.375  1.00  0.00     0.094 A 
ATOM     10  C   UNL     1      -2.159   3.909  10.338  1.00  0.00     0.146 A 
ATOM     11  O   UNL     1      -2.419   3.555  11.590  1.00  0.00    -0.452 OA
ENDROOT
BRANCH   1  12
ATOM     12  C   UNL     1      -2.888   3.906  13.930  1.00  0.00     0.025 A 
ATOM     13  C   UNL     1      -1.890   3.892  14.921  1.00  0.00     0.016 A 
ATOM     14  C   UNL     1      -2.161   3.371  16.188  1.00  0.00     0.051 A 
ATOM     15  C   UNL     1      -3.427   2.844  16.479  1.00  0.00     0.157 A 
ATOM     16  C   UNL     1      -4.148   3.359  14.221  1.00  0.00     0.062 A 
ATOM     17  C   UNL     1      -4.421   2.836  15.493  1.00  0.00     0.158 A 
BRANCH  15  18
ATOM     18  O   UNL     1      -3.702   2.324  17.743  1.00  0.00    -0.504 OA
ATOM     19  H   UNL     1      -4.642   2.331  18.125  1.00  0.00     0.293 HD
ENDBRANCH  15  18
BRANCH  17  20
ATOM     20  O   UNL     1      -5.677   2.305  15.783  1.00  0.00    -0.504 OA
ATOM     21  H   UNL     1      -5.793   1.554  16.453  1.00  0.00     0.293 HD
ENDBRANCH  17  20
ENDBRANCH   1  12
BRANCH   2  22
ATOM     22  O   UNL     1      -2.855   6.740  13.303  1.00  0.00    -0.502 OA
ATOM     23  H   UNL     1      -2.836   7.740  13.139  1.00  0.00     0.293 HD
ENDBRANCH   2  22
BRANCH   6  24
ATOM     24  O   UNL     1      -1.710   6.952   8.234  1.00  0.00    -0.507 OA
ATOM     25  H   UNL     1      -2.509   7.574   8.274  1.00  0.00     0.293 HD
ENDBRANCH   6  24
BRANCH   8  26
ATOM     26  O   UNL     1      -1.484   2.249   7.109  1.00  0.00    -0.508 OA
ATOM     27  H   UNL     1      -1.146   1.332   7.377  1.00  0.00     0.293 HD
ENDBRANCH   8  26
TORSDOF 6
ENDMDL
MODEL 8
REMARK VINA RESULT:    -6.047      1.975      6.961
REMARK INTER + INTRA:          -7.598
REMARK INTER:                  -7.754
REMARK INTRA:                   0.156
REMARK UNBOUND:                -0.314
REMARK SMILES O=c1c(O)c(-c2ccc(O)c(O)c2)oc2cc(O)cc(O)c12
REMARK SMILES IDX 5 1 3 2 2 3 1 4 22 5 20 6 19 7 17 8 16 9 15 10 14 11 6 12
REMARK SMILES IDX 7 13 8 14 9 15 13 16 11 17 10 18 12 20 4 22 21 24 18 26
REMARK H PARENT 10 19 12 21 4 23 21 25 18 27
REMARK Flexibility Score: inf
ROOT
ATOM      1  C   UNL     1      -2.064   6.263  12.706  1.00  0.00     0.180 A 
ATOM      2  C   UNL     1      -1.421   5.187  12.064  1.00  0.00     0.208 A 
ATOM      3  C   UNL     1      -1.630   3.886  12.548  1.00  0.00     0.238 A 
ATOM      4  O   UNL     1      -1.050   2.916  11.988  1.00  0.00    -0.285 OA
ATOM      5  C   UNL     1      -2.490   3.680  13.647  1.00  0.00     0.111 A 
ATOM      6  C   UNL     1      -2.756   2.401  14.193  1.00  0.00     0.134 A 
ATOM      7  C   UNL     1      -3.631   2.278  15.282  1.00  0.00     0.093 A 
ATOM      8  C   UNL     1      -4.244   3.409  15.834  1.00  0.00     0.123 A 
ATOM      9  C   UNL     1      -3.984   4.671  15.300  1.00  0.00     0.094 A 
ATOM     10  C   UNL     1      -3.113   4.816  14.215  1.00  0.00     0.146 A 
ATOM     11  O   UNL     1      -2.880   6.029  13.730  1.00  0.00    -0.452 OA
ENDROOT
BRANCH   1  12
ATOM     12  C   UNL     1      -1.880   7.665  12.267  1.00  0.00     0.025 A 
ATOM     13  C   UNL     1      -1.758   8.713  13.197  1.00  0.00     0.016 A 
ATOM     14  C   UNL     1      -1.609  10.031  12.760  1.00  0.00     0.051 A 
ATOM     15  C   UNL     1      -1.592  10.323  11.389  1.00  0.00     0.157 A 
ATOM     16  C   UNL     1      -1.884   7.966  10.895  1.00  0.00     0.062 A 
ATOM     17  C   UNL     1      -1.733   9.289  10.456  1.00  0.00     0.158 A 
BRANCH  15  18
ATOM     18  O   UNL     1      -1.442  11.637  10.949  1.00  0.00    -0.504 OA
ATOM     19  H   UNL     1      -0.975  11.852  10.075  1.00  0.00     0.293 HD
ENDBRANCH  15  18
BRANCH  17  20
ATOM     20  O   UNL     1      -1.724   9.583   9.093  1.00  0.00    -0.504 OA
ATOM     21  H   UNL     1      -2.560   9.895   8.613  1.00  0.00     0.293 HD
ENDBRANCH  17  20
ENDBRANCH   1  12
BRANCH   2  22
ATOM     22  O   UNL     1      -0.614   5.412  10.947  1.00  0.00    -0.502 OA
ATOM     23  H   UNL     1      -0.864   6.073  10.220  1.00  0.00     0.293 HD
ENDBRANCH   2  22
BRANCH   6  24
ATOM     24  O   UNL     1      -2.160   1.256  13.663  1.00  0.00    -0.507 OA
ATOM     25  H   UNL     1      -2.695   0.563  13.153  1.00  0.00     0.293 HD
ENDBRANCH   6  24
BRANCH   8  26
ATOM     26  O   UNL     1      -5.115   3.287  16.916  1.00  0.00    -0.508 OA
ATOM     27  H   UNL     1      -5.441   4.099  17.427  1.00  0.00     0.293 HD
ENDBRANCH   8  26
TORSDOF 6
ENDMDL
MODEL 9
REMARK VINA RESULT:    -5.980      3.706      4.531
REMARK INTER + INTRA:          -7.518
REMARK INTER:                  -7.424
REMARK INTRA:                  -0.094
REMARK UNBOUND:                -0.314
REMARK SMILES O=c1c(O)c(-c2ccc(O)c(O)c2)oc2cc(O)cc(O)c12
REMARK SMILES IDX 5 1 3 2 2 3 1 4 22 5 20 6 19 7 17 8 16 9 15 10 14 11 6 12
REMARK SMILES IDX 7 13 8 14 9 15 13 16 11 17 10 18 12 20 4 22 21 24 18 26
REMARK H PARENT 10 19 12 21 4 23 21 25 18 27
REMARK Flexibility Score: inf
ROOT
ATOM      1  C   UNL     1      -2.109   3.782  14.181  1.00  0.00     0.180 A 
ATOM      2  C   UNL     1      -2.019   3.479  12.809  1.00  0.00     0.208 A 
ATOM      3  C   UNL     1      -0.777   3.603  12.167  1.00  0.00     0.238 A 
ATOM      4  O   UNL     1      -0.687   3.345  10.936  1.00  0.00    -0.285 OA
ATOM      5  C   UNL     1       0.353   4.005  12.908  1.00  0.00     0.111 A 
ATOM      6  C   UNL     1       1.641   4.151  12.337  1.00  0.00     0.134 A 
ATOM      7  C   UNL     1       2.718   4.547  13.145  1.00  0.00     0.093 A 
ATOM      8  C   UNL     1       2.532   4.799  14.509  1.00  0.00     0.123 A 
ATOM      9  C   UNL     1       1.264   4.658  15.074  1.00  0.00     0.094 A 
ATOM     10  C   UNL     1       0.177   4.266  14.287  1.00  0.00     0.146 A 
ATOM     11  O   UNL     1      -1.019   4.144  14.851  1.00  0.00    -0.452 OA
ENDROOT
BRANCH   1  12
ATOM     12  C   UNL     1      -3.387   3.694  14.925  1.00  0.00     0.025 A 
ATOM     13  C   UNL     1      -4.113   2.491  14.993  1.00  0.00     0.016 A 
ATOM     14  C   UNL     1      -5.328   2.438  15.681  1.00  0.00     0.051 A 
ATOM     15  C   UNL     1      -5.841   3.587  16.297  1.00  0.00     0.157 A 
ATOM     16  C   UNL     1      -3.917   4.847  15.527  1.00  0.00     0.062 A 
ATOM     17  C   UNL     1      -5.136   4.794  16.218  1.00  0.00     0.158 A 
BRANCH  15  18
ATOM     18  O   UNL     1      -7.053   3.538  16.985  1.00  0.00    -0.504 OA
ATOM     19  H   UNL     1      -7.928   3.361  16.504  1.00  0.00     0.293 HD
ENDBRANCH  15  18
BRANCH  17  20
ATOM     20  O   UNL     1      -5.653   5.937  16.825  1.00  0.00    -0.504 OA
ATOM     21  H   UNL     1      -5.855   6.775  16.293  1.00  0.00     0.293 HD
ENDBRANCH  17  20
ENDBRANCH   1  12
BRANCH   2  22
ATOM     22  O   UNL     1      -3.144   3.035  12.108  1.00  0.00    -0.502 OA
ATOM     23  H   UNL     1      -3.547   3.559  11.340  1.00  0.00     0.293 HD
ENDBRANCH   2  22
BRANCH   6  24
ATOM     24  O   UNL     1       1.858   3.906  10.981  1.00  0.00    -0.507 OA
ATOM     25  H   UNL     1       1.920   4.660  10.306  1.00  0.00     0.293 HD
ENDBRANCH   6  24
BRANCH   8  26
ATOM     26  O   UNL     1       3.602   5.192  15.311  1.00  0.00    -0.508 OA
ATOM     27  H   UNL     1       4.086   6.068  15.156  1.00  0.00     0.293 HD
ENDBRANCH   8  26
TORSDOF 6
ENDMDL
