MODEL 1
REMARK VINA RESULT:    -4.696      0.000      0.000
REMARK INTER + INTRA:          -4.833
REMARK INTER:                  -4.833
REMARK INTRA:                   0.000
REMARK UNBOUND:                 0.000
REMARK SMILES CC1(C)[C@@H]2CC[C@@]1(C)[C@@H](O)C2
REMARK SMILES IDX 1 1 2 2 4 3 5 4 6 5 7 6 9 7 11 8 8 9 3 10 10 11
REMARK H PARENT 10 12
REMARK Flexibility Score: inf
ROOT
ATOM      1  C   UNL     1     183.269 179.120 184.495  1.00  0.00     0.012 C 
ATOM      2  C   UNL     1     181.878 179.730 184.850  1.00  0.00    -0.025 C 
ATOM      3  C   UNL     1     180.838 178.688 185.294  1.00  0.00    -0.002 C 
ATOM      4  C   UNL     1     180.651 177.809 184.034  1.00  0.00     0.005 C 
ATOM      5  C   UNL     1     180.783 178.827 182.884  1.00  0.00     0.010 C 
ATOM      6  C   UNL     1     181.014 180.166 183.642  1.00  0.00    -0.001 C 
ATOM      7  C   UNL     1     179.665 180.567 184.312  1.00  0.00     0.121 C 
ATOM      8  C   UNL     1     179.534 179.515 185.439  1.00  0.00     0.036 C 
ATOM      9  C   UNL     1     181.609 181.271 182.759  1.00  0.00     0.015 C 
ATOM     10  C   UNL     1     182.157 180.834 185.917  1.00  0.00     0.012 C 
ENDROOT
BRANCH   7  11
ATOM     11  O   UNL     1     178.586 180.500 183.413  1.00  0.00    -0.393 OA
ATOM     12  H   UNL     1     178.093 179.665 183.628  1.00  0.00     0.210 HD
ENDBRANCH   7  11
TORSDOF 1
ENDMDL
MODEL 2
REMARK VINA RESULT:    -4.546      1.171      2.458
REMARK INTER + INTRA:          -4.679
REMARK INTER:                  -4.679
REMARK INTRA:                   0.000
REMARK UNBOUND:                 0.000
REMARK SMILES CC1(C)[C@@H]2CC[C@@]1(C)[C@@H](O)C2
REMARK SMILES IDX 1 1 2 2 4 3 5 4 6 5 7 6 9 7 11 8 8 9 3 10 10 11
REMARK H PARENT 10 12
REMARK Flexibility Score: inf
ROOT
ATOM      1  C   UNL     1     182.379 179.506 186.004  1.00  0.00     0.012 C 
ATOM      2  C   UNL     1     181.667 180.219 184.813  1.00  0.00    -0.025 C 
ATOM      3  C   UNL     1     180.965 181.530 185.204  1.00  0.00    -0.002 C 
ATOM      4  C   UNL     1     179.867 181.067 186.191  1.00  0.00     0.005 C 
ATOM      5  C   UNL     1     179.435 179.707 185.609  1.00  0.00     0.010 C 
ATOM      6  C   UNL     1     180.339 179.575 184.349  1.00  0.00    -0.001 C 
ATOM      7  C   UNL     1     179.817 180.591 183.288  1.00  0.00     0.121 C 
ATOM      8  C   UNL     1     180.229 181.948 183.905  1.00  0.00     0.036 C 
ATOM      9  C   UNL     1     180.440 178.139 183.821  1.00  0.00     0.015 C 
ATOM     10  C   UNL     1     182.756 180.393 183.710  1.00  0.00     0.012 C 
ENDROOT
BRANCH   7  11
ATOM     11  O   UNL     1     178.426 180.504 183.109  1.00  0.00    -0.393 OA
ATOM     12  H   UNL     1     178.249 179.614 182.706  1.00  0.00     0.210 HD
ENDBRANCH   7  11
TORSDOF 1
ENDMDL
MODEL 3
REMARK VINA RESULT:    -4.494      1.184      2.255
REMARK INTER + INTRA:          -4.625
REMARK INTER:                  -4.625
REMARK INTRA:                   0.000
REMARK UNBOUND:                 0.000
REMARK SMILES CC1(C)[C@@H]2CC[C@@]1(C)[C@@H](O)C2
REMARK SMILES IDX 1 1 2 2 4 3 5 4 6 5 7 6 9 7 11 8 8 9 3 10 10 11
REMARK H PARENT 10 12
REMARK Flexibility Score: inf
ROOT
ATOM      1  C   UNL     1     180.896 177.111 183.888  1.00  0.00     0.012 C 
ATOM      2  C   UNL     1     181.524 178.523 184.103  1.00  0.00    -0.025 C 
ATOM      3  C   UNL     1     181.270 179.110 185.502  1.00  0.00    -0.002 C 
ATOM      4  C   UNL     1     179.731 179.274 185.546  1.00  0.00     0.005 C 
ATOM      5  C   UNL     1     179.388 179.668 184.096  1.00  0.00     0.010 C 
ATOM      6  C   UNL     1     180.784 179.693 183.411  1.00  0.00    -0.001 C 
ATOM      7  C   UNL     1     181.547 180.944 183.943  1.00  0.00     0.121 C 
ATOM      8  C   UNL     1     181.853 180.543 185.405  1.00  0.00     0.036 C 
ATOM      9  C   UNL     1     180.713 179.627 181.881  1.00  0.00     0.015 C 
ATOM     10  C   UNL     1     183.037 178.375 183.749  1.00  0.00     0.012 C 
ENDROOT
BRANCH   7  11
ATOM     11  O   UNL     1     180.765 182.110 183.879  1.00  0.00    -0.393 OA
ATOM     12  H   UNL     1     180.630 182.305 182.915  1.00  0.00     0.210 HD
ENDBRANCH   7  11
TORSDOF 1
ENDMDL
MODEL 4
REMARK VINA RESULT:    -4.484      1.003      2.697
REMARK INTER + INTRA:          -4.616
REMARK INTER:                  -4.616
REMARK INTRA:                   0.000
REMARK UNBOUND:                 0.000
REMARK SMILES CC1(C)[C@@H]2CC[C@@]1(C)[C@@H](O)C2
REMARK SMILES IDX 1 1 2 2 4 3 5 4 6 5 7 6 9 7 11 8 8 9 3 10 10 11
REMARK H PARENT 10 12
REMARK Flexibility Score: inf
ROOT
ATOM      1  C   UNL     1     182.497 179.273 185.244  1.00  0.00     0.012 C 
ATOM      2  C   UNL     1     181.322 179.188 184.221  1.00  0.00    -0.025 C 
ATOM      3  C   UNL     1     181.635 179.832 182.860  1.00  0.00    -0.002 C 
ATOM      4  C   UNL     1     181.838 181.326 183.210  1.00  0.00     0.005 C 
ATOM      5  C   UNL     1     180.814 181.555 184.339  1.00  0.00     0.010 C 
ATOM      6  C   UNL     1     180.144 180.158 184.478  1.00  0.00    -0.001 C 
ATOM      7  C   UNL     1     179.242 179.942 183.226  1.00  0.00     0.121 C 
ATOM      8  C   UNL     1     180.286 179.747 182.100  1.00  0.00     0.036 C 
ATOM      9  C   UNL     1     179.400 179.969 185.806  1.00  0.00     0.015 C 
ATOM     10  C   UNL     1     180.947 177.676 184.129  1.00  0.00     0.012 C 
ENDROOT
BRANCH   7  11
ATOM     11  O   UNL     1     178.409 181.046 182.974  1.00  0.00    -0.393 OA
ATOM     12  H   UNL     1     178.252 181.062 181.994  1.00  0.00     0.210 HD
ENDBRANCH   7  11
TORSDOF 1
ENDMDL
MODEL 5
REMARK VINA RESULT:    -4.387      1.923      3.075
REMARK INTER + INTRA:          -4.515
REMARK INTER:                  -4.515
REMARK INTRA:                   0.000
REMARK UNBOUND:                 0.000
REMARK SMILES CC1(C)[C@@H]2CC[C@@]1(C)[C@@H](O)C2
REMARK SMILES IDX 1 1 2 2 4 3 5 4 6 5 7 6 9 7 11 8 8 9 3 10 10 11
REMARK H PARENT 10 12
REMARK Flexibility Score: inf
ROOT
ATOM      1  C   UNL     1     179.717 180.206 183.022  1.00  0.00     0.012 C 
ATOM      2  C   UNL     1     181.024 180.221 183.875  1.00  0.00    -0.025 C 
ATOM      3  C   UNL     1     181.814 178.903 183.824  1.00  0.00    -0.002 C 
ATOM      4  C   UNL     1     180.848 177.882 184.472  1.00  0.00     0.005 C 
ATOM      5  C   UNL     1     180.150 178.717 185.563  1.00  0.00     0.010 C 
ATOM      6  C   UNL     1     180.821 180.111 185.405  1.00  0.00    -0.001 C 
ATOM      7  C   UNL     1     182.282 179.992 185.937  1.00  0.00     0.121 C 
ATOM      8  C   UNL     1     182.957 179.125 184.848  1.00  0.00     0.036 C 
ATOM      9  C   UNL     1     180.025 181.247 186.058  1.00  0.00     0.015 C 
ATOM     10  C   UNL     1     181.836 181.460 183.387  1.00  0.00     0.012 C 
ENDROOT
BRANCH   7  11
ATOM     11  O   UNL     1     182.339 179.376 187.199  1.00  0.00    -0.393 OA
ATOM     12  H   UNL     1     181.415 179.081 187.409  1.00  0.00     0.210 HD
ENDBRANCH   7  11
TORSDOF 1
ENDMDL
MODEL 6
REMARK VINA RESULT:    -4.365      1.247      2.621
REMARK INTER + INTRA:          -4.492
REMARK INTER:                  -4.492
REMARK INTRA:                   0.000
REMARK UNBOUND:                 0.000
REMARK SMILES CC1(C)[C@@H]2CC[C@@]1(C)[C@@H](O)C2
REMARK SMILES IDX 1 1 2 2 4 3 5 4 6 5 7 6 9 7 11 8 8 9 3 10 10 11
REMARK H PARENT 10 12
REMARK Flexibility Score: inf
ROOT
ATOM      1  C   UNL     1     182.931 178.670 183.486  1.00  0.00     0.012 C 
ATOM      2  C   UNL     1     181.461 178.779 183.994  1.00  0.00    -0.025 C 
ATOM      3  C   UNL     1     180.528 179.546 183.042  1.00  0.00    -0.002 C 
ATOM      4  C   UNL     1     181.124 180.975 183.034  1.00  0.00     0.005 C 
ATOM      5  C   UNL     1     181.618 181.148 184.483  1.00  0.00     0.010 C 
ATOM      6  C   UNL     1     181.225 179.793 185.139  1.00  0.00    -0.001 C 
ATOM      7  C   UNL     1     179.675 179.779 185.297  1.00  0.00     0.121 C 
ATOM      8  C   UNL     1     179.198 179.638 183.832  1.00  0.00     0.036 C 
ATOM      9  C   UNL     1     181.975 179.510 186.447  1.00  0.00     0.015 C 
ATOM     10  C   UNL     1     181.000 177.316 184.281  1.00  0.00     0.012 C 
ENDROOT
BRANCH   7  11
ATOM     11  O   UNL     1     179.190 180.958 185.889  1.00  0.00    -0.393 OA
ATOM     12  H   UNL     1     179.030 180.748 186.846  1.00  0.00     0.210 HD
ENDBRANCH   7  11
TORSDOF 1
ENDMDL
MODEL 7
REMARK VINA RESULT:    -4.299      1.687      2.934
REMARK INTER + INTRA:          -4.424
REMARK INTER:                  -4.424
REMARK INTRA:                   0.000
REMARK UNBOUND:                 0.000
REMARK SMILES CC1(C)[C@@H]2CC[C@@]1(C)[C@@H](O)C2
REMARK SMILES IDX 1 1 2 2 4 3 5 4 6 5 7 6 9 7 11 8 8 9 3 10 10 11
REMARK H PARENT 10 12
REMARK Flexibility Score: inf
ROOT
ATOM      1  C   UNL     1     181.280 178.761 182.086  1.00  0.00     0.012 C 
ATOM      2  C   UNL     1     181.022 178.624 183.619  1.00  0.00    -0.025 C 
ATOM      3  C   UNL     1     179.788 179.396 184.113  1.00  0.00    -0.002 C 
ATOM      4  C   UNL     1     180.156 180.874 183.834  1.00  0.00     0.005 C 
ATOM      5  C   UNL     1     181.672 180.907 184.112  1.00  0.00     0.010 C 
ATOM      6  C   UNL     1     181.972 179.438 184.529  1.00  0.00    -0.001 C 
ATOM      7  C   UNL     1     181.362 179.218 185.946  1.00  0.00     0.121 C 
ATOM      8  C   UNL     1     179.843 179.221 185.652  1.00  0.00     0.036 C 
ATOM      9  C   UNL     1     183.459 179.073 184.442  1.00  0.00     0.015 C 
ATOM     10  C   UNL     1     180.960 177.091 183.904  1.00  0.00     0.012 C 
ENDROOT
BRANCH   7  11
ATOM     11  O   UNL     1     181.718 180.241 186.843  1.00  0.00    -0.393 OA
ATOM     12  H   UNL     1     182.163 179.798 187.611  1.00  0.00     0.210 HD
ENDBRANCH   7  11
TORSDOF 1
ENDMDL
MODEL 8
REMARK VINA RESULT:    -4.252      2.108      3.325
REMARK INTER + INTRA:          -4.377
REMARK INTER:                  -4.377
REMARK INTRA:                   0.000
REMARK UNBOUND:                 0.000
REMARK SMILES CC1(C)[C@@H]2CC[C@@]1(C)[C@@H](O)C2
REMARK SMILES IDX 1 1 2 2 4 3 5 4 6 5 7 6 9 7 11 8 8 9 3 10 10 11
REMARK H PARENT 10 12
REMARK Flexibility Score: inf
ROOT
ATOM      1  C   UNL     1     179.320 179.887 183.719  1.00  0.00     0.012 C 
ATOM      2  C   UNL     1     180.325 180.118 184.889  1.00  0.00    -0.025 C 
ATOM      3  C   UNL     1     179.739 180.920 186.064  1.00  0.00    -0.002 C 
ATOM      4  C   UNL     1     179.432 182.301 185.436  1.00  0.00     0.005 C 
ATOM      5  C   UNL     1     180.587 182.485 184.433  1.00  0.00     0.010 C 
ATOM      6  C   UNL     1     181.417 181.183 184.629  1.00  0.00    -0.001 C 
ATOM      7  C   UNL     1     182.133 181.286 186.010  1.00  0.00     0.121 C 
ATOM      8  C   UNL     1     180.956 181.133 187.001  1.00  0.00     0.036 C 
ATOM      9  C   UNL     1     182.373 180.890 183.466  1.00  0.00     0.015 C 
ATOM     10  C   UNL     1     180.843 178.702 185.291  1.00  0.00     0.012 C 
ENDROOT
BRANCH   7  11
ATOM     11  O   UNL     1     182.793 182.516 186.175  1.00  0.00    -0.393 OA
ATOM     12  H   UNL     1     182.200 183.208 185.783  1.00  0.00     0.210 HD
ENDBRANCH   7  11
TORSDOF 1
ENDMDL
MODEL 9
REMARK VINA RESULT:    -4.178      1.841      3.187
REMARK INTER + INTRA:          -4.300
REMARK INTER:                  -4.300
REMARK INTRA:                   0.000
REMARK UNBOUND:                 0.000
REMARK SMILES CC1(C)[C@@H]2CC[C@@]1(C)[C@@H](O)C2
REMARK SMILES IDX 1 1 2 2 4 3 5 4 6 5 7 6 9 7 11 8 8 9 3 10 10 11
REMARK H PARENT 10 12
REMARK Flexibility Score: inf
ROOT
ATOM      1  C   UNL     1     179.022 181.250 183.037  1.00  0.00     0.012 C 
ATOM      2  C   UNL     1     180.142 180.182 183.240  1.00  0.00    -0.025 C 
ATOM      3  C   UNL     1     179.744 179.037 184.187  1.00  0.00    -0.002 C 
ATOM      4  C   UNL     1     179.533 179.752 185.543  1.00  0.00     0.005 C 
ATOM      5  C   UNL     1     180.612 180.853 185.522  1.00  0.00     0.010 C 
ATOM      6  C   UNL     1     181.314 180.613 184.154  1.00  0.00    -0.001 C 
ATOM      7  C   UNL     1     182.151 179.304 184.279  1.00  0.00     0.121 C 
ATOM      8  C   UNL     1     181.052 178.217 184.332  1.00  0.00     0.036 C 
ATOM      9  C   UNL     1     182.132 181.817 183.671  1.00  0.00     0.015 C 
ATOM     10  C   UNL     1     180.539 179.705 181.809  1.00  0.00     0.012 C 
ENDROOT
BRANCH   7  11
ATOM     11  O   UNL     1     182.948 179.291 185.436  1.00  0.00    -0.393 OA
ATOM     12  H   UNL     1     183.744 179.850 185.235  1.00  0.00     0.210 HD
ENDBRANCH   7  11
TORSDOF 1
ENDMDL
