MODEL 1
REMARK VINA RESULT:    -4.868      0.000      0.000
REMARK INTER + INTRA:         -14.863
REMARK INTER:                 -11.129
REMARK INTRA:                  -3.734
REMARK UNBOUND:                -3.734
REMARK SMILES CCCCCCCCCCCCCCCCCCCCCCCC(=O)[O-]
REMARK SMILES IDX 13 1 14 2 15 3 16 4 17 5 18 6 19 7 20 8 21 9 22 10 23 11
REMARK SMILES IDX 24 12 25 13 26 14 12 15 11 16 10 17 9 18 8 19 7 20 6 21 5 22
REMARK SMILES IDX 4 23 3 24 2 25 1 26
REMARK H PARENT
REMARK Flexibility Score: inf
ROOT
ATOM      1  C   UNL     1       5.505 -12.876  -3.884  1.00  0.00     0.000 C 
ENDROOT
BRANCH   1   2
ATOM      2  C   UNL     1       4.918 -12.918  -5.303  1.00  0.00     0.000 C 
BRANCH   2   3
ATOM      3  C   UNL     1       5.013 -11.543  -5.981  1.00  0.00     0.000 C 
BRANCH   3   4
ATOM      4  C   UNL     1       4.293 -10.446  -5.181  1.00  0.00     0.000 C 
BRANCH   4   5
ATOM      5  C   UNL     1       2.796 -10.344  -5.534  1.00  0.00     0.000 C 
BRANCH   5   6
ATOM      6  C   UNL     1       2.539 -10.404  -7.055  1.00  0.00     0.000 C 
BRANCH   6   7
ATOM      7  C   UNL     1       2.018  -9.091  -7.666  1.00  0.00     0.000 C 
BRANCH   7   8
ATOM      8  C   UNL     1       2.871  -8.594  -8.847  1.00  0.00     0.000 C 
BRANCH   8   9
ATOM      9  C   UNL     1       4.348  -9.017  -8.742  1.00  0.00     0.000 C 
BRANCH   9  10
ATOM     10  C   UNL     1       5.244  -8.055  -7.934  1.00  0.00     0.006 C 
BRANCH  10  11
ATOM     11  C   UNL     1       4.909  -6.576  -8.179  1.00  0.00     0.053 C 
BRANCH  11  12
ATOM     12  C   UNL     1       4.560  -5.886  -6.897  1.00  0.00     0.041 C 
ATOM     13  O   UNL     1       3.390  -5.958  -6.440  1.00  0.00    -0.550 OA
ATOM     14  O   UNL     1       5.508  -5.108  -6.242  1.00  0.00    -0.550 OA
ENDBRANCH  11  12
ENDBRANCH  10  11
ENDBRANCH   9  10
ENDBRANCH   8   9
ENDBRANCH   7   8
ENDBRANCH   6   7
ENDBRANCH   5   6
ENDBRANCH   4   5
ENDBRANCH   3   4
ENDBRANCH   2   3
ENDBRANCH   1   2
BRANCH   1  15
ATOM     15  C   UNL     1       7.044 -12.860  -3.880  1.00  0.00     0.000 C 
BRANCH  15  16
ATOM     16  C   UNL     1       7.637 -13.743  -2.767  1.00  0.00     0.000 C 
BRANCH  16  17
ATOM     17  C   UNL     1       7.312 -13.221  -1.359  1.00  0.00     0.000 C 
BRANCH  17  18
ATOM     18  C   UNL     1       8.334 -12.190  -0.856  1.00  0.00    -0.000 C 
BRANCH  18  19
ATOM     19  C   UNL     1       7.633 -10.893  -0.427  1.00  0.00    -0.000 C 
BRANCH  19  20
ATOM     20  C   UNL     1       7.151 -10.047  -1.619  1.00  0.00    -0.000 C 
BRANCH  20  21
ATOM     21  C   UNL     1       5.672  -9.623  -1.564  1.00  0.00    -0.000 C 
BRANCH  21  22
ATOM     22  C   UNL     1       4.780 -10.664  -0.867  1.00  0.00    -0.000 C 
BRANCH  22  23
ATOM     23  C   UNL     1       3.491 -10.954  -1.653  1.00  0.00    -0.000 C 
BRANCH  23  24
ATOM     24  C   UNL     1       2.726 -12.196  -1.142  1.00  0.00    -0.000 C 
BRANCH  24  25
ATOM     25  C   UNL     1       3.668 -13.243  -0.529  1.00  0.00    -0.003 C 
ATOM     26  C   UNL     1       3.599 -14.562  -1.294  1.00  0.00     0.004 C 
ENDBRANCH  24  25
ENDBRANCH  23  24
ENDBRANCH  22  23
ENDBRANCH  21  22
ENDBRANCH  20  21
ENDBRANCH  19  20
ENDBRANCH  18  19
ENDBRANCH  17  18
ENDBRANCH  16  17
ENDBRANCH  15  16
ENDBRANCH   1  15
TORSDOF 22
ENDMDL
MODEL 2
REMARK VINA RESULT:    -4.864      1.798      4.854
REMARK INTER + INTRA:         -14.853
REMARK INTER:                 -10.920
REMARK INTRA:                  -3.933
REMARK UNBOUND:                -3.734
REMARK SMILES CCCCCCCCCCCCCCCCCCCCCCCC(=O)[O-]
REMARK SMILES IDX 13 1 14 2 15 3 16 4 17 5 18 6 19 7 20 8 21 9 22 10 23 11
REMARK SMILES IDX 24 12 25 13 26 14 12 15 11 16 10 17 9 18 8 19 7 20 6 21 5 22
REMARK SMILES IDX 4 23 3 24 2 25 1 26
REMARK H PARENT
REMARK Flexibility Score: inf
ROOT
ATOM      1  C   UNL     1       7.402 -12.832  -1.230  1.00  0.00     0.000 C 
ENDROOT
BRANCH   1   2
ATOM      2  C   UNL     1       8.602 -12.522  -0.321  1.00  0.00     0.000 C 
BRANCH   2   3
ATOM      3  C   UNL     1       8.770 -11.007  -0.125  1.00  0.00     0.000 C 
BRANCH   3   4
ATOM      4  C   UNL     1       7.679 -10.200  -0.846  1.00  0.00     0.000 C 
BRANCH   4   5
ATOM      5  C   UNL     1       7.320  -8.898  -0.105  1.00  0.00     0.000 C 
BRANCH   5   6
ATOM      6  C   UNL     1       6.125  -8.160  -0.745  1.00  0.00     0.000 C 
BRANCH   6   7
ATOM      7  C   UNL     1       5.685  -8.723  -2.109  1.00  0.00     0.000 C 
BRANCH   7   8
ATOM      8  C   UNL     1       4.210  -8.429  -2.437  1.00  0.00     0.000 C 
BRANCH   8   9
ATOM      9  C   UNL     1       4.011  -7.863  -3.856  1.00  0.00     0.000 C 
BRANCH   9  10
ATOM     10  C   UNL     1       3.320  -8.822  -4.847  1.00  0.00     0.006 C 
BRANCH  10  11
ATOM     11  C   UNL     1       3.229  -8.249  -6.270  1.00  0.00     0.053 C 
BRANCH  11  12
ATOM     12  C   UNL     1       4.385  -8.704  -7.106  1.00  0.00     0.041 C 
ATOM     13  O   UNL     1       4.397  -9.866  -7.589  1.00  0.00    -0.550 OA
ATOM     14  O   UNL     1       5.480  -7.869  -7.297  1.00  0.00    -0.550 OA
ENDBRANCH  11  12
ENDBRANCH  10  11
ENDBRANCH   9  10
ENDBRANCH   8   9
ENDBRANCH   7   8
ENDBRANCH   6   7
ENDBRANCH   5   6
ENDBRANCH   4   5
ENDBRANCH   3   4
ENDBRANCH   2   3
ENDBRANCH   1   2
BRANCH   1  15
ATOM     15  C   UNL     1       7.758 -13.801  -2.370  1.00  0.00     0.000 C 
BRANCH  15  16
ATOM     16  C   UNL     1       7.057 -13.435  -3.691  1.00  0.00     0.000 C 
BRANCH  16  17
ATOM     17  C   UNL     1       6.452 -12.023  -3.670  1.00  0.00     0.000 C 
BRANCH  17  18
ATOM     18  C   UNL     1       5.403 -11.808  -4.771  1.00  0.00    -0.000 C 
BRANCH  18  19
ATOM     19  C   UNL     1       4.702 -13.129  -5.121  1.00  0.00    -0.000 C 
BRANCH  19  20
ATOM     20  C   UNL     1       3.186 -12.968  -5.332  1.00  0.00    -0.000 C 
BRANCH  20  21
ATOM     21  C   UNL     1       2.310 -13.424  -4.152  1.00  0.00    -0.000 C 
BRANCH  21  22
ATOM     22  C   UNL     1       2.592 -14.875  -3.728  1.00  0.00    -0.000 C 
BRANCH  22  23
ATOM     23  C   UNL     1       2.793 -15.016  -2.210  1.00  0.00    -0.000 C 
BRANCH  23  24
ATOM     24  C   UNL     1       4.030 -14.255  -1.681  1.00  0.00    -0.000 C 
BRANCH  24  25
ATOM     25  C   UNL     1       3.670 -13.286  -0.544  1.00  0.00    -0.003 C 
ATOM     26  C   UNL     1       3.880 -11.836  -0.969  1.00  0.00     0.004 C 
ENDBRANCH  24  25
ENDBRANCH  23  24
ENDBRANCH  22  23
ENDBRANCH  21  22
ENDBRANCH  20  21
ENDBRANCH  19  20
ENDBRANCH  18  19
ENDBRANCH  17  18
ENDBRANCH  16  17
ENDBRANCH  15  16
ENDBRANCH   1  15
TORSDOF 22
ENDMDL
MODEL 3
REMARK VINA RESULT:    -4.785      1.786      4.602
REMARK INTER + INTRA:         -14.674
REMARK INTER:                 -10.585
REMARK INTRA:                  -4.088
REMARK UNBOUND:                -3.734
REMARK SMILES CCCCCCCCCCCCCCCCCCCCCCCC(=O)[O-]
REMARK SMILES IDX 13 1 14 2 15 3 16 4 17 5 18 6 19 7 20 8 21 9 22 10 23 11
REMARK SMILES IDX 24 12 25 13 26 14 12 15 11 16 10 17 9 18 8 19 7 20 6 21 5 22
REMARK SMILES IDX 4 23 3 24 2 25 1 26
REMARK H PARENT
REMARK Flexibility Score: inf
ROOT
ATOM      1  C   UNL     1       7.080 -10.887  -0.599  1.00  0.00     0.000 C 
ENDROOT
BRANCH   1   2
ATOM      2  C   UNL     1       7.821 -12.223  -0.763  1.00  0.00     0.000 C 
BRANCH   2   3
ATOM      3  C   UNL     1       6.978 -13.228  -1.563  1.00  0.00     0.000 C 
BRANCH   3   4
ATOM      4  C   UNL     1       7.717 -13.753  -2.804  1.00  0.00     0.000 C 
BRANCH   4   5
ATOM      5  C   UNL     1       7.099 -13.241  -4.120  1.00  0.00     0.000 C 
BRANCH   5   6
ATOM      6  C   UNL     1       5.584 -12.969  -3.998  1.00  0.00     0.000 C 
BRANCH   6   7
ATOM      7  C   UNL     1       4.793 -13.176  -5.302  1.00  0.00     0.000 C 
BRANCH   7   8
ATOM      8  C   UNL     1       3.486 -12.364  -5.351  1.00  0.00     0.000 C 
BRANCH   8   9
ATOM      9  C   UNL     1       3.560 -11.163  -6.314  1.00  0.00     0.000 C 
BRANCH   9  10
ATOM     10  C   UNL     1       4.521 -10.038  -5.877  1.00  0.00     0.006 C 
BRANCH  10  11
ATOM     11  C   UNL     1       4.209  -8.690  -6.545  1.00  0.00     0.053 C 
BRANCH  11  12
ATOM     12  C   UNL     1       3.662  -8.889  -7.925  1.00  0.00     0.041 C 
ATOM     13  O   UNL     1       4.443  -9.105  -8.888  1.00  0.00    -0.550 OA
ATOM     14  O   UNL     1       2.297  -8.770  -8.159  1.00  0.00    -0.550 OA
ENDBRANCH  11  12
ENDBRANCH  10  11
ENDBRANCH   9  10
ENDBRANCH   8   9
ENDBRANCH   7   8
ENDBRANCH   6   7
ENDBRANCH   5   6
ENDBRANCH   4   5
ENDBRANCH   3   4
ENDBRANCH   2   3
ENDBRANCH   1   2
BRANCH   1  15
ATOM     15  C   UNL     1       7.128 -10.024  -1.871  1.00  0.00     0.000 C 
BRANCH  15  16
ATOM     16  C   UNL     1       5.726  -9.615  -2.356  1.00  0.00     0.000 C 
BRANCH  16  17
ATOM     17  C   UNL     1       4.607 -10.132  -1.438  1.00  0.00     0.000 C 
BRANCH  17  18
ATOM     18  C   UNL     1       3.343 -10.540  -2.211  1.00  0.00    -0.000 C 
BRANCH  18  19
ATOM     19  C   UNL     1       2.784 -11.868  -1.678  1.00  0.00    -0.000 C 
BRANCH  19  20
ATOM     20  C   UNL     1       3.663 -12.492  -0.580  1.00  0.00    -0.000 C 
BRANCH  20  21
ATOM     21  C   UNL     1       3.338 -13.957  -0.238  1.00  0.00    -0.000 C 
BRANCH  21  22
ATOM     22  C   UNL     1       3.476 -14.896  -1.449  1.00  0.00    -0.000 C 
BRANCH  22  23
ATOM     23  C   UNL     1       2.386 -15.979  -1.481  1.00  0.00    -0.000 C 
BRANCH  23  24
ATOM     24  C   UNL     1       2.114 -16.536  -2.897  1.00  0.00    -0.000 C 
BRANCH  24  25
ATOM     25  C   UNL     1       2.196 -15.442  -3.973  1.00  0.00    -0.003 C 
ATOM     26  C   UNL     1       0.805 -14.973  -4.388  1.00  0.00     0.004 C 
ENDBRANCH  24  25
ENDBRANCH  23  24
ENDBRANCH  22  23
ENDBRANCH  21  22
ENDBRANCH  20  21
ENDBRANCH  19  20
ENDBRANCH  18  19
ENDBRANCH  17  18
ENDBRANCH  16  17
ENDBRANCH  15  16
ENDBRANCH   1  15
TORSDOF 22
ENDMDL
MODEL 4
REMARK VINA RESULT:    -4.779      2.919      4.028
REMARK INTER + INTRA:         -14.659
REMARK INTER:                 -10.831
REMARK INTRA:                  -3.828
REMARK UNBOUND:                -3.734
REMARK SMILES CCCCCCCCCCCCCCCCCCCCCCCC(=O)[O-]
REMARK SMILES IDX 13 1 14 2 15 3 16 4 17 5 18 6 19 7 20 8 21 9 22 10 23 11
REMARK SMILES IDX 24 12 25 13 26 14 12 15 11 16 10 17 9 18 8 19 7 20 6 21 5 22
REMARK SMILES IDX 4 23 3 24 2 25 1 26
REMARK H PARENT
REMARK Flexibility Score: inf
ROOT
ATOM      1  C   UNL     1       6.894 -13.367  -4.282  1.00  0.00     0.000 C 
ENDROOT
BRANCH   1   2
ATOM      2  C   UNL     1       5.487 -13.088  -4.833  1.00  0.00     0.000 C 
BRANCH   2   3
ATOM      3  C   UNL     1       5.210 -11.579  -4.901  1.00  0.00     0.000 C 
BRANCH   3   4
ATOM      4  C   UNL     1       4.937 -11.099  -6.336  1.00  0.00     0.000 C 
BRANCH   4   5
ATOM      5  C   UNL     1       4.507  -9.620  -6.392  1.00  0.00     0.000 C 
BRANCH   5   6
ATOM      6  C   UNL     1       4.058  -9.186  -7.804  1.00  0.00     0.000 C 
BRANCH   6   7
ATOM      7  C   UNL     1       2.621  -9.598  -8.170  1.00  0.00     0.000 C 
BRANCH   7   8
ATOM      8  C   UNL     1       1.681  -9.658  -6.953  1.00  0.00     0.000 C 
BRANCH   8   9
ATOM      9  C   UNL     1       1.101 -11.065  -6.710  1.00  0.00     0.000 C 
BRANCH   9  10
ATOM     10  C   UNL     1       1.508 -11.713  -5.370  1.00  0.00     0.006 C 
BRANCH  10  11
ATOM     11  C   UNL     1       0.771 -13.033  -5.094  1.00  0.00     0.053 C 
BRANCH  11  12
ATOM     12  C   UNL     1       1.274 -14.124  -5.987  1.00  0.00     0.041 C 
ATOM     13  O   UNL     1       0.538 -14.582  -6.900  1.00  0.00    -0.550 OA
ATOM     14  O   UNL     1       2.528 -14.683  -5.769  1.00  0.00    -0.550 OA
ENDBRANCH  11  12
ENDBRANCH  10  11
ENDBRANCH   9  10
ENDBRANCH   8   9
ENDBRANCH   7   8
ENDBRANCH   6   7
ENDBRANCH   5   6
ENDBRANCH   4   5
ENDBRANCH   3   4
ENDBRANCH   2   3
ENDBRANCH   1   2
BRANCH   1  15
ATOM     15  C   UNL     1       7.222 -12.524  -3.039  1.00  0.00     0.000 C 
BRANCH  15  16
ATOM     16  C   UNL     1       7.390 -13.384  -1.773  1.00  0.00     0.000 C 
BRANCH  16  17
ATOM     17  C   UNL     1       8.101 -12.633  -0.636  1.00  0.00     0.000 C 
BRANCH  17  18
ATOM     18  C   UNL     1       8.534 -11.216  -1.038  1.00  0.00    -0.000 C 
BRANCH  18  19
ATOM     19  C   UNL     1       8.310 -10.230   0.119  1.00  0.00    -0.000 C 
BRANCH  19  20
ATOM     20  C   UNL     1       6.860  -9.719   0.200  1.00  0.00    -0.000 C 
BRANCH  20  21
ATOM     21  C   UNL     1       6.324  -9.068  -1.087  1.00  0.00    -0.000 C 
BRANCH  21  22
ATOM     22  C   UNL     1       5.164  -9.859  -1.715  1.00  0.00    -0.000 C 
BRANCH  22  23
ATOM     23  C   UNL     1       4.665 -10.994  -0.805  1.00  0.00    -0.000 C 
BRANCH  23  24
ATOM     24  C   UNL     1       3.655 -11.938  -1.498  1.00  0.00    -0.000 C 
BRANCH  24  25
ATOM     25  C   UNL     1       3.800 -13.391  -1.019  1.00  0.00    -0.003 C 
ATOM     26  C   UNL     1       3.532 -14.374  -2.155  1.00  0.00     0.004 C 
ENDBRANCH  24  25
ENDBRANCH  23  24
ENDBRANCH  22  23
ENDBRANCH  21  22
ENDBRANCH  20  21
ENDBRANCH  19  20
ENDBRANCH  18  19
ENDBRANCH  17  18
ENDBRANCH  16  17
ENDBRANCH  15  16
ENDBRANCH   1  15
TORSDOF 22
ENDMDL
MODEL 5
REMARK VINA RESULT:    -4.768      1.436      2.505
REMARK INTER + INTRA:         -14.634
REMARK INTER:                 -10.775
REMARK INTRA:                  -3.858
REMARK UNBOUND:                -3.734
REMARK SMILES CCCCCCCCCCCCCCCCCCCCCCCC(=O)[O-]
REMARK SMILES IDX 13 1 14 2 15 3 16 4 17 5 18 6 19 7 20 8 21 9 22 10 23 11
REMARK SMILES IDX 24 12 25 13 26 14 12 15 11 16 10 17 9 18 8 19 7 20 6 21 5 22
REMARK SMILES IDX 4 23 3 24 2 25 1 26
REMARK H PARENT
REMARK Flexibility Score: inf
ROOT
ATOM      1  C   UNL     1       7.480 -12.758  -3.414  1.00  0.00     0.000 C 
ENDROOT
BRANCH   1   2
ATOM      2  C   UNL     1       6.601 -13.340  -4.532  1.00  0.00     0.000 C 
BRANCH   2   3
ATOM      3  C   UNL     1       5.109 -13.149  -4.218  1.00  0.00     0.000 C 
BRANCH   3   4
ATOM      4  C   UNL     1       4.239 -13.168  -5.485  1.00  0.00     0.000 C 
BRANCH   4   5
ATOM      5  C   UNL     1       3.055 -14.147  -5.374  1.00  0.00     0.000 C 
BRANCH   5   6
ATOM      6  C   UNL     1       1.699 -13.477  -5.682  1.00  0.00     0.000 C 
BRANCH   6   7
ATOM      7  C   UNL     1       1.693 -11.947  -5.519  1.00  0.00     0.000 C 
BRANCH   7   8
ATOM      8  C   UNL     1       1.224 -11.205  -6.783  1.00  0.00     0.000 C 
BRANCH   8   9
ATOM      9  C   UNL     1       2.326 -10.330  -7.411  1.00  0.00     0.000 C 
BRANCH   9  10
ATOM     10  C   UNL     1       3.062  -9.403  -6.422  1.00  0.00     0.006 C 
BRANCH  10  11
ATOM     11  C   UNL     1       4.578  -9.349  -6.664  1.00  0.00     0.053 C 
BRANCH  11  12
ATOM     12  C   UNL     1       4.954  -8.125  -7.440  1.00  0.00     0.041 C 
ATOM     13  O   UNL     1       4.740  -8.073  -8.679  1.00  0.00    -0.550 OA
ATOM     14  O   UNL     1       5.602  -7.070  -6.808  1.00  0.00    -0.550 OA
ENDBRANCH  11  12
ENDBRANCH  10  11
ENDBRANCH   9  10
ENDBRANCH   8   9
ENDBRANCH   7   8
ENDBRANCH   6   7
ENDBRANCH   5   6
ENDBRANCH   4   5
ENDBRANCH   3   4
ENDBRANCH   2   3
ENDBRANCH   1   2
BRANCH   1  15
ATOM     15  C   UNL     1       7.261 -13.460  -2.062  1.00  0.00     0.000 C 
BRANCH  15  16
ATOM     16  C   UNL     1       7.771 -12.622  -0.876  1.00  0.00     0.000 C 
BRANCH  16  17
ATOM     17  C   UNL     1       7.998 -11.147  -1.246  1.00  0.00     0.000 C 
BRANCH  17  18
ATOM     18  C   UNL     1       7.344 -10.176  -0.252  1.00  0.00    -0.000 C 
BRANCH  18  19
ATOM     19  C   UNL     1       5.840 -10.040  -0.534  1.00  0.00    -0.000 C 
BRANCH  19  20
ATOM     20  C   UNL     1       5.519  -9.908  -2.034  1.00  0.00    -0.000 C 
BRANCH  20  21
ATOM     21  C   UNL     1       4.098 -10.340  -2.437  1.00  0.00    -0.000 C 
BRANCH  21  22
ATOM     22  C   UNL     1       3.306 -10.950  -1.268  1.00  0.00    -0.000 C 
BRANCH  22  23
ATOM     23  C   UNL     1       2.975 -12.434  -1.492  1.00  0.00    -0.000 C 
BRANCH  23  24
ATOM     24  C   UNL     1       3.888 -13.395  -0.696  1.00  0.00    -0.000 C 
BRANCH  24  25
ATOM     25  C   UNL     1       3.294 -14.809  -0.598  1.00  0.00    -0.003 C 
ATOM     26  C   UNL     1       2.826 -15.305  -1.963  1.00  0.00     0.004 C 
ENDBRANCH  24  25
ENDBRANCH  23  24
ENDBRANCH  22  23
ENDBRANCH  21  22
ENDBRANCH  20  21
ENDBRANCH  19  20
ENDBRANCH  18  19
ENDBRANCH  17  18
ENDBRANCH  16  17
ENDBRANCH  15  16
ENDBRANCH   1  15
TORSDOF 22
ENDMDL
MODEL 6
REMARK VINA RESULT:    -4.694      2.688      7.058
REMARK INTER + INTRA:         -14.464
REMARK INTER:                 -11.128
REMARK INTRA:                  -3.336
REMARK UNBOUND:                -3.734
REMARK SMILES CCCCCCCCCCCCCCCCCCCCCCCC(=O)[O-]
REMARK SMILES IDX 13 1 14 2 15 3 16 4 17 5 18 6 19 7 20 8 21 9 22 10 23 11
REMARK SMILES IDX 24 12 25 13 26 14 12 15 11 16 10 17 9 18 8 19 7 20 6 21 5 22
REMARK SMILES IDX 4 23 3 24 2 25 1 26
REMARK H PARENT
REMARK Flexibility Score: inf
ROOT
ATOM      1  C   UNL     1       6.415 -13.346  -4.511  1.00  0.00     0.000 C 
ENDROOT
BRANCH   1   2
ATOM      2  C   UNL     1       7.265 -12.646  -3.440  1.00  0.00     0.000 C 
BRANCH   2   3
ATOM      3  C   UNL     1       7.631 -13.614  -2.304  1.00  0.00     0.000 C 
BRANCH   3   4
ATOM      4  C   UNL     1       7.506 -12.961  -0.918  1.00  0.00     0.000 C 
BRANCH   4   5
ATOM      5  C   UNL     1       8.871 -12.545  -0.336  1.00  0.00     0.000 C 
BRANCH   5   6
ATOM      6  C   UNL     1       8.896 -11.070   0.120  1.00  0.00     0.000 C 
BRANCH   6   7
ATOM      7  C   UNL     1       8.051 -10.120  -0.747  1.00  0.00     0.000 C 
BRANCH   7   8
ATOM      8  C   UNL     1       7.158  -9.180   0.081  1.00  0.00     0.000 C 
BRANCH   8   9
ATOM      9  C   UNL     1       5.663  -9.306  -0.270  1.00  0.00     0.000 C 
BRANCH   9  10
ATOM     10  C   UNL     1       5.358 -10.167  -1.514  1.00  0.00     0.006 C 
BRANCH  10  11
ATOM     11  C   UNL     1       3.855 -10.272  -1.816  1.00  0.00     0.053 C 
BRANCH  11  12
ATOM     12  C   UNL     1       3.326 -11.623  -1.447  1.00  0.00     0.041 C 
ATOM     13  O   UNL     1       2.183 -11.982  -1.833  1.00  0.00    -0.550 OA
ATOM     14  O   UNL     1       4.068 -12.461  -0.621  1.00  0.00    -0.550 OA
ENDBRANCH  11  12
ENDBRANCH  10  11
ENDBRANCH   9  10
ENDBRANCH   8   9
ENDBRANCH   7   8
ENDBRANCH   6   7
ENDBRANCH   5   6
ENDBRANCH   4   5
ENDBRANCH   3   4
ENDBRANCH   2   3
ENDBRANCH   1   2
BRANCH   1  15
ATOM     15  C   UNL     1       4.913 -13.327  -4.180  1.00  0.00     0.000 C 
BRANCH  15  16
ATOM     16  C   UNL     1       4.048 -12.965  -5.401  1.00  0.00     0.000 C 
BRANCH  16  17
ATOM     17  C   UNL     1       3.357 -11.600  -5.254  1.00  0.00     0.000 C 
BRANCH  17  18
ATOM     18  C   UNL     1       4.299 -10.422  -5.541  1.00  0.00    -0.000 C 
BRANCH  18  19
ATOM     19  C   UNL     1       4.690 -10.386  -7.026  1.00  0.00    -0.000 C 
BRANCH  19  20
ATOM     20  C   UNL     1       4.141  -9.151  -7.762  1.00  0.00    -0.000 C 
BRANCH  20  21
ATOM     21  C   UNL     1       2.698  -9.288  -8.283  1.00  0.00    -0.000 C 
BRANCH  21  22
ATOM     22  C   UNL     1       1.717  -8.341  -7.572  1.00  0.00    -0.000 C 
BRANCH  22  23
ATOM     23  C   UNL     1       0.922  -9.044  -6.460  1.00  0.00    -0.000 C 
BRANCH  23  24
ATOM     24  C   UNL     1      -0.234  -9.923  -6.991  1.00  0.00    -0.000 C 
BRANCH  24  25
ATOM     25  C   UNL     1      -0.404 -11.212  -6.173  1.00  0.00    -0.003 C 
ATOM     26  C   UNL     1       0.267 -12.395  -6.863  1.00  0.00     0.004 C 
ENDBRANCH  24  25
ENDBRANCH  23  24
ENDBRANCH  22  23
ENDBRANCH  21  22
ENDBRANCH  20  21
ENDBRANCH  19  20
ENDBRANCH  18  19
ENDBRANCH  17  18
ENDBRANCH  16  17
ENDBRANCH  15  16
ENDBRANCH   1  15
TORSDOF 22
ENDMDL
MODEL 7
REMARK VINA RESULT:    -4.682      3.446      7.472
REMARK INTER + INTRA:         -14.437
REMARK INTER:                 -10.590
REMARK INTRA:                  -3.847
REMARK UNBOUND:                -3.734
REMARK SMILES CCCCCCCCCCCCCCCCCCCCCCCC(=O)[O-]
REMARK SMILES IDX 13 1 14 2 15 3 16 4 17 5 18 6 19 7 20 8 21 9 22 10 23 11
REMARK SMILES IDX 24 12 25 13 26 14 12 15 11 16 10 17 9 18 8 19 7 20 6 21 5 22
REMARK SMILES IDX 4 23 3 24 2 25 1 26
REMARK H PARENT
REMARK Flexibility Score: inf
ROOT
ATOM      1  C   UNL     1       6.699 -13.351  -4.535  1.00  0.00     0.000 C 
ENDROOT
BRANCH   1   2
ATOM      2  C   UNL     1       7.242 -12.549  -3.343  1.00  0.00     0.000 C 
BRANCH   2   3
ATOM      3  C   UNL     1       7.415 -13.444  -2.107  1.00  0.00     0.000 C 
BRANCH   3   4
ATOM      4  C   UNL     1       7.922 -12.662  -0.885  1.00  0.00     0.000 C 
BRANCH   4   5
ATOM      5  C   UNL     1       7.942 -11.140  -1.125  1.00  0.00     0.000 C 
BRANCH   5   6
ATOM      6  C   UNL     1       6.816 -10.405  -0.367  1.00  0.00     0.000 C 
BRANCH   6   7
ATOM      7  C   UNL     1       5.491 -10.294  -1.144  1.00  0.00     0.000 C 
BRANCH   7   8
ATOM      8  C   UNL     1       4.483 -11.399  -0.781  1.00  0.00     0.000 C 
BRANCH   8   9
ATOM      9  C   UNL     1       3.316 -11.501  -1.781  1.00  0.00     0.000 C 
BRANCH   9  10
ATOM     10  C   UNL     1       2.890 -12.940  -2.140  1.00  0.00     0.006 C 
BRANCH  10  11
ATOM     11  C   UNL     1       3.846 -14.004  -1.579  1.00  0.00     0.053 C 
BRANCH  11  12
ATOM     12  C   UNL     1       3.151 -14.875  -0.578  1.00  0.00     0.041 C 
ATOM     13  O   UNL     1       3.111 -14.536   0.633  1.00  0.00    -0.550 OA
ATOM     14  O   UNL     1       2.606 -16.092  -0.971  1.00  0.00    -0.550 OA
ENDBRANCH  11  12
ENDBRANCH  10  11
ENDBRANCH   9  10
ENDBRANCH   8   9
ENDBRANCH   7   8
ENDBRANCH   6   7
ENDBRANCH   5   6
ENDBRANCH   4   5
ENDBRANCH   3   4
ENDBRANCH   2   3
ENDBRANCH   1   2
BRANCH   1  15
ATOM     15  C   UNL     1       5.261 -12.954  -4.911  1.00  0.00     0.000 C 
BRANCH  15  16
ATOM     16  C   UNL     1       5.080 -11.429  -5.010  1.00  0.00     0.000 C 
BRANCH  16  17
ATOM     17  C   UNL     1       4.295 -11.005  -6.261  1.00  0.00     0.000 C 
BRANCH  17  18
ATOM     18  C   UNL     1       4.745  -9.644  -6.814  1.00  0.00    -0.000 C 
BRANCH  18  19
ATOM     19  C   UNL     1       3.909  -9.252  -8.042  1.00  0.00    -0.000 C 
BRANCH  19  20
ATOM     20  C   UNL     1       2.407  -9.537  -7.862  1.00  0.00    -0.000 C 
BRANCH  20  21
ATOM     21  C   UNL     1       1.622  -8.453  -7.101  1.00  0.00    -0.000 C 
BRANCH  21  22
ATOM     22  C   UNL     1       1.187  -8.908  -5.698  1.00  0.00    -0.000 C 
BRANCH  22  23
ATOM     23  C   UNL     1       1.667  -7.952  -4.594  1.00  0.00    -0.000 C 
BRANCH  23  24
ATOM     24  C   UNL     1       2.462  -6.741  -5.133  1.00  0.00    -0.000 C 
BRANCH  24  25
ATOM     25  C   UNL     1       3.959  -6.837  -4.800  1.00  0.00    -0.003 C 
ATOM     26  C   UNL     1       4.201  -7.766  -3.614  1.00  0.00     0.004 C 
ENDBRANCH  24  25
ENDBRANCH  23  24
ENDBRANCH  22  23
ENDBRANCH  21  22
ENDBRANCH  20  21
ENDBRANCH  19  20
ENDBRANCH  18  19
ENDBRANCH  17  18
ENDBRANCH  16  17
ENDBRANCH  15  16
ENDBRANCH   1  15
TORSDOF 22
ENDMDL
MODEL 8
REMARK VINA RESULT:    -4.676      2.304      3.447
REMARK INTER + INTRA:         -14.423
REMARK INTER:                 -10.355
REMARK INTRA:                  -4.068
REMARK UNBOUND:                -3.734
REMARK SMILES CCCCCCCCCCCCCCCCCCCCCCCC(=O)[O-]
REMARK SMILES IDX 13 1 14 2 15 3 16 4 17 5 18 6 19 7 20 8 21 9 22 10 23 11
REMARK SMILES IDX 24 12 25 13 26 14 12 15 11 16 10 17 9 18 8 19 7 20 6 21 5 22
REMARK SMILES IDX 4 23 3 24 2 25 1 26
REMARK H PARENT
REMARK Flexibility Score: inf
ROOT
ATOM      1  C   UNL     1       3.944 -12.242  -5.159  1.00  0.00     0.000 C 
ENDROOT
BRANCH   1   2
ATOM      2  C   UNL     1       3.628 -13.737  -5.324  1.00  0.00     0.000 C 
BRANCH   2   3
ATOM      3  C   UNL     1       2.542 -14.185  -4.335  1.00  0.00     0.000 C 
BRANCH   3   4
ATOM      4  C   UNL     1       1.738 -15.387  -4.855  1.00  0.00     0.000 C 
BRANCH   4   5
ATOM      5  C   UNL     1       1.519 -15.336  -6.380  1.00  0.00     0.000 C 
BRANCH   5   6
ATOM      6  C   UNL     1       0.037 -15.131  -6.760  1.00  0.00     0.000 C 
BRANCH   6   7
ATOM      7  C   UNL     1      -0.474 -13.691  -6.577  1.00  0.00     0.000 C 
BRANCH   7   8
ATOM      8  C   UNL     1       0.497 -12.631  -7.126  1.00  0.00     0.000 C 
BRANCH   8   9
ATOM      9  C   UNL     1       0.628 -11.401  -6.206  1.00  0.00     0.000 C 
BRANCH   9  10
ATOM     10  C   UNL     1       0.927 -10.074  -6.934  1.00  0.00     0.006 C 
BRANCH  10  11
ATOM     11  C   UNL     1       2.313 -10.052  -7.595  1.00  0.00     0.053 C 
BRANCH  11  12
ATOM     12  C   UNL     1       3.156  -8.947  -7.038  1.00  0.00     0.041 C 
ATOM     13  O   UNL     1       3.287  -8.819  -5.793  1.00  0.00    -0.550 OA
ATOM     14  O   UNL     1       3.743  -8.019  -7.891  1.00  0.00    -0.550 OA
ENDBRANCH  11  12
ENDBRANCH  10  11
ENDBRANCH   9  10
ENDBRANCH   8   9
ENDBRANCH   7   8
ENDBRANCH   6   7
ENDBRANCH   5   6
ENDBRANCH   4   5
ENDBRANCH   3   4
ENDBRANCH   2   3
ENDBRANCH   1   2
BRANCH   1  15
ATOM     15  C   UNL     1       5.440 -11.975  -4.921  1.00  0.00     0.000 C 
BRANCH  15  16
ATOM     16  C   UNL     1       6.155 -13.177  -4.278  1.00  0.00     0.000 C 
BRANCH  16  17
ATOM     17  C   UNL     1       7.305 -12.755  -3.349  1.00  0.00     0.000 C 
BRANCH  17  18
ATOM     18  C   UNL     1       7.403 -13.626  -2.089  1.00  0.00    -0.000 C 
BRANCH  18  19
ATOM     19  C   UNL     1       8.040 -12.841  -0.932  1.00  0.00    -0.000 C 
BRANCH  19  20
ATOM     20  C   UNL     1       8.137 -11.331  -1.213  1.00  0.00    -0.000 C 
BRANCH  20  21
ATOM     21  C   UNL     1       7.028 -10.475  -0.576  1.00  0.00    -0.000 C 
BRANCH  21  22
ATOM     22  C   UNL     1       6.316  -9.570  -1.595  1.00  0.00    -0.000 C 
BRANCH  22  23
ATOM     23  C   UNL     1       4.852  -9.980  -1.824  1.00  0.00    -0.000 C 
BRANCH  23  24
ATOM     24  C   UNL     1       4.348 -11.046  -0.824  1.00  0.00    -0.000 C 
BRANCH  24  25
ATOM     25  C   UNL     1       3.666 -12.226  -1.532  1.00  0.00    -0.003 C 
ATOM     26  C   UNL     1       4.067 -13.555  -0.898  1.00  0.00     0.004 C 
ENDBRANCH  24  25
ENDBRANCH  23  24
ENDBRANCH  22  23
ENDBRANCH  21  22
ENDBRANCH  20  21
ENDBRANCH  19  20
ENDBRANCH  18  19
ENDBRANCH  17  18
ENDBRANCH  16  17
ENDBRANCH  15  16
ENDBRANCH   1  15
TORSDOF 22
ENDMDL
MODEL 9
REMARK VINA RESULT:    -4.658      3.584      6.273
REMARK INTER + INTRA:         -14.382
REMARK INTER:                 -10.618
REMARK INTRA:                  -3.764
REMARK UNBOUND:                -3.734
REMARK SMILES CCCCCCCCCCCCCCCCCCCCCCCC(=O)[O-]
REMARK SMILES IDX 13 1 14 2 15 3 16 4 17 5 18 6 19 7 20 8 21 9 22 10 23 11
REMARK SMILES IDX 24 12 25 13 26 14 12 15 11 16 10 17 9 18 8 19 7 20 6 21 5 22
REMARK SMILES IDX 4 23 3 24 2 25 1 26
REMARK H PARENT
REMARK Flexibility Score: inf
ROOT
ATOM      1  C   UNL     1       4.169  -8.143  -4.906  1.00  0.00     0.000 C 
ENDROOT
BRANCH   1   2
ATOM      2  C   UNL     1       3.422  -7.230  -5.889  1.00  0.00     0.000 C 
BRANCH   2   3
ATOM      3  C   UNL     1       2.281  -7.986  -6.588  1.00  0.00     0.000 C 
BRANCH   3   4
ATOM      4  C   UNL     1       2.794  -8.932  -7.686  1.00  0.00     0.000 C 
BRANCH   4   5
ATOM      5  C   UNL     1       2.322 -10.385  -7.482  1.00  0.00     0.000 C 
BRANCH   5   6
ATOM      6  C   UNL     1       0.945 -10.470  -6.790  1.00  0.00     0.000 C 
BRANCH   6   7
ATOM      7  C   UNL     1       0.447 -11.904  -6.536  1.00  0.00     0.000 C 
BRANCH   7   8
ATOM      8  C   UNL     1       1.285 -12.658  -5.488  1.00  0.00     0.000 C 
BRANCH   8   9
ATOM      9  C   UNL     1       1.657 -14.087  -5.930  1.00  0.00     0.000 C 
BRANCH   9  10
ATOM     10  C   UNL     1       1.706 -15.127  -4.791  1.00  0.00     0.006 C 
BRANCH  10  11
ATOM     11  C   UNL     1       2.295 -14.562  -3.489  1.00  0.00     0.053 C 
BRANCH  11  12
ATOM     12  C   UNL     1       2.376 -15.621  -2.433  1.00  0.00     0.041 C 
ATOM     13  O   UNL     1       2.366 -16.837  -2.757  1.00  0.00    -0.550 OA
ATOM     14  O   UNL     1       2.395 -15.266  -1.089  1.00  0.00    -0.550 OA
ENDBRANCH  11  12
ENDBRANCH  10  11
ENDBRANCH   9  10
ENDBRANCH   8   9
ENDBRANCH   7   8
ENDBRANCH   6   7
ENDBRANCH   5   6
ENDBRANCH   4   5
ENDBRANCH   3   4
ENDBRANCH   2   3
ENDBRANCH   1   2
BRANCH   1  15
ATOM     15  C   UNL     1       3.227  -9.093  -4.147  1.00  0.00     0.000 C 
BRANCH  15  16
ATOM     16  C   UNL     1       3.869 -10.467  -3.882  1.00  0.00     0.000 C 
BRANCH  16  17
ATOM     17  C   UNL     1       5.015 -10.784  -4.855  1.00  0.00     0.000 C 
BRANCH  17  18
ATOM     18  C   UNL     1       4.887 -12.174  -5.496  1.00  0.00    -0.000 C 
BRANCH  18  19
ATOM     19  C   UNL     1       5.340 -13.268  -4.517  1.00  0.00    -0.000 C 
BRANCH  19  20
ATOM     20  C   UNL     1       6.855 -13.245  -4.249  1.00  0.00    -0.000 C 
BRANCH  20  21
ATOM     21  C   UNL     1       7.256 -13.277  -2.763  1.00  0.00    -0.000 C 
BRANCH  21  22
ATOM     22  C   UNL     1       6.065 -13.036  -1.820  1.00  0.00    -0.000 C 
BRANCH  22  23
ATOM     23  C   UNL     1       6.072 -11.624  -1.213  1.00  0.00    -0.000 C 
BRANCH  23  24
ATOM     24  C   UNL     1       7.347 -10.817  -1.548  1.00  0.00    -0.000 C 
BRANCH  24  25
ATOM     25  C   UNL     1       7.997 -10.214  -0.293  1.00  0.00    -0.003 C 
ATOM     26  C   UNL     1       9.094 -11.124   0.250  1.00  0.00     0.004 C 
ENDBRANCH  24  25
ENDBRANCH  23  24
ENDBRANCH  22  23
ENDBRANCH  21  22
ENDBRANCH  20  21
ENDBRANCH  19  20
ENDBRANCH  18  19
ENDBRANCH  17  18
ENDBRANCH  16  17
ENDBRANCH  15  16
ENDBRANCH   1  15
TORSDOF 22
ENDMDL
