MODEL 1
REMARK VINA RESULT:    -1.738      0.000      0.000
REMARK INTER + INTRA:         -10.248
REMARK INTER:                  -4.381
REMARK INTRA:                  -5.867
REMARK UNBOUND:                -5.867
REMARK SMILES CCCCCCCCCCCCCCCCCCCCCCCCCCCC(=O)[O-]
REMARK SMILES IDX 15 1 16 2 17 3 18 4 19 5 20 6 21 7 22 8 23 9 24 10 25 11
REMARK SMILES IDX 26 12 27 13 28 14 29 15 30 16 14 17 13 18 12 19 11 20 10 21
REMARK SMILES IDX 9 22 8 23 7 24 6 25 5 26 4 27 3 28 2 29 1 30
REMARK H PARENT
REMARK Flexibility Score: inf
ROOT
ATOM      1  C   UNL     1     175.586 202.714 199.382  1.00  0.00     0.000 C 
ENDROOT
BRANCH   1   2
ATOM      2  C   UNL     1     174.579 203.442 200.291  1.00  0.00     0.000 C 
BRANCH   2   3
ATOM      3  C   UNL     1     174.743 203.066 201.773  1.00  0.00     0.000 C 
BRANCH   3   4
ATOM      4  C   UNL     1     174.886 204.302 202.676  1.00  0.00     0.000 C 
BRANCH   4   5
ATOM      5  C   UNL     1     176.341 204.535 203.125  1.00  0.00     0.000 C 
BRANCH   5   6
ATOM      6  C   UNL     1     176.821 205.978 202.853  1.00  0.00     0.000 C 
BRANCH   6   7
ATOM      7  C   UNL     1     176.436 206.517 201.462  1.00  0.00     0.000 C 
BRANCH   7   8
ATOM      8  C   UNL     1     175.887 207.957 201.443  1.00  0.00     0.000 C 
BRANCH   8   9
ATOM      9  C   UNL     1     174.520 208.123 200.753  1.00  0.00     0.000 C 
BRANCH   9  10
ATOM     10  C   UNL     1     173.343 207.429 201.464  1.00  0.00     0.000 C 
BRANCH  10  11
ATOM     11  C   UNL     1     172.565 206.446 200.563  1.00  0.00     0.000 C 
BRANCH  11  12
ATOM     12  C   UNL     1     171.548 205.604 201.353  1.00  0.00     0.006 C 
BRANCH  12  13
ATOM     13  C   UNL     1     171.163 204.317 200.609  1.00  0.00     0.053 C 
BRANCH  13  14
ATOM     14  C   UNL     1     170.746 203.235 201.557  1.00  0.00     0.041 C 
ATOM     15  O   UNL     1     169.764 202.495 201.282  1.00  0.00    -0.550 OA
ATOM     16  O   UNL     1     171.424 203.061 202.757  1.00  0.00    -0.550 OA
ENDBRANCH  13  14
ENDBRANCH  12  13
ENDBRANCH  11  12
ENDBRANCH  10  11
ENDBRANCH   9  10
ENDBRANCH   8   9
ENDBRANCH   7   8
ENDBRANCH   6   7
ENDBRANCH   5   6
ENDBRANCH   4   5
ENDBRANCH   3   4
ENDBRANCH   2   3
ENDBRANCH   1   2
BRANCH   1  17
ATOM     17  C   UNL     1     177.013 202.611 199.956  1.00  0.00     0.000 C 
BRANCH  17  18
ATOM     18  C   UNL     1     177.955 203.780 199.598  1.00  0.00     0.000 C 
BRANCH  18  19
ATOM     19  C   UNL     1     179.359 203.702 200.225  1.00  0.00     0.000 C 
BRANCH  19  20
ATOM     20  C   UNL     1     179.718 204.953 201.041  1.00  0.00     0.000 C 
BRANCH  20  21
ATOM     21  C   UNL     1     180.741 205.821 200.292  1.00  0.00     0.000 C 
BRANCH  21  22
ATOM     22  C   UNL     1     180.277 207.278 200.112  1.00  0.00    -0.000 C 
BRANCH  22  23
ATOM     23  C   UNL     1     179.019 207.459 199.242  1.00  0.00    -0.000 C 
BRANCH  23  24
ATOM     24  C   UNL     1     179.171 206.865 197.834  1.00  0.00    -0.000 C 
BRANCH  24  25
ATOM     25  C   UNL     1     177.957 207.213 196.959  1.00  0.00    -0.000 C 
BRANCH  25  26
ATOM     26  C   UNL     1     176.666 207.414 197.771  1.00  0.00    -0.000 C 
BRANCH  26  27
ATOM     27  C   UNL     1     175.805 206.151 197.958  1.00  0.00    -0.000 C 
BRANCH  27  28
ATOM     28  C   UNL     1     174.318 206.388 197.646  1.00  0.00    -0.000 C 
BRANCH  28  29
ATOM     29  C   UNL     1     173.611 205.121 197.138  1.00  0.00    -0.003 C 
ATOM     30  C   UNL     1     172.184 205.389 196.660  1.00  0.00     0.004 C 
ENDBRANCH  28  29
ENDBRANCH  27  28
ENDBRANCH  26  27
ENDBRANCH  25  26
ENDBRANCH  24  25
ENDBRANCH  23  24
ENDBRANCH  22  23
ENDBRANCH  21  22
ENDBRANCH  20  21
ENDBRANCH  19  20
ENDBRANCH  18  19
ENDBRANCH  17  18
ENDBRANCH   1  17
TORSDOF 26
ENDMDL
MODEL 2
REMARK VINA RESULT:    -1.686      3.595      6.741
REMARK INTER + INTRA:         -10.115
REMARK INTER:                  -4.206
REMARK INTRA:                  -5.909
REMARK UNBOUND:                -5.867
REMARK SMILES CCCCCCCCCCCCCCCCCCCCCCCCCCCC(=O)[O-]
REMARK SMILES IDX 15 1 16 2 17 3 18 4 19 5 20 6 21 7 22 8 23 9 24 10 25 11
REMARK SMILES IDX 26 12 27 13 28 14 29 15 30 16 14 17 13 18 12 19 11 20 10 21
REMARK SMILES IDX 9 22 8 23 7 24 6 25 5 26 4 27 3 28 2 29 1 30
REMARK H PARENT
REMARK Flexibility Score: inf
ROOT
ATOM      1  C   UNL     1     173.845 206.510 199.209  1.00  0.00     0.000 C 
ENDROOT
BRANCH   1   2
ATOM      2  C   UNL     1     174.804 207.575 199.771  1.00  0.00     0.000 C 
BRANCH   2   3
ATOM      3  C   UNL     1     175.100 207.373 201.267  1.00  0.00     0.000 C 
BRANCH   3   4
ATOM      4  C   UNL     1     174.597 206.016 201.783  1.00  0.00     0.000 C 
BRANCH   4   5
ATOM      5  C   UNL     1     175.747 205.103 202.249  1.00  0.00     0.000 C 
BRANCH   5   6
ATOM      6  C   UNL     1     177.008 205.898 202.650  1.00  0.00     0.000 C 
BRANCH   6   7
ATOM      7  C   UNL     1     178.334 205.199 202.288  1.00  0.00     0.000 C 
BRANCH   7   8
ATOM      8  C   UNL     1     179.147 205.872 201.165  1.00  0.00     0.000 C 
BRANCH   8   9
ATOM      9  C   UNL     1     178.461 207.080 200.499  1.00  0.00     0.000 C 
BRANCH   9  10
ATOM     10  C   UNL     1     178.919 207.376 199.059  1.00  0.00     0.000 C 
BRANCH  10  11
ATOM     11  C   UNL     1     180.165 206.573 198.626  1.00  0.00     0.000 C 
BRANCH  11  12
ATOM     12  C   UNL     1     180.347 206.548 197.099  1.00  0.00     0.006 C 
BRANCH  12  13
ATOM     13  C   UNL     1     179.263 207.361 196.376  1.00  0.00     0.053 C 
BRANCH  13  14
ATOM     14  C   UNL     1     179.615 207.598 194.939  1.00  0.00     0.041 C 
ATOM     15  O   UNL     1     178.800 207.296 194.028  1.00  0.00    -0.550 OA
ATOM     16  O   UNL     1     180.856 208.125 194.605  1.00  0.00    -0.550 OA
ENDBRANCH  13  14
ENDBRANCH  12  13
ENDBRANCH  11  12
ENDBRANCH  10  11
ENDBRANCH   9  10
ENDBRANCH   8   9
ENDBRANCH   7   8
ENDBRANCH   6   7
ENDBRANCH   5   6
ENDBRANCH   4   5
ENDBRANCH   3   4
ENDBRANCH   2   3
ENDBRANCH   1   2
BRANCH   1  17
ATOM     17  C   UNL     1     174.337 205.816 197.923  1.00  0.00     0.000 C 
BRANCH  17  18
ATOM     18  C   UNL     1     175.827 206.033 197.585  1.00  0.00     0.000 C 
BRANCH  18  19
ATOM     19  C   UNL     1     176.674 204.750 197.516  1.00  0.00     0.000 C 
BRANCH  19  20
ATOM     20  C   UNL     1     176.943 204.137 198.899  1.00  0.00     0.000 C 
BRANCH  20  21
ATOM     21  C   UNL     1     176.424 202.692 198.969  1.00  0.00     0.000 C 
BRANCH  21  22
ATOM     22  C   UNL     1     175.068 202.574 199.687  1.00  0.00    -0.000 C 
BRANCH  22  23
ATOM     23  C   UNL     1     173.876 202.220 198.778  1.00  0.00    -0.000 C 
BRANCH  23  24
ATOM     24  C   UNL     1     172.543 202.791 199.286  1.00  0.00    -0.000 C 
BRANCH  24  25
ATOM     25  C   UNL     1     172.642 203.171 200.770  1.00  0.00    -0.000 C 
BRANCH  25  26
ATOM     26  C   UNL     1     171.429 203.976 201.270  1.00  0.00    -0.000 C 
BRANCH  26  27
ATOM     27  C   UNL     1     170.802 204.928 200.234  1.00  0.00    -0.000 C 
BRANCH  27  28
ATOM     28  C   UNL     1     170.186 206.185 200.871  1.00  0.00    -0.000 C 
BRANCH  28  29
ATOM     29  C   UNL     1     170.997 206.697 202.072  1.00  0.00    -0.003 C 
ATOM     30  C   UNL     1     171.508 208.125 201.878  1.00  0.00     0.004 C 
ENDBRANCH  28  29
ENDBRANCH  27  28
ENDBRANCH  26  27
ENDBRANCH  25  26
ENDBRANCH  24  25
ENDBRANCH  23  24
ENDBRANCH  22  23
ENDBRANCH  21  22
ENDBRANCH  20  21
ENDBRANCH  19  20
ENDBRANCH  18  19
ENDBRANCH  17  18
ENDBRANCH   1  17
TORSDOF 26
ENDMDL
MODEL 3
REMARK VINA RESULT:    -1.615      1.375      2.432
REMARK INTER + INTRA:          -9.937
REMARK INTER:                  -4.030
REMARK INTRA:                  -5.907
REMARK UNBOUND:                -5.867
REMARK SMILES CCCCCCCCCCCCCCCCCCCCCCCCCCCC(=O)[O-]
REMARK SMILES IDX 15 1 16 2 17 3 18 4 19 5 20 6 21 7 22 8 23 9 24 10 25 11
REMARK SMILES IDX 26 12 27 13 28 14 29 15 30 16 14 17 13 18 12 19 11 20 10 21
REMARK SMILES IDX 9 22 8 23 7 24 6 25 5 26 4 27 3 28 2 29 1 30
REMARK H PARENT
REMARK Flexibility Score: inf
ROOT
ATOM      1  C   UNL     1     176.963 204.135 199.317  1.00  0.00     0.000 C 
ENDROOT
BRANCH   1   2
ATOM      2  C   UNL     1     176.026 203.132 200.014  1.00  0.00     0.000 C 
BRANCH   2   3
ATOM      3  C   UNL     1     176.792 202.056 200.801  1.00  0.00     0.000 C 
BRANCH   3   4
ATOM      4  C   UNL     1     176.827 202.350 202.310  1.00  0.00     0.000 C 
BRANCH   4   5
ATOM      5  C   UNL     1     176.129 203.677 202.664  1.00  0.00     0.000 C 
BRANCH   5   6
ATOM      6  C   UNL     1     177.131 204.794 203.029  1.00  0.00     0.000 C 
BRANCH   6   7
ATOM      7  C   UNL     1     176.623 206.218 202.728  1.00  0.00     0.000 C 
BRANCH   7   8
ATOM      8  C   UNL     1     177.299 206.919 201.534  1.00  0.00     0.000 C 
BRANCH   8   9
ATOM      9  C   UNL     1     176.477 208.053 200.894  1.00  0.00     0.000 C 
BRANCH   9  10
ATOM     10  C   UNL     1     175.222 207.595 200.127  1.00  0.00     0.000 C 
BRANCH  10  11
ATOM     11  C   UNL     1     173.900 208.115 200.732  1.00  0.00     0.000 C 
BRANCH  11  12
ATOM     12  C   UNL     1     173.164 207.038 201.548  1.00  0.00     0.006 C 
BRANCH  12  13
ATOM     13  C   UNL     1     173.396 205.628 200.984  1.00  0.00     0.053 C 
BRANCH  13  14
ATOM     14  C   UNL     1     172.131 204.825 200.967  1.00  0.00     0.041 C 
ATOM     15  O   UNL     1     171.250 205.048 200.096  1.00  0.00    -0.550 OA
ATOM     16  O   UNL     1     171.915 203.848 201.931  1.00  0.00    -0.550 OA
ENDBRANCH  13  14
ENDBRANCH  12  13
ENDBRANCH  11  12
ENDBRANCH  10  11
ENDBRANCH   9  10
ENDBRANCH   8   9
ENDBRANCH   7   8
ENDBRANCH   6   7
ENDBRANCH   5   6
ENDBRANCH   4   5
ENDBRANCH   3   4
ENDBRANCH   2   3
ENDBRANCH   1   2
BRANCH   1  17
ATOM     17  C   UNL     1     178.417 203.649 199.152  1.00  0.00     0.000 C 
BRANCH  17  18
ATOM     18  C   UNL     1     179.468 204.420 199.977  1.00  0.00     0.000 C 
BRANCH  18  19
ATOM     19  C   UNL     1     180.394 205.340 199.159  1.00  0.00     0.000 C 
BRANCH  19  20
ATOM     20  C   UNL     1     179.838 206.764 199.008  1.00  0.00     0.000 C 
BRANCH  20  21
ATOM     21  C   UNL     1     179.328 207.006 197.580  1.00  0.00     0.000 C 
BRANCH  21  22
ATOM     22  C   UNL     1     177.793 207.089 197.495  1.00  0.00    -0.000 C 
BRANCH  22  23
ATOM     23  C   UNL     1     177.247 207.824 196.256  1.00  0.00    -0.000 C 
BRANCH  23  24
ATOM     24  C   UNL     1     176.522 206.891 195.275  1.00  0.00    -0.000 C 
BRANCH  24  25
ATOM     25  C   UNL     1     176.462 205.458 195.827  1.00  0.00    -0.000 C 
BRANCH  25  26
ATOM     26  C   UNL     1     175.183 204.707 195.419  1.00  0.00    -0.000 C 
BRANCH  26  27
ATOM     27  C   UNL     1     174.233 204.352 196.579  1.00  0.00    -0.000 C 
BRANCH  27  28
ATOM     28  C   UNL     1     173.997 205.528 197.542  1.00  0.00    -0.000 C 
BRANCH  28  29
ATOM     29  C   UNL     1     172.827 206.423 197.106  1.00  0.00    -0.003 C 
ATOM     30  C   UNL     1     173.241 207.879 196.892  1.00  0.00     0.004 C 
ENDBRANCH  28  29
ENDBRANCH  27  28
ENDBRANCH  26  27
ENDBRANCH  25  26
ENDBRANCH  24  25
ENDBRANCH  23  24
ENDBRANCH  22  23
ENDBRANCH  21  22
ENDBRANCH  20  21
ENDBRANCH  19  20
ENDBRANCH  18  19
ENDBRANCH  17  18
ENDBRANCH   1  17
TORSDOF 26
ENDMDL
MODEL 4
REMARK VINA RESULT:    -1.564      3.029      7.043
REMARK INTER + INTRA:          -9.808
REMARK INTER:                  -4.266
REMARK INTRA:                  -5.542
REMARK UNBOUND:                -5.867
REMARK SMILES CCCCCCCCCCCCCCCCCCCCCCCCCCCC(=O)[O-]
REMARK SMILES IDX 15 1 16 2 17 3 18 4 19 5 20 6 21 7 22 8 23 9 24 10 25 11
REMARK SMILES IDX 26 12 27 13 28 14 29 15 30 16 14 17 13 18 12 19 11 20 10 21
REMARK SMILES IDX 9 22 8 23 7 24 6 25 5 26 4 27 3 28 2 29 1 30
REMARK H PARENT
REMARK Flexibility Score: inf
ROOT
ATOM      1  C   UNL     1     174.836 206.663 197.738  1.00  0.00     0.000 C 
ENDROOT
BRANCH   1   2
ATOM      2  C   UNL     1     176.095 207.473 197.381  1.00  0.00     0.000 C 
BRANCH   2   3
ATOM      3  C   UNL     1     177.329 207.034 198.188  1.00  0.00     0.000 C 
BRANCH   3   4
ATOM      4  C   UNL     1     178.621 207.093 197.358  1.00  0.00     0.000 C 
BRANCH   4   5
ATOM      5  C   UNL     1     179.884 206.955 198.228  1.00  0.00     0.000 C 
BRANCH   5   6
ATOM      6  C   UNL     1     179.629 207.329 199.705  1.00  0.00     0.000 C 
BRANCH   6   7
ATOM      7  C   UNL     1     180.170 206.300 200.717  1.00  0.00     0.000 C 
BRANCH   7   8
ATOM      8  C   UNL     1     180.118 204.831 200.254  1.00  0.00     0.000 C 
BRANCH   8   9
ATOM      9  C   UNL     1     178.925 204.020 200.795  1.00  0.00     0.000 C 
BRANCH   9  10
ATOM     10  C   UNL     1     178.296 203.039 199.789  1.00  0.00     0.000 C 
BRANCH  10  11
ATOM     11  C   UNL     1     177.664 203.728 198.560  1.00  0.00     0.000 C 
BRANCH  11  12
ATOM     12  C   UNL     1     178.418 203.411 197.257  1.00  0.00     0.006 C 
BRANCH  12  13
ATOM     13  C   UNL     1     177.461 203.203 196.074  1.00  0.00     0.053 C 
BRANCH  13  14
ATOM     14  C   UNL     1     177.476 204.373 195.138  1.00  0.00     0.041 C 
ATOM     15  O   UNL     1     176.395 204.864 194.721  1.00  0.00    -0.550 OA
ATOM     16  O   UNL     1     178.685 204.901 194.704  1.00  0.00    -0.550 OA
ENDBRANCH  13  14
ENDBRANCH  12  13
ENDBRANCH  11  12
ENDBRANCH  10  11
ENDBRANCH   9  10
ENDBRANCH   8   9
ENDBRANCH   7   8
ENDBRANCH   6   7
ENDBRANCH   5   6
ENDBRANCH   4   5
ENDBRANCH   3   4
ENDBRANCH   2   3
ENDBRANCH   1   2
BRANCH   1  17
ATOM     17  C   UNL     1     173.568 207.512 197.964  1.00  0.00     0.000 C 
BRANCH  17  18
ATOM     18  C   UNL     1     173.334 207.974 199.417  1.00  0.00     0.000 C 
BRANCH  18  19
ATOM     19  C   UNL     1     172.024 207.481 200.056  1.00  0.00     0.000 C 
BRANCH  19  20
ATOM     20  C   UNL     1     172.102 207.394 201.588  1.00  0.00     0.000 C 
BRANCH  20  21
ATOM     21  C   UNL     1     171.253 206.227 202.115  1.00  0.00     0.000 C 
BRANCH  21  22
ATOM     22  C   UNL     1     172.092 205.132 202.797  1.00  0.00    -0.000 C 
BRANCH  22  23
ATOM     23  C   UNL     1     172.218 203.817 202.004  1.00  0.00    -0.000 C 
BRANCH  23  24
ATOM     24  C   UNL     1     172.116 204.020 200.485  1.00  0.00    -0.000 C 
BRANCH  24  25
ATOM     25  C   UNL     1     173.438 203.652 199.795  1.00  0.00    -0.000 C 
BRANCH  25  26
ATOM     26  C   UNL     1     174.667 203.844 200.702  1.00  0.00    -0.000 C 
BRANCH  26  27
ATOM     27  C   UNL     1     175.240 205.273 200.737  1.00  0.00    -0.000 C 
BRANCH  27  28
ATOM     28  C   UNL     1     175.531 205.768 202.163  1.00  0.00    -0.000 C 
BRANCH  28  29
ATOM     29  C   UNL     1     176.686 206.780 202.214  1.00  0.00    -0.003 C 
ATOM     30  C   UNL     1     176.358 208.090 201.496  1.00  0.00     0.004 C 
ENDBRANCH  28  29
ENDBRANCH  27  28
ENDBRANCH  26  27
ENDBRANCH  25  26
ENDBRANCH  24  25
ENDBRANCH  23  24
ENDBRANCH  22  23
ENDBRANCH  21  22
ENDBRANCH  20  21
ENDBRANCH  19  20
ENDBRANCH  18  19
ENDBRANCH  17  18
ENDBRANCH   1  17
TORSDOF 26
ENDMDL
MODEL 5
REMARK VINA RESULT:    -1.549      2.921      6.142
REMARK INTER + INTRA:          -9.771
REMARK INTER:                  -3.563
REMARK INTRA:                  -6.208
REMARK UNBOUND:                -5.867
REMARK SMILES CCCCCCCCCCCCCCCCCCCCCCCCCCCC(=O)[O-]
REMARK SMILES IDX 15 1 16 2 17 3 18 4 19 5 20 6 21 7 22 8 23 9 24 10 25 11
REMARK SMILES IDX 26 12 27 13 28 14 29 15 30 16 14 17 13 18 12 19 11 20 10 21
REMARK SMILES IDX 9 22 8 23 7 24 6 25 5 26 4 27 3 28 2 29 1 30
REMARK H PARENT
REMARK Flexibility Score: inf
ROOT
ATOM      1  C   UNL     1     175.387 205.870 199.164  1.00  0.00     0.000 C 
ENDROOT
BRANCH   1   2
ATOM      2  C   UNL     1     175.773 206.451 197.792  1.00  0.00     0.000 C 
BRANCH   2   3
ATOM      3  C   UNL     1     176.713 207.663 197.907  1.00  0.00     0.000 C 
BRANCH   3   4
ATOM      4  C   UNL     1     178.164 207.251 198.201  1.00  0.00     0.000 C 
BRANCH   4   5
ATOM      5  C   UNL     1     178.636 207.717 199.590  1.00  0.00     0.000 C 
BRANCH   5   6
ATOM      6  C   UNL     1     180.115 207.365 199.862  1.00  0.00     0.000 C 
BRANCH   6   7
ATOM      7  C   UNL     1     180.722 206.372 198.851  1.00  0.00     0.000 C 
BRANCH   7   8
ATOM      8  C   UNL     1     181.087 204.989 199.426  1.00  0.00     0.000 C 
BRANCH   8   9
ATOM      9  C   UNL     1     180.777 203.798 198.499  1.00  0.00     0.000 C 
BRANCH   9  10
ATOM     10  C   UNL     1     179.444 203.897 197.735  1.00  0.00     0.000 C 
BRANCH  10  11
ATOM     11  C   UNL     1     178.206 203.579 198.601  1.00  0.00     0.000 C 
BRANCH  11  12
ATOM     12  C   UNL     1     177.127 202.806 197.823  1.00  0.00     0.006 C 
BRANCH  12  13
ATOM     13  C   UNL     1     177.415 202.775 196.315  1.00  0.00     0.053 C 
BRANCH  13  14
ATOM     14  C   UNL     1     176.479 203.664 195.555  1.00  0.00     0.041 C 
ATOM     15  O   UNL     1     175.240 203.438 195.567  1.00  0.00    -0.550 OA
ATOM     16  O   UNL     1     176.978 204.725 194.810  1.00  0.00    -0.550 OA
ENDBRANCH  13  14
ENDBRANCH  12  13
ENDBRANCH  11  12
ENDBRANCH  10  11
ENDBRANCH   9  10
ENDBRANCH   8   9
ENDBRANCH   7   8
ENDBRANCH   6   7
ENDBRANCH   5   6
ENDBRANCH   4   5
ENDBRANCH   3   4
ENDBRANCH   2   3
ENDBRANCH   1   2
BRANCH   1  17
ATOM     17  C   UNL     1     174.771 206.889 200.144  1.00  0.00     0.000 C 
BRANCH  17  18
ATOM     18  C   UNL     1     175.527 207.062 201.477  1.00  0.00     0.000 C 
BRANCH  18  19
ATOM     19  C   UNL     1     175.587 205.803 202.362  1.00  0.00     0.000 C 
BRANCH  19  20
ATOM     20  C   UNL     1     176.953 205.614 203.040  1.00  0.00     0.000 C 
BRANCH  20  21
ATOM     21  C   UNL     1     178.029 205.239 202.010  1.00  0.00     0.000 C 
BRANCH  21  22
ATOM     22  C   UNL     1     179.368 204.842 202.656  1.00  0.00    -0.000 C 
BRANCH  22  23
ATOM     23  C   UNL     1     179.491 203.356 203.043  1.00  0.00    -0.000 C 
BRANCH  23  24
ATOM     24  C   UNL     1     179.564 202.421 201.826  1.00  0.00    -0.000 C 
BRANCH  24  25
ATOM     25  C   UNL     1     178.328 201.513 201.760  1.00  0.00    -0.000 C 
BRANCH  25  26
ATOM     26  C   UNL     1     177.403 201.660 202.981  1.00  0.00    -0.000 C 
BRANCH  26  27
ATOM     27  C   UNL     1     175.932 201.981 202.655  1.00  0.00    -0.000 C 
BRANCH  27  28
ATOM     28  C   UNL     1     175.727 202.443 201.203  1.00  0.00    -0.000 C 
BRANCH  28  29
ATOM     29  C   UNL     1     174.643 201.636 200.473  1.00  0.00    -0.003 C 
ATOM     30  C   UNL     1     173.808 202.490 199.518  1.00  0.00     0.004 C 
ENDBRANCH  28  29
ENDBRANCH  27  28
ENDBRANCH  26  27
ENDBRANCH  25  26
ENDBRANCH  24  25
ENDBRANCH  23  24
ENDBRANCH  22  23
ENDBRANCH  21  22
ENDBRANCH  20  21
ENDBRANCH  19  20
ENDBRANCH  18  19
ENDBRANCH  17  18
ENDBRANCH   1  17
TORSDOF 26
ENDMDL
MODEL 6
REMARK VINA RESULT:    -1.541      2.585      4.125
REMARK INTER + INTRA:          -9.749
REMARK INTER:                  -3.854
REMARK INTRA:                  -5.895
REMARK UNBOUND:                -5.867
REMARK SMILES CCCCCCCCCCCCCCCCCCCCCCCCCCCC(=O)[O-]
REMARK SMILES IDX 15 1 16 2 17 3 18 4 19 5 20 6 21 7 22 8 23 9 24 10 25 11
REMARK SMILES IDX 26 12 27 13 28 14 29 15 30 16 14 17 13 18 12 19 11 20 10 21
REMARK SMILES IDX 9 22 8 23 7 24 6 25 5 26 4 27 3 28 2 29 1 30
REMARK H PARENT
REMARK Flexibility Score: inf
ROOT
ATOM      1  C   UNL     1     177.969 203.981 199.778  1.00  0.00     0.000 C 
ENDROOT
BRANCH   1   2
ATOM      2  C   UNL     1     176.921 203.289 200.667  1.00  0.00     0.000 C 
BRANCH   2   3
ATOM      3  C   UNL     1     175.875 204.271 201.223  1.00  0.00     0.000 C 
BRANCH   3   4
ATOM      4  C   UNL     1     176.164 204.668 202.680  1.00  0.00     0.000 C 
BRANCH   4   5
ATOM      5  C   UNL     1     176.501 206.164 202.824  1.00  0.00     0.000 C 
BRANCH   5   6
ATOM      6  C   UNL     1     175.855 207.025 201.717  1.00  0.00     0.000 C 
BRANCH   6   7
ATOM      7  C   UNL     1     176.814 208.047 201.075  1.00  0.00     0.000 C 
BRANCH   7   8
ATOM      8  C   UNL     1     176.928 207.969 199.540  1.00  0.00     0.000 C 
BRANCH   8   9
ATOM      9  C   UNL     1     175.596 207.737 198.800  1.00  0.00     0.000 C 
BRANCH   9  10
ATOM     10  C   UNL     1     175.554 206.476 197.917  1.00  0.00     0.000 C 
BRANCH  10  11
ATOM     11  C   UNL     1     174.299 205.604 198.140  1.00  0.00     0.000 C 
BRANCH  11  12
ATOM     12  C   UNL     1     174.541 204.126 197.787  1.00  0.00     0.006 C 
BRANCH  12  13
ATOM     13  C   UNL     1     173.330 203.496 197.083  1.00  0.00     0.053 C 
BRANCH  13  14
ATOM     14  C   UNL     1     172.882 204.318 195.913  1.00  0.00     0.041 C 
ATOM     15  O   UNL     1     173.625 204.445 194.905  1.00  0.00    -0.550 OA
ATOM     16  O   UNL     1     171.654 204.967 195.949  1.00  0.00    -0.550 OA
ENDBRANCH  13  14
ENDBRANCH  12  13
ENDBRANCH  11  12
ENDBRANCH  10  11
ENDBRANCH   9  10
ENDBRANCH   8   9
ENDBRANCH   7   8
ENDBRANCH   6   7
ENDBRANCH   5   6
ENDBRANCH   4   5
ENDBRANCH   3   4
ENDBRANCH   2   3
ENDBRANCH   1   2
BRANCH   1  17
ATOM     17  C   UNL     1     179.359 204.140 200.426  1.00  0.00     0.000 C 
BRANCH  17  18
ATOM     18  C   UNL     1     179.568 205.442 201.227  1.00  0.00     0.000 C 
BRANCH  18  19
ATOM     19  C   UNL     1     180.247 206.585 200.450  1.00  0.00     0.000 C 
BRANCH  19  20
ATOM     20  C   UNL     1     181.124 206.081 199.293  1.00  0.00     0.000 C 
BRANCH  20  21
ATOM     21  C   UNL     1     180.994 206.996 198.067  1.00  0.00     0.000 C 
BRANCH  21  22
ATOM     22  C   UNL     1     179.566 207.035 197.493  1.00  0.00    -0.000 C 
BRANCH  22  23
ATOM     23  C   UNL     1     179.477 207.333 195.984  1.00  0.00    -0.000 C 
BRANCH  23  24
ATOM     24  C   UNL     1     178.038 207.292 195.448  1.00  0.00    -0.000 C 
BRANCH  24  25
ATOM     25  C   UNL     1     177.887 206.210 194.368  1.00  0.00    -0.000 C 
BRANCH  25  26
ATOM     26  C   UNL     1     177.104 204.977 194.853  1.00  0.00    -0.000 C 
BRANCH  26  27
ATOM     27  C   UNL     1     177.764 204.191 196.001  1.00  0.00    -0.000 C 
BRANCH  27  28
ATOM     28  C   UNL     1     178.988 203.378 195.545  1.00  0.00    -0.000 C 
BRANCH  28  29
ATOM     29  C   UNL     1     180.227 203.636 196.418  1.00  0.00    -0.003 C 
ATOM     30  C   UNL     1     180.516 202.493 197.391  1.00  0.00     0.004 C 
ENDBRANCH  28  29
ENDBRANCH  27  28
ENDBRANCH  26  27
ENDBRANCH  25  26
ENDBRANCH  24  25
ENDBRANCH  23  24
ENDBRANCH  22  23
ENDBRANCH  21  22
ENDBRANCH  20  21
ENDBRANCH  19  20
ENDBRANCH  18  19
ENDBRANCH  17  18
ENDBRANCH   1  17
TORSDOF 26
ENDMDL
MODEL 7
REMARK VINA RESULT:    -1.516      2.571      4.757
REMARK INTER + INTRA:          -9.687
REMARK INTER:                  -3.434
REMARK INTRA:                  -6.252
REMARK UNBOUND:                -5.867
REMARK SMILES CCCCCCCCCCCCCCCCCCCCCCCCCCCC(=O)[O-]
REMARK SMILES IDX 15 1 16 2 17 3 18 4 19 5 20 6 21 7 22 8 23 9 24 10 25 11
REMARK SMILES IDX 26 12 27 13 28 14 29 15 30 16 14 17 13 18 12 19 11 20 10 21
REMARK SMILES IDX 9 22 8 23 7 24 6 25 5 26 4 27 3 28 2 29 1 30
REMARK H PARENT
REMARK Flexibility Score: inf
ROOT
ATOM      1  C   UNL     1     177.584 207.743 198.892  1.00  0.00     0.000 C 
ENDROOT
BRANCH   1   2
ATOM      2  C   UNL     1     177.503 208.121 200.383  1.00  0.00     0.000 C 
BRANCH   2   3
ATOM      3  C   UNL     1     176.124 207.821 200.995  1.00  0.00     0.000 C 
BRANCH   3   4
ATOM      4  C   UNL     1     176.232 207.181 202.388  1.00  0.00     0.000 C 
BRANCH   4   5
ATOM      5  C   UNL     1     177.214 205.995 202.414  1.00  0.00     0.000 C 
BRANCH   5   6
ATOM      6  C   UNL     1     176.570 204.704 202.967  1.00  0.00     0.000 C 
BRANCH   6   7
ATOM      7  C   UNL     1     175.029 204.719 202.963  1.00  0.00     0.000 C 
BRANCH   7   8
ATOM      8  C   UNL     1     174.367 204.006 201.767  1.00  0.00     0.000 C 
BRANCH   8   9
ATOM      9  C   UNL     1     172.828 204.065 201.746  1.00  0.00     0.000 C 
BRANCH   9  10
ATOM     10  C   UNL     1     172.234 205.311 201.061  1.00  0.00     0.000 C 
BRANCH  10  11
ATOM     11  C   UNL     1     173.277 206.155 200.297  1.00  0.00     0.000 C 
BRANCH  11  12
ATOM     12  C   UNL     1     172.878 206.394 198.830  1.00  0.00     0.006 C 
BRANCH  12  13
ATOM     13  C   UNL     1     173.842 207.355 198.119  1.00  0.00     0.053 C 
BRANCH  13  14
ATOM     14  C   UNL     1     173.731 207.248 196.629  1.00  0.00     0.041 C 
ATOM     15  O   UNL     1     174.763 207.083 195.927  1.00  0.00    -0.550 OA
ATOM     16  O   UNL     1     172.490 207.358 196.014  1.00  0.00    -0.550 OA
ENDBRANCH  13  14
ENDBRANCH  12  13
ENDBRANCH  11  12
ENDBRANCH  10  11
ENDBRANCH   9  10
ENDBRANCH   8   9
ENDBRANCH   7   8
ENDBRANCH   6   7
ENDBRANCH   5   6
ENDBRANCH   4   5
ENDBRANCH   3   4
ENDBRANCH   2   3
ENDBRANCH   1   2
BRANCH   1  17
ATOM     17  C   UNL     1     178.972 207.260 198.426  1.00  0.00     0.000 C 
BRANCH  17  18
ATOM     18  C   UNL     1     179.917 206.786 199.549  1.00  0.00     0.000 C 
BRANCH  18  19
ATOM     19  C   UNL     1     179.962 205.263 199.765  1.00  0.00     0.000 C 
BRANCH  19  20
ATOM     20  C   UNL     1     179.787 204.469 198.461  1.00  0.00     0.000 C 
BRANCH  20  21
ATOM     21  C   UNL     1     178.618 203.479 198.575  1.00  0.00     0.000 C 
BRANCH  21  22
ATOM     22  C   UNL     1     177.512 203.959 199.531  1.00  0.00    -0.000 C 
BRANCH  22  23
ATOM     23  C   UNL     1     176.274 204.567 198.846  1.00  0.00    -0.000 C 
BRANCH  23  24
ATOM     24  C   UNL     1     176.231 204.297 197.334  1.00  0.00    -0.000 C 
BRANCH  24  25
ATOM     25  C   UNL     1     175.105 203.313 196.987  1.00  0.00    -0.000 C 
BRANCH  25  26
ATOM     26  C   UNL     1     174.136 203.065 198.157  1.00  0.00    -0.000 C 
BRANCH  26  27
ATOM     27  C   UNL     1     174.229 201.669 198.801  1.00  0.00    -0.000 C 
BRANCH  27  28
ATOM     28  C   UNL     1     175.373 200.818 198.225  1.00  0.00    -0.000 C 
BRANCH  28  29
ATOM     29  C   UNL     1     176.299 200.256 199.315  1.00  0.00    -0.003 C 
ATOM     30  C   UNL     1     176.047 200.881 200.688  1.00  0.00     0.004 C 
ENDBRANCH  28  29
ENDBRANCH  27  28
ENDBRANCH  26  27
ENDBRANCH  25  26
ENDBRANCH  24  25
ENDBRANCH  23  24
ENDBRANCH  22  23
ENDBRANCH  21  22
ENDBRANCH  20  21
ENDBRANCH  19  20
ENDBRANCH  18  19
ENDBRANCH  17  18
ENDBRANCH   1  17
TORSDOF 26
ENDMDL
MODEL 8
REMARK VINA RESULT:    -1.485      3.935      7.273
REMARK INTER + INTRA:          -9.610
REMARK INTER:                  -3.735
REMARK INTRA:                  -5.875
REMARK UNBOUND:                -5.867
REMARK SMILES CCCCCCCCCCCCCCCCCCCCCCCCCCCC(=O)[O-]
REMARK SMILES IDX 15 1 16 2 17 3 18 4 19 5 20 6 21 7 22 8 23 9 24 10 25 11
REMARK SMILES IDX 26 12 27 13 28 14 29 15 30 16 14 17 13 18 12 19 11 20 10 21
REMARK SMILES IDX 9 22 8 23 7 24 6 25 5 26 4 27 3 28 2 29 1 30
REMARK H PARENT
REMARK Flexibility Score: inf
ROOT
ATOM      1  C   UNL     1     175.384 206.181 197.452  1.00  0.00     0.000 C 
ENDROOT
BRANCH   1   2
ATOM      2  C   UNL     1     176.773 205.897 198.051  1.00  0.00     0.000 C 
BRANCH   2   3
ATOM      3  C   UNL     1     177.915 206.198 197.066  1.00  0.00     0.000 C 
BRANCH   3   4
ATOM      4  C   UNL     1     179.020 207.059 197.699  1.00  0.00     0.000 C 
BRANCH   4   5
ATOM      5  C   UNL     1     178.716 207.418 199.165  1.00  0.00     0.000 C 
BRANCH   5   6
ATOM      6  C   UNL     1     179.939 207.226 200.088  1.00  0.00     0.000 C 
BRANCH   6   7
ATOM      7  C   UNL     1     180.512 205.795 200.084  1.00  0.00     0.000 C 
BRANCH   7   8
ATOM      8  C   UNL     1     179.479 204.672 200.304  1.00  0.00     0.000 C 
BRANCH   8   9
ATOM      9  C   UNL     1     179.509 203.545 199.254  1.00  0.00     0.000 C 
BRANCH   9  10
ATOM     10  C   UNL     1     180.678 203.618 198.254  1.00  0.00     0.000 C 
BRANCH  10  11
ATOM     11  C   UNL     1     180.461 202.771 196.982  1.00  0.00     0.000 C 
BRANCH  11  12
ATOM     12  C   UNL     1     179.912 203.602 195.809  1.00  0.00     0.006 C 
BRANCH  12  13
ATOM     13  C   UNL     1     180.958 203.797 194.702  1.00  0.00     0.053 C 
BRANCH  13  14
ATOM     14  C   UNL     1     180.885 205.171 194.108  1.00  0.00     0.041 C 
ATOM     15  O   UNL     1     180.972 206.186 194.847  1.00  0.00    -0.550 OA
ATOM     16  O   UNL     1     180.692 205.328 192.741  1.00  0.00    -0.550 OA
ENDBRANCH  13  14
ENDBRANCH  12  13
ENDBRANCH  11  12
ENDBRANCH  10  11
ENDBRANCH   9  10
ENDBRANCH   8   9
ENDBRANCH   7   8
ENDBRANCH   6   7
ENDBRANCH   5   6
ENDBRANCH   4   5
ENDBRANCH   3   4
ENDBRANCH   2   3
ENDBRANCH   1   2
BRANCH   1  17
ATOM     17  C   UNL     1     174.413 206.916 198.399  1.00  0.00     0.000 C 
BRANCH  17  18
ATOM     18  C   UNL     1     175.038 208.057 199.228  1.00  0.00     0.000 C 
BRANCH  18  19
ATOM     19  C   UNL     1     174.904 207.903 200.754  1.00  0.00     0.000 C 
BRANCH  19  20
ATOM     20  C   UNL     1     176.231 208.125 201.496  1.00  0.00     0.000 C 
BRANCH  20  21
ATOM     21  C   UNL     1     176.604 206.893 202.335  1.00  0.00     0.000 C 
BRANCH  21  22
ATOM     22  C   UNL     1     176.276 205.564 201.633  1.00  0.00    -0.000 C 
BRANCH  22  23
ATOM     23  C   UNL     1     175.749 204.450 202.556  1.00  0.00    -0.000 C 
BRANCH  23  24
ATOM     24  C   UNL     1     174.395 203.884 202.102  1.00  0.00    -0.000 C 
BRANCH  24  25
ATOM     25  C   UNL     1     174.157 204.167 200.611  1.00  0.00    -0.000 C 
BRANCH  25  26
ATOM     26  C   UNL     1     174.382 202.934 199.719  1.00  0.00    -0.000 C 
BRANCH  26  27
ATOM     27  C   UNL     1     175.855 202.611 199.405  1.00  0.00    -0.000 C 
BRANCH  27  28
ATOM     28  C   UNL     1     176.014 201.554 198.300  1.00  0.00    -0.000 C 
BRANCH  28  29
ATOM     29  C   UNL     1     176.747 202.097 197.063  1.00  0.00    -0.003 C 
ATOM     30  C   UNL     1     175.809 202.790 196.074  1.00  0.00     0.004 C 
ENDBRANCH  28  29
ENDBRANCH  27  28
ENDBRANCH  26  27
ENDBRANCH  25  26
ENDBRANCH  24  25
ENDBRANCH  23  24
ENDBRANCH  22  23
ENDBRANCH  21  22
ENDBRANCH  20  21
ENDBRANCH  19  20
ENDBRANCH  18  19
ENDBRANCH  17  18
ENDBRANCH   1  17
TORSDOF 26
ENDMDL
MODEL 9
REMARK VINA RESULT:    -1.441      2.633      4.374
REMARK INTER + INTRA:          -9.498
REMARK INTER:                  -3.753
REMARK INTRA:                  -5.745
REMARK UNBOUND:                -5.867
REMARK SMILES CCCCCCCCCCCCCCCCCCCCCCCCCCCC(=O)[O-]
REMARK SMILES IDX 15 1 16 2 17 3 18 4 19 5 20 6 21 7 22 8 23 9 24 10 25 11
REMARK SMILES IDX 26 12 27 13 28 14 29 15 30 16 14 17 13 18 12 19 11 20 10 21
REMARK SMILES IDX 9 22 8 23 7 24 6 25 5 26 4 27 3 28 2 29 1 30
REMARK H PARENT
REMARK Flexibility Score: inf
ROOT
ATOM      1  C   UNL     1     174.063 202.606 201.196  1.00  0.00     0.000 C 
ENDROOT
BRANCH   1   2
ATOM      2  C   UNL     1     173.754 204.088 201.480  1.00  0.00     0.000 C 
BRANCH   2   3
ATOM      3  C   UNL     1     172.284 204.448 201.207  1.00  0.00     0.000 C 
BRANCH   3   4
ATOM      4  C   UNL     1     171.997 205.941 201.433  1.00  0.00     0.000 C 
BRANCH   4   5
ATOM      5  C   UNL     1     173.229 206.701 201.958  1.00  0.00     0.000 C 
BRANCH   5   6
ATOM      6  C   UNL     1     173.478 208.023 201.199  1.00  0.00     0.000 C 
BRANCH   6   7
ATOM      7  C   UNL     1     174.650 207.963 200.200  1.00  0.00     0.000 C 
BRANCH   7   8
ATOM      8  C   UNL     1     174.364 207.196 198.894  1.00  0.00     0.000 C 
BRANCH   8   9
ATOM      9  C   UNL     1     175.173 205.898 198.711  1.00  0.00     0.000 C 
BRANCH   9  10
ATOM     10  C   UNL     1     174.417 204.754 198.011  1.00  0.00     0.000 C 
BRANCH  10  11
ATOM     11  C   UNL     1     175.337 203.625 197.498  1.00  0.00     0.000 C 
BRANCH  11  12
ATOM     12  C   UNL     1     176.796 204.086 197.331  1.00  0.00     0.006 C 
BRANCH  12  13
ATOM     13  C   UNL     1     177.761 203.271 198.203  1.00  0.00     0.053 C 
BRANCH  13  14
ATOM     14  C   UNL     1     177.741 201.818 197.842  1.00  0.00     0.041 C 
ATOM     15  O   UNL     1     177.881 201.461 196.643  1.00  0.00    -0.550 OA
ATOM     16  O   UNL     1     177.540 200.858 198.826  1.00  0.00    -0.550 OA
ENDBRANCH  13  14
ENDBRANCH  12  13
ENDBRANCH  11  12
ENDBRANCH  10  11
ENDBRANCH   9  10
ENDBRANCH   8   9
ENDBRANCH   7   8
ENDBRANCH   6   7
ENDBRANCH   5   6
ENDBRANCH   4   5
ENDBRANCH   3   4
ENDBRANCH   2   3
ENDBRANCH   1   2
BRANCH   1  17
ATOM     17  C   UNL     1     175.503 202.173 201.538  1.00  0.00     0.000 C 
BRANCH  17  18
ATOM     18  C   UNL     1     176.545 203.310 201.565  1.00  0.00     0.000 C 
BRANCH  18  19
ATOM     19  C   UNL     1     177.235 203.530 202.924  1.00  0.00     0.000 C 
BRANCH  19  20
ATOM     20  C   UNL     1     177.709 204.977 203.125  1.00  0.00     0.000 C 
BRANCH  20  21
ATOM     21  C   UNL     1     176.904 205.946 202.245  1.00  0.00     0.000 C 
BRANCH  21  22
ATOM     22  C   UNL     1     177.777 206.699 201.225  1.00  0.00    -0.000 C 
BRANCH  22  23
ATOM     23  C   UNL     1     178.992 205.912 200.698  1.00  0.00    -0.000 C 
BRANCH  23  24
ATOM     24  C   UNL     1     179.550 206.477 199.383  1.00  0.00    -0.000 C 
BRANCH  24  25
ATOM     25  C   UNL     1     178.530 207.410 198.714  1.00  0.00    -0.000 C 
BRANCH  25  26
ATOM     26  C   UNL     1     178.484 207.256 197.183  1.00  0.00    -0.000 C 
BRANCH  26  27
ATOM     27  C   UNL     1     177.199 207.774 196.510  1.00  0.00    -0.000 C 
BRANCH  27  28
ATOM     28  C   UNL     1     177.374 208.034 195.005  1.00  0.00    -0.000 C 
BRANCH  28  29
ATOM     29  C   UNL     1     176.106 207.712 194.198  1.00  0.00    -0.003 C 
ATOM     30  C   UNL     1     174.970 207.172 195.068  1.00  0.00     0.004 C 
ENDBRANCH  28  29
ENDBRANCH  27  28
ENDBRANCH  26  27
ENDBRANCH  25  26
ENDBRANCH  24  25
ENDBRANCH  23  24
ENDBRANCH  22  23
ENDBRANCH  21  22
ENDBRANCH  20  21
ENDBRANCH  19  20
ENDBRANCH  18  19
ENDBRANCH  17  18
ENDBRANCH   1  17
TORSDOF 26
ENDMDL
