MODEL 1
REMARK VINA RESULT:    -3.469      0.000      0.000
REMARK INTER + INTRA:          -4.221
REMARK INTER:                  -4.178
REMARK INTRA:                  -0.043
REMARK UNBOUND:                -0.043
REMARK SMILES CCCCCO
REMARK SMILES IDX 4 1 3 2 2 3 1 4 5 5 6 6
REMARK H PARENT 6 7
REMARK Flexibility Score: inf
ROOT
ATOM      1  C   UNL     1      16.011   1.407 -25.317  1.00  0.00     0.028 C 
ENDROOT
BRANCH   1   2
ATOM      2  C   UNL     1      16.151   0.065 -24.578  1.00  0.00     0.002 C 
BRANCH   2   3
ATOM      3  C   UNL     1      16.743   0.216 -23.170  1.00  0.00    -0.003 C 
ATOM      4  C   UNL     1      17.128   1.665 -22.887  1.00  0.00     0.004 C 
ENDBRANCH   2   3
ENDBRANCH   1   2
BRANCH   1   5
ATOM      5  C   UNL     1      16.863   1.497 -26.588  1.00  0.00     0.156 C 
BRANCH   5   6
ATOM      6  O   UNL     1      17.163   2.833 -26.880  1.00  0.00    -0.396 OA
ATOM      7  H   UNL     1      17.318   3.279 -26.007  1.00  0.00     0.210 HD
ENDBRANCH   5   6
ENDBRANCH   1   5
TORSDOF 4
ENDMDL
MODEL 2
REMARK VINA RESULT:    -3.440      8.991      9.890
REMARK INTER + INTRA:          -4.187
REMARK INTER:                  -4.146
REMARK INTRA:                  -0.042
REMARK UNBOUND:                -0.043
REMARK SMILES CCCCCO
REMARK SMILES IDX 4 1 3 2 2 3 1 4 5 5 6 6
REMARK H PARENT 6 7
REMARK Flexibility Score: inf
ROOT
ATOM      1  C   UNL     1      19.788   0.103 -15.238  1.00  0.00     0.028 C 
ENDROOT
BRANCH   1   2
ATOM      2  C   UNL     1      19.934  -1.397 -15.547  1.00  0.00     0.002 C 
BRANCH   2   3
ATOM      3  C   UNL     1      20.645  -1.667 -16.879  1.00  0.00    -0.003 C 
ATOM      4  C   UNL     1      19.718  -2.373 -17.865  1.00  0.00     0.004 C 
ENDBRANCH   2   3
ENDBRANCH   1   2
BRANCH   1   5
ATOM      5  C   UNL     1      18.550   0.741 -15.877  1.00  0.00     0.156 C 
BRANCH   5   6
ATOM      6  O   UNL     1      17.506   0.819 -14.946  1.00  0.00    -0.396 OA
ATOM      7  H   UNL     1      16.768   0.266 -15.312  1.00  0.00     0.210 HD
ENDBRANCH   5   6
ENDBRANCH   1   5
TORSDOF 4
ENDMDL
MODEL 3
REMARK VINA RESULT:    -3.370      2.435      3.421
REMARK INTER + INTRA:          -4.103
REMARK INTER:                  -4.058
REMARK INTRA:                  -0.044
REMARK UNBOUND:                -0.043
REMARK SMILES CCCCCO
REMARK SMILES IDX 4 1 3 2 2 3 1 4 5 5 6 6
REMARK H PARENT 6 7
REMARK Flexibility Score: inf
ROOT
ATOM      1  C   UNL     1      16.365  -0.420 -24.511  1.00  0.00     0.028 C 
ENDROOT
BRANCH   1   2
ATOM      2  C   UNL     1      15.680   0.450 -25.578  1.00  0.00     0.002 C 
BRANCH   2   3
ATOM      3  C   UNL     1      15.902   1.952 -25.359  1.00  0.00    -0.003 C 
ATOM      4  C   UNL     1      17.076   2.463 -26.188  1.00  0.00     0.004 C 
ENDBRANCH   2   3
ENDBRANCH   1   2
BRANCH   1   5
ATOM      5  C   UNL     1      16.606   0.314 -23.187  1.00  0.00     0.156 C 
BRANCH   5   6
ATOM      6  O   UNL     1      17.392  -0.468 -22.332  1.00  0.00    -0.396 OA
ATOM      7  H   UNL     1      18.108  -0.860 -22.896  1.00  0.00     0.210 HD
ENDBRANCH   5   6
ENDBRANCH   1   5
TORSDOF 4
ENDMDL
MODEL 4
REMARK VINA RESULT:    -3.348      8.846      9.530
REMARK INTER + INTRA:          -4.076
REMARK INTER:                  -4.033
REMARK INTRA:                  -0.044
REMARK UNBOUND:                -0.043
REMARK SMILES CCCCCO
REMARK SMILES IDX 4 1 3 2 2 3 1 4 5 5 6 6
REMARK H PARENT 6 7
REMARK Flexibility Score: inf
ROOT
ATOM      1  C   UNL     1      20.462  -1.887 -16.410  1.00  0.00     0.028 C 
ENDROOT
BRANCH   1   2
ATOM      2  C   UNL     1      19.760  -0.863 -15.502  1.00  0.00     0.002 C 
BRANCH   2   3
ATOM      3  C   UNL     1      19.031   0.235 -16.288  1.00  0.00    -0.003 C 
ATOM      4  C   UNL     1      18.148   1.075 -15.371  1.00  0.00     0.004 C 
ENDBRANCH   2   3
ENDBRANCH   1   2
BRANCH   1   5
ATOM      5  C   UNL     1      19.705  -2.168 -17.713  1.00  0.00     0.156 C 
BRANCH   5   6
ATOM      6  O   UNL     1      19.064  -3.411 -17.646  1.00  0.00    -0.396 OA
ATOM      7  H   UNL     1      19.771  -4.075 -17.437  1.00  0.00     0.210 HD
ENDBRANCH   5   6
ENDBRANCH   1   5
TORSDOF 4
ENDMDL
MODEL 5
REMARK VINA RESULT:    -3.309      8.682      9.761
REMARK INTER + INTRA:          -4.029
REMARK INTER:                  -3.965
REMARK INTRA:                  -0.064
REMARK UNBOUND:                -0.043
REMARK SMILES CCCCCO
REMARK SMILES IDX 4 1 3 2 2 3 1 4 5 5 6 6
REMARK H PARENT 6 7
REMARK Flexibility Score: inf
ROOT
ATOM      1  C   UNL     1      19.693  -1.135 -17.177  1.00  0.00     0.028 C 
ENDROOT
BRANCH   1   2
ATOM      2  C   UNL     1      19.935  -1.480 -15.698  1.00  0.00     0.002 C 
BRANCH   2   3
ATOM      3  C   UNL     1      21.423  -1.504 -15.325  1.00  0.00    -0.003 C 
ATOM      4  C   UNL     1      22.096  -0.175 -15.656  1.00  0.00     0.004 C 
ENDBRANCH   2   3
ENDBRANCH   1   2
BRANCH   1   5
ATOM      5  C   UNL     1      19.824  -2.341 -18.116  1.00  0.00     0.156 C 
BRANCH   5   6
ATOM      6  O   UNL     1      19.052  -3.410 -17.645  1.00  0.00    -0.396 OA
ATOM      7  H   UNL     1      18.185  -3.356 -18.123  1.00  0.00     0.210 HD
ENDBRANCH   5   6
ENDBRANCH   1   5
TORSDOF 4
ENDMDL
MODEL 6
REMARK VINA RESULT:    -3.226     16.404     16.963
REMARK INTER + INTRA:          -3.930
REMARK INTER:                  -3.878
REMARK INTRA:                  -0.052
REMARK UNBOUND:                -0.043
REMARK SMILES CCCCCO
REMARK SMILES IDX 4 1 3 2 2 3 1 4 5 5 6 6
REMARK H PARENT 6 7
REMARK Flexibility Score: inf
ROOT
ATOM      1  C   UNL     1      26.401 -12.379 -24.883  1.00  0.00     0.028 C 
ENDROOT
BRANCH   1   2
ATOM      2  C   UNL     1      26.821 -13.194 -26.117  1.00  0.00     0.002 C 
BRANCH   2   3
ATOM      3  C   UNL     1      26.929 -12.342 -27.389  1.00  0.00    -0.003 C 
ATOM      4  C   UNL     1      27.591 -13.124 -28.520  1.00  0.00     0.004 C 
ENDBRANCH   2   3
ENDBRANCH   1   2
BRANCH   1   5
ATOM      5  C   UNL     1      25.850 -10.990 -25.226  1.00  0.00     0.156 C 
BRANCH   5   6
ATOM      6  O   UNL     1      26.555 -10.000 -24.530  1.00  0.00    -0.396 OA
ATOM      7  H   UNL     1      27.425  -9.903 -24.995  1.00  0.00     0.210 HD
ENDBRANCH   5   6
ENDBRANCH   1   5
TORSDOF 4
ENDMDL
MODEL 7
REMARK VINA RESULT:    -3.206      1.488      2.066
REMARK INTER + INTRA:          -3.905
REMARK INTER:                  -3.882
REMARK INTRA:                  -0.023
REMARK UNBOUND:                -0.043
REMARK SMILES CCCCCO
REMARK SMILES IDX 4 1 3 2 2 3 1 4 5 5 6 6
REMARK H PARENT 6 7
REMARK Flexibility Score: inf
ROOT
ATOM      1  C   UNL     1      16.273   0.549 -24.755  1.00  0.00     0.028 C 
ENDROOT
BRANCH   1   2
ATOM      2  C   UNL     1      16.578   0.301 -23.268  1.00  0.00     0.002 C 
BRANCH   2   3
ATOM      3  C   UNL     1      17.880  -0.480 -23.045  1.00  0.00    -0.003 C 
ATOM      4  C   UNL     1      17.967  -1.683 -23.980  1.00  0.00     0.004 C 
ENDBRANCH   2   3
ENDBRANCH   1   2
BRANCH   1   5
ATOM      5  C   UNL     1      16.276   2.033 -25.140  1.00  0.00     0.156 C 
BRANCH   5   6
ATOM      6  O   UNL     1      15.200   2.317 -25.990  1.00  0.00    -0.396 OA
ATOM      7  H   UNL     1      15.529   2.162 -26.913  1.00  0.00     0.210 HD
ENDBRANCH   5   6
ENDBRANCH   1   5
TORSDOF 4
ENDMDL
MODEL 8
REMARK VINA RESULT:    -3.196     16.640     17.211
REMARK INTER + INTRA:          -3.893
REMARK INTER:                  -3.851
REMARK INTRA:                  -0.042
REMARK UNBOUND:                -0.043
REMARK SMILES CCCCCO
REMARK SMILES IDX 4 1 3 2 2 3 1 4 5 5 6 6
REMARK H PARENT 6 7
REMARK Flexibility Score: inf
ROOT
ATOM      1  C   UNL     1      26.170 -12.326 -24.798  1.00  0.00     0.028 C 
ENDROOT
BRANCH   1   2
ATOM      2  C   UNL     1      26.703 -13.503 -25.632  1.00  0.00     0.002 C 
BRANCH   2   3
ATOM      3  C   UNL     1      26.984 -13.124 -27.092  1.00  0.00    -0.003 C 
ATOM      4  C   UNL     1      26.795 -11.627 -27.318  1.00  0.00     0.004 C 
ENDBRANCH   2   3
ENDBRANCH   1   2
BRANCH   1   5
ATOM      5  C   UNL     1      24.757 -12.556 -24.250  1.00  0.00     0.156 C 
BRANCH   5   6
ATOM      6  O   UNL     1      24.800 -13.384 -23.121  1.00  0.00    -0.396 OA
ATOM      7  H   UNL     1      24.035 -13.114 -22.551  1.00  0.00     0.210 HD
ENDBRANCH   5   6
ENDBRANCH   1   5
TORSDOF 4
ENDMDL
MODEL 9
REMARK VINA RESULT:    -3.191     16.130     17.264
REMARK INTER + INTRA:          -3.886
REMARK INTER:                  -3.819
REMARK INTRA:                  -0.067
REMARK UNBOUND:                -0.043
REMARK SMILES CCCCCO
REMARK SMILES IDX 4 1 3 2 2 3 1 4 5 5 6 6
REMARK H PARENT 6 7
REMARK Flexibility Score: inf
ROOT
ATOM      1  C   UNL     1      26.318  -1.118 -11.884  1.00  0.00     0.028 C 
ENDROOT
BRANCH   1   2
ATOM      2  C   UNL     1      26.036  -1.724 -10.499  1.00  0.00     0.002 C 
BRANCH   2   3
ATOM      3  C   UNL     1      26.896  -1.105  -9.389  1.00  0.00    -0.003 C 
ATOM      4  C   UNL     1      27.936  -0.149  -9.966  1.00  0.00     0.004 C 
ENDBRANCH   2   3
ENDBRANCH   1   2
BRANCH   1   5
ATOM      5  C   UNL     1      26.703  -2.160 -12.941  1.00  0.00     0.156 C 
BRANCH   5   6
ATOM      6  O   UNL     1      27.958  -1.861 -13.485  1.00  0.00    -0.396 OA
ATOM      7  H   UNL     1      27.958  -2.239 -14.402  1.00  0.00     0.210 HD
ENDBRANCH   5   6
ENDBRANCH   1   5
TORSDOF 4
ENDMDL
