MODEL 1
REMARK VINA RESULT:    -4.293      0.000      0.000
REMARK INTER + INTRA:         -13.582
REMARK INTER:                 -10.818
REMARK INTRA:                  -2.763
REMARK UNBOUND:                -2.763
REMARK SMILES CCCCCCCCCCCCCCCCCCCCCCCCCCCC(=O)[O-]
REMARK SMILES IDX 15 1 16 2 17 3 18 4 19 5 20 6 21 7 22 8 23 9 24 10 25 11
REMARK SMILES IDX 26 12 27 13 28 14 29 15 30 16 14 17 13 18 12 19 11 20 10 21
REMARK SMILES IDX 9 22 8 23 7 24 6 25 5 26 4 27 3 28 2 29 1 30
REMARK H PARENT
REMARK Flexibility Score: inf
ROOT
ATOM      1  C   UNL     1      18.893  17.833 -11.153  1.00  0.00     0.000 C 
ENDROOT
BRANCH   1   2
ATOM      2  C   UNL     1      20.181  18.305 -10.456  1.00  0.00     0.000 C 
BRANCH   2   3
ATOM      3  C   UNL     1      21.123  17.178  -9.986  1.00  0.00     0.000 C 
BRANCH   3   4
ATOM      4  C   UNL     1      22.522  17.179 -10.633  1.00  0.00     0.000 C 
BRANCH   4   5
ATOM      5  C   UNL     1      22.937  15.851 -11.292  1.00  0.00     0.000 C 
BRANCH   5   6
ATOM      6  C   UNL     1      22.094  15.432 -12.512  1.00  0.00     0.000 C 
BRANCH   6   7
ATOM      7  C   UNL     1      21.959  13.902 -12.692  1.00  0.00     0.000 C 
BRANCH   7   8
ATOM      8  C   UNL     1      21.183  13.178 -11.574  1.00  0.00     0.000 C 
BRANCH   8   9
ATOM      9  C   UNL     1      19.715  13.616 -11.379  1.00  0.00     0.000 C 
BRANCH   9  10
ATOM     10  C   UNL     1      18.699  12.471 -11.217  1.00  0.00     0.000 C 
BRANCH  10  11
ATOM     11  C   UNL     1      17.933  12.544  -9.884  1.00  0.00     0.000 C 
BRANCH  11  12
ATOM     12  C   UNL     1      18.840  12.919  -8.701  1.00  0.00     0.006 C 
BRANCH  12  13
ATOM     13  C   UNL     1      18.269  12.476  -7.346  1.00  0.00     0.053 C 
BRANCH  13  14
ATOM     14  C   UNL     1      19.083  13.035  -6.222  1.00  0.00     0.041 C 
ATOM     15  O   UNL     1      18.598  13.921  -5.468  1.00  0.00    -0.550 OA
ATOM     16  O   UNL     1      20.389  12.599  -6.021  1.00  0.00    -0.550 OA
ENDBRANCH  13  14
ENDBRANCH  12  13
ENDBRANCH  11  12
ENDBRANCH  10  11
ENDBRANCH   9  10
ENDBRANCH   8   9
ENDBRANCH   7   8
ENDBRANCH   6   7
ENDBRANCH   5   6
ENDBRANCH   4   5
ENDBRANCH   3   4
ENDBRANCH   2   3
ENDBRANCH   1   2
BRANCH   1  17
ATOM     17  C   UNL     1      19.102  17.505 -12.641  1.00  0.00     0.000 C 
BRANCH  17  18
ATOM     18  C   UNL     1      20.116  18.442 -13.324  1.00  0.00     0.000 C 
BRANCH  18  19
ATOM     19  C   UNL     1      19.507  19.667 -14.034  1.00  0.00     0.000 C 
BRANCH  19  20
ATOM     20  C   UNL     1      17.967  19.732 -14.034  1.00  0.00     0.000 C 
BRANCH  20  21
ATOM     21  C   UNL     1      17.387  20.858 -13.152  1.00  0.00     0.000 C 
BRANCH  21  22
ATOM     22  C   UNL     1      16.375  20.344 -12.112  1.00  0.00    -0.000 C 
BRANCH  22  23
ATOM     23  C   UNL     1      15.171  21.286 -11.938  1.00  0.00    -0.000 C 
BRANCH  23  24
ATOM     24  C   UNL     1      15.355  22.623 -12.677  1.00  0.00    -0.000 C 
BRANCH  24  25
ATOM     25  C   UNL     1      14.014  23.254 -13.089  1.00  0.00    -0.000 C 
BRANCH  25  26
ATOM     26  C   UNL     1      12.806  22.395 -12.679  1.00  0.00    -0.000 C 
BRANCH  26  27
ATOM     27  C   UNL     1      11.552  23.235 -12.372  1.00  0.00    -0.000 C 
BRANCH  27  28
ATOM     28  C   UNL     1      11.115  24.195 -13.498  1.00  0.00    -0.000 C 
BRANCH  28  29
ATOM     29  C   UNL     1      11.023  25.676 -13.086  1.00  0.00    -0.003 C 
ATOM     30  C   UNL     1      12.204  26.506 -13.586  1.00  0.00     0.004 C 
ENDBRANCH  28  29
ENDBRANCH  27  28
ENDBRANCH  26  27
ENDBRANCH  25  26
ENDBRANCH  24  25
ENDBRANCH  23  24
ENDBRANCH  22  23
ENDBRANCH  21  22
ENDBRANCH  20  21
ENDBRANCH  19  20
ENDBRANCH  18  19
ENDBRANCH  17  18
ENDBRANCH   1  17
TORSDOF 26
ENDMDL
MODEL 2
REMARK VINA RESULT:    -4.281      8.423     10.372
REMARK INTER + INTRA:         -13.552
REMARK INTER:                  -9.768
REMARK INTRA:                  -3.784
REMARK UNBOUND:                -2.763
REMARK SMILES CCCCCCCCCCCCCCCCCCCCCCCCCCCC(=O)[O-]
REMARK SMILES IDX 15 1 16 2 17 3 18 4 19 5 20 6 21 7 22 8 23 9 24 10 25 11
REMARK SMILES IDX 26 12 27 13 28 14 29 15 30 16 14 17 13 18 12 19 11 20 10 21
REMARK SMILES IDX 9 22 8 23 7 24 6 25 5 26 4 27 3 28 2 29 1 30
REMARK H PARENT
REMARK Flexibility Score: inf
ROOT
ATOM      1  C   UNL     1      12.009  10.569  -7.714  1.00  0.00     0.000 C 
ENDROOT
BRANCH   1   2
ATOM      2  C   UNL     1      11.965  12.032  -8.190  1.00  0.00     0.000 C 
BRANCH   2   3
ATOM      3  C   UNL     1      12.602  12.291  -9.571  1.00  0.00     0.000 C 
BRANCH   3   4
ATOM      4  C   UNL     1      13.400  11.110 -10.159  1.00  0.00     0.000 C 
BRANCH   4   5
ATOM      5  C   UNL     1      14.931  11.241 -10.054  1.00  0.00     0.000 C 
BRANCH   5   6
ATOM      6  C   UNL     1      15.613  10.229  -9.113  1.00  0.00     0.000 C 
BRANCH   6   7
ATOM      7  C   UNL     1      15.746  10.715  -7.651  1.00  0.00     0.000 C 
BRANCH   7   8
ATOM      8  C   UNL     1      15.671  12.244  -7.462  1.00  0.00     0.000 C 
BRANCH   8   9
ATOM      9  C   UNL     1      15.490  12.735  -6.009  1.00  0.00     0.000 C 
BRANCH   9  10
ATOM     10  C   UNL     1      14.032  12.932  -5.554  1.00  0.00     0.000 C 
BRANCH  10  11
ATOM     11  C   UNL     1      13.849  12.707  -4.043  1.00  0.00     0.000 C 
BRANCH  11  12
ATOM     12  C   UNL     1      15.187  12.565  -3.300  1.00  0.00     0.006 C 
BRANCH  12  13
ATOM     13  C   UNL     1      15.208  13.310  -1.958  1.00  0.00     0.053 C 
BRANCH  13  14
ATOM     14  C   UNL     1      16.578  13.281  -1.358  1.00  0.00     0.041 C 
ATOM     15  O   UNL     1      16.730  12.999  -0.139  1.00  0.00    -0.550 OA
ATOM     16  O   UNL     1      17.688  13.590  -2.136  1.00  0.00    -0.550 OA
ENDBRANCH  13  14
ENDBRANCH  12  13
ENDBRANCH  11  12
ENDBRANCH  10  11
ENDBRANCH   9  10
ENDBRANCH   8   9
ENDBRANCH   7   8
ENDBRANCH   6   7
ENDBRANCH   5   6
ENDBRANCH   4   5
ENDBRANCH   3   4
ENDBRANCH   2   3
ENDBRANCH   1   2
BRANCH   1  17
ATOM     17  C   UNL     1      11.361  10.369  -6.333  1.00  0.00     0.000 C 
BRANCH  17  18
ATOM     18  C   UNL     1      10.238  11.384  -6.046  1.00  0.00     0.000 C 
BRANCH  18  19
ATOM     19  C   UNL     1       8.805  10.848  -6.227  1.00  0.00     0.000 C 
BRANCH  19  20
ATOM     20  C   UNL     1       7.977  11.536  -7.331  1.00  0.00     0.000 C 
BRANCH  20  21
ATOM     21  C   UNL     1       8.339  11.081  -8.761  1.00  0.00     0.000 C 
BRANCH  21  22
ATOM     22  C   UNL     1       8.682  12.257  -9.695  1.00  0.00    -0.000 C 
BRANCH  22  23
ATOM     23  C   UNL     1       8.715  13.608  -8.961  1.00  0.00    -0.000 C 
BRANCH  23  24
ATOM     24  C   UNL     1       8.009  14.726  -9.747  1.00  0.00    -0.000 C 
BRANCH  24  25
ATOM     25  C   UNL     1       7.196  15.661  -8.835  1.00  0.00    -0.000 C 
BRANCH  25  26
ATOM     26  C   UNL     1       6.466  14.903  -7.713  1.00  0.00    -0.000 C 
BRANCH  26  27
ATOM     27  C   UNL     1       5.178  15.612  -7.254  1.00  0.00    -0.000 C 
BRANCH  27  28
ATOM     28  C   UNL     1       4.964  17.024  -7.836  1.00  0.00    -0.000 C 
BRANCH  28  29
ATOM     29  C   UNL     1       4.945  18.158  -6.795  1.00  0.00    -0.003 C 
ATOM     30  C   UNL     1       5.923  17.924  -5.644  1.00  0.00     0.004 C 
ENDBRANCH  28  29
ENDBRANCH  27  28
ENDBRANCH  26  27
ENDBRANCH  25  26
ENDBRANCH  24  25
ENDBRANCH  23  24
ENDBRANCH  22  23
ENDBRANCH  21  22
ENDBRANCH  20  21
ENDBRANCH  19  20
ENDBRANCH  18  19
ENDBRANCH  17  18
ENDBRANCH   1  17
TORSDOF 26
ENDMDL
MODEL 3
REMARK VINA RESULT:    -4.278      9.320     13.630
REMARK INTER + INTRA:         -13.544
REMARK INTER:                 -10.254
REMARK INTRA:                  -3.290
REMARK UNBOUND:                -2.763
REMARK SMILES CCCCCCCCCCCCCCCCCCCCCCCCCCCC(=O)[O-]
REMARK SMILES IDX 15 1 16 2 17 3 18 4 19 5 20 6 21 7 22 8 23 9 24 10 25 11
REMARK SMILES IDX 26 12 27 13 28 14 29 15 30 16 14 17 13 18 12 19 11 20 10 21
REMARK SMILES IDX 9 22 8 23 7 24 6 25 5 26 4 27 3 28 2 29 1 30
REMARK H PARENT
REMARK Flexibility Score: inf
ROOT
ATOM      1  C   UNL     1      12.107  10.546  -3.334  1.00  0.00     0.000 C 
ENDROOT
BRANCH   1   2
ATOM      2  C   UNL     1      11.336  11.649  -4.079  1.00  0.00     0.000 C 
BRANCH   2   3
ATOM      3  C   UNL     1      10.165  11.155  -4.953  1.00  0.00     0.000 C 
BRANCH   3   4
ATOM      4  C   UNL     1      10.122  11.734  -6.382  1.00  0.00     0.000 C 
BRANCH   4   5
ATOM      5  C   UNL     1       9.025  11.150  -7.290  1.00  0.00     0.000 C 
BRANCH   5   6
ATOM      6  C   UNL     1       7.742  11.997  -7.396  1.00  0.00     0.000 C 
BRANCH   6   7
ATOM      7  C   UNL     1       7.928  13.337  -8.145  1.00  0.00     0.000 C 
BRANCH   7   8
ATOM      8  C   UNL     1       7.106  13.481  -9.442  1.00  0.00     0.000 C 
BRANCH   8   9
ATOM      9  C   UNL     1       5.575  13.570  -9.265  1.00  0.00     0.000 C 
BRANCH   9  10
ATOM     10  C   UNL     1       5.039  14.945  -8.827  1.00  0.00     0.000 C 
BRANCH  10  11
ATOM     11  C   UNL     1       4.621  14.973  -7.347  1.00  0.00     0.000 C 
BRANCH  11  12
ATOM     12  C   UNL     1       4.341  16.396  -6.838  1.00  0.00     0.006 C 
BRANCH  12  13
ATOM     13  C   UNL     1       5.297  17.442  -7.430  1.00  0.00     0.053 C 
BRANCH  13  14
ATOM     14  C   UNL     1       6.596  17.449  -6.687  1.00  0.00     0.041 C 
ATOM     15  O   UNL     1       6.619  17.708  -5.454  1.00  0.00    -0.550 OA
ATOM     16  O   UNL     1       7.787  17.197  -7.360  1.00  0.00    -0.550 OA
ENDBRANCH  13  14
ENDBRANCH  12  13
ENDBRANCH  11  12
ENDBRANCH  10  11
ENDBRANCH   9  10
ENDBRANCH   8   9
ENDBRANCH   7   8
ENDBRANCH   6   7
ENDBRANCH   5   6
ENDBRANCH   4   5
ENDBRANCH   3   4
ENDBRANCH   2   3
ENDBRANCH   1   2
BRANCH   1  17
ATOM     17  C   UNL     1      12.558  10.975  -1.928  1.00  0.00     0.000 C 
BRANCH  17  18
ATOM     18  C   UNL     1      12.734  12.500  -1.795  1.00  0.00     0.000 C 
BRANCH  18  19
ATOM     19  C   UNL     1      14.182  12.979  -1.573  1.00  0.00     0.000 C 
BRANCH  19  20
ATOM     20  C   UNL     1      15.227  12.393  -2.543  1.00  0.00     0.000 C 
BRANCH  20  21
ATOM     21  C   UNL     1      15.988  13.458  -3.362  1.00  0.00     0.000 C 
BRANCH  21  22
ATOM     22  C   UNL     1      15.759  13.324  -4.879  1.00  0.00    -0.000 C 
BRANCH  22  23
ATOM     23  C   UNL     1      14.311  12.940  -5.229  1.00  0.00    -0.000 C 
BRANCH  23  24
ATOM     24  C   UNL     1      14.088  12.793  -6.744  1.00  0.00    -0.000 C 
BRANCH  24  25
ATOM     25  C   UNL     1      13.871  11.329  -7.165  1.00  0.00    -0.000 C 
BRANCH  25  26
ATOM     26  C   UNL     1      14.417  11.031  -8.572  1.00  0.00    -0.000 C 
BRANCH  26  27
ATOM     27  C   UNL     1      13.428  10.230  -9.439  1.00  0.00    -0.000 C 
BRANCH  27  28
ATOM     28  C   UNL     1      11.982  10.767  -9.451  1.00  0.00    -0.000 C 
BRANCH  28  29
ATOM     29  C   UNL     1      11.688  11.808 -10.547  1.00  0.00    -0.003 C 
ATOM     30  C   UNL     1      11.258  13.161  -9.980  1.00  0.00     0.004 C 
ENDBRANCH  28  29
ENDBRANCH  27  28
ENDBRANCH  26  27
ENDBRANCH  25  26
ENDBRANCH  24  25
ENDBRANCH  23  24
ENDBRANCH  22  23
ENDBRANCH  21  22
ENDBRANCH  20  21
ENDBRANCH  19  20
ENDBRANCH  18  19
ENDBRANCH  17  18
ENDBRANCH   1  17
TORSDOF 26
ENDMDL
MODEL 4
REMARK VINA RESULT:    -4.276      8.846     13.743
REMARK INTER + INTRA:         -13.538
REMARK INTER:                  -9.727
REMARK INTRA:                  -3.811
REMARK UNBOUND:                -2.763
REMARK SMILES CCCCCCCCCCCCCCCCCCCCCCCCCCCC(=O)[O-]
REMARK SMILES IDX 15 1 16 2 17 3 18 4 19 5 20 6 21 7 22 8 23 9 24 10 25 11
REMARK SMILES IDX 26 12 27 13 28 14 29 15 30 16 14 17 13 18 12 19 11 20 10 21
REMARK SMILES IDX 9 22 8 23 7 24 6 25 5 26 4 27 3 28 2 29 1 30
REMARK H PARENT
REMARK Flexibility Score: inf
ROOT
ATOM      1  C   UNL     1      10.325   9.394  -6.918  1.00  0.00     0.000 C 
ENDROOT
BRANCH   1   2
ATOM      2  C   UNL     1      11.082  10.321  -7.885  1.00  0.00     0.000 C 
BRANCH   2   3
ATOM      3  C   UNL     1      10.233  11.442  -8.518  1.00  0.00     0.000 C 
BRANCH   3   4
ATOM      4  C   UNL     1       9.351  12.235  -7.533  1.00  0.00     0.000 C 
BRANCH   4   5
ATOM      5  C   UNL     1       7.834  12.047  -7.718  1.00  0.00     0.000 C 
BRANCH   5   6
ATOM      6  C   UNL     1       7.398  11.571  -9.117  1.00  0.00     0.000 C 
BRANCH   6   7
ATOM      7  C   UNL     1       7.027  12.716 -10.087  1.00  0.00     0.000 C 
BRANCH   7   8
ATOM      8  C   UNL     1       8.216  13.344 -10.842  1.00  0.00     0.000 C 
BRANCH   8   9
ATOM      9  C   UNL     1       8.695  14.717 -10.323  1.00  0.00     0.000 C 
BRANCH   9  10
ATOM     10  C   UNL     1       7.588  15.652  -9.804  1.00  0.00     0.000 C 
BRANCH  10  11
ATOM     11  C   UNL     1       7.735  15.968  -8.306  1.00  0.00     0.000 C 
BRANCH  11  12
ATOM     12  C   UNL     1       6.469  15.629  -7.503  1.00  0.00     0.006 C 
BRANCH  12  13
ATOM     13  C   UNL     1       5.433  16.761  -7.514  1.00  0.00     0.053 C 
BRANCH  13  14
ATOM     14  C   UNL     1       5.518  17.568  -6.257  1.00  0.00     0.041 C 
ATOM     15  O   UNL     1       4.624  17.461  -5.375  1.00  0.00    -0.550 OA
ATOM     16  O   UNL     1       6.568  18.459  -6.068  1.00  0.00    -0.550 OA
ENDBRANCH  13  14
ENDBRANCH  12  13
ENDBRANCH  11  12
ENDBRANCH  10  11
ENDBRANCH   9  10
ENDBRANCH   8   9
ENDBRANCH   7   8
ENDBRANCH   6   7
ENDBRANCH   5   6
ENDBRANCH   4   5
ENDBRANCH   3   4
ENDBRANCH   2   3
ENDBRANCH   1   2
BRANCH   1  17
ATOM     17  C   UNL     1      10.809   9.520  -5.464  1.00  0.00     0.000 C 
BRANCH  17  18
ATOM     18  C   UNL     1      11.889  10.604  -5.284  1.00  0.00     0.000 C 
BRANCH  18  19
ATOM     19  C   UNL     1      11.446  11.849  -4.491  1.00  0.00     0.000 C 
BRANCH  19  20
ATOM     20  C   UNL     1      11.752  11.812  -2.980  1.00  0.00     0.000 C 
BRANCH  20  21
ATOM     21  C   UNL     1      12.833  10.784  -2.584  1.00  0.00     0.000 C 
BRANCH  21  22
ATOM     22  C   UNL     1      14.261  11.353  -2.675  1.00  0.00    -0.000 C 
BRANCH  22  23
ATOM     23  C   UNL     1      14.405  12.713  -1.970  1.00  0.00    -0.000 C 
BRANCH  23  24
ATOM     24  C   UNL     1      15.118  13.760  -2.843  1.00  0.00    -0.000 C 
BRANCH  24  25
ATOM     25  C   UNL     1      14.943  13.486  -4.347  1.00  0.00    -0.000 C 
BRANCH  25  26
ATOM     26  C   UNL     1      16.269  13.133  -5.042  1.00  0.00    -0.000 C 
BRANCH  26  27
ATOM     27  C   UNL     1      16.082  12.738  -6.519  1.00  0.00    -0.000 C 
BRANCH  27  28
ATOM     28  C   UNL     1      14.817  11.907  -6.820  1.00  0.00    -0.000 C 
BRANCH  28  29
ATOM     29  C   UNL     1      14.126  12.241  -8.155  1.00  0.00    -0.003 C 
ATOM     30  C   UNL     1      14.997  11.926  -9.370  1.00  0.00     0.004 C 
ENDBRANCH  28  29
ENDBRANCH  27  28
ENDBRANCH  26  27
ENDBRANCH  25  26
ENDBRANCH  24  25
ENDBRANCH  23  24
ENDBRANCH  22  23
ENDBRANCH  21  22
ENDBRANCH  20  21
ENDBRANCH  19  20
ENDBRANCH  18  19
ENDBRANCH  17  18
ENDBRANCH   1  17
TORSDOF 26
ENDMDL
MODEL 5
REMARK VINA RESULT:    -4.227      9.035     13.753
REMARK INTER + INTRA:         -13.416
REMARK INTER:                 -10.322
REMARK INTRA:                  -3.094
REMARK UNBOUND:                -2.763
REMARK SMILES CCCCCCCCCCCCCCCCCCCCCCCCCCCC(=O)[O-]
REMARK SMILES IDX 15 1 16 2 17 3 18 4 19 5 20 6 21 7 22 8 23 9 24 10 25 11
REMARK SMILES IDX 26 12 27 13 28 14 29 15 30 16 14 17 13 18 12 19 11 20 10 21
REMARK SMILES IDX 9 22 8 23 7 24 6 25 5 26 4 27 3 28 2 29 1 30
REMARK H PARENT
REMARK Flexibility Score: inf
ROOT
ATOM      1  C   UNL     1      14.387  12.790  -5.673  1.00  0.00     0.000 C 
ENDROOT
BRANCH   1   2
ATOM      2  C   UNL     1      14.417  12.513  -7.186  1.00  0.00     0.000 C 
BRANCH   2   3
ATOM      3  C   UNL     1      13.051  12.596  -7.896  1.00  0.00     0.000 C 
BRANCH   3   4
ATOM      4  C   UNL     1      12.585  11.294  -8.580  1.00  0.00     0.000 C 
BRANCH   4   5
ATOM      5  C   UNL     1      11.076  11.009  -8.482  1.00  0.00     0.000 C 
BRANCH   5   6
ATOM      6  C   UNL     1      10.354  11.695  -7.306  1.00  0.00     0.000 C 
BRANCH   6   7
ATOM      7  C   UNL     1       8.840  11.915  -7.535  1.00  0.00     0.000 C 
BRANCH   7   8
ATOM      8  C   UNL     1       8.457  12.404  -8.947  1.00  0.00     0.000 C 
BRANCH   8   9
ATOM      9  C   UNL     1       8.245  13.925  -9.100  1.00  0.00     0.000 C 
BRANCH   9  10
ATOM     10  C   UNL     1       7.046  14.342  -9.971  1.00  0.00     0.000 C 
BRANCH  10  11
ATOM     11  C   UNL     1       6.078  15.284  -9.234  1.00  0.00     0.000 C 
BRANCH  11  12
ATOM     12  C   UNL     1       6.106  15.086  -7.710  1.00  0.00     0.006 C 
BRANCH  12  13
ATOM     13  C   UNL     1       5.507  16.273  -6.943  1.00  0.00     0.053 C 
BRANCH  13  14
ATOM     14  C   UNL     1       6.574  17.256  -6.575  1.00  0.00     0.041 C 
ATOM     15  O   UNL     1       7.726  17.156  -7.074  1.00  0.00    -0.550 OA
ATOM     16  O   UNL     1       6.306  18.268  -5.659  1.00  0.00    -0.550 OA
ENDBRANCH  13  14
ENDBRANCH  12  13
ENDBRANCH  11  12
ENDBRANCH  10  11
ENDBRANCH   9  10
ENDBRANCH   8   9
ENDBRANCH   7   8
ENDBRANCH   6   7
ENDBRANCH   5   6
ENDBRANCH   4   5
ENDBRANCH   3   4
ENDBRANCH   2   3
ENDBRANCH   1   2
BRANCH   1  17
ATOM     17  C   UNL     1      13.090  12.307  -5.001  1.00  0.00     0.000 C 
BRANCH  17  18
ATOM     18  C   UNL     1      13.075  10.786  -4.752  1.00  0.00     0.000 C 
BRANCH  18  19
ATOM     19  C   UNL     1      11.775  10.232  -4.140  1.00  0.00     0.000 C 
BRANCH  19  20
ATOM     20  C   UNL     1      10.674  11.277  -3.871  1.00  0.00     0.000 C 
BRANCH  20  21
ATOM     21  C   UNL     1      10.487  11.618  -2.377  1.00  0.00     0.000 C 
BRANCH  21  22
ATOM     22  C   UNL     1      11.759  11.378  -1.544  1.00  0.00    -0.000 C 
BRANCH  22  23
ATOM     23  C   UNL     1      12.556  12.669  -1.292  1.00  0.00    -0.000 C 
BRANCH  23  24
ATOM     24  C   UNL     1      13.818  12.430  -0.444  1.00  0.00    -0.000 C 
BRANCH  24  25
ATOM     25  C   UNL     1      15.028  12.013  -1.298  1.00  0.00    -0.000 C 
BRANCH  25  26
ATOM     26  C   UNL     1      15.680  13.205  -2.019  1.00  0.00    -0.000 C 
BRANCH  26  27
ATOM     27  C   UNL     1      17.152  13.414  -1.615  1.00  0.00    -0.000 C 
BRANCH  27  28
ATOM     28  C   UNL     1      18.187  13.041  -2.696  1.00  0.00    -0.000 C 
BRANCH  28  29
ATOM     29  C   UNL     1      17.672  13.130  -4.145  1.00  0.00    -0.003 C 
ATOM     30  C   UNL     1      18.758  13.545  -5.136  1.00  0.00     0.004 C 
ENDBRANCH  28  29
ENDBRANCH  27  28
ENDBRANCH  26  27
ENDBRANCH  25  26
ENDBRANCH  24  25
ENDBRANCH  23  24
ENDBRANCH  22  23
ENDBRANCH  21  22
ENDBRANCH  20  21
ENDBRANCH  19  20
ENDBRANCH  18  19
ENDBRANCH  17  18
ENDBRANCH   1  17
TORSDOF 26
ENDMDL
MODEL 6
REMARK VINA RESULT:    -4.211      3.867      9.798
REMARK INTER + INTRA:         -13.375
REMARK INTER:                  -8.935
REMARK INTRA:                  -4.439
REMARK UNBOUND:                -2.763
REMARK SMILES CCCCCCCCCCCCCCCCCCCCCCCCCCCC(=O)[O-]
REMARK SMILES IDX 15 1 16 2 17 3 18 4 19 5 20 6 21 7 22 8 23 9 24 10 25 11
REMARK SMILES IDX 26 12 27 13 28 14 29 15 30 16 14 17 13 18 12 19 11 20 10 21
REMARK SMILES IDX 9 22 8 23 7 24 6 25 5 26 4 27 3 28 2 29 1 30
REMARK H PARENT
REMARK Flexibility Score: inf
ROOT
ATOM      1  C   UNL     1      20.294  13.677  -9.901  1.00  0.00     0.000 C 
ENDROOT
BRANCH   1   2
ATOM      2  C   UNL     1      21.529  12.939 -10.447  1.00  0.00     0.000 C 
BRANCH   2   3
ATOM      3  C   UNL     1      22.624  13.846 -11.045  1.00  0.00     0.000 C 
BRANCH   3   4
ATOM      4  C   UNL     1      22.263  14.516 -12.385  1.00  0.00     0.000 C 
BRANCH   4   5
ATOM      5  C   UNL     1      22.499  16.036 -12.440  1.00  0.00     0.000 C 
BRANCH   5   6
ATOM      6  C   UNL     1      23.277  16.622 -11.245  1.00  0.00     0.000 C 
BRANCH   6   7
ATOM      7  C   UNL     1      22.504  17.702 -10.455  1.00  0.00     0.000 C 
BRANCH   7   8
ATOM      8  C   UNL     1      21.142  17.249  -9.889  1.00  0.00     0.000 C 
BRANCH   8   9
ATOM      9  C   UNL     1      19.910  18.036 -10.384  1.00  0.00     0.000 C 
BRANCH   9  10
ATOM     10  C   UNL     1      19.222  17.468 -11.639  1.00  0.00     0.000 C 
BRANCH  10  11
ATOM     11  C   UNL     1      19.529  18.289 -12.904  1.00  0.00     0.000 C 
BRANCH  11  12
ATOM     12  C   UNL     1      18.265  18.889 -13.540  1.00  0.00     0.006 C 
BRANCH  12  13
ATOM     13  C   UNL     1      18.190  20.416 -13.395  1.00  0.00     0.053 C 
BRANCH  13  14
ATOM     14  C   UNL     1      17.067  20.805 -12.487  1.00  0.00     0.041 C 
ATOM     15  O   UNL     1      16.843  20.144 -11.437  1.00  0.00    -0.550 OA
ATOM     16  O   UNL     1      16.248  21.882 -12.810  1.00  0.00    -0.550 OA
ENDBRANCH  13  14
ENDBRANCH  12  13
ENDBRANCH  11  12
ENDBRANCH  10  11
ENDBRANCH   9  10
ENDBRANCH   8   9
ENDBRANCH   7   8
ENDBRANCH   6   7
ENDBRANCH   5   6
ENDBRANCH   4   5
ENDBRANCH   3   4
ENDBRANCH   2   3
ENDBRANCH   1   2
BRANCH   1  17
ATOM     17  C   UNL     1      19.010  13.358 -10.684  1.00  0.00     0.000 C 
BRANCH  17  18
ATOM     18  C   UNL     1      19.118  12.060 -11.508  1.00  0.00     0.000 C 
BRANCH  18  19
ATOM     19  C   UNL     1      17.911  11.108 -11.398  1.00  0.00     0.000 C 
BRANCH  19  20
ATOM     20  C   UNL     1      18.208   9.737 -10.759  1.00  0.00     0.000 C 
BRANCH  20  21
ATOM     21  C   UNL     1      19.684   9.541 -10.352  1.00  0.00     0.000 C 
BRANCH  21  22
ATOM     22  C   UNL     1      19.857   9.252  -8.850  1.00  0.00    -0.000 C 
BRANCH  22  23
ATOM     23  C   UNL     1      20.508  10.422  -8.092  1.00  0.00    -0.000 C 
BRANCH  23  24
ATOM     24  C   UNL     1      19.518  11.150  -7.166  1.00  0.00    -0.000 C 
BRANCH  24  25
ATOM     25  C   UNL     1      18.148  10.453  -7.107  1.00  0.00    -0.000 C 
BRANCH  25  26
ATOM     26  C   UNL     1      17.030  11.293  -7.746  1.00  0.00    -0.000 C 
BRANCH  26  27
ATOM     27  C   UNL     1      16.944  12.716  -7.162  1.00  0.00    -0.000 C 
BRANCH  27  28
ATOM     28  C   UNL     1      15.979  12.878  -5.969  1.00  0.00    -0.000 C 
BRANCH  28  29
ATOM     29  C   UNL     1      16.631  13.399  -4.675  1.00  0.00    -0.003 C 
ATOM     30  C   UNL     1      18.149  13.532  -4.787  1.00  0.00     0.004 C 
ENDBRANCH  28  29
ENDBRANCH  27  28
ENDBRANCH  26  27
ENDBRANCH  25  26
ENDBRANCH  24  25
ENDBRANCH  23  24
ENDBRANCH  22  23
ENDBRANCH  21  22
ENDBRANCH  20  21
ENDBRANCH  19  20
ENDBRANCH  18  19
ENDBRANCH  17  18
ENDBRANCH   1  17
TORSDOF 26
ENDMDL
MODEL 7
REMARK VINA RESULT:    -4.178      8.984     13.559
REMARK INTER + INTRA:         -13.293
REMARK INTER:                  -9.989
REMARK INTRA:                  -3.304
REMARK UNBOUND:                -2.763
REMARK SMILES CCCCCCCCCCCCCCCCCCCCCCCCCCCC(=O)[O-]
REMARK SMILES IDX 15 1 16 2 17 3 18 4 19 5 20 6 21 7 22 8 23 9 24 10 25 11
REMARK SMILES IDX 26 12 27 13 28 14 29 15 30 16 14 17 13 18 12 19 11 20 10 21
REMARK SMILES IDX 9 22 8 23 7 24 6 25 5 26 4 27 3 28 2 29 1 30
REMARK H PARENT
REMARK Flexibility Score: inf
ROOT
ATOM      1  C   UNL     1      15.433  12.647  -6.540  1.00  0.00     0.000 C 
ENDROOT
BRANCH   1   2
ATOM      2  C   UNL     1      15.792  12.294  -7.994  1.00  0.00     0.000 C 
BRANCH   2   3
ATOM      3  C   UNL     1      14.590  11.992  -8.912  1.00  0.00     0.000 C 
BRANCH   3   4
ATOM      4  C   UNL     1      13.443  11.199  -8.254  1.00  0.00     0.000 C 
BRANCH   4   5
ATOM      5  C   UNL     1      12.034  11.773  -8.488  1.00  0.00     0.000 C 
BRANCH   5   6
ATOM      6  C   UNL     1      11.842  12.514  -9.825  1.00  0.00     0.000 C 
BRANCH   6   7
ATOM      7  C   UNL     1      10.529  13.327  -9.915  1.00  0.00     0.000 C 
BRANCH   7   8
ATOM      8  C   UNL     1       9.455  12.950  -8.875  1.00  0.00     0.000 C 
BRANCH   8   9
ATOM      9  C   UNL     1       8.233  13.890  -8.796  1.00  0.00     0.000 C 
BRANCH   9  10
ATOM     10  C   UNL     1       8.470  15.328  -9.293  1.00  0.00     0.000 C 
BRANCH  10  11
ATOM     11  C   UNL     1       7.619  16.363  -8.537  1.00  0.00     0.000 C 
BRANCH  11  12
ATOM     12  C   UNL     1       6.721  15.722  -7.467  1.00  0.00     0.006 C 
BRANCH  12  13
ATOM     13  C   UNL     1       5.224  15.893  -7.762  1.00  0.00     0.053 C 
BRANCH  13  14
ATOM     14  C   UNL     1       4.660  17.040  -6.984  1.00  0.00     0.041 C 
ATOM     15  O   UNL     1       3.901  16.826  -6.001  1.00  0.00    -0.550 OA
ATOM     16  O   UNL     1       4.948  18.348  -7.360  1.00  0.00    -0.550 OA
ENDBRANCH  13  14
ENDBRANCH  12  13
ENDBRANCH  11  12
ENDBRANCH  10  11
ENDBRANCH   9  10
ENDBRANCH   8   9
ENDBRANCH   7   8
ENDBRANCH   6   7
ENDBRANCH   5   6
ENDBRANCH   4   5
ENDBRANCH   3   4
ENDBRANCH   2   3
ENDBRANCH   1   2
BRANCH   1  17
ATOM     17  C   UNL     1      16.206  11.806  -5.511  1.00  0.00     0.000 C 
BRANCH  17  18
ATOM     18  C   UNL     1      15.650  10.376  -5.367  1.00  0.00     0.000 C 
BRANCH  18  19
ATOM     19  C   UNL     1      15.256   9.963  -3.936  1.00  0.00     0.000 C 
BRANCH  19  20
ATOM     20  C   UNL     1      13.741   9.921  -3.653  1.00  0.00     0.000 C 
BRANCH  20  21
ATOM     21  C   UNL     1      12.884  10.620  -4.730  1.00  0.00     0.000 C 
BRANCH  21  22
ATOM     22  C   UNL     1      12.215  11.910  -4.219  1.00  0.00    -0.000 C 
BRANCH  22  23
ATOM     23  C   UNL     1      11.874  11.848  -2.720  1.00  0.00    -0.000 C 
BRANCH  23  24
ATOM     24  C   UNL     1      12.712  12.828  -1.882  1.00  0.00    -0.000 C 
BRANCH  24  25
ATOM     25  C   UNL     1      13.336  12.158  -0.646  1.00  0.00    -0.000 C 
BRANCH  25  26
ATOM     26  C   UNL     1      14.796  12.584  -0.416  1.00  0.00    -0.000 C 
BRANCH  26  27
ATOM     27  C   UNL     1      15.501  13.020  -1.714  1.00  0.00    -0.000 C 
BRANCH  27  28
ATOM     28  C   UNL     1      16.944  13.536  -1.534  1.00  0.00    -0.000 C 
BRANCH  28  29
ATOM     29  C   UNL     1      18.010  12.774  -2.343  1.00  0.00    -0.003 C 
ATOM     30  C   UNL     1      18.105  11.299  -1.957  1.00  0.00     0.004 C 
ENDBRANCH  28  29
ENDBRANCH  27  28
ENDBRANCH  26  27
ENDBRANCH  25  26
ENDBRANCH  24  25
ENDBRANCH  23  24
ENDBRANCH  22  23
ENDBRANCH  21  22
ENDBRANCH  20  21
ENDBRANCH  19  20
ENDBRANCH  18  19
ENDBRANCH  17  18
ENDBRANCH   1  17
TORSDOF 26
ENDMDL
MODEL 8
REMARK VINA RESULT:    -4.174      3.949      9.961
REMARK INTER + INTRA:         -13.282
REMARK INTER:                 -10.086
REMARK INTRA:                  -3.197
REMARK UNBOUND:                -2.763
REMARK SMILES CCCCCCCCCCCCCCCCCCCCCCCCCCCC(=O)[O-]
REMARK SMILES IDX 15 1 16 2 17 3 18 4 19 5 20 6 21 7 22 8 23 9 24 10 25 11
REMARK SMILES IDX 26 12 27 13 28 14 29 15 30 16 14 17 13 18 12 19 11 20 10 21
REMARK SMILES IDX 9 22 8 23 7 24 6 25 5 26 4 27 3 28 2 29 1 30
REMARK H PARENT
REMARK Flexibility Score: inf
ROOT
ATOM      1  C   UNL     1      20.134  12.569  -9.414  1.00  0.00     0.000 C 
ENDROOT
BRANCH   1   2
ATOM      2  C   UNL     1      20.377  13.468  -8.189  1.00  0.00     0.000 C 
BRANCH   2   3
ATOM      3  C   UNL     1      21.855  13.650  -7.792  1.00  0.00     0.000 C 
BRANCH   3   4
ATOM      4  C   UNL     1      22.365  15.106  -7.809  1.00  0.00     0.000 C 
BRANCH   4   5
ATOM      5  C   UNL     1      22.661  15.677  -9.208  1.00  0.00     0.000 C 
BRANCH   5   6
ATOM      6  C   UNL     1      21.790  16.879  -9.623  1.00  0.00     0.000 C 
BRANCH   6   7
ATOM      7  C   UNL     1      20.593  16.510 -10.529  1.00  0.00     0.000 C 
BRANCH   7   8
ATOM      8  C   UNL     1      20.934  15.591 -11.720  1.00  0.00     0.000 C 
BRANCH   8   9
ATOM      9  C   UNL     1      20.338  16.004 -13.083  1.00  0.00     0.000 C 
BRANCH   9  10
ATOM     10  C   UNL     1      19.116  16.938 -13.016  1.00  0.00     0.000 C 
BRANCH  10  11
ATOM     11  C   UNL     1      19.279  18.190 -13.896  1.00  0.00     0.000 C 
BRANCH  11  12
ATOM     12  C   UNL     1      19.175  19.496 -13.092  1.00  0.00     0.006 C 
BRANCH  12  13
ATOM     13  C   UNL     1      18.092  20.443 -13.628  1.00  0.00     0.053 C 
BRANCH  13  14
ATOM     14  C   UNL     1      17.053  20.703 -12.583  1.00  0.00     0.041 C 
ATOM     15  O   UNL     1      16.329  21.732 -12.652  1.00  0.00    -0.550 OA
ATOM     16  O   UNL     1      16.901  19.824 -11.516  1.00  0.00    -0.550 OA
ENDBRANCH  13  14
ENDBRANCH  12  13
ENDBRANCH  11  12
ENDBRANCH  10  11
ENDBRANCH   9  10
ENDBRANCH   8   9
ENDBRANCH   7   8
ENDBRANCH   6   7
ENDBRANCH   5   6
ENDBRANCH   4   5
ENDBRANCH   3   4
ENDBRANCH   2   3
ENDBRANCH   1   2
BRANCH   1  17
ATOM     17  C   UNL     1      18.860  12.945 -10.189  1.00  0.00     0.000 C 
BRANCH  17  18
ATOM     18  C   UNL     1      17.816  11.811 -10.213  1.00  0.00     0.000 C 
BRANCH  18  19
ATOM     19  C   UNL     1      17.675  11.019  -8.899  1.00  0.00     0.000 C 
BRANCH  19  20
ATOM     20  C   UNL     1      16.445  11.378  -8.041  1.00  0.00     0.000 C 
BRANCH  20  21
ATOM     21  C   UNL     1      16.604  12.684  -7.234  1.00  0.00     0.000 C 
BRANCH  21  22
ATOM     22  C   UNL     1      17.688  12.586  -6.145  1.00  0.00    -0.000 C 
BRANCH  22  23
ATOM     23  C   UNL     1      17.465  11.403  -5.188  1.00  0.00    -0.000 C 
BRANCH  23  24
ATOM     24  C   UNL     1      16.890  11.841  -3.829  1.00  0.00    -0.000 C 
BRANCH  24  25
ATOM     25  C   UNL     1      16.885  13.370  -3.660  1.00  0.00    -0.000 C 
BRANCH  25  26
ATOM     26  C   UNL     1      15.471  13.937  -3.446  1.00  0.00    -0.000 C 
BRANCH  26  27
ATOM     27  C   UNL     1      14.421  13.282  -4.362  1.00  0.00    -0.000 C 
BRANCH  27  28
ATOM     28  C   UNL     1      13.324  12.479  -3.633  1.00  0.00    -0.000 C 
BRANCH  28  29
ATOM     29  C   UNL     1      13.290  12.669  -2.106  1.00  0.00    -0.003 C 
ATOM     30  C   UNL     1      13.760  11.431  -1.343  1.00  0.00     0.004 C 
ENDBRANCH  28  29
ENDBRANCH  27  28
ENDBRANCH  26  27
ENDBRANCH  25  26
ENDBRANCH  24  25
ENDBRANCH  23  24
ENDBRANCH  22  23
ENDBRANCH  21  22
ENDBRANCH  20  21
ENDBRANCH  19  20
ENDBRANCH  18  19
ENDBRANCH  17  18
ENDBRANCH   1  17
TORSDOF 26
ENDMDL
MODEL 9
REMARK VINA RESULT:    -4.142      9.442     13.468
REMARK INTER + INTRA:         -13.202
REMARK INTER:                  -8.890
REMARK INTRA:                  -4.312
REMARK UNBOUND:                -2.763
REMARK SMILES CCCCCCCCCCCCCCCCCCCCCCCCCCCC(=O)[O-]
REMARK SMILES IDX 15 1 16 2 17 3 18 4 19 5 20 6 21 7 22 8 23 9 24 10 25 11
REMARK SMILES IDX 26 12 27 13 28 14 29 15 30 16 14 17 13 18 12 19 11 20 10 21
REMARK SMILES IDX 9 22 8 23 7 24 6 25 5 26 4 27 3 28 2 29 1 30
REMARK H PARENT
REMARK Flexibility Score: inf
ROOT
ATOM      1  C   UNL     1      14.814  10.724  -5.399  1.00  0.00     0.000 C 
ENDROOT
BRANCH   1   2
ATOM      2  C   UNL     1      15.200  11.771  -6.458  1.00  0.00     0.000 C 
BRANCH   2   3
ATOM      3  C   UNL     1      14.026  12.595  -7.024  1.00  0.00     0.000 C 
BRANCH   3   4
ATOM      4  C   UNL     1      13.536  12.166  -8.422  1.00  0.00     0.000 C 
BRANCH   4   5
ATOM      5  C   UNL     1      12.096  12.589  -8.767  1.00  0.00     0.000 C 
BRANCH   5   6
ATOM      6  C   UNL     1      11.334  11.624  -9.695  1.00  0.00     0.000 C 
BRANCH   6   7
ATOM      7  C   UNL     1       9.809  11.575  -9.441  1.00  0.00     0.000 C 
BRANCH   7   8
ATOM      8  C   UNL     1       9.180  12.906  -8.983  1.00  0.00     0.000 C 
BRANCH   8   9
ATOM      9  C   UNL     1       9.029  13.991 -10.071  1.00  0.00     0.000 C 
BRANCH   9  10
ATOM     10  C   UNL     1       8.177  15.211  -9.675  1.00  0.00     0.000 C 
BRANCH  10  11
ATOM     11  C   UNL     1       6.676  14.993  -9.932  1.00  0.00     0.000 C 
BRANCH  11  12
ATOM     12  C   UNL     1       5.796  15.544  -8.799  1.00  0.00     0.006 C 
BRANCH  12  13
ATOM     13  C   UNL     1       6.563  15.728  -7.481  1.00  0.00     0.053 C 
BRANCH  13  14
ATOM     14  C   UNL     1       6.220  17.040  -6.850  1.00  0.00     0.041 C 
ATOM     15  O   UNL     1       6.884  17.461  -5.864  1.00  0.00    -0.550 OA
ATOM     16  O   UNL     1       5.151  17.789  -7.330  1.00  0.00    -0.550 OA
ENDBRANCH  13  14
ENDBRANCH  12  13
ENDBRANCH  11  12
ENDBRANCH  10  11
ENDBRANCH   9  10
ENDBRANCH   8   9
ENDBRANCH   7   8
ENDBRANCH   6   7
ENDBRANCH   5   6
ENDBRANCH   4   5
ENDBRANCH   3   4
ENDBRANCH   2   3
ENDBRANCH   1   2
BRANCH   1  17
ATOM     17  C   UNL     1      14.713   9.301  -5.972  1.00  0.00     0.000 C 
BRANCH  17  18
ATOM     18  C   UNL     1      13.340   9.006  -6.606  1.00  0.00     0.000 C 
BRANCH  18  19
ATOM     19  C   UNL     1      12.127   9.232  -5.684  1.00  0.00     0.000 C 
BRANCH  19  20
ATOM     20  C   UNL     1      10.990  10.082  -6.285  1.00  0.00     0.000 C 
BRANCH  20  21
ATOM     21  C   UNL     1      10.743  11.413  -5.544  1.00  0.00     0.000 C 
BRANCH  21  22
ATOM     22  C   UNL     1      11.051  11.326  -4.037  1.00  0.00    -0.000 C 
BRANCH  22  23
ATOM     23  C   UNL     1      12.172  12.285  -3.603  1.00  0.00    -0.000 C 
BRANCH  23  24
ATOM     24  C   UNL     1      12.419  12.258  -2.085  1.00  0.00    -0.000 C 
BRANCH  24  25
ATOM     25  C   UNL     1      12.647  10.832  -1.554  1.00  0.00    -0.000 C 
BRANCH  25  26
ATOM     26  C   UNL     1      14.139  10.472  -1.448  1.00  0.00    -0.000 C 
BRANCH  26  27
ATOM     27  C   UNL     1      15.028  11.695  -1.151  1.00  0.00    -0.000 C 
BRANCH  27  28
ATOM     28  C   UNL     1      16.148  11.955  -2.178  1.00  0.00    -0.000 C 
BRANCH  28  29
ATOM     29  C   UNL     1      16.420  13.441  -2.477  1.00  0.00    -0.003 C 
ATOM     30  C   UNL     1      15.462  14.022  -3.516  1.00  0.00     0.004 C 
ENDBRANCH  28  29
ENDBRANCH  27  28
ENDBRANCH  26  27
ENDBRANCH  25  26
ENDBRANCH  24  25
ENDBRANCH  23  24
ENDBRANCH  22  23
ENDBRANCH  21  22
ENDBRANCH  20  21
ENDBRANCH  19  20
ENDBRANCH  18  19
ENDBRANCH  17  18
ENDBRANCH   1  17
TORSDOF 26
ENDMDL
