MODEL 1
REMARK VINA RESULT:    -4.006      0.000      0.000
REMARK INTER + INTRA:          -5.800
REMARK INTER:                  -5.411
REMARK INTRA:                  -0.390
REMARK UNBOUND:                -0.390
REMARK SMILES CCCCCCC=CC(=O)[O-]
REMARK SMILES IDX 5 1 6 2 7 3 8 4 9 5 10 6 11 7 4 8 3 9 2 10 1 11
REMARK H PARENT
REMARK Flexibility Score: inf
ROOT
ATOM      1  C   UNL     1       0.370   3.639   6.753  1.00  0.00     0.004 C 
ENDROOT
BRANCH   1   2
ATOM      2  C   UNL     1       0.770   2.158   6.763  1.00  0.00     0.027 C 
BRANCH   2   3
ATOM      3  C   UNL     1       2.263   1.996   6.869  1.00  0.00    -0.025 C 
ATOM      4  C   UNL     1       2.938   0.837   6.802  1.00  0.00     0.020 C 
BRANCH   4   5
ATOM      5  C   UNL     1       2.358  -0.514   6.655  1.00  0.00     0.064 C 
ATOM      6  O   UNL     1       2.349  -1.052   5.517  1.00  0.00    -0.545 OA
ATOM      7  O   UNL     1       1.847  -1.224   7.734  1.00  0.00    -0.545 OA
ENDBRANCH   4   5
ENDBRANCH   2   3
ENDBRANCH   1   2
BRANCH   1   8
ATOM      8  C   UNL     1      -0.377   3.994   5.458  1.00  0.00     0.000 C 
BRANCH   8   9
ATOM      9  C   UNL     1      -1.479   2.980   5.112  1.00  0.00    -0.000 C 
BRANCH   9  10
ATOM     10  C   UNL     1      -2.821   3.314   5.781  1.00  0.00    -0.003 C 
ATOM     11  C   UNL     1      -3.582   2.044   6.150  1.00  0.00     0.004 C 
ENDBRANCH   9  10
ENDBRANCH   8   9
ENDBRANCH   1   8
TORSDOF 6
ENDMDL
MODEL 2
REMARK VINA RESULT:    -3.966      2.831      5.443
REMARK INTER + INTRA:          -5.746
REMARK INTER:                  -5.233
REMARK INTRA:                  -0.514
REMARK UNBOUND:                -0.390
REMARK SMILES CCCCCCC=CC(=O)[O-]
REMARK SMILES IDX 5 1 6 2 7 3 8 4 9 5 10 6 11 7 4 8 3 9 2 10 1 11
REMARK H PARENT
REMARK Flexibility Score: inf
ROOT
ATOM      1  C   UNL     1       1.988   0.745   7.316  1.00  0.00     0.004 C 
ENDROOT
BRANCH   1   2
ATOM      2  C   UNL     1       0.825   1.264   6.459  1.00  0.00     0.027 C 
BRANCH   2   3
ATOM      3  C   UNL     1       0.374   2.625   6.916  1.00  0.00    -0.025 C 
ATOM      4  C   UNL     1      -0.643   3.334   6.400  1.00  0.00     0.020 C 
BRANCH   4   5
ATOM      5  C   UNL     1      -1.497   2.948   5.257  1.00  0.00     0.064 C 
ATOM      6  O   UNL     1      -1.145   3.282   4.096  1.00  0.00    -0.545 OA
ATOM      7  O   UNL     1      -2.659   2.205   5.416  1.00  0.00    -0.545 OA
ENDBRANCH   4   5
ENDBRANCH   2   3
ENDBRANCH   1   2
BRANCH   1   8
ATOM      8  C   UNL     1       3.278   0.650   6.487  1.00  0.00     0.000 C 
BRANCH   8   9
ATOM      9  C   UNL     1       4.516   1.127   7.263  1.00  0.00    -0.000 C 
BRANCH   9  10
ATOM     10  C   UNL     1       4.576   2.656   7.399  1.00  0.00    -0.003 C 
ATOM     11  C   UNL     1       4.302   3.337   6.062  1.00  0.00     0.004 C 
ENDBRANCH   9  10
ENDBRANCH   8   9
ENDBRANCH   1   8
TORSDOF 6
ENDMDL
MODEL 3
REMARK VINA RESULT:    -3.884      3.143      5.443
REMARK INTER + INTRA:          -5.636
REMARK INTER:                  -5.075
REMARK INTRA:                  -0.561
REMARK UNBOUND:                -0.390
REMARK SMILES CCCCCCC=CC(=O)[O-]
REMARK SMILES IDX 5 1 6 2 7 3 8 4 9 5 10 6 11 7 4 8 3 9 2 10 1 11
REMARK H PARENT
REMARK Flexibility Score: inf
ROOT
ATOM      1  C   UNL     1       1.183   1.621   7.862  1.00  0.00     0.004 C 
ENDROOT
BRANCH   1   2
ATOM      2  C   UNL     1      -0.075   2.401   7.458  1.00  0.00     0.027 C 
BRANCH   2   3
ATOM      3  C   UNL     1      -0.085   2.698   5.983  1.00  0.00    -0.025 C 
ATOM      4  C   UNL     1      -1.173   2.934   5.232  1.00  0.00     0.020 C 
BRANCH   4   5
ATOM      5  C   UNL     1      -2.579   2.910   5.685  1.00  0.00     0.064 C 
ATOM      6  O   UNL     1      -3.060   3.937   6.231  1.00  0.00    -0.545 OA
ATOM      7  O   UNL     1      -3.398   1.803   5.505  1.00  0.00    -0.545 OA
ENDBRANCH   4   5
ENDBRANCH   2   3
ENDBRANCH   1   2
BRANCH   1   8
ATOM      8  C   UNL     1       1.668   0.730   6.708  1.00  0.00     0.000 C 
BRANCH   8   9
ATOM      9  C   UNL     1       3.190   0.799   6.506  1.00  0.00    -0.000 C 
BRANCH   9  10
ATOM     10  C   UNL     1       3.824   2.012   7.204  1.00  0.00    -0.003 C 
ATOM     11  C   UNL     1       4.222   3.082   6.193  1.00  0.00     0.004 C 
ENDBRANCH   9  10
ENDBRANCH   8   9
ENDBRANCH   1   8
TORSDOF 6
ENDMDL
MODEL 4
REMARK VINA RESULT:    -3.851     12.795     13.589
REMARK INTER + INTRA:          -5.591
REMARK INTER:                  -5.006
REMARK INTRA:                  -0.585
REMARK UNBOUND:                -0.390
REMARK SMILES CCCCCCC=CC(=O)[O-]
REMARK SMILES IDX 5 1 6 2 7 3 8 4 9 5 10 6 11 7 4 8 3 9 2 10 1 11
REMARK H PARENT
REMARK Flexibility Score: inf
ROOT
ATOM      1  C   UNL     1      -1.736  -2.133  -5.429  1.00  0.00     0.004 C 
ENDROOT
BRANCH   1   2
ATOM      2  C   UNL     1      -2.538  -3.435  -5.298  1.00  0.00     0.027 C 
BRANCH   2   3
ATOM      3  C   UNL     1      -4.019  -3.169  -5.322  1.00  0.00    -0.025 C 
ATOM      4  C   UNL     1      -4.974  -3.975  -4.830  1.00  0.00     0.020 C 
BRANCH   4   5
ATOM      5  C   UNL     1      -4.775  -5.301  -4.208  1.00  0.00     0.064 C 
ATOM      6  O   UNL     1      -4.748  -6.321  -4.945  1.00  0.00    -0.545 OA
ATOM      7  O   UNL     1      -4.587  -5.459  -2.841  1.00  0.00    -0.545 OA
ENDBRANCH   4   5
ENDBRANCH   2   3
ENDBRANCH   1   2
BRANCH   1   8
ATOM      8  C   UNL     1      -1.815  -1.583  -6.862  1.00  0.00     0.000 C 
BRANCH   8   9
ATOM      9  C   UNL     1      -2.043  -0.064  -6.901  1.00  0.00    -0.000 C 
BRANCH   9  10
ATOM     10  C   UNL     1      -3.346   0.356  -6.204  1.00  0.00    -0.003 C 
ATOM     11  C   UNL     1      -4.561   0.020  -7.063  1.00  0.00     0.004 C 
ENDBRANCH   9  10
ENDBRANCH   8   9
ENDBRANCH   1   8
TORSDOF 6
ENDMDL
MODEL 5
REMARK VINA RESULT:    -3.850     12.421     13.768
REMARK INTER + INTRA:          -5.591
REMARK INTER:                  -5.081
REMARK INTRA:                  -0.510
REMARK UNBOUND:                -0.390
REMARK SMILES CCCCCCC=CC(=O)[O-]
REMARK SMILES IDX 5 1 6 2 7 3 8 4 9 5 10 6 11 7 4 8 3 9 2 10 1 11
REMARK H PARENT
REMARK Flexibility Score: inf
ROOT
ATOM      1  C   UNL     1      -4.777  -4.902  -4.737  1.00  0.00     0.004 C 
ENDROOT
BRANCH   1   2
ATOM      2  C   UNL     1      -4.865  -3.372  -4.822  1.00  0.00     0.027 C 
BRANCH   2   3
ATOM      3  C   UNL     1      -4.621  -2.888  -6.226  1.00  0.00    -0.025 C 
ATOM      4  C   UNL     1      -3.804  -1.884  -6.584  1.00  0.00     0.020 C 
BRANCH   4   5
ATOM      5  C   UNL     1      -3.016  -1.023  -5.677  1.00  0.00     0.064 C 
ATOM      6  O   UNL     1      -1.943  -1.471  -5.195  1.00  0.00    -0.545 OA
ATOM      7  O   UNL     1      -3.402   0.273  -5.361  1.00  0.00    -0.545 OA
ENDBRANCH   4   5
ENDBRANCH   2   3
ENDBRANCH   1   2
BRANCH   1   8
ATOM      8  C   UNL     1      -3.660  -5.334  -3.774  1.00  0.00     0.000 C 
BRANCH   8   9
ATOM      9  C   UNL     1      -2.279  -5.370  -4.448  1.00  0.00    -0.000 C 
BRANCH   9  10
ATOM     10  C   UNL     1      -1.235  -4.524  -3.703  1.00  0.00    -0.003 C 
ATOM     11  C   UNL     1       0.002  -4.295  -4.565  1.00  0.00     0.004 C 
ENDBRANCH   9  10
ENDBRANCH   8   9
ENDBRANCH   1   8
TORSDOF 6
ENDMDL
MODEL 6
REMARK VINA RESULT:    -3.840      3.033      5.228
REMARK INTER + INTRA:          -5.577
REMARK INTER:                  -5.023
REMARK INTRA:                  -0.553
REMARK UNBOUND:                -0.390
REMARK SMILES CCCCCCC=CC(=O)[O-]
REMARK SMILES IDX 5 1 6 2 7 3 8 4 9 5 10 6 11 7 4 8 3 9 2 10 1 11
REMARK H PARENT
REMARK Flexibility Score: inf
ROOT
ATOM      1  C   UNL     1       1.384   2.216   7.951  1.00  0.00     0.004 C 
ENDROOT
BRANCH   1   2
ATOM      2  C   UNL     1      -0.052   2.427   7.454  1.00  0.00     0.027 C 
BRANCH   2   3
ATOM      3  C   UNL     1      -0.086   2.680   5.971  1.00  0.00    -0.025 C 
ATOM      4  C   UNL     1      -1.185   2.904   5.233  1.00  0.00     0.020 C 
BRANCH   4   5
ATOM      5  C   UNL     1      -2.583   2.906   5.712  1.00  0.00     0.064 C 
ATOM      6  O   UNL     1      -3.045   3.952   6.238  1.00  0.00    -0.545 OA
ATOM      7  O   UNL     1      -3.416   1.803   5.577  1.00  0.00    -0.545 OA
ENDBRANCH   4   5
ENDBRANCH   2   3
ENDBRANCH   1   2
BRANCH   1   8
ATOM      8  C   UNL     1       2.387   2.334   6.793  1.00  0.00     0.000 C 
BRANCH   8   9
ATOM      9  C   UNL     1       3.477   1.253   6.841  1.00  0.00    -0.000 C 
BRANCH   9  10
ATOM     10  C   UNL     1       2.933  -0.117   7.274  1.00  0.00    -0.003 C 
ATOM     11  C   UNL     1       2.193  -0.801   6.128  1.00  0.00     0.004 C 
ENDBRANCH   9  10
ENDBRANCH   8   9
ENDBRANCH   1   8
TORSDOF 6
ENDMDL
MODEL 7
REMARK VINA RESULT:    -3.837      1.776      2.085
REMARK INTER + INTRA:          -5.572
REMARK INTER:                  -5.191
REMARK INTRA:                  -0.381
REMARK UNBOUND:                -0.390
REMARK SMILES CCCCCCC=CC(=O)[O-]
REMARK SMILES IDX 5 1 6 2 7 3 8 4 9 5 10 6 11 7 4 8 3 9 2 10 1 11
REMARK H PARENT
REMARK Flexibility Score: inf
ROOT
ATOM      1  C   UNL     1      -0.200   2.418   7.325  1.00  0.00     0.004 C 
ENDROOT
BRANCH   1   2
ATOM      2  C   UNL     1       1.186   1.883   7.708  1.00  0.00     0.027 C 
BRANCH   2   3
ATOM      3  C   UNL     1       1.571   0.704   6.855  1.00  0.00    -0.025 C 
ATOM      4  C   UNL     1       2.821   0.358   6.505  1.00  0.00     0.020 C 
BRANCH   4   5
ATOM      5  C   UNL     1       4.064   1.080   6.846  1.00  0.00     0.064 C 
ATOM      6  O   UNL     1       4.750   0.683   7.824  1.00  0.00    -0.545 OA
ATOM      7  O   UNL     1       4.518   2.166   6.108  1.00  0.00    -0.545 OA
ENDBRANCH   4   5
ENDBRANCH   2   3
ENDBRANCH   1   2
BRANCH   1   8
ATOM      8  C   UNL     1      -0.165   3.091   5.945  1.00  0.00     0.000 C 
BRANCH   8   9
ATOM      9  C   UNL     1      -1.463   2.880   5.149  1.00  0.00    -0.000 C 
BRANCH   9  10
ATOM     10  C   UNL     1      -2.717   3.256   5.953  1.00  0.00    -0.003 C 
ATOM     11  C   UNL     1      -3.702   2.093   6.009  1.00  0.00     0.004 C 
ENDBRANCH   9  10
ENDBRANCH   8   9
ENDBRANCH   1   8
TORSDOF 6
ENDMDL
MODEL 8
REMARK VINA RESULT:    -3.805      1.199      2.063
REMARK INTER + INTRA:          -5.530
REMARK INTER:                  -4.885
REMARK INTRA:                  -0.644
REMARK UNBOUND:                -0.390
REMARK SMILES CCCCCCC=CC(=O)[O-]
REMARK SMILES IDX 5 1 6 2 7 3 8 4 9 5 10 6 11 7 4 8 3 9 2 10 1 11
REMARK H PARENT
REMARK Flexibility Score: inf
ROOT
ATOM      1  C   UNL     1       1.814   3.321   7.685  1.00  0.00     0.004 C 
ENDROOT
BRANCH   1   2
ATOM      2  C   UNL     1       2.653   2.919   6.465  1.00  0.00     0.027 C 
BRANCH   2   3
ATOM      3  C   UNL     1       3.793   2.018   6.859  1.00  0.00    -0.025 C 
ATOM      4  C   UNL     1       3.741   0.680   6.966  1.00  0.00     0.020 C 
BRANCH   4   5
ATOM      5  C   UNL     1       2.553  -0.175   6.763  1.00  0.00     0.064 C 
ATOM      6  O   UNL     1       1.713  -0.281   7.695  1.00  0.00    -0.545 OA
ATOM      7  O   UNL     1       2.316  -0.845   5.570  1.00  0.00    -0.545 OA
ENDBRANCH   4   5
ENDBRANCH   2   3
ENDBRANCH   1   2
BRANCH   1   8
ATOM      8  C   UNL     1       0.312   3.237   7.369  1.00  0.00     0.000 C 
BRANCH   8   9
ATOM      9  C   UNL     1       0.015   2.376   6.131  1.00  0.00    -0.000 C 
BRANCH   9  10
ATOM     10  C   UNL     1      -1.175   2.903   5.316  1.00  0.00    -0.003 C 
ATOM     11  C   UNL     1      -0.906   4.313   4.800  1.00  0.00     0.004 C 
ENDBRANCH   9  10
ENDBRANCH   8   9
ENDBRANCH   1   8
TORSDOF 6
ENDMDL
MODEL 9
REMARK VINA RESULT:    -3.737     12.254     13.131
REMARK INTER + INTRA:          -5.438
REMARK INTER:                  -4.872
REMARK INTRA:                  -0.565
REMARK UNBOUND:                -0.390
REMARK SMILES CCCCCCC=CC(=O)[O-]
REMARK SMILES IDX 5 1 6 2 7 3 8 4 9 5 10 6 11 7 4 8 3 9 2 10 1 11
REMARK H PARENT
REMARK Flexibility Score: inf
ROOT
ATOM      1  C   UNL     1      -4.246  -4.643  -5.922  1.00  0.00     0.004 C 
ENDROOT
BRANCH   1   2
ATOM      2  C   UNL     1      -2.782  -5.034  -5.681  1.00  0.00     0.027 C 
BRANCH   2   3
ATOM      3  C   UNL     1      -2.418  -4.919  -4.225  1.00  0.00    -0.025 C 
ATOM      4  C   UNL     1      -1.282  -4.397  -3.734  1.00  0.00     0.020 C 
BRANCH   4   5
ATOM      5  C   UNL     1      -0.143  -3.872  -4.515  1.00  0.00     0.064 C 
ATOM      6  O   UNL     1      -0.085  -2.638  -4.752  1.00  0.00    -0.545 OA
ATOM      7  O   UNL     1       0.883  -4.689  -4.973  1.00  0.00    -0.545 OA
ENDBRANCH   4   5
ENDBRANCH   2   3
ENDBRANCH   1   2
BRANCH   1   8
ATOM      8  C   UNL     1      -4.601  -3.355  -5.163  1.00  0.00     0.000 C 
BRANCH   8   9
ATOM      9  C   UNL     1      -4.434  -2.094  -6.025  1.00  0.00    -0.000 C 
BRANCH   9  10
ATOM     10  C   UNL     1      -3.195  -1.274  -5.639  1.00  0.00    -0.003 C 
ATOM     11  C   UNL     1      -3.348   0.184  -6.060  1.00  0.00     0.004 C 
ENDBRANCH   9  10
ENDBRANCH   8   9
ENDBRANCH   1   8
TORSDOF 6
ENDMDL
