MODEL 1
REMARK VINA RESULT:    -4.073      0.000      0.000
REMARK INTER + INTRA:          -9.981
REMARK INTER:                  -7.645
REMARK INTRA:                  -2.336
REMARK UNBOUND:                -2.336
REMARK SMILES O=C([O-])CCCCCCCCCCCCCCC(=O)[O-]
REMARK SMILES IDX 10 1 9 2 8 3 7 4 6 5 5 6 4 7 2 8 1 9 3 10 11 11 12 12 13 13
REMARK SMILES IDX 14 14 15 15 16 16 17 17 18 18 19 19 20 20
REMARK H PARENT
REMARK Flexibility Score: inf
ROOT
ATOM      1  C   UNL     1      29.995   6.939  30.458  1.00  0.00     0.000 C 
ENDROOT
BRANCH   1   2
ATOM      2  C   UNL     1      31.117   6.949  31.503  1.00  0.00     0.000 C 
BRANCH   2   3
ATOM      3  C   UNL     1      30.869   8.029  32.567  1.00  0.00     0.000 C 
BRANCH   3   4
ATOM      4  C   UNL     1      31.371   9.416  32.131  1.00  0.00     0.000 C 
BRANCH   4   5
ATOM      5  C   UNL     1      30.222  10.371  31.763  1.00  0.00     0.000 C 
BRANCH   5   6
ATOM      6  C   UNL     1      30.716  11.743  31.270  1.00  0.00     0.006 C 
BRANCH   6   7
ATOM      7  C   UNL     1      30.321  12.067  29.818  1.00  0.00     0.053 C 
BRANCH   7   8
ATOM      8  C   UNL     1      28.837  12.144  29.627  1.00  0.00     0.041 C 
ATOM      9  O   UNL     1      28.143  12.895  30.361  1.00  0.00    -0.550 OA
ATOM     10  O   UNL     1      28.216  11.364  28.659  1.00  0.00    -0.550 OA
ENDBRANCH   7   8
ENDBRANCH   6   7
ENDBRANCH   5   6
ENDBRANCH   4   5
ENDBRANCH   3   4
ENDBRANCH   2   3
ENDBRANCH   1   2
BRANCH   1  11
ATOM     11  C   UNL     1      30.561   7.127  29.041  1.00  0.00     0.000 C 
BRANCH  11  12
ATOM     12  C   UNL     1      30.429   8.573  28.541  1.00  0.00     0.000 C 
BRANCH  12  13
ATOM     13  C   UNL     1      31.785   9.201  28.174  1.00  0.00     0.000 C 
BRANCH  13  14
ATOM     14  C   UNL     1      32.974   8.315  28.604  1.00  0.00     0.000 C 
BRANCH  14  15
ATOM     15  C   UNL     1      33.918   8.989  29.619  1.00  0.00     0.000 C 
BRANCH  15  16
ATOM     16  C   UNL     1      34.472   8.054  30.706  1.00  0.00     0.006 C 
BRANCH  16  17
ATOM     17  C   UNL     1      35.998   7.903  30.637  1.00  0.00     0.053 C 
BRANCH  17  18
ATOM     18  C   UNL     1      36.663   9.220  30.882  1.00  0.00     0.041 C 
ATOM     19  O   UNL     1      37.312   9.784  29.963  1.00  0.00    -0.550 OA
ATOM     20  O   UNL     1      36.521   9.850  32.113  1.00  0.00    -0.550 OA
ENDBRANCH  17  18
ENDBRANCH  16  17
ENDBRANCH  15  16
ENDBRANCH  14  15
ENDBRANCH  13  14
ENDBRANCH  12  13
ENDBRANCH  11  12
ENDBRANCH   1  11
TORSDOF 15
ENDMDL
MODEL 2
REMARK VINA RESULT:    -4.023      1.243      2.504
REMARK INTER + INTRA:          -9.888
REMARK INTER:                  -7.422
REMARK INTRA:                  -2.465
REMARK UNBOUND:                -2.336
REMARK SMILES O=C([O-])CCCCCCCCCCCCCCC(=O)[O-]
REMARK SMILES IDX 10 1 9 2 8 3 7 4 6 5 5 6 4 7 2 8 1 9 3 10 11 11 12 12 13 13
REMARK SMILES IDX 14 14 15 15 16 16 17 17 18 18 19 19 20 20
REMARK H PARENT
REMARK Flexibility Score: inf
ROOT
ATOM      1  C   UNL     1      30.772   6.664  30.784  1.00  0.00     0.000 C 
ENDROOT
BRANCH   1   2
ATOM      2  C   UNL     1      30.322   7.700  29.746  1.00  0.00     0.000 C 
BRANCH   2   3
ATOM      3  C   UNL     1      31.434   7.971  28.721  1.00  0.00     0.000 C 
BRANCH   3   4
ATOM      4  C   UNL     1      31.330   9.370  28.091  1.00  0.00     0.000 C 
BRANCH   4   5
ATOM      5  C   UNL     1      30.291  10.259  28.794  1.00  0.00     0.000 C 
BRANCH   5   6
ATOM      6  C   UNL     1      30.928  11.395  29.615  1.00  0.00     0.006 C 
BRANCH   6   7
ATOM      7  C   UNL     1      29.925  12.457  30.099  1.00  0.00     0.053 C 
BRANCH   7   8
ATOM      8  C   UNL     1      28.787  11.866  30.873  1.00  0.00     0.041 C 
ATOM      9  O   UNL     1      28.949  11.519  32.072  1.00  0.00    -0.550 OA
ATOM     10  O   UNL     1      27.554  11.671  30.262  1.00  0.00    -0.550 OA
ENDBRANCH   7   8
ENDBRANCH   6   7
ENDBRANCH   5   6
ENDBRANCH   4   5
ENDBRANCH   3   4
ENDBRANCH   2   3
ENDBRANCH   1   2
BRANCH   1  11
ATOM     11  C   UNL     1      31.571   7.329  31.915  1.00  0.00     0.000 C 
BRANCH  11  12
ATOM     12  C   UNL     1      31.003   8.701  32.311  1.00  0.00     0.000 C 
BRANCH  12  13
ATOM     13  C   UNL     1      32.101   9.738  32.598  1.00  0.00     0.000 C 
BRANCH  13  14
ATOM     14  C   UNL     1      33.505   9.224  32.215  1.00  0.00     0.000 C 
BRANCH  14  15
ATOM     15  C   UNL     1      34.058   9.834  30.912  1.00  0.00     0.000 C 
BRANCH  15  16
ATOM     16  C   UNL     1      34.675   8.820  29.935  1.00  0.00     0.006 C 
BRANCH  16  17
ATOM     17  C   UNL     1      35.617   7.825  30.626  1.00  0.00     0.053 C 
BRANCH  17  18
ATOM     18  C   UNL     1      36.965   8.441  30.829  1.00  0.00     0.041 C 
ATOM     19  O   UNL     1      37.493   9.125  29.915  1.00  0.00    -0.550 OA
ATOM     20  O   UNL     1      37.615   8.300  32.049  1.00  0.00    -0.550 OA
ENDBRANCH  17  18
ENDBRANCH  16  17
ENDBRANCH  15  16
ENDBRANCH  14  15
ENDBRANCH  13  14
ENDBRANCH  12  13
ENDBRANCH  11  12
ENDBRANCH   1  11
TORSDOF 15
ENDMDL
MODEL 3
REMARK VINA RESULT:    -3.928      2.391      5.564
REMARK INTER + INTRA:          -9.709
REMARK INTER:                  -7.543
REMARK INTRA:                  -2.166
REMARK UNBOUND:                -2.336
REMARK SMILES O=C([O-])CCCCCCCCCCCCCCC(=O)[O-]
REMARK SMILES IDX 10 1 9 2 8 3 7 4 6 5 5 6 4 7 2 8 1 9 3 10 11 11 12 12 13 13
REMARK SMILES IDX 14 14 15 15 16 16 17 17 18 18 19 19 20 20
REMARK H PARENT
REMARK Flexibility Score: inf
ROOT
ATOM      1  C   UNL     1      29.150  11.716  31.600  1.00  0.00     0.000 C 
ENDROOT
BRANCH   1   2
ATOM      2  C   UNL     1      30.038  10.467  31.545  1.00  0.00     0.000 C 
BRANCH   2   3
ATOM      3  C   UNL     1      30.971  10.401  32.764  1.00  0.00     0.000 C 
BRANCH   3   4
ATOM      4  C   UNL     1      32.328  11.077  32.510  1.00  0.00     0.000 C 
BRANCH   4   5
ATOM      5  C   UNL     1      32.940  10.683  31.155  1.00  0.00     0.000 C 
BRANCH   5   6
ATOM      6  C   UNL     1      33.693   9.340  31.204  1.00  0.00     0.006 C 
BRANCH   6   7
ATOM      7  C   UNL     1      34.568   9.067  29.968  1.00  0.00     0.053 C 
BRANCH   7   8
ATOM      8  C   UNL     1      35.977   8.708  30.326  1.00  0.00     0.041 C 
ATOM      9  O   UNL     1      36.928   9.460  29.985  1.00  0.00    -0.550 OA
ATOM     10  O   UNL     1      36.246   7.529  31.011  1.00  0.00    -0.550 OA
ENDBRANCH   7   8
ENDBRANCH   6   7
ENDBRANCH   5   6
ENDBRANCH   4   5
ENDBRANCH   3   4
ENDBRANCH   2   3
ENDBRANCH   1   2
BRANCH   1  11
ATOM     11  C   UNL     1      29.166  12.462  30.256  1.00  0.00     0.000 C 
BRANCH  11  12
ATOM     12  C   UNL     1      29.989  11.731  29.186  1.00  0.00     0.000 C 
BRANCH  12  13
ATOM     13  C   UNL     1      29.109  11.037  28.131  1.00  0.00     0.000 C 
BRANCH  13  14
ATOM     14  C   UNL     1      29.836   9.858  27.448  1.00  0.00     0.000 C 
BRANCH  14  15
ATOM     15  C   UNL     1      31.202   9.521  28.076  1.00  0.00     0.000 C 
BRANCH  15  16
ATOM     16  C   UNL     1      31.319   8.096  28.641  1.00  0.00     0.006 C 
BRANCH  16  17
ATOM     17  C   UNL     1      30.149   7.724  29.561  1.00  0.00     0.053 C 
BRANCH  17  18
ATOM     18  C   UNL     1      30.535   6.594  30.462  1.00  0.00     0.041 C 
ATOM     19  O   UNL     1      31.247   6.808  31.477  1.00  0.00    -0.550 OA
ATOM     20  O   UNL     1      30.064   5.311  30.208  1.00  0.00    -0.550 OA
ENDBRANCH  17  18
ENDBRANCH  16  17
ENDBRANCH  15  16
ENDBRANCH  14  15
ENDBRANCH  13  14
ENDBRANCH  12  13
ENDBRANCH  11  12
ENDBRANCH   1  11
TORSDOF 15
ENDMDL
MODEL 4
REMARK VINA RESULT:    -3.903      1.510      6.386
REMARK INTER + INTRA:          -9.662
REMARK INTER:                  -7.150
REMARK INTRA:                  -2.512
REMARK UNBOUND:                -2.336
REMARK SMILES O=C([O-])CCCCCCCCCCCCCCC(=O)[O-]
REMARK SMILES IDX 10 1 9 2 8 3 7 4 6 5 5 6 4 7 2 8 1 9 3 10 11 11 12 12 13 13
REMARK SMILES IDX 14 14 15 15 16 16 17 17 18 18 19 19 20 20
REMARK H PARENT
REMARK Flexibility Score: inf
ROOT
ATOM      1  C   UNL     1      31.218   7.075  29.823  1.00  0.00     0.000 C 
ENDROOT
BRANCH   1   2
ATOM      2  C   UNL     1      31.044   8.110  28.706  1.00  0.00     0.000 C 
BRANCH   2   3
ATOM      3  C   UNL     1      32.257   9.051  28.632  1.00  0.00     0.000 C 
BRANCH   3   4
ATOM      4  C   UNL     1      33.457   8.534  29.442  1.00  0.00     0.000 C 
BRANCH   4   5
ATOM      5  C   UNL     1      34.152   9.648  30.244  1.00  0.00     0.000 C 
BRANCH   5   6
ATOM      6  C   UNL     1      34.524   9.216  31.674  1.00  0.00     0.006 C 
BRANCH   6   7
ATOM      7  C   UNL     1      34.639   7.693  31.860  1.00  0.00     0.053 C 
BRANCH   7   8
ATOM      8  C   UNL     1      36.018   7.262  32.255  1.00  0.00     0.041 C 
ATOM      9  O   UNL     1      36.972   7.368  31.440  1.00  0.00    -0.550 OA
ATOM     10  O   UNL     1      36.247   6.716  33.512  1.00  0.00    -0.550 OA
ENDBRANCH   7   8
ENDBRANCH   6   7
ENDBRANCH   5   6
ENDBRANCH   4   5
ENDBRANCH   3   4
ENDBRANCH   2   3
ENDBRANCH   1   2
BRANCH   1  11
ATOM     11  C   UNL     1      30.329   7.412  31.030  1.00  0.00     0.000 C 
BRANCH  11  12
ATOM     12  C   UNL     1      31.097   7.368  32.359  1.00  0.00     0.000 C 
BRANCH  12  13
ATOM     13  C   UNL     1      31.064   8.711  33.109  1.00  0.00     0.000 C 
BRANCH  13  14
ATOM     14  C   UNL     1      30.914   9.912  32.150  1.00  0.00     0.000 C 
BRANCH  14  15
ATOM     15  C   UNL     1      29.881  10.955  32.615  1.00  0.00     0.000 C 
BRANCH  15  16
ATOM     16  C   UNL     1      29.062  11.603  31.486  1.00  0.00     0.006 C 
BRANCH  16  17
ATOM     17  C   UNL     1      28.968  10.715  30.238  1.00  0.00     0.053 C 
BRANCH  17  18
ATOM     18  C   UNL     1      29.345  11.493  29.017  1.00  0.00     0.041 C 
ATOM     19  O   UNL     1      28.522  11.631  28.074  1.00  0.00    -0.550 OA
ATOM     20  O   UNL     1      30.588  12.109  28.943  1.00  0.00    -0.550 OA
ENDBRANCH  17  18
ENDBRANCH  16  17
ENDBRANCH  15  16
ENDBRANCH  14  15
ENDBRANCH  13  14
ENDBRANCH  12  13
ENDBRANCH  11  12
ENDBRANCH   1  11
TORSDOF 15
ENDMDL
MODEL 5
REMARK VINA RESULT:    -3.896      1.846      5.772
REMARK INTER + INTRA:          -9.648
REMARK INTER:                  -7.442
REMARK INTRA:                  -2.206
REMARK UNBOUND:                -2.336
REMARK SMILES O=C([O-])CCCCCCCCCCCCCCC(=O)[O-]
REMARK SMILES IDX 10 1 9 2 8 3 7 4 6 5 5 6 4 7 2 8 1 9 3 10 11 11 12 12 13 13
REMARK SMILES IDX 14 14 15 15 16 16 17 17 18 18 19 19 20 20
REMARK H PARENT
REMARK Flexibility Score: inf
ROOT
ATOM      1  C   UNL     1      30.239   7.607  29.219  1.00  0.00     0.000 C 
ENDROOT
BRANCH   1   2
ATOM      2  C   UNL     1      30.488   8.053  30.665  1.00  0.00     0.000 C 
BRANCH   2   3
ATOM      3  C   UNL     1      31.760   7.402  31.230  1.00  0.00     0.000 C 
BRANCH   3   4
ATOM      4  C   UNL     1      32.611   8.382  32.054  1.00  0.00     0.000 C 
BRANCH   4   5
ATOM      5  C   UNL     1      33.355   9.401  31.175  1.00  0.00     0.000 C 
BRANCH   5   6
ATOM      6  C   UNL     1      34.279   8.739  30.137  1.00  0.00     0.006 C 
BRANCH   6   7
ATOM      7  C   UNL     1      35.762   9.127  30.278  1.00  0.00     0.053 C 
BRANCH   7   8
ATOM      8  C   UNL     1      36.559   8.100  31.022  1.00  0.00     0.041 C 
ATOM      9  O   UNL     1      37.782   8.293  31.251  1.00  0.00    -0.550 OA
ATOM     10  O   UNL     1      35.960   6.917  31.438  1.00  0.00    -0.550 OA
ENDBRANCH   7   8
ENDBRANCH   6   7
ENDBRANCH   5   6
ENDBRANCH   4   5
ENDBRANCH   3   4
ENDBRANCH   2   3
ENDBRANCH   1   2
BRANCH   1  11
ATOM     11  C   UNL     1      31.366   8.090  28.292  1.00  0.00     0.000 C 
BRANCH  11  12
ATOM     12  C   UNL     1      31.210   9.566  27.895  1.00  0.00     0.000 C 
BRANCH  12  13
ATOM     13  C   UNL     1      29.761   9.933  27.531  1.00  0.00     0.000 C 
BRANCH  13  14
ATOM     14  C   UNL     1      29.367  11.335  28.045  1.00  0.00     0.000 C 
BRANCH  14  15
ATOM     15  C   UNL     1      28.228  11.320  29.083  1.00  0.00     0.000 C 
BRANCH  15  16
ATOM     16  C   UNL     1      28.686  11.176  30.543  1.00  0.00     0.006 C 
BRANCH  16  17
ATOM     17  C   UNL     1      30.097  11.732  30.780  1.00  0.00     0.053 C 
BRANCH  17  18
ATOM     18  C   UNL     1      30.482  11.578  32.217  1.00  0.00     0.041 C 
ATOM     19  O   UNL     1      31.411  12.275  32.703  1.00  0.00    -0.550 OA
ATOM     20  O   UNL     1      29.779  10.700  33.034  1.00  0.00    -0.550 OA
ENDBRANCH  17  18
ENDBRANCH  16  17
ENDBRANCH  15  16
ENDBRANCH  14  15
ENDBRANCH  13  14
ENDBRANCH  12  13
ENDBRANCH  11  12
ENDBRANCH   1  11
TORSDOF 15
ENDMDL
MODEL 6
REMARK VINA RESULT:    -3.889      1.690      3.030
REMARK INTER + INTRA:          -9.636
REMARK INTER:                  -7.281
REMARK INTRA:                  -2.355
REMARK UNBOUND:                -2.336
REMARK SMILES O=C([O-])CCCCCCCCCCCCCCC(=O)[O-]
REMARK SMILES IDX 10 1 9 2 8 3 7 4 6 5 5 6 4 7 2 8 1 9 3 10 11 11 12 12 13 13
REMARK SMILES IDX 14 14 15 15 16 16 17 17 18 18 19 19 20 20
REMARK H PARENT
REMARK Flexibility Score: inf
ROOT
ATOM      1  C   UNL     1      31.171   8.411  32.910  1.00  0.00     0.000 C 
ENDROOT
BRANCH   1   2
ATOM      2  C   UNL     1      31.798   7.484  31.862  1.00  0.00     0.000 C 
BRANCH   2   3
ATOM      3  C   UNL     1      30.716   6.827  30.990  1.00  0.00     0.000 C 
BRANCH   3   4
ATOM      4  C   UNL     1      30.218   7.752  29.867  1.00  0.00     0.000 C 
BRANCH   4   5
ATOM      5  C   UNL     1      31.357   8.237  28.953  1.00  0.00     0.000 C 
BRANCH   5   6
ATOM      6  C   UNL     1      31.227   9.723  28.568  1.00  0.00     0.006 C 
BRANCH   6   7
ATOM      7  C   UNL     1      30.123  10.474  29.331  1.00  0.00     0.053 C 
BRANCH   7   8
ATOM      8  C   UNL     1      29.079  11.046  28.421  1.00  0.00     0.041 C 
ATOM      9  O   UNL     1      28.005  11.500  28.897  1.00  0.00    -0.550 OA
ATOM     10  O   UNL     1      29.277  11.050  27.046  1.00  0.00    -0.550 OA
ENDBRANCH   7   8
ENDBRANCH   6   7
ENDBRANCH   5   6
ENDBRANCH   4   5
ENDBRANCH   3   4
ENDBRANCH   2   3
ENDBRANCH   1   2
BRANCH   1  11
ATOM     11  C   UNL     1      31.579   9.872  32.669  1.00  0.00     0.000 C 
BRANCH  11  12
ATOM     12  C   UNL     1      33.103  10.052  32.587  1.00  0.00     0.000 C 
BRANCH  12  13
ATOM     13  C   UNL     1      33.551  10.734  31.283  1.00  0.00     0.000 C 
BRANCH  13  14
ATOM     14  C   UNL     1      34.882  10.160  30.752  1.00  0.00     0.000 C 
BRANCH  14  15
ATOM     15  C   UNL     1      34.754   8.748  30.148  1.00  0.00     0.000 C 
BRANCH  15  16
ATOM     16  C   UNL     1      35.828   7.749  30.608  1.00  0.00     0.006 C 
BRANCH  16  17
ATOM     17  C   UNL     1      35.486   7.085  31.949  1.00  0.00     0.053 C 
BRANCH  17  18
ATOM     18  C   UNL     1      36.623   7.235  32.909  1.00  0.00     0.041 C 
ATOM     19  O   UNL     1      36.429   7.734  34.048  1.00  0.00    -0.550 OA
ATOM     20  O   UNL     1      37.888   6.776  32.563  1.00  0.00    -0.550 OA
ENDBRANCH  17  18
ENDBRANCH  16  17
ENDBRANCH  15  16
ENDBRANCH  14  15
ENDBRANCH  13  14
ENDBRANCH  12  13
ENDBRANCH  11  12
ENDBRANCH   1  11
TORSDOF 15
ENDMDL
MODEL 7
REMARK VINA RESULT:    -3.854      1.490      6.573
REMARK INTER + INTRA:          -9.570
REMARK INTER:                  -7.545
REMARK INTRA:                  -2.025
REMARK UNBOUND:                -2.336
REMARK SMILES O=C([O-])CCCCCCCCCCCCCCC(=O)[O-]
REMARK SMILES IDX 10 1 9 2 8 3 7 4 6 5 5 6 4 7 2 8 1 9 3 10 11 11 12 12 13 13
REMARK SMILES IDX 14 14 15 15 16 16 17 17 18 18 19 19 20 20
REMARK H PARENT
REMARK Flexibility Score: inf
ROOT
ATOM      1  C   UNL     1      33.498   9.352  31.764  1.00  0.00     0.000 C 
ENDROOT
BRANCH   1   2
ATOM      2  C   UNL     1      33.450   7.821  31.813  1.00  0.00     0.000 C 
BRANCH   2   3
ATOM      3  C   UNL     1      33.996   7.295  33.149  1.00  0.00     0.000 C 
BRANCH   3   4
ATOM      4  C   UNL     1      35.531   7.213  33.171  1.00  0.00     0.000 C 
BRANCH   4   5
ATOM      5  C   UNL     1      36.126   6.911  31.785  1.00  0.00     0.000 C 
BRANCH   5   6
ATOM      6  C   UNL     1      37.345   7.790  31.451  1.00  0.00     0.006 C 
BRANCH   6   7
ATOM      7  C   UNL     1      37.104   8.787  30.304  1.00  0.00     0.053 C 
BRANCH   7   8
ATOM      8  C   UNL     1      37.239  10.214  30.743  1.00  0.00     0.041 C 
ATOM      9  O   UNL     1      36.844  10.565  31.885  1.00  0.00    -0.550 OA
ATOM     10  O   UNL     1      37.774  11.162  29.880  1.00  0.00    -0.550 OA
ENDBRANCH   7   8
ENDBRANCH   6   7
ENDBRANCH   5   6
ENDBRANCH   4   5
ENDBRANCH   3   4
ENDBRANCH   2   3
ENDBRANCH   1   2
BRANCH   1  11
ATOM     11  C   UNL     1      33.557   9.856  30.314  1.00  0.00     0.000 C 
BRANCH  11  12
ATOM     12  C   UNL     1      33.487   8.713  29.290  1.00  0.00     0.000 C 
BRANCH  12  13
ATOM     13  C   UNL     1      32.224   8.777  28.414  1.00  0.00     0.000 C 
BRANCH  13  14
ATOM     14  C   UNL     1      31.097   7.867  28.948  1.00  0.00     0.000 C 
BRANCH  14  15
ATOM     15  C   UNL     1      30.051   8.608  29.804  1.00  0.00     0.000 C 
BRANCH  15  16
ATOM     16  C   UNL     1      30.099  10.141  29.698  1.00  0.00     0.006 C 
BRANCH  16  17
ATOM     17  C   UNL     1      29.345  10.839  30.838  1.00  0.00     0.053 C 
BRANCH  17  18
ATOM     18  C   UNL     1      28.125  11.526  30.310  1.00  0.00     0.041 C 
ATOM     19  O   UNL     1      27.711  11.280  29.148  1.00  0.00    -0.550 OA
ATOM     20  O   UNL     1      27.416  12.402  31.124  1.00  0.00    -0.550 OA
ENDBRANCH  17  18
ENDBRANCH  16  17
ENDBRANCH  15  16
ENDBRANCH  14  15
ENDBRANCH  13  14
ENDBRANCH  12  13
ENDBRANCH  11  12
ENDBRANCH   1  11
TORSDOF 15
ENDMDL
MODEL 8
REMARK VINA RESULT:    -3.787      2.465      6.028
REMARK INTER + INTRA:          -9.444
REMARK INTER:                  -6.985
REMARK INTRA:                  -2.459
REMARK UNBOUND:                -2.336
REMARK SMILES O=C([O-])CCCCCCCCCCCCCCC(=O)[O-]
REMARK SMILES IDX 10 1 9 2 8 3 7 4 6 5 5 6 4 7 2 8 1 9 3 10 11 11 12 12 13 13
REMARK SMILES IDX 14 14 15 15 16 16 17 17 18 18 19 19 20 20
REMARK H PARENT
REMARK Flexibility Score: inf
ROOT
ATOM      1  C   UNL     1      34.071   9.910  32.270  1.00  0.00     0.000 C 
ENDROOT
BRANCH   1   2
ATOM      2  C   UNL     1      33.756  10.030  30.774  1.00  0.00     0.000 C 
BRANCH   2   3
ATOM      3  C   UNL     1      34.154   8.750  30.023  1.00  0.00     0.000 C 
BRANCH   3   4
ATOM      4  C   UNL     1      33.255   8.472  28.808  1.00  0.00     0.000 C 
BRANCH   4   5
ATOM      5  C   UNL     1      31.950   9.286  28.840  1.00  0.00     0.000 C 
BRANCH   5   6
ATOM      6  C   UNL     1      30.694   8.416  28.647  1.00  0.00     0.006 C 
BRANCH   6   7
ATOM      7  C   UNL     1      29.972   8.058  29.958  1.00  0.00     0.053 C 
BRANCH   7   8
ATOM      8  C   UNL     1      30.167   6.626  30.352  1.00  0.00     0.041 C 
ATOM      9  O   UNL     1      30.968   6.329  31.278  1.00  0.00    -0.550 OA
ATOM     10  O   UNL     1      29.490   5.617  29.680  1.00  0.00    -0.550 OA
ENDBRANCH   7   8
ENDBRANCH   6   7
ENDBRANCH   5   6
ENDBRANCH   4   5
ENDBRANCH   3   4
ENDBRANCH   2   3
ENDBRANCH   1   2
BRANCH   1  11
ATOM     11  C   UNL     1      33.187   8.843  32.935  1.00  0.00     0.000 C 
BRANCH  11  12
ATOM     12  C   UNL     1      31.707   9.250  32.983  1.00  0.00     0.000 C 
BRANCH  12  13
ATOM     13  C   UNL     1      31.456  10.473  33.882  1.00  0.00     0.000 C 
BRANCH  13  14
ATOM     14  C   UNL     1      30.962  11.697  33.080  1.00  0.00     0.000 C 
BRANCH  14  15
ATOM     15  C   UNL     1      30.506  11.359  31.647  1.00  0.00     0.000 C 
BRANCH  15  16
ATOM     16  C   UNL     1      30.818  12.439  30.598  1.00  0.00     0.006 C 
BRANCH  16  17
ATOM     17  C   UNL     1      30.032  12.244  29.294  1.00  0.00     0.053 C 
BRANCH  17  18
ATOM     18  C   UNL     1      28.569  12.124  29.582  1.00  0.00     0.041 C 
ATOM     19  O   UNL     1      27.920  11.132  29.160  1.00  0.00    -0.550 OA
ATOM     20  O   UNL     1      27.933  13.084  30.360  1.00  0.00    -0.550 OA
ENDBRANCH  17  18
ENDBRANCH  16  17
ENDBRANCH  15  16
ENDBRANCH  14  15
ENDBRANCH  13  14
ENDBRANCH  12  13
ENDBRANCH  11  12
ENDBRANCH   1  11
TORSDOF 15
ENDMDL
MODEL 9
REMARK VINA RESULT:    -3.784      1.462      6.338
REMARK INTER + INTRA:          -9.438
REMARK INTER:                  -7.158
REMARK INTRA:                  -2.280
REMARK UNBOUND:                -2.336
REMARK SMILES O=C([O-])CCCCCCCCCCCCCCC(=O)[O-]
REMARK SMILES IDX 10 1 9 2 8 3 7 4 6 5 5 6 4 7 2 8 1 9 3 10 11 11 12 12 13 13
REMARK SMILES IDX 14 14 15 15 16 16 17 17 18 18 19 19 20 20
REMARK H PARENT
REMARK Flexibility Score: inf
ROOT
ATOM      1  C   UNL     1      31.122   8.437  32.209  1.00  0.00     0.000 C 
ENDROOT
BRANCH   1   2
ATOM      2  C   UNL     1      32.551   8.873  32.553  1.00  0.00     0.000 C 
BRANCH   2   3
ATOM      3  C   UNL     1      32.843  10.280  32.010  1.00  0.00     0.000 C 
BRANCH   3   4
ATOM      4  C   UNL     1      34.086  10.320  31.105  1.00  0.00     0.000 C 
BRANCH   4   5
ATOM      5  C   UNL     1      34.095   9.187  30.064  1.00  0.00     0.000 C 
BRANCH   5   6
ATOM      6  C   UNL     1      35.444   8.448  29.992  1.00  0.00     0.006 C 
BRANCH   6   7
ATOM      7  C   UNL     1      35.729   7.544  31.204  1.00  0.00     0.053 C 
BRANCH   7   8
ATOM      8  C   UNL     1      37.126   7.699  31.724  1.00  0.00     0.041 C 
ATOM      9  O   UNL     1      37.713   6.722  32.260  1.00  0.00    -0.550 OA
ATOM     10  O   UNL     1      37.769   8.928  31.645  1.00  0.00    -0.550 OA
ENDBRANCH   7   8
ENDBRANCH   6   7
ENDBRANCH   5   6
ENDBRANCH   4   5
ENDBRANCH   3   4
ENDBRANCH   2   3
ENDBRANCH   1   2
BRANCH   1  11
ATOM     11  C   UNL     1      31.094   6.983  31.714  1.00  0.00     0.000 C 
BRANCH  11  12
ATOM     12  C   UNL     1      30.399   6.837  30.352  1.00  0.00     0.000 C 
BRANCH  12  13
ATOM     13  C   UNL     1      31.184   7.506  29.210  1.00  0.00     0.000 C 
BRANCH  13  14
ATOM     14  C   UNL     1      30.313   8.489  28.399  1.00  0.00     0.000 C 
BRANCH  14  15
ATOM     15  C   UNL     1      30.941   9.885  28.230  1.00  0.00     0.000 C 
BRANCH  15  16
ATOM     16  C   UNL     1      30.517  10.917  29.288  1.00  0.00     0.006 C 
BRANCH  16  17
ATOM     17  C   UNL     1      29.170  10.578  29.941  1.00  0.00     0.053 C 
BRANCH  17  18
ATOM     18  C   UNL     1      28.810  11.613  30.959  1.00  0.00     0.041 C 
ATOM     19  O   UNL     1      28.256  12.686  30.604  1.00  0.00    -0.550 OA
ATOM     20  O   UNL     1      29.042  11.370  32.308  1.00  0.00    -0.550 OA
ENDBRANCH  17  18
ENDBRANCH  16  17
ENDBRANCH  15  16
ENDBRANCH  14  15
ENDBRANCH  13  14
ENDBRANCH  12  13
ENDBRANCH  11  12
ENDBRANCH   1  11
TORSDOF 15
ENDMDL
