MODEL 1
REMARK VINA RESULT:    -8.027      0.000      0.000
REMARK INTER + INTRA:          -9.705
REMARK INTER:                  -9.435
REMARK INTRA:                  -0.270
REMARK UNBOUND:                -0.270
REMARK SMILES O=c1cc(-c2ccc(O)c(O)c2)oc2cc(O)cc(O)c12
REMARK SMILES IDX 4 1 3 2 2 3 1 4 21 5 19 6 18 7 16 8 15 9 14 10 13 11 5 12
REMARK SMILES IDX 6 13 7 14 8 15 12 16 10 17 9 18 11 20 20 22 17 24
REMARK H PARENT 9 19 11 21 20 23 17 25
REMARK Flexibility Score: inf
ROOT
ATOM      1  C   UNL     1     -44.427 -11.324  12.138  1.00  0.00     0.138 A 
ATOM      2  C   UNL     1     -44.531 -11.373  13.535  1.00  0.00     0.100 A 
ATOM      3  C   UNL     1     -45.642 -11.976  14.124  1.00  0.00     0.197 A 
ATOM      4  O   UNL     1     -45.679 -12.054  15.380  1.00  0.00    -0.289 OA
ATOM      5  C   UNL     1     -46.672 -12.505  13.309  1.00  0.00     0.107 A 
ATOM      6  C   UNL     1     -47.868 -13.113  13.798  1.00  0.00     0.134 A 
ATOM      7  C   UNL     1     -48.769 -13.687  12.893  1.00  0.00     0.093 A 
ATOM      8  C   UNL     1     -48.549 -13.625  11.518  1.00  0.00     0.123 A 
ATOM      9  C   UNL     1     -47.409 -12.989  11.026  1.00  0.00     0.094 A 
ATOM     10  C   UNL     1     -46.473 -12.437  11.904  1.00  0.00     0.146 A 
ATOM     11  O   UNL     1     -45.392 -11.855  11.395  1.00  0.00    -0.456 OA
ENDROOT
BRANCH   1  12
ATOM     12  C   UNL     1     -43.268 -10.691  11.458  1.00  0.00     0.021 A 
ATOM     13  C   UNL     1     -43.092  -9.294  11.441  1.00  0.00     0.016 A 
ATOM     14  C   UNL     1     -41.986  -8.727  10.801  1.00  0.00     0.051 A 
ATOM     15  C   UNL     1     -41.036  -9.544  10.176  1.00  0.00     0.157 A 
ATOM     16  C   UNL     1     -42.302 -11.505  10.839  1.00  0.00     0.062 A 
ATOM     17  C   UNL     1     -41.193 -10.935  10.196  1.00  0.00     0.158 A 
BRANCH  15  18
ATOM     18  O   UNL     1     -39.933  -8.982   9.535  1.00  0.00    -0.504 OA
ATOM     19  H   UNL     1     -40.009  -8.572   8.611  1.00  0.00     0.293 HD
ENDBRANCH  15  18
BRANCH  17  20
ATOM     20  O   UNL     1     -40.244 -11.746   9.576  1.00  0.00    -0.504 OA
ATOM     21  H   UNL     1     -39.930 -12.612   9.997  1.00  0.00     0.293 HD
ENDBRANCH  17  20
ENDBRANCH   1  12
BRANCH   6  22
ATOM     22  O   UNL     1     -48.227 -13.161  15.149  1.00  0.00    -0.507 OA
ATOM     23  H   UNL     1     -48.608 -12.390  15.674  1.00  0.00     0.293 HD
ENDBRANCH   6  22
BRANCH   8  24
ATOM     24  O   UNL     1     -49.476 -14.194  10.648  1.00  0.00    -0.508 OA
ATOM     25  H   UNL     1     -49.283 -14.293   9.657  1.00  0.00     0.293 HD
ENDBRANCH   8  24
TORSDOF 5
ENDMDL
MODEL 2
REMARK VINA RESULT:    -7.954      1.848      6.962
REMARK INTER + INTRA:          -9.618
REMARK INTER:                  -9.354
REMARK INTRA:                  -0.265
REMARK UNBOUND:                -0.270
REMARK SMILES O=c1cc(-c2ccc(O)c(O)c2)oc2cc(O)cc(O)c12
REMARK SMILES IDX 4 1 3 2 2 3 1 4 21 5 19 6 18 7 16 8 15 9 14 10 13 11 5 12
REMARK SMILES IDX 6 13 7 14 8 15 12 16 10 17 9 18 11 20 20 22 17 24
REMARK H PARENT 9 19 11 21 20 23 17 25
REMARK Flexibility Score: inf
ROOT
ATOM      1  C   UNL     1     -45.157 -11.278  11.754  1.00  0.00     0.138 A 
ATOM      2  C   UNL     1     -45.174 -10.215  12.667  1.00  0.00     0.100 A 
ATOM      3  C   UNL     1     -44.125  -9.295  12.677  1.00  0.00     0.197 A 
ATOM      4  O   UNL     1     -44.198  -8.321  13.471  1.00  0.00    -0.289 OA
ATOM      5  C   UNL     1     -43.036  -9.460  11.789  1.00  0.00     0.107 A 
ATOM      6  C   UNL     1     -41.894  -8.604  11.732  1.00  0.00     0.134 A 
ATOM      7  C   UNL     1     -40.925  -8.812  10.742  1.00  0.00     0.093 A 
ATOM      8  C   UNL     1     -41.024  -9.877   9.848  1.00  0.00     0.123 A 
ATOM      9  C   UNL     1     -42.110 -10.749   9.927  1.00  0.00     0.094 A 
ATOM     10  C   UNL     1     -43.111 -10.548  10.879  1.00  0.00     0.146 A 
ATOM     11  O   UNL     1     -44.138 -11.392  10.909  1.00  0.00    -0.456 OA
ENDROOT
BRANCH   1  12
ATOM     12  C   UNL     1     -46.244 -12.288  11.702  1.00  0.00     0.021 A 
ATOM     13  C   UNL     1     -45.999 -13.653  11.943  1.00  0.00     0.016 A 
ATOM     14  C   UNL     1     -47.045 -14.580  11.897  1.00  0.00     0.051 A 
ATOM     15  C   UNL     1     -48.351 -14.158  11.618  1.00  0.00     0.157 A 
ATOM     16  C   UNL     1     -47.561 -11.871  11.436  1.00  0.00     0.062 A 
ATOM     17  C   UNL     1     -48.609 -12.802  11.389  1.00  0.00     0.158 A 
BRANCH  15  18
ATOM     18  O   UNL     1     -49.396 -15.079  11.570  1.00  0.00    -0.504 OA
ATOM     19  H   UNL     1     -49.470 -15.757  10.819  1.00  0.00     0.293 HD
ENDBRANCH  15  18
BRANCH  17  20
ATOM     20  O   UNL     1     -49.911 -12.384  11.116  1.00  0.00    -0.504 OA
ATOM     21  H   UNL     1     -50.132 -11.409  10.951  1.00  0.00     0.293 HD
ENDBRANCH  17  20
ENDBRANCH   1  12
BRANCH   6  22
ATOM     22  O   UNL     1     -41.654  -7.557  12.627  1.00  0.00    -0.507 OA
ATOM     23  H   UNL     1     -42.156  -6.684  12.645  1.00  0.00     0.293 HD
ENDBRANCH   6  22
BRANCH   8  24
ATOM     24  O   UNL     1     -40.033 -10.061   8.887  1.00  0.00    -0.508 OA
ATOM     25  H   UNL     1     -40.200  -9.862   7.907  1.00  0.00     0.293 HD
ENDBRANCH   8  24
TORSDOF 5
ENDMDL
MODEL 3
REMARK VINA RESULT:    -7.822      1.360      2.639
REMARK INTER + INTRA:          -9.463
REMARK INTER:                  -9.183
REMARK INTRA:                  -0.280
REMARK UNBOUND:                -0.270
REMARK SMILES O=c1cc(-c2ccc(O)c(O)c2)oc2cc(O)cc(O)c12
REMARK SMILES IDX 4 1 3 2 2 3 1 4 21 5 19 6 18 7 16 8 15 9 14 10 13 11 5 12
REMARK SMILES IDX 6 13 7 14 8 15 12 16 10 17 9 18 11 20 20 22 17 24
REMARK H PARENT 9 19 11 21 20 23 17 25
REMARK Flexibility Score: inf
ROOT
ATOM      1  C   UNL     1     -44.359 -11.323  11.847  1.00  0.00     0.138 A 
ATOM      2  C   UNL     1     -44.968 -12.421  11.224  1.00  0.00     0.100 A 
ATOM      3  C   UNL     1     -46.079 -13.023  11.817  1.00  0.00     0.197 A 
ATOM      4  O   UNL     1     -46.637 -13.971  11.205  1.00  0.00    -0.289 OA
ATOM      5  C   UNL     1     -46.562 -12.542  13.058  1.00  0.00     0.107 A 
ATOM      6  C   UNL     1     -47.666 -13.098  13.773  1.00  0.00     0.134 A 
ATOM      7  C   UNL     1     -48.112 -12.474  14.944  1.00  0.00     0.093 A 
ATOM      8  C   UNL     1     -47.462 -11.353  15.458  1.00  0.00     0.123 A 
ATOM      9  C   UNL     1     -46.351 -10.832  14.795  1.00  0.00     0.094 A 
ATOM     10  C   UNL     1     -45.902 -11.410  13.605  1.00  0.00     0.146 A 
ATOM     11  O   UNL     1     -44.850 -10.872  12.995  1.00  0.00    -0.456 OA
ENDROOT
BRANCH   1  12
ATOM     12  C   UNL     1     -43.172 -10.648  11.263  1.00  0.00     0.021 A 
ATOM     13  C   UNL     1     -43.000  -9.253  11.344  1.00  0.00     0.016 A 
ATOM     14  C   UNL     1     -41.868  -8.645  10.793  1.00  0.00     0.051 A 
ATOM     15  C   UNL     1     -40.888  -9.420  10.160  1.00  0.00     0.157 A 
ATOM     16  C   UNL     1     -42.176 -11.419  10.638  1.00  0.00     0.062 A 
ATOM     17  C   UNL     1     -41.041 -10.809  10.084  1.00  0.00     0.158 A 
BRANCH  15  18
ATOM     18  O   UNL     1     -39.759  -8.818   9.609  1.00  0.00    -0.504 OA
ATOM     19  H   UNL     1     -38.894  -8.733  10.132  1.00  0.00     0.293 HD
ENDBRANCH  15  18
BRANCH  17  20
ATOM     20  O   UNL     1     -40.061 -11.578   9.458  1.00  0.00    -0.504 OA
ATOM     21  H   UNL     1     -39.087 -11.300   9.458  1.00  0.00     0.293 HD
ENDBRANCH  17  20
ENDBRANCH   1  12
BRANCH   6  22
ATOM     22  O   UNL     1     -48.341 -14.262  13.392  1.00  0.00    -0.507 OA
ATOM     23  H   UNL     1     -49.284 -14.295  13.039  1.00  0.00     0.293 HD
ENDBRANCH   6  22
BRANCH   8  24
ATOM     24  O   UNL     1     -47.925 -10.769  16.635  1.00  0.00    -0.508 OA
ATOM     25  H   UNL     1     -47.966 -11.289  17.505  1.00  0.00     0.293 HD
ENDBRANCH   8  24
TORSDOF 5
ENDMDL
MODEL 4
REMARK VINA RESULT:    -7.512      1.905      7.211
REMARK INTER + INTRA:          -9.099
REMARK INTER:                  -8.830
REMARK INTRA:                  -0.269
REMARK UNBOUND:                -0.270
REMARK SMILES O=c1cc(-c2ccc(O)c(O)c2)oc2cc(O)cc(O)c12
REMARK SMILES IDX 4 1 3 2 2 3 1 4 21 5 19 6 18 7 16 8 15 9 14 10 13 11 5 12
REMARK SMILES IDX 6 13 7 14 8 15 12 16 10 17 9 18 11 20 20 22 17 24
REMARK H PARENT 9 19 11 21 20 23 17 25
REMARK Flexibility Score: inf
ROOT
ATOM      1  C   UNL     1     -45.036 -11.555  11.439  1.00  0.00     0.138 A 
ATOM      2  C   UNL     1     -44.109 -11.707  10.399  1.00  0.00     0.100 A 
ATOM      3  C   UNL     1     -43.015 -10.846  10.318  1.00  0.00     0.197 A 
ATOM      4  O   UNL     1     -42.170 -11.044   9.406  1.00  0.00    -0.289 OA
ATOM      5  C   UNL     1     -42.867  -9.803  11.264  1.00  0.00     0.107 A 
ATOM      6  C   UNL     1     -41.810  -8.844  11.261  1.00  0.00     0.134 A 
ATOM      7  C   UNL     1     -41.715  -7.918  12.308  1.00  0.00     0.093 A 
ATOM      8  C   UNL     1     -42.669  -7.879  13.324  1.00  0.00     0.123 A 
ATOM      9  C   UNL     1     -43.734  -8.779  13.310  1.00  0.00     0.094 A 
ATOM     10  C   UNL     1     -43.837  -9.737  12.300  1.00  0.00     0.146 A 
ATOM     11  O   UNL     1     -44.858 -10.588  12.333  1.00  0.00    -0.456 OA
ENDROOT
BRANCH   1  12
ATOM     12  C   UNL     1     -46.220 -12.441  11.572  1.00  0.00     0.021 A 
ATOM     13  C   UNL     1     -46.105 -13.768  12.029  1.00  0.00     0.016 A 
ATOM     14  C   UNL     1     -47.239 -14.576  12.154  1.00  0.00     0.051 A 
ATOM     15  C   UNL     1     -48.505 -14.071  11.831  1.00  0.00     0.157 A 
ATOM     16  C   UNL     1     -47.497 -11.938  11.264  1.00  0.00     0.062 A 
ATOM     17  C   UNL     1     -48.634 -12.750  11.388  1.00  0.00     0.158 A 
BRANCH  15  18
ATOM     18  O   UNL     1     -49.637 -14.874  11.952  1.00  0.00    -0.504 OA
ATOM     19  H   UNL     1     -49.583 -15.814  12.329  1.00  0.00     0.293 HD
ENDBRANCH  15  18
BRANCH  17  20
ATOM     20  O   UNL     1     -49.897 -12.248  11.072  1.00  0.00    -0.504 OA
ATOM     21  H   UNL     1     -50.061 -11.254  10.966  1.00  0.00     0.293 HD
ENDBRANCH  17  20
ENDBRANCH   1  12
BRANCH   6  22
ATOM     22  O   UNL     1     -40.847  -8.741  10.251  1.00  0.00    -0.507 OA
ATOM     23  H   UNL     1     -39.927  -8.346  10.367  1.00  0.00     0.293 HD
ENDBRANCH   6  22
BRANCH   8  24
ATOM     24  O   UNL     1     -42.550  -6.934  14.340  1.00  0.00    -0.508 OA
ATOM     25  H   UNL     1     -43.337  -6.362  14.628  1.00  0.00     0.293 HD
ENDBRANCH   8  24
TORSDOF 5
ENDMDL
MODEL 5
REMARK VINA RESULT:    -7.497      1.016      1.699
REMARK INTER + INTRA:          -9.081
REMARK INTER:                  -8.817
REMARK INTRA:                  -0.264
REMARK UNBOUND:                -0.270
REMARK SMILES O=c1cc(-c2ccc(O)c(O)c2)oc2cc(O)cc(O)c12
REMARK SMILES IDX 4 1 3 2 2 3 1 4 21 5 19 6 18 7 16 8 15 9 14 10 13 11 5 12
REMARK SMILES IDX 6 13 7 14 8 15 12 16 10 17 9 18 11 20 20 22 17 24
REMARK H PARENT 9 19 11 21 20 23 17 25
REMARK Flexibility Score: inf
ROOT
ATOM      1  C   UNL     1     -44.902 -11.364  12.491  1.00  0.00     0.138 A 
ATOM      2  C   UNL     1     -45.074 -11.456  13.879  1.00  0.00     0.100 A 
ATOM      3  C   UNL     1     -46.186 -12.122  14.395  1.00  0.00     0.197 A 
ATOM      4  O   UNL     1     -46.282 -12.236  15.645  1.00  0.00    -0.289 OA
ATOM      5  C   UNL     1     -47.150 -12.670  13.514  1.00  0.00     0.107 A 
ATOM      6  C   UNL     1     -48.341 -13.342  13.926  1.00  0.00     0.134 A 
ATOM      7  C   UNL     1     -49.170 -13.928  12.961  1.00  0.00     0.093 A 
ATOM      8  C   UNL     1     -48.885 -13.818  11.602  1.00  0.00     0.123 A 
ATOM      9  C   UNL     1     -47.751 -13.121  11.186  1.00  0.00     0.094 A 
ATOM     10  C   UNL     1     -46.884 -12.555  12.124  1.00  0.00     0.146 A 
ATOM     11  O   UNL     1     -45.805 -11.914  11.686  1.00  0.00    -0.456 OA
ENDROOT
BRANCH   1  12
ATOM     12  C   UNL     1     -43.740 -10.664  11.888  1.00  0.00     0.021 A 
ATOM     13  C   UNL     1     -42.820 -11.335  11.059  1.00  0.00     0.016 A 
ATOM     14  C   UNL     1     -41.740 -10.648  10.497  1.00  0.00     0.051 A 
ATOM     15  C   UNL     1     -41.565  -9.281  10.747  1.00  0.00     0.157 A 
ATOM     16  C   UNL     1     -43.565  -9.288  12.121  1.00  0.00     0.062 A 
ATOM     17  C   UNL     1     -42.480  -8.600  11.558  1.00  0.00     0.158 A 
BRANCH  15  18
ATOM     18  O   UNL     1     -40.489  -8.592  10.190  1.00  0.00    -0.504 OA
ATOM     19  H   UNL     1     -39.551  -8.977  10.201  1.00  0.00     0.293 HD
ENDBRANCH  15  18
BRANCH  17  20
ATOM     20  O   UNL     1     -42.307  -7.238  11.802  1.00  0.00    -0.504 OA
ATOM     21  H   UNL     1     -41.556  -6.895  12.390  1.00  0.00     0.293 HD
ENDBRANCH  17  20
ENDBRANCH   1  12
BRANCH   6  22
ATOM     22  O   UNL     1     -48.765 -13.442  15.255  1.00  0.00    -0.507 OA
ATOM     23  H   UNL     1     -48.530 -12.792  15.988  1.00  0.00     0.293 HD
ENDBRANCH   6  22
BRANCH   8  24
ATOM     24  O   UNL     1     -49.742 -14.401  10.671  1.00  0.00    -0.508 OA
ATOM     25  H   UNL     1     -49.884 -13.993   9.753  1.00  0.00     0.293 HD
ENDBRANCH   8  24
TORSDOF 5
ENDMDL
MODEL 6
REMARK VINA RESULT:    -7.253      1.441      3.092
REMARK INTER + INTRA:          -8.795
REMARK INTER:                  -8.498
REMARK INTRA:                  -0.296
REMARK UNBOUND:                -0.270
REMARK SMILES O=c1cc(-c2ccc(O)c(O)c2)oc2cc(O)cc(O)c12
REMARK SMILES IDX 4 1 3 2 2 3 1 4 21 5 19 6 18 7 16 8 15 9 14 10 13 11 5 12
REMARK SMILES IDX 6 13 7 14 8 15 12 16 10 17 9 18 11 20 20 22 17 24
REMARK H PARENT 9 19 11 21 20 23 17 25
REMARK Flexibility Score: inf
ROOT
ATOM      1  C   UNL     1     -45.129 -11.535  11.758  1.00  0.00     0.138 A 
ATOM      2  C   UNL     1     -45.733 -12.306  10.756  1.00  0.00     0.100 A 
ATOM      3  C   UNL     1     -46.906 -13.007  11.037  1.00  0.00     0.197 A 
ATOM      4  O   UNL     1     -47.455 -13.645  10.101  1.00  0.00    -0.289 OA
ATOM      5  C   UNL     1     -47.459 -12.961  12.339  1.00  0.00     0.107 A 
ATOM      6  C   UNL     1     -48.633 -13.662  12.751  1.00  0.00     0.134 A 
ATOM      7  C   UNL     1     -49.139 -13.460  14.041  1.00  0.00     0.093 A 
ATOM      8  C   UNL     1     -48.485 -12.632  14.952  1.00  0.00     0.123 A 
ATOM      9  C   UNL     1     -47.310 -11.982  14.577  1.00  0.00     0.094 A 
ATOM     10  C   UNL     1     -46.798 -12.134  13.286  1.00  0.00     0.146 A 
ATOM     11  O   UNL     1     -45.685 -11.483  12.964  1.00  0.00    -0.456 OA
ENDROOT
BRANCH   1  12
ATOM     12  C   UNL     1     -43.878 -10.772  11.516  1.00  0.00     0.021 A 
ATOM     13  C   UNL     1     -42.819 -11.308  10.757  1.00  0.00     0.016 A 
ATOM     14  C   UNL     1     -41.657 -10.562  10.537  1.00  0.00     0.051 A 
ATOM     15  C   UNL     1     -41.536  -9.270  11.063  1.00  0.00     0.157 A 
ATOM     16  C   UNL     1     -43.754  -9.468  12.028  1.00  0.00     0.062 A 
ATOM     17  C   UNL     1     -42.587  -8.722  11.808  1.00  0.00     0.158 A 
BRANCH  15  18
ATOM     18  O   UNL     1     -40.379  -8.524  10.847  1.00  0.00    -0.504 OA
ATOM     19  H   UNL     1     -40.256  -7.968  10.008  1.00  0.00     0.293 HD
ENDBRANCH  15  18
BRANCH  17  20
ATOM     20  O   UNL     1     -42.466  -7.433  12.327  1.00  0.00    -0.504 OA
ATOM     21  H   UNL     1     -42.486  -7.258  13.325  1.00  0.00     0.293 HD
ENDBRANCH  17  20
ENDBRANCH   1  12
BRANCH   6  22
ATOM     22  O   UNL     1     -49.323 -14.576  11.948  1.00  0.00    -0.507 OA
ATOM     23  H   UNL     1     -49.894 -15.332  12.291  1.00  0.00     0.293 HD
ENDBRANCH   6  22
BRANCH   8  24
ATOM     24  O   UNL     1     -49.011 -12.468  16.232  1.00  0.00    -0.508 OA
ATOM     25  H   UNL     1     -49.483 -13.226  16.712  1.00  0.00     0.293 HD
ENDBRANCH   8  24
TORSDOF 5
ENDMDL
MODEL 7
REMARK VINA RESULT:    -7.227      2.630      8.361
REMARK INTER + INTRA:          -8.764
REMARK INTER:                  -8.477
REMARK INTRA:                  -0.287
REMARK UNBOUND:                -0.270
REMARK SMILES O=c1cc(-c2ccc(O)c(O)c2)oc2cc(O)cc(O)c12
REMARK SMILES IDX 4 1 3 2 2 3 1 4 21 5 19 6 18 7 16 8 15 9 14 10 13 11 5 12
REMARK SMILES IDX 6 13 7 14 8 15 12 16 10 17 9 18 11 20 20 22 17 24
REMARK H PARENT 9 19 11 21 20 23 17 25
REMARK Flexibility Score: inf
ROOT
ATOM      1  C   UNL     1     -48.731 -13.267  13.509  1.00  0.00     0.138 A 
ATOM      2  C   UNL     1     -48.402 -13.519  12.170  1.00  0.00     0.100 A 
ATOM      3  C   UNL     1     -47.183 -13.070  11.662  1.00  0.00     0.197 A 
ATOM      4  O   UNL     1     -46.893 -13.361  10.472  1.00  0.00    -0.289 OA
ATOM      5  C   UNL     1     -46.302 -12.334  12.491  1.00  0.00     0.107 A 
ATOM      6  C   UNL     1     -45.047 -11.797  12.072  1.00  0.00     0.134 A 
ATOM      7  C   UNL     1     -44.218 -11.171  13.011  1.00  0.00     0.093 A 
ATOM      8  C   UNL     1     -44.620 -11.010  14.336  1.00  0.00     0.123 A 
ATOM      9  C   UNL     1     -45.866 -11.487  14.744  1.00  0.00     0.094 A 
ATOM     10  C   UNL     1     -46.702 -12.147  13.841  1.00  0.00     0.146 A 
ATOM     11  O   UNL     1     -47.873 -12.602  14.275  1.00  0.00    -0.456 OA
ENDROOT
BRANCH   1  12
ATOM     12  C   UNL     1     -50.015 -13.719  14.101  1.00  0.00     0.021 A 
ATOM     13  C   UNL     1     -50.143 -13.987  15.477  1.00  0.00     0.016 A 
ATOM     14  C   UNL     1     -51.368 -14.401  16.008  1.00  0.00     0.051 A 
ATOM     15  C   UNL     1     -52.485 -14.548  15.177  1.00  0.00     0.157 A 
ATOM     16  C   UNL     1     -51.146 -13.856  13.275  1.00  0.00     0.062 A 
ATOM     17  C   UNL     1     -52.374 -14.274  13.809  1.00  0.00     0.158 A 
BRANCH  15  18
ATOM     18  O   UNL     1     -53.707 -14.963  15.701  1.00  0.00    -0.504 OA
ATOM     19  H   UNL     1     -53.795 -15.263  16.666  1.00  0.00     0.293 HD
ENDBRANCH  15  18
BRANCH  17  20
ATOM     20  O   UNL     1     -53.489 -14.416  12.983  1.00  0.00    -0.504 OA
ATOM     21  H   UNL     1     -53.559 -13.931  12.097  1.00  0.00     0.293 HD
ENDBRANCH  17  20
ENDBRANCH   1  12
BRANCH   6  22
ATOM     22  O   UNL     1     -44.580 -11.831  10.754  1.00  0.00    -0.507 OA
ATOM     23  H   UNL     1     -45.018 -12.332   9.998  1.00  0.00     0.293 HD
ENDBRANCH   6  22
BRANCH   8  24
ATOM     24  O   UNL     1     -43.775 -10.368  15.237  1.00  0.00    -0.508 OA
ATOM     25  H   UNL     1     -43.163  -9.614  14.946  1.00  0.00     0.293 HD
ENDBRANCH   8  24
TORSDOF 5
ENDMDL
MODEL 8
REMARK VINA RESULT:    -7.086      2.062      7.540
REMARK INTER + INTRA:          -8.598
REMARK INTER:                  -8.281
REMARK INTRA:                  -0.318
REMARK UNBOUND:                -0.270
REMARK SMILES O=c1cc(-c2ccc(O)c(O)c2)oc2cc(O)cc(O)c12
REMARK SMILES IDX 4 1 3 2 2 3 1 4 21 5 19 6 18 7 16 8 15 9 14 10 13 11 5 12
REMARK SMILES IDX 6 13 7 14 8 15 12 16 10 17 9 18 11 20 20 22 17 24
REMARK H PARENT 9 19 11 21 20 23 17 25
REMARK Flexibility Score: inf
ROOT
ATOM      1  C   UNL     1     -45.063 -10.831  12.839  1.00  0.00     0.138 A 
ATOM      2  C   UNL     1     -44.482 -11.258  11.636  1.00  0.00     0.100 A 
ATOM      3  C   UNL     1     -43.388 -10.568  11.114  1.00  0.00     0.197 A 
ATOM      4  O   UNL     1     -42.855 -11.009  10.063  1.00  0.00    -0.289 OA
ATOM      5  C   UNL     1     -42.893  -9.422  11.783  1.00  0.00     0.107 A 
ATOM      6  C   UNL     1     -41.805  -8.619  11.327  1.00  0.00     0.134 A 
ATOM      7  C   UNL     1     -41.343  -7.566  12.127  1.00  0.00     0.093 A 
ATOM      8  C   UNL     1     -41.964  -7.251  13.334  1.00  0.00     0.123 A 
ATOM      9  C   UNL     1     -43.060  -7.997  13.765  1.00  0.00     0.094 A 
ATOM     10  C   UNL     1     -43.523  -9.076  13.008  1.00  0.00     0.146 A 
ATOM     11  O   UNL     1     -44.560  -9.772  13.463  1.00  0.00    -0.456 OA
ENDROOT
BRANCH   1  12
ATOM     12  C   UNL     1     -46.230 -11.526  13.437  1.00  0.00     0.021 A 
ATOM     13  C   UNL     1     -46.887 -12.579  12.771  1.00  0.00     0.016 A 
ATOM     14  C   UNL     1     -47.978 -13.222  13.364  1.00  0.00     0.051 A 
ATOM     15  C   UNL     1     -48.425 -12.829  14.632  1.00  0.00     0.157 A 
ATOM     16  C   UNL     1     -46.678 -11.149  14.716  1.00  0.00     0.062 A 
ATOM     17  C   UNL     1     -47.773 -11.793  15.310  1.00  0.00     0.158 A 
BRANCH  15  18
ATOM     18  O   UNL     1     -49.514 -13.466  15.226  1.00  0.00    -0.504 OA
ATOM     19  H   UNL     1     -49.392 -14.278  15.822  1.00  0.00     0.293 HD
ENDBRANCH  15  18
BRANCH  17  20
ATOM     20  O   UNL     1     -48.218 -11.407  16.574  1.00  0.00    -0.504 OA
ATOM     21  H   UNL     1     -47.579 -11.055  17.277  1.00  0.00     0.293 HD
ENDBRANCH  17  20
ENDBRANCH   1  12
BRANCH   6  22
ATOM     22  O   UNL     1     -41.161  -8.796  10.098  1.00  0.00    -0.507 OA
ATOM     23  H   UNL     1     -41.115  -8.107   9.365  1.00  0.00     0.293 HD
ENDBRANCH   6  22
BRANCH   8  24
ATOM     24  O   UNL     1     -41.486  -6.186  14.095  1.00  0.00    -0.508 OA
ATOM     25  H   UNL     1     -40.492  -6.018  14.206  1.00  0.00     0.293 HD
ENDBRANCH   8  24
TORSDOF 5
ENDMDL
MODEL 9
REMARK VINA RESULT:    -6.997      8.609     13.620
REMARK INTER + INTRA:          -8.494
REMARK INTER:                  -8.199
REMARK INTRA:                  -0.294
REMARK UNBOUND:                -0.270
REMARK SMILES O=c1cc(-c2ccc(O)c(O)c2)oc2cc(O)cc(O)c12
REMARK SMILES IDX 4 1 3 2 2 3 1 4 21 5 19 6 18 7 16 8 15 9 14 10 13 11 5 12
REMARK SMILES IDX 6 13 7 14 8 15 12 16 10 17 9 18 11 20 20 22 17 24
REMARK H PARENT 9 19 11 21 20 23 17 25
REMARK Flexibility Score: inf
ROOT
ATOM      1  C   UNL     1     -39.246  -6.304   3.566  1.00  0.00     0.138 A 
ATOM      2  C   UNL     1     -38.528  -6.347   2.363  1.00  0.00     0.100 A 
ATOM      3  C   UNL     1     -37.623  -5.329   2.062  1.00  0.00     0.197 A 
ATOM      4  O   UNL     1     -36.953  -5.426   1.000  1.00  0.00    -0.289 OA
ATOM      5  C   UNL     1     -37.461  -4.243   2.956  1.00  0.00     0.107 A 
ATOM      6  C   UNL     1     -36.592  -3.131   2.738  1.00  0.00     0.134 A 
ATOM      7  C   UNL     1     -36.444  -2.166   3.742  1.00  0.00     0.093 A 
ATOM      8  C   UNL     1     -37.173  -2.240   4.927  1.00  0.00     0.123 A 
ATOM      9  C   UNL     1     -38.062  -3.295   5.130  1.00  0.00     0.094 A 
ATOM     10  C   UNL     1     -38.207  -4.293   4.163  1.00  0.00     0.146 A 
ATOM     11  O   UNL     1     -39.052  -5.291   4.403  1.00  0.00    -0.456 OA
ENDROOT
BRANCH   1  12
ATOM     12  C   UNL     1     -40.224  -7.359   3.936  1.00  0.00     0.021 A 
ATOM     13  C   UNL     1     -41.035  -7.248   5.081  1.00  0.00     0.016 A 
ATOM     14  C   UNL     1     -41.954  -8.252   5.399  1.00  0.00     0.051 A 
ATOM     15  C   UNL     1     -42.083  -9.378   4.576  1.00  0.00     0.157 A 
ATOM     16  C   UNL     1     -40.370  -8.486   3.107  1.00  0.00     0.062 A 
ATOM     17  C   UNL     1     -41.292  -9.494   3.427  1.00  0.00     0.158 A 
BRANCH  15  18
ATOM     18  O   UNL     1     -42.997 -10.382   4.889  1.00  0.00    -0.504 OA
ATOM     19  H   UNL     1     -42.759 -11.363   4.794  1.00  0.00     0.293 HD
ENDBRANCH  15  18
BRANCH  17  20
ATOM     20  O   UNL     1     -41.425 -10.613   2.606  1.00  0.00    -0.504 OA
ATOM     21  H   UNL     1     -42.097 -10.638   1.848  1.00  0.00     0.293 HD
ENDBRANCH  17  20
ENDBRANCH   1  12
BRANCH   6  22
ATOM     22  O   UNL     1     -35.875  -2.916   1.556  1.00  0.00    -0.507 OA
ATOM     23  H   UNL     1     -35.309  -2.105   1.363  1.00  0.00     0.293 HD
ENDBRANCH   6  22
BRANCH   8  24
ATOM     24  O   UNL     1     -37.010  -1.252   5.896  1.00  0.00    -0.508 OA
ATOM     25  H   UNL     1     -36.390  -0.463   5.750  1.00  0.00     0.293 HD
ENDBRANCH   8  24
TORSDOF 5
ENDMDL
