MODEL 1
REMARK VINA RESULT:    -3.993      0.000      0.000
REMARK INTER + INTRA:          -4.638
REMARK INTER:                  -4.460
REMARK INTRA:                  -0.177
REMARK UNBOUND:                -0.177
REMARK SMILES CC(C)c1ccc(C=O)cc1
REMARK SMILES IDX 4 1 5 2 6 3 7 4 10 5 11 6 2 7 1 8 3 9 8 10 9 11
REMARK H PARENT
REMARK Flexibility Score: inf
ROOT
ATOM      1  C   UNL     1       7.221  11.476   7.852  1.00  0.00    -0.045 A 
ATOM      2  C   UNL     1       7.613  12.825   7.762  1.00  0.00     0.005 A 
ATOM      3  C   UNL     1       6.658  13.835   7.621  1.00  0.00     0.012 A 
ATOM      4  C   UNL     1       5.293  13.517   7.566  1.00  0.00     0.014 A 
ATOM      5  C   UNL     1       4.897  12.173   7.656  1.00  0.00     0.012 A 
ATOM      6  C   UNL     1       5.852  11.162   7.797  1.00  0.00     0.005 A 
ENDROOT
BRANCH   1   7
ATOM      7  C   UNL     1       8.248  10.370   8.007  1.00  0.00     0.013 C 
ATOM      8  C   UNL     1       9.081  10.562   9.279  1.00  0.00     0.012 C 
ATOM      9  C   UNL     1       9.147  10.273   6.768  1.00  0.00     0.012 C 
ENDBRANCH   1   7
BRANCH   4  10
ATOM     10  C   UNL     1       4.300  14.597   7.416  1.00  0.00     0.260 C 
ATOM     11  O   UNL     1       4.155  15.200   6.319  1.00  0.00    -0.298 OA
ENDBRANCH   4  10
TORSDOF 2
ENDMDL
MODEL 2
REMARK VINA RESULT:    -3.990      0.024      1.461
REMARK INTER + INTRA:          -4.633
REMARK INTER:                  -4.454
REMARK INTRA:                  -0.180
REMARK UNBOUND:                -0.177
REMARK SMILES CC(C)c1ccc(C=O)cc1
REMARK SMILES IDX 4 1 5 2 6 3 7 4 10 5 11 6 2 7 1 8 3 9 8 10 9 11
REMARK H PARENT
REMARK Flexibility Score: inf
ROOT
ATOM      1  C   UNL     1       7.216  11.475   7.872  1.00  0.00    -0.045 A 
ATOM      2  C   UNL     1       5.843  11.170   7.810  1.00  0.00     0.005 A 
ATOM      3  C   UNL     1       4.895  12.186   7.659  1.00  0.00     0.012 A 
ATOM      4  C   UNL     1       5.300  13.526   7.569  1.00  0.00     0.014 A 
ATOM      5  C   UNL     1       6.668  13.835   7.631  1.00  0.00     0.012 A 
ATOM      6  C   UNL     1       7.617  12.820   7.781  1.00  0.00     0.005 A 
ENDROOT
BRANCH   1   7
ATOM      7  C   UNL     1       8.255  10.382   8.035  1.00  0.00     0.013 C 
ATOM      8  C   UNL     1       9.082  10.591   9.309  1.00  0.00     0.012 C 
ATOM      9  C   UNL     1       9.158  10.290   6.799  1.00  0.00     0.012 C 
ENDBRANCH   1   7
BRANCH   4  10
ATOM     10  C   UNL     1       4.284  14.584   7.410  1.00  0.00     0.260 C 
ATOM     11  O   UNL     1       4.161  15.208   6.323  1.00  0.00    -0.298 OA
ENDBRANCH   4  10
TORSDOF 2
ENDMDL
MODEL 3
REMARK VINA RESULT:    -3.892      2.362      4.721
REMARK INTER + INTRA:          -4.524
REMARK INTER:                  -4.334
REMARK INTRA:                  -0.190
REMARK UNBOUND:                -0.177
REMARK SMILES CC(C)c1ccc(C=O)cc1
REMARK SMILES IDX 4 1 5 2 6 3 7 4 10 5 11 6 2 7 1 8 3 9 8 10 9 11
REMARK H PARENT
REMARK Flexibility Score: inf
ROOT
ATOM      1  C   UNL     1       4.862  13.135   7.723  1.00  0.00    -0.045 A 
ATOM      2  C   UNL     1       6.036  13.910   7.759  1.00  0.00     0.005 A 
ATOM      3  C   UNL     1       7.290  13.298   7.819  1.00  0.00     0.012 A 
ATOM      4  C   UNL     1       7.397  11.899   7.847  1.00  0.00     0.014 A 
ATOM      5  C   UNL     1       6.228  11.121   7.811  1.00  0.00     0.012 A 
ATOM      6  C   UNL     1       4.973  11.734   7.750  1.00  0.00     0.005 A 
ENDROOT
BRANCH   1   7
ATOM      7  C   UNL     1       3.493  13.787   7.657  1.00  0.00     0.013 C 
ATOM      8  C   UNL     1       2.397  12.746   7.401  1.00  0.00     0.012 C 
ATOM      9  C   UNL     1       3.460  14.896   6.598  1.00  0.00     0.012 C 
ENDBRANCH   1   7
BRANCH   4  10
ATOM     10  C   UNL     1       8.730  11.271   7.910  1.00  0.00     0.260 C 
ATOM     11  O   UNL     1       9.479  11.439   8.909  1.00  0.00    -0.298 OA
ENDBRANCH   4  10
TORSDOF 2
ENDMDL
MODEL 4
REMARK VINA RESULT:    -3.890      1.873      2.805
REMARK INTER + INTRA:          -4.522
REMARK INTER:                  -4.341
REMARK INTRA:                  -0.181
REMARK UNBOUND:                -0.177
REMARK SMILES CC(C)c1ccc(C=O)cc1
REMARK SMILES IDX 4 1 5 2 6 3 7 4 10 5 11 6 2 7 1 8 3 9 8 10 9 11
REMARK H PARENT
REMARK Flexibility Score: inf
ROOT
ATOM      1  C   UNL     1       7.049  11.325   7.726  1.00  0.00    -0.045 A 
ATOM      2  C   UNL     1       6.319  10.122   7.684  1.00  0.00     0.005 A 
ATOM      3  C   UNL     1       4.922  10.139   7.682  1.00  0.00     0.012 A 
ATOM      4  C   UNL     1       4.227  11.356   7.723  1.00  0.00     0.014 A 
ATOM      5  C   UNL     1       4.950  12.559   7.764  1.00  0.00     0.012 A 
ATOM      6  C   UNL     1       6.348  12.543   7.766  1.00  0.00     0.005 A 
ENDROOT
BRANCH   1   7
ATOM      7  C   UNL     1       8.567  11.322   7.728  1.00  0.00     0.013 C 
ATOM      8  C   UNL     1       9.119  10.322   6.706  1.00  0.00     0.012 C 
ATOM      9  C   UNL     1       9.117  11.039   9.131  1.00  0.00     0.012 C 
ENDBRANCH   1   7
BRANCH   4  10
ATOM     10  C   UNL     1       2.752  11.352   7.720  1.00  0.00     0.260 C 
ATOM     11  O   UNL     1       2.106  10.604   6.939  1.00  0.00    -0.298 OA
ENDBRANCH   4  10
TORSDOF 2
ENDMDL
MODEL 5
REMARK VINA RESULT:    -3.885      2.390      4.908
REMARK INTER + INTRA:          -4.517
REMARK INTER:                  -4.327
REMARK INTRA:                  -0.189
REMARK UNBOUND:                -0.177
REMARK SMILES CC(C)c1ccc(C=O)cc1
REMARK SMILES IDX 4 1 5 2 6 3 7 4 10 5 11 6 2 7 1 8 3 9 8 10 9 11
REMARK H PARENT
REMARK Flexibility Score: inf
ROOT
ATOM      1  C   UNL     1       4.858  13.030   7.738  1.00  0.00    -0.045 A 
ATOM      2  C   UNL     1       5.056  11.636   7.765  1.00  0.00     0.005 A 
ATOM      3  C   UNL     1       6.346  11.103   7.806  1.00  0.00     0.012 A 
ATOM      4  C   UNL     1       7.465  11.950   7.819  1.00  0.00     0.014 A 
ATOM      5  C   UNL     1       7.272  13.341   7.792  1.00  0.00     0.012 A 
ATOM      6  C   UNL     1       5.981  13.875   7.752  1.00  0.00     0.005 A 
ENDROOT
BRANCH   1   7
ATOM      7  C   UNL     1       3.461  13.622   7.694  1.00  0.00     0.013 C 
ATOM      8  C   UNL     1       2.412  12.544   7.400  1.00  0.00     0.012 C 
ATOM      9  C   UNL     1       3.379  14.766   6.677  1.00  0.00     0.012 C 
ENDBRANCH   1   7
BRANCH   4  10
ATOM     10  C   UNL     1       8.819  11.367   7.862  1.00  0.00     0.260 C 
ATOM     11  O   UNL     1       9.513  11.415   8.912  1.00  0.00    -0.298 OA
ENDBRANCH   4  10
TORSDOF 2
ENDMDL
MODEL 6
REMARK VINA RESULT:    -3.810      2.413      3.455
REMARK INTER + INTRA:          -4.432
REMARK INTER:                  -4.238
REMARK INTRA:                  -0.194
REMARK UNBOUND:                -0.177
REMARK SMILES CC(C)c1ccc(C=O)cc1
REMARK SMILES IDX 4 1 5 2 6 3 7 4 10 5 11 6 2 7 1 8 3 9 8 10 9 11
REMARK H PARENT
REMARK Flexibility Score: inf
ROOT
ATOM      1  C   UNL     1       6.545  11.392   7.857  1.00  0.00    -0.045 A 
ATOM      2  C   UNL     1       5.296  12.043   7.836  1.00  0.00     0.005 A 
ATOM      3  C   UNL     1       4.115  11.310   7.697  1.00  0.00     0.012 A 
ATOM      4  C   UNL     1       4.157   9.913   7.575  1.00  0.00     0.014 A 
ATOM      5  C   UNL     1       5.399   9.260   7.596  1.00  0.00     0.012 A 
ATOM      6  C   UNL     1       6.582   9.992   7.735  1.00  0.00     0.005 A 
ENDROOT
BRANCH   1   7
ATOM      7  C   UNL     1       7.835  12.176   8.008  1.00  0.00     0.013 C 
ATOM      8  C   UNL     1       7.673  13.613   7.500  1.00  0.00     0.012 C 
ATOM      9  C   UNL     1       8.997  11.468   7.302  1.00  0.00     0.012 C 
ENDBRANCH   1   7
BRANCH   4  10
ATOM     10  C   UNL     1       2.899   9.158   7.429  1.00  0.00     0.260 C 
ATOM     11  O   UNL     1       1.883   9.683   6.900  1.00  0.00    -0.298 OA
ENDBRANCH   4  10
TORSDOF 2
ENDMDL
MODEL 7
REMARK VINA RESULT:    -3.782      2.363      4.437
REMARK INTER + INTRA:          -4.402
REMARK INTER:                  -4.207
REMARK INTRA:                  -0.195
REMARK UNBOUND:                -0.177
REMARK SMILES CC(C)c1ccc(C=O)cc1
REMARK SMILES IDX 4 1 5 2 6 3 7 4 10 5 11 6 2 7 1 8 3 9 8 10 9 11
REMARK H PARENT
REMARK Flexibility Score: inf
ROOT
ATOM      1  C   UNL     1       4.652  11.502   7.895  1.00  0.00    -0.045 A 
ATOM      2  C   UNL     1       5.317  12.743   7.914  1.00  0.00     0.005 A 
ATOM      3  C   UNL     1       6.707  12.806   7.796  1.00  0.00     0.012 A 
ATOM      4  C   UNL     1       7.462  11.631   7.657  1.00  0.00     0.014 A 
ATOM      5  C   UNL     1       6.803  10.391   7.637  1.00  0.00     0.012 A 
ATOM      6  C   UNL     1       5.412  10.328   7.755  1.00  0.00     0.005 A 
ENDROOT
BRANCH   1   7
ATOM      7  C   UNL     1       3.142  11.419   8.022  1.00  0.00     0.013 C 
ATOM      8  C   UNL     1       2.614  10.088   7.475  1.00  0.00     0.012 C 
ATOM      9  C   UNL     1       2.464  12.608   7.332  1.00  0.00     0.012 C 
ENDBRANCH   1   7
BRANCH   4  10
ATOM     10  C   UNL     1       8.929  11.719   7.534  1.00  0.00     0.260 C 
ATOM     11  O   UNL     1       9.478  12.726   7.011  1.00  0.00    -0.298 OA
ENDBRANCH   4  10
TORSDOF 2
ENDMDL
MODEL 8
REMARK VINA RESULT:    -3.779      2.827      4.858
REMARK INTER + INTRA:          -4.398
REMARK INTER:                  -4.207
REMARK INTRA:                  -0.191
REMARK UNBOUND:                -0.177
REMARK SMILES CC(C)c1ccc(C=O)cc1
REMARK SMILES IDX 4 1 5 2 6 3 7 4 10 5 11 6 2 7 1 8 3 9 8 10 9 11
REMARK H PARENT
REMARK Flexibility Score: inf
ROOT
ATOM      1  C   UNL     1       6.617  11.649   7.807  1.00  0.00    -0.045 A 
ATOM      2  C   UNL     1       7.915  12.193   7.757  1.00  0.00     0.005 A 
ATOM      3  C   UNL     1       9.010  11.389   7.435  1.00  0.00     0.012 A 
ATOM      4  C   UNL     1       8.833  10.025   7.158  1.00  0.00     0.014 A 
ATOM      5  C   UNL     1       7.540   9.478   7.207  1.00  0.00     0.012 A 
ATOM      6  C   UNL     1       6.443  10.283   7.529  1.00  0.00     0.005 A 
ENDROOT
BRANCH   1   7
ATOM      7  C   UNL     1       5.418  12.512   8.155  1.00  0.00     0.013 C 
ATOM      8  C   UNL     1       4.108  11.828   7.747  1.00  0.00     0.012 C 
ATOM      9  C   UNL     1       5.536  13.903   7.521  1.00  0.00     0.012 C 
ENDBRANCH   1   7
BRANCH   4  10
ATOM     10  C   UNL     1      10.002   9.192   6.820  1.00  0.00     0.260 C 
ATOM     11  O   UNL     1      10.548   9.269   5.687  1.00  0.00    -0.298 OA
ENDBRANCH   4  10
TORSDOF 2
ENDMDL
MODEL 9
REMARK VINA RESULT:    -3.766     10.583     12.051
REMARK INTER + INTRA:          -4.383
REMARK INTER:                  -4.199
REMARK INTRA:                  -0.185
REMARK UNBOUND:                -0.177
REMARK SMILES CC(C)c1ccc(C=O)cc1
REMARK SMILES IDX 4 1 5 2 6 3 7 4 10 5 11 6 2 7 1 8 3 9 8 10 9 11
REMARK H PARENT
REMARK Flexibility Score: inf
ROOT
ATOM      1  C   UNL     1      15.488   6.392  10.685  1.00  0.00    -0.045 A 
ATOM      2  C   UNL     1      16.174   5.476  11.504  1.00  0.00     0.005 A 
ATOM      3  C   UNL     1      16.357   5.737  12.864  1.00  0.00     0.012 A 
ATOM      4  C   UNL     1      15.858   6.919  13.433  1.00  0.00     0.014 A 
ATOM      5  C   UNL     1      15.172   7.836  12.619  1.00  0.00     0.012 A 
ATOM      6  C   UNL     1      14.990   7.574  11.258  1.00  0.00     0.005 A 
ENDROOT
BRANCH   1   7
ATOM      7  C   UNL     1      15.282   6.120   9.206  1.00  0.00     0.013 C 
ATOM      8  C   UNL     1      13.829   5.731   8.912  1.00  0.00     0.012 C 
ATOM      9  C   UNL     1      16.254   5.046   8.701  1.00  0.00     0.012 C 
ENDBRANCH   1   7
BRANCH   4  10
ATOM     10  C   UNL     1      16.061   7.177  14.871  1.00  0.00     0.260 C 
ATOM     11  O   UNL     1      16.266   8.345  15.299  1.00  0.00    -0.298 OA
ENDBRANCH   4  10
TORSDOF 2
ENDMDL
