MODEL 1
REMARK VINA RESULT:    -3.929      0.000      0.000
REMARK INTER + INTRA:          -3.929
REMARK INTER:                  -3.929
REMARK INTRA:                   0.000
REMARK UNBOUND:                 0.000
REMARK SMILES CC1=CC[C@H]2C[C@@H]1C2(C)C
REMARK SMILES IDX 1 1 2 2 3 3 4 4 5 5 6 6 7 7 8 8 9 9 10 10
REMARK H PARENT
REMARK Flexibility Score: inf
ROOT
ATOM      1  C   UNL     1      14.759   6.003  16.203  1.00  0.00     0.039 C 
ATOM      2  C   UNL     1      13.365   5.933  16.751  1.00  0.00    -0.074 C 
ATOM      3  C   UNL     1      12.279   6.216  15.973  1.00  0.00    -0.027 C 
ATOM      4  C   UNL     1      10.875   6.154  16.607  1.00  0.00     0.031 C 
ATOM      5  C   UNL     1      10.982   5.706  18.106  1.00  0.00    -0.000 C 
ATOM      6  C   UNL     1      11.938   4.495  18.114  1.00  0.00     0.013 C 
ATOM      7  C   UNL     1      13.085   5.521  18.203  1.00  0.00     0.021 C 
ATOM      8  C   UNL     1      12.084   6.524  18.837  1.00  0.00    -0.026 C 
ATOM      9  C   UNL     1      11.997   6.374  20.377  1.00  0.00     0.012 C 
ATOM     10  C   UNL     1      12.236   8.034  18.501  1.00  0.00     0.012 C 
ENDROOT
TORSDOF 0
ENDMDL
MODEL 2
REMARK VINA RESULT:    -3.868      1.390      3.349
REMARK INTER + INTRA:          -3.868
REMARK INTER:                  -3.868
REMARK INTRA:                   0.000
REMARK UNBOUND:                 0.000
REMARK SMILES CC1=CC[C@H]2C[C@@H]1C2(C)C
REMARK SMILES IDX 1 1 2 2 3 3 4 4 5 5 6 6 7 7 8 8 9 9 10 10
REMARK H PARENT
REMARK Flexibility Score: inf
ROOT
ATOM      1  C   UNL     1      11.931   6.474  19.983  1.00  0.00     0.039 C 
ATOM      2  C   UNL     1      11.691   6.685  18.519  1.00  0.00    -0.074 C 
ATOM      3  C   UNL     1      11.063   5.742  17.757  1.00  0.00    -0.027 C 
ATOM      4  C   UNL     1      10.875   6.011  16.250  1.00  0.00     0.031 C 
ATOM      5  C   UNL     1      11.443   7.425  15.881  1.00  0.00    -0.000 C 
ATOM      6  C   UNL     1      10.900   8.388  16.957  1.00  0.00     0.013 C 
ATOM      7  C   UNL     1      12.120   7.976  17.806  1.00  0.00     0.021 C 
ATOM      8  C   UNL     1      12.860   7.614  16.491  1.00  0.00    -0.026 C 
ATOM      9  C   UNL     1      13.602   8.829  15.880  1.00  0.00     0.012 C 
ATOM     10  C   UNL     1      13.834   6.402  16.500  1.00  0.00     0.012 C 
ENDROOT
TORSDOF 0
ENDMDL
MODEL 3
REMARK VINA RESULT:    -3.843      1.079      2.226
REMARK INTER + INTRA:          -3.843
REMARK INTER:                  -3.843
REMARK INTRA:                   0.000
REMARK UNBOUND:                 0.000
REMARK SMILES CC1=CC[C@H]2C[C@@H]1C2(C)C
REMARK SMILES IDX 1 1 2 2 3 3 4 4 5 5 6 6 7 7 8 8 9 9 10 10
REMARK H PARENT
REMARK Flexibility Score: inf
ROOT
ATOM      1  C   UNL     1      14.886   5.653  15.896  1.00  0.00     0.039 C 
ATOM      2  C   UNL     1      13.799   5.591  16.927  1.00  0.00    -0.074 C 
ATOM      3  C   UNL     1      13.351   4.398  17.418  1.00  0.00    -0.027 C 
ATOM      4  C   UNL     1      12.210   4.405  18.455  1.00  0.00     0.031 C 
ATOM      5  C   UNL     1      11.798   5.879  18.792  1.00  0.00    -0.000 C 
ATOM      6  C   UNL     1      13.120   6.640  19.025  1.00  0.00     0.013 C 
ATOM      7  C   UNL     1      13.152   6.860  17.499  1.00  0.00     0.021 C 
ATOM      8  C   UNL     1      11.608   6.699  17.485  1.00  0.00    -0.026 C 
ATOM      9  C   UNL     1      10.875   8.041  17.738  1.00  0.00     0.012 C 
ATOM     10  C   UNL     1      10.948   6.005  16.261  1.00  0.00     0.012 C 
ENDROOT
TORSDOF 0
ENDMDL
MODEL 4
REMARK VINA RESULT:    -3.674      1.122      3.095
REMARK INTER + INTRA:          -3.674
REMARK INTER:                  -3.674
REMARK INTRA:                   0.000
REMARK UNBOUND:                 0.000
REMARK SMILES CC1=CC[C@H]2C[C@@H]1C2(C)C
REMARK SMILES IDX 1 1 2 2 3 3 4 4 5 5 6 6 7 7 8 8 9 9 10 10
REMARK H PARENT
REMARK Flexibility Score: inf
ROOT
ATOM      1  C   UNL     1      12.086   8.093  19.675  1.00  0.00     0.039 C 
ATOM      2  C   UNL     1      12.036   7.395  18.349  1.00  0.00    -0.074 C 
ATOM      3  C   UNL     1      10.875   7.303  17.636  1.00  0.00    -0.027 C 
ATOM      4  C   UNL     1      10.888   6.545  16.293  1.00  0.00     0.031 C 
ATOM      5  C   UNL     1      12.337   6.038  15.976  1.00  0.00    -0.000 C 
ATOM      6  C   UNL     1      13.269   7.237  16.248  1.00  0.00     0.013 C 
ATOM      7  C   UNL     1      13.287   6.769  17.716  1.00  0.00     0.021 C 
ATOM      8  C   UNL     1      12.949   5.338  17.221  1.00  0.00    -0.026 C 
ATOM      9  C   UNL     1      14.219   4.523  16.868  1.00  0.00     0.012 C 
ATOM     10  C   UNL     1      12.028   4.448  18.102  1.00  0.00     0.012 C 
ENDROOT
TORSDOF 0
ENDMDL
MODEL 5
REMARK VINA RESULT:    -3.602      1.164      2.397
REMARK INTER + INTRA:          -3.602
REMARK INTER:                  -3.602
REMARK INTRA:                   0.000
REMARK UNBOUND:                 0.000
REMARK SMILES CC1=CC[C@H]2C[C@@H]1C2(C)C
REMARK SMILES IDX 1 1 2 2 3 3 4 4 5 5 6 6 7 7 8 8 9 9 10 10
REMARK H PARENT
REMARK Flexibility Score: inf
ROOT
ATOM      1  C   UNL     1      13.075   3.875  19.789  1.00  0.00     0.039 C 
ATOM      2  C   UNL     1      12.764   4.719  18.590  1.00  0.00    -0.074 C 
ATOM      3  C   UNL     1      13.521   4.651  17.456  1.00  0.00    -0.027 C 
ATOM      4  C   UNL     1      13.164   5.568  16.269  1.00  0.00     0.031 C 
ATOM      5  C   UNL     1      11.893   6.420  16.612  1.00  0.00    -0.000 C 
ATOM      6  C   UNL     1      10.875   5.430  17.215  1.00  0.00     0.013 C 
ATOM      7  C   UNL     1      11.571   5.685  18.567  1.00  0.00     0.021 C 
ATOM      8  C   UNL     1      12.036   7.061  18.020  1.00  0.00    -0.026 C 
ATOM      9  C   UNL     1      10.987   8.176  18.264  1.00  0.00     0.012 C 
ATOM     10  C   UNL     1      13.428   7.598  18.456  1.00  0.00     0.012 C 
ENDROOT
TORSDOF 0
ENDMDL
MODEL 6
REMARK VINA RESULT:    -3.600      1.289      3.029
REMARK INTER + INTRA:          -3.600
REMARK INTER:                  -3.600
REMARK INTRA:                   0.000
REMARK UNBOUND:                 0.000
REMARK SMILES CC1=CC[C@H]2C[C@@H]1C2(C)C
REMARK SMILES IDX 1 1 2 2 3 3 4 4 5 5 6 6 7 7 8 8 9 9 10 10
REMARK H PARENT
REMARK Flexibility Score: inf
ROOT
ATOM      1  C   UNL     1      11.740   9.631  16.616  1.00  0.00     0.039 C 
ATOM      2  C   UNL     1      11.618   8.190  17.013  1.00  0.00    -0.074 C 
ATOM      3  C   UNL     1      11.018   7.823  18.184  1.00  0.00    -0.027 C 
ATOM      4  C   UNL     1      10.953   6.325  18.545  1.00  0.00     0.031 C 
ATOM      5  C   UNL     1      11.592   5.467  17.400  1.00  0.00    -0.000 C 
ATOM      6  C   UNL     1      11.002   6.018  16.085  1.00  0.00     0.013 C 
ATOM      7  C   UNL     1      12.140   7.057  16.119  1.00  0.00     0.021 C 
ATOM      8  C   UNL     1      12.965   6.063  16.980  1.00  0.00    -0.026 C 
ATOM      9  C   UNL     1      13.789   5.078  16.113  1.00  0.00     0.012 C 
ATOM     10  C   UNL     1      13.896   6.638  18.085  1.00  0.00     0.012 C 
ENDROOT
TORSDOF 0
ENDMDL
MODEL 7
REMARK VINA RESULT:    -3.530      1.202      2.924
REMARK INTER + INTRA:          -3.530
REMARK INTER:                  -3.530
REMARK INTRA:                   0.000
REMARK UNBOUND:                 0.000
REMARK SMILES CC1=CC[C@H]2C[C@@H]1C2(C)C
REMARK SMILES IDX 1 1 2 2 3 3 4 4 5 5 6 6 7 7 8 8 9 9 10 10
REMARK H PARENT
REMARK Flexibility Score: inf
ROOT
ATOM      1  C   UNL     1      14.509   7.399  19.540  1.00  0.00     0.039 C 
ATOM      2  C   UNL     1      13.477   6.487  18.947  1.00  0.00    -0.074 C 
ATOM      3  C   UNL     1      13.564   5.131  19.082  1.00  0.00    -0.027 C 
ATOM      4  C   UNL     1      12.485   4.250  18.421  1.00  0.00     0.031 C 
ATOM      5  C   UNL     1      11.411   5.150  17.718  1.00  0.00    -0.000 C 
ATOM      6  C   UNL     1      11.056   6.252  18.739  1.00  0.00     0.013 C 
ATOM      7  C   UNL     1      12.264   7.029  18.178  1.00  0.00     0.021 C 
ATOM      8  C   UNL     1      12.103   6.240  16.852  1.00  0.00    -0.026 C 
ATOM      9  C   UNL     1      11.114   6.925  15.875  1.00  0.00     0.012 C 
ATOM     10  C   UNL     1      13.385   5.857  16.059  1.00  0.00     0.012 C 
ENDROOT
TORSDOF 0
ENDMDL
MODEL 8
REMARK VINA RESULT:    -3.496      2.016      3.155
REMARK INTER + INTRA:          -3.496
REMARK INTER:                  -3.496
REMARK INTRA:                   0.000
REMARK UNBOUND:                 0.000
REMARK SMILES CC1=CC[C@H]2C[C@@H]1C2(C)C
REMARK SMILES IDX 1 1 2 2 3 3 4 4 5 5 6 6 7 7 8 8 9 9 10 10
REMARK H PARENT
REMARK Flexibility Score: inf
ROOT
ATOM      1  C   UNL     1      14.447   7.721  17.176  1.00  0.00     0.039 C 
ATOM      2  C   UNL     1      14.530   6.226  17.102  1.00  0.00    -0.074 C 
ATOM      3  C   UNL     1      14.430   5.566  15.911  1.00  0.00    -0.027 C 
ATOM      4  C   UNL     1      14.494   4.025  15.909  1.00  0.00     0.031 C 
ATOM      5  C   UNL     1      14.719   3.495  17.367  1.00  0.00    -0.000 C 
ATOM      6  C   UNL     1      15.852   4.360  17.958  1.00  0.00     0.013 C 
ATOM      7  C   UNL     1      14.750   5.364  18.353  1.00  0.00     0.021 C 
ATOM      8  C   UNL     1      13.736   4.190  18.352  1.00  0.00    -0.026 C 
ATOM      9  C   UNL     1      13.673   3.467  19.721  1.00  0.00     0.012 C 
ATOM     10  C   UNL     1      12.282   4.468  17.879  1.00  0.00     0.012 C 
ENDROOT
TORSDOF 0
ENDMDL
MODEL 9
REMARK VINA RESULT:    -3.408      1.216      2.889
REMARK INTER + INTRA:          -3.408
REMARK INTER:                  -3.408
REMARK INTRA:                   0.000
REMARK UNBOUND:                 0.000
REMARK SMILES CC1=CC[C@H]2C[C@@H]1C2(C)C
REMARK SMILES IDX 1 1 2 2 3 3 4 4 5 5 6 6 7 7 8 8 9 9 10 10
REMARK H PARENT
REMARK Flexibility Score: inf
ROOT
ATOM      1  C   UNL     1      13.535   4.302  19.682  1.00  0.00     0.039 C 
ATOM      2  C   UNL     1      12.744   5.135  18.719  1.00  0.00    -0.074 C 
ATOM      3  C   UNL     1      11.625   4.647  18.108  1.00  0.00    -0.027 C 
ATOM      4  C   UNL     1      10.875   5.547  17.105  1.00  0.00     0.031 C 
ATOM      5  C   UNL     1      11.571   6.949  17.016  1.00  0.00    -0.000 C 
ATOM      6  C   UNL     1      11.824   7.383  18.475  1.00  0.00     0.013 C 
ATOM      7  C   UNL     1      13.138   6.581  18.386  1.00  0.00     0.021 C 
ATOM      8  C   UNL     1      13.107   6.780  16.847  1.00  0.00    -0.026 C 
ATOM      9  C   UNL     1      13.795   8.098  16.411  1.00  0.00     0.012 C 
ATOM     10  C   UNL     1      13.634   5.631  15.942  1.00  0.00     0.012 C 
ENDROOT
TORSDOF 0
ENDMDL
