MODEL 1
REMARK VINA RESULT:    -4.178      0.000      0.000
REMARK INTER + INTRA:          -5.052
REMARK INTER:                  -5.032
REMARK INTRA:                  -0.020
REMARK UNBOUND:                -0.020
REMARK SMILES O=c1c(O)c(-c2ccc(O)c(O)c2)oc2cc(O)cc(O)c12
REMARK SMILES IDX 5 1 3 2 2 3 1 4 22 5 20 6 19 7 17 8 16 9 15 10 14 11 6 12
REMARK SMILES IDX 7 13 8 14 9 15 13 16 11 17 10 18 12 20 4 22 21 24 18 26
REMARK H PARENT 10 19 12 21 4 23 21 25 18 27
REMARK Flexibility Score: inf
ROOT
ATOM      1  C   UNL     1     -95.156  60.365 200.762  1.00  0.00     0.180 A 
ATOM      2  C   UNL     1     -96.553  60.459 200.637  1.00  0.00     0.208 A 
ATOM      3  C   UNL     1     -97.364  60.002 201.688  1.00  0.00     0.238 A 
ATOM      4  O   UNL     1     -98.611  60.139 201.594  1.00  0.00    -0.285 OA
ATOM      5  C   UNL     1     -96.768  59.443 202.845  1.00  0.00     0.111 A 
ATOM      6  C   UNL     1     -97.493  58.913 203.954  1.00  0.00     0.134 A 
ATOM      7  C   UNL     1     -96.800  58.504 205.100  1.00  0.00     0.093 A 
ATOM      8  C   UNL     1     -95.408  58.545 205.154  1.00  0.00     0.123 A 
ATOM      9  C   UNL     1     -94.686  59.007 204.052  1.00  0.00     0.094 A 
ATOM     10  C   UNL     1     -95.350  59.455 202.908  1.00  0.00     0.146 A 
ATOM     11  O   UNL     1     -94.627  59.896 201.885  1.00  0.00    -0.452 OA
ENDROOT
BRANCH   1  12
ATOM     12  C   UNL     1     -94.238  60.801 199.685  1.00  0.00     0.025 A 
ATOM     13  C   UNL     1     -94.325  62.113 199.193  1.00  0.00     0.016 A 
ATOM     14  C   UNL     1     -93.455  62.552 198.192  1.00  0.00     0.051 A 
ATOM     15  C   UNL     1     -92.477  61.696 197.679  1.00  0.00     0.157 A 
ATOM     16  C   UNL     1     -93.240  59.947 199.183  1.00  0.00     0.062 A 
ATOM     17  C   UNL     1     -92.365  60.387 198.179  1.00  0.00     0.158 A 
BRANCH  15  18
ATOM     18  O   UNL     1     -91.625  62.162 196.679  1.00  0.00    -0.504 OA
ATOM     19  H   UNL     1     -91.934  62.816 195.971  1.00  0.00     0.293 HD
ENDBRANCH  15  18
BRANCH  17  20
ATOM     20  O   UNL     1     -91.383  59.532 197.682  1.00  0.00    -0.504 OA
ATOM     21  H   UNL     1     -90.713  59.840 196.987  1.00  0.00     0.293 HD
ENDBRANCH  17  20
ENDBRANCH   1  12
BRANCH   2  22
ATOM     22  O   UNL     1     -97.119  61.035 199.496  1.00  0.00    -0.502 OA
ATOM     23  H   UNL     1     -96.675  61.794 198.993  1.00  0.00     0.293 HD
ENDBRANCH   2  22
BRANCH   6  24
ATOM     24  O   UNL     1     -98.881  58.741 203.970  1.00  0.00    -0.507 OA
ATOM     25  H   UNL     1     -99.510  59.085 203.260  1.00  0.00     0.293 HD
ENDBRANCH   6  24
BRANCH   8  26
ATOM     26  O   UNL     1     -94.750  58.117 206.304  1.00  0.00    -0.508 OA
ATOM     27  H   UNL     1     -94.360  57.185 206.377  1.00  0.00     0.293 HD
ENDBRANCH   8  26
TORSDOF 6
ENDMDL
MODEL 2
REMARK VINA RESULT:    -4.103      2.413      4.123
REMARK INTER + INTRA:          -4.962
REMARK INTER:                  -4.772
REMARK INTRA:                  -0.191
REMARK UNBOUND:                -0.020
REMARK SMILES O=c1c(O)c(-c2ccc(O)c(O)c2)oc2cc(O)cc(O)c12
REMARK SMILES IDX 5 1 3 2 2 3 1 4 22 5 20 6 19 7 17 8 16 9 15 10 14 11 6 12
REMARK SMILES IDX 7 13 8 14 9 15 13 16 11 17 10 18 12 20 4 22 21 24 18 26
REMARK H PARENT 10 19 12 21 4 23 21 25 18 27
REMARK Flexibility Score: inf
ROOT
ATOM      1  C   UNL     1     -96.229  60.180 199.484  1.00  0.00     0.180 A 
ATOM      2  C   UNL     1     -96.556  60.407 200.832  1.00  0.00     0.208 A 
ATOM      3  C   UNL     1     -97.813  60.001 201.306  1.00  0.00     0.238 A 
ATOM      4  O   UNL     1     -98.079  60.158 202.526  1.00  0.00    -0.285 OA
ATOM      5  C   UNL     1     -98.734  59.388 200.423  1.00  0.00     0.111 A 
ATOM      6  C   UNL     1    -100.051  58.973 200.786  1.00  0.00     0.134 A 
ATOM      7  C   UNL     1    -100.828  58.259 199.864  1.00  0.00     0.093 A 
ATOM      8  C   UNL     1    -100.363  58.002 198.576  1.00  0.00     0.123 A 
ATOM      9  C   UNL     1     -99.100  58.456 198.191  1.00  0.00     0.094 A 
ATOM     10  C   UNL     1     -98.287  59.138 199.099  1.00  0.00     0.146 A 
ATOM     11  O   UNL     1     -97.089  59.544 198.698  1.00  0.00    -0.452 OA
ENDROOT
BRANCH   1  12
ATOM     12  C   UNL     1     -94.933  60.604 198.905  1.00  0.00     0.025 A 
ATOM     13  C   UNL     1     -94.900  61.667 197.989  1.00  0.00     0.016 A 
ATOM     14  C   UNL     1     -93.687  62.096 197.447  1.00  0.00     0.051 A 
ATOM     15  C   UNL     1     -92.488  61.483 197.821  1.00  0.00     0.157 A 
ATOM     16  C   UNL     1     -93.725  60.001 199.296  1.00  0.00     0.062 A 
ATOM     17  C   UNL     1     -92.505  60.432 198.754  1.00  0.00     0.158 A 
BRANCH  15  18
ATOM     18  O   UNL     1     -91.293  61.931 197.261  1.00  0.00    -0.504 OA
ATOM     19  H   UNL     1     -91.137  61.939 196.261  1.00  0.00     0.293 HD
ENDBRANCH  15  18
BRANCH  17  20
ATOM     20  O   UNL     1     -91.312  59.824 199.143  1.00  0.00    -0.504 OA
ATOM     21  H   UNL     1     -91.255  59.250 199.975  1.00  0.00     0.293 HD
ENDBRANCH  17  20
ENDBRANCH   1  12
BRANCH   2  22
ATOM     22  O   UNL     1     -95.622  60.994 201.692  1.00  0.00    -0.502 OA
ATOM     23  H   UNL     1     -94.635  61.043 201.471  1.00  0.00     0.293 HD
ENDBRANCH   2  22
BRANCH   6  24
ATOM     24  O   UNL     1    -100.648  59.258 202.017  1.00  0.00    -0.507 OA
ATOM     25  H   UNL     1    -101.643  59.336 202.168  1.00  0.00     0.293 HD
ENDBRANCH   6  24
BRANCH   8  26
ATOM     26  O   UNL     1    -101.169  57.303 197.680  1.00  0.00    -0.508 OA
ATOM     27  H   UNL     1    -101.183  57.526 196.692  1.00  0.00     0.293 HD
ENDBRANCH   8  26
TORSDOF 6
ENDMDL
MODEL 3
REMARK VINA RESULT:    -4.071      2.916      7.551
REMARK INTER + INTRA:          -4.924
REMARK INTER:                  -4.708
REMARK INTRA:                  -0.216
REMARK UNBOUND:                -0.020
REMARK SMILES O=c1c(O)c(-c2ccc(O)c(O)c2)oc2cc(O)cc(O)c12
REMARK SMILES IDX 5 1 3 2 2 3 1 4 22 5 20 6 19 7 17 8 16 9 15 10 14 11 6 12
REMARK SMILES IDX 7 13 8 14 9 15 13 16 11 17 10 18 12 20 4 22 21 24 18 26
REMARK H PARENT 10 19 12 21 4 23 21 25 18 27
REMARK Flexibility Score: inf
ROOT
ATOM      1  C   UNL     1     -95.808  60.388 198.865  1.00  0.00     0.180 A 
ATOM      2  C   UNL     1     -94.602  60.014 199.483  1.00  0.00     0.208 A 
ATOM      3  C   UNL     1     -93.392  60.508 198.970  1.00  0.00     0.238 A 
ATOM      4  O   UNL     1     -92.320  60.215 199.560  1.00  0.00    -0.285 OA
ATOM      5  C   UNL     1     -93.402  61.357 197.836  1.00  0.00     0.111 A 
ATOM      6  C   UNL     1     -92.234  61.883 197.208  1.00  0.00     0.134 A 
ATOM      7  C   UNL     1     -92.367  62.817 196.173  1.00  0.00     0.093 A 
ATOM      8  C   UNL     1     -93.623  63.193 195.700  1.00  0.00     0.123 A 
ATOM      9  C   UNL     1     -94.772  62.639 196.267  1.00  0.00     0.094 A 
ATOM     10  C   UNL     1     -94.672  61.733 197.326  1.00  0.00     0.146 A 
ATOM     11  O   UNL     1     -95.788  61.236 197.844  1.00  0.00    -0.452 OA
ENDROOT
BRANCH   1  12
ATOM     12  C   UNL     1     -97.121  59.887 199.332  1.00  0.00     0.025 A 
ATOM     13  C   UNL     1     -97.653  60.367 200.540  1.00  0.00     0.016 A 
ATOM     14  C   UNL     1     -98.899  59.924 200.990  1.00  0.00     0.051 A 
ATOM     15  C   UNL     1     -99.639  59.008 200.236  1.00  0.00     0.157 A 
ATOM     16  C   UNL     1     -97.875  58.982 198.565  1.00  0.00     0.062 A 
ATOM     17  C   UNL     1     -99.127  58.536 199.015  1.00  0.00     0.158 A 
BRANCH  15  18
ATOM     18  O   UNL     1    -100.878  58.582 200.712  1.00  0.00    -0.504 OA
ATOM     19  H   UNL     1    -101.723  58.665 200.161  1.00  0.00     0.293 HD
ENDBRANCH  15  18
BRANCH  17  20
ATOM     20  O   UNL     1     -99.866  57.634 198.251  1.00  0.00    -0.504 OA
ATOM     21  H   UNL     1    -100.489  56.961 198.680  1.00  0.00     0.293 HD
ENDBRANCH  17  20
ENDBRANCH   1  12
BRANCH   2  22
ATOM     22  O   UNL     1     -94.617  59.194 200.615  1.00  0.00    -0.502 OA
ATOM     23  H   UNL     1     -95.229  58.391 200.696  1.00  0.00     0.293 HD
ENDBRANCH   2  22
BRANCH   6  24
ATOM     24  O   UNL     1     -90.930  61.505 197.542  1.00  0.00    -0.507 OA
ATOM     25  H   UNL     1     -90.277  62.082 198.050  1.00  0.00     0.293 HD
ENDBRANCH   6  24
BRANCH   8  26
ATOM     26  O   UNL     1     -93.720  64.113 194.657  1.00  0.00    -0.508 OA
ATOM     27  H   UNL     1     -94.617  64.428 194.309  1.00  0.00     0.293 HD
ENDBRANCH   8  26
TORSDOF 6
ENDMDL
MODEL 4
REMARK VINA RESULT:    -4.043      1.892      6.637
REMARK INTER + INTRA:          -4.890
REMARK INTER:                  -4.577
REMARK INTRA:                  -0.314
REMARK UNBOUND:                -0.020
REMARK SMILES O=c1c(O)c(-c2ccc(O)c(O)c2)oc2cc(O)cc(O)c12
REMARK SMILES IDX 5 1 3 2 2 3 1 4 22 5 20 6 19 7 17 8 16 9 15 10 14 11 6 12
REMARK SMILES IDX 7 13 8 14 9 15 13 16 11 17 10 18 12 20 4 22 21 24 18 26
REMARK H PARENT 10 19 12 21 4 23 21 25 18 27
REMARK Flexibility Score: inf
ROOT
ATOM      1  C   UNL     1     -95.240  60.673 200.440  1.00  0.00     0.180 A 
ATOM      2  C   UNL     1     -96.416  60.411 199.717  1.00  0.00     0.208 A 
ATOM      3  C   UNL     1     -96.427  60.627 198.330  1.00  0.00     0.238 A 
ATOM      4  O   UNL     1     -97.466  60.340 197.681  1.00  0.00    -0.285 OA
ATOM      5  C   UNL     1     -95.265  61.117 197.685  1.00  0.00     0.111 A 
ATOM      6  C   UNL     1     -95.175  61.410 196.291  1.00  0.00     0.134 A 
ATOM      7  C   UNL     1     -93.938  61.766 195.739  1.00  0.00     0.093 A 
ATOM      8  C   UNL     1     -92.805  61.902 196.538  1.00  0.00     0.123 A 
ATOM      9  C   UNL     1     -92.895  61.676 197.913  1.00  0.00     0.094 A 
ATOM     10  C   UNL     1     -94.106  61.284 198.488  1.00  0.00     0.146 A 
ATOM     11  O   UNL     1     -94.148  61.069 199.797  1.00  0.00    -0.452 OA
ENDROOT
BRANCH   1  12
ATOM     12  C   UNL     1     -95.160  60.494 201.908  1.00  0.00     0.025 A 
ATOM     13  C   UNL     1     -95.425  61.584 202.752  1.00  0.00     0.016 A 
ATOM     14  C   UNL     1     -95.375  61.433 204.140  1.00  0.00     0.051 A 
ATOM     15  C   UNL     1     -95.078  60.190 204.706  1.00  0.00     0.157 A 
ATOM     16  C   UNL     1     -94.882  59.240 202.479  1.00  0.00     0.062 A 
ATOM     17  C   UNL     1     -94.834  59.085 203.872  1.00  0.00     0.158 A 
BRANCH  15  18
ATOM     18  O   UNL     1     -95.034  60.070 206.094  1.00  0.00    -0.504 OA
ATOM     19  H   UNL     1     -94.389  59.443 206.560  1.00  0.00     0.293 HD
ENDBRANCH  15  18
BRANCH  17  20
ATOM     20  O   UNL     1     -94.551  57.839 204.430  1.00  0.00    -0.504 OA
ATOM     21  H   UNL     1     -94.052  57.751 205.307  1.00  0.00     0.293 HD
ENDBRANCH  17  20
ENDBRANCH   1  12
BRANCH   2  22
ATOM     22  O   UNL     1     -97.545  59.906 200.371  1.00  0.00    -0.502 OA
ATOM     23  H   UNL     1     -97.729  60.083 201.351  1.00  0.00     0.293 HD
ENDBRANCH   2  22
BRANCH   6  24
ATOM     24  O   UNL     1     -96.267  61.394 195.418  1.00  0.00    -0.507 OA
ATOM     25  H   UNL     1     -96.253  61.757 194.477  1.00  0.00     0.293 HD
ENDBRANCH   6  24
BRANCH   8  26
ATOM     26  O   UNL     1     -91.593  62.272 195.959  1.00  0.00    -0.508 OA
ATOM     27  H   UNL     1     -90.734  62.299 196.494  1.00  0.00     0.293 HD
ENDBRANCH   8  26
TORSDOF 6
ENDMDL
MODEL 5
REMARK VINA RESULT:    -4.035      8.612     10.277
REMARK INTER + INTRA:          -4.880
REMARK INTER:                  -4.563
REMARK INTRA:                  -0.317
REMARK UNBOUND:                -0.020
REMARK SMILES O=c1c(O)c(-c2ccc(O)c(O)c2)oc2cc(O)cc(O)c12
REMARK SMILES IDX 5 1 3 2 2 3 1 4 22 5 20 6 19 7 17 8 16 9 15 10 14 11 6 12
REMARK SMILES IDX 7 13 8 14 9 15 13 16 11 17 10 18 12 20 4 22 21 24 18 26
REMARK H PARENT 10 19 12 21 4 23 21 25 18 27
REMARK Flexibility Score: inf
ROOT
ATOM      1  C   UNL     1     -92.110  57.399 193.276  1.00  0.00     0.180 A 
ATOM      2  C   UNL     1     -91.388  56.874 194.362  1.00  0.00     0.208 A 
ATOM      3  C   UNL     1     -91.386  55.486 194.572  1.00  0.00     0.238 A 
ATOM      4  O   UNL     1     -90.694  55.017 195.513  1.00  0.00    -0.285 OA
ATOM      5  C   UNL     1     -92.118  54.641 193.702  1.00  0.00     0.111 A 
ATOM      6  C   UNL     1     -92.218  53.225 193.844  1.00  0.00     0.134 A 
ATOM      7  C   UNL     1     -92.861  52.476 192.850  1.00  0.00     0.093 A 
ATOM      8  C   UNL     1     -93.463  53.096 191.757  1.00  0.00     0.123 A 
ATOM      9  C   UNL     1     -93.422  54.486 191.639  1.00  0.00     0.094 A 
ATOM     10  C   UNL     1     -92.756  55.258 192.594  1.00  0.00     0.146 A 
ATOM     11  O   UNL     1     -92.732  56.576 192.441  1.00  0.00    -0.452 OA
ENDROOT
BRANCH   1  12
ATOM     12  C   UNL     1     -92.180  58.854 193.007  1.00  0.00     0.025 A 
ATOM     13  C   UNL     1     -93.130  59.636 193.682  1.00  0.00     0.016 A 
ATOM     14  C   UNL     1     -93.201  61.013 193.458  1.00  0.00     0.051 A 
ATOM     15  C   UNL     1     -92.316  61.632 192.571  1.00  0.00     0.157 A 
ATOM     16  C   UNL     1     -91.277  59.481 192.130  1.00  0.00     0.062 A 
ATOM     17  C   UNL     1     -91.345  60.864 191.905  1.00  0.00     0.158 A 
BRANCH  15  18
ATOM     18  O   UNL     1     -92.412  63.008 192.366  1.00  0.00    -0.504 OA
ATOM     19  H   UNL     1     -93.235  63.435 191.960  1.00  0.00     0.293 HD
ENDBRANCH  15  18
BRANCH  17  20
ATOM     20  O   UNL     1     -90.450  61.476 191.030  1.00  0.00    -0.504 OA
ATOM     21  H   UNL     1     -90.499  62.468 190.830  1.00  0.00     0.293 HD
ENDBRANCH  17  20
ENDBRANCH   1  12
BRANCH   2  22
ATOM     22  O   UNL     1     -90.654  57.724 195.195  1.00  0.00    -0.502 OA
ATOM     23  H   UNL     1     -90.335  58.637 194.894  1.00  0.00     0.293 HD
ENDBRANCH   2  22
BRANCH   6  24
ATOM     24  O   UNL     1     -91.732  52.513 194.945  1.00  0.00    -0.507 OA
ATOM     25  H   UNL     1     -92.263  52.315 195.779  1.00  0.00     0.293 HD
ENDBRANCH   6  24
BRANCH   8  26
ATOM     26  O   UNL     1     -94.108  52.321 190.794  1.00  0.00    -0.508 OA
ATOM     27  H   UNL     1     -95.092  52.096 190.867  1.00  0.00     0.293 HD
ENDBRANCH   8  26
TORSDOF 6
ENDMDL
MODEL 6
REMARK VINA RESULT:    -4.019      1.664      6.544
REMARK INTER + INTRA:          -4.861
REMARK INTER:                  -4.526
REMARK INTRA:                  -0.335
REMARK UNBOUND:                -0.020
REMARK SMILES O=c1c(O)c(-c2ccc(O)c(O)c2)oc2cc(O)cc(O)c12
REMARK SMILES IDX 5 1 3 2 2 3 1 4 22 5 20 6 19 7 17 8 16 9 15 10 14 11 6 12
REMARK SMILES IDX 7 13 8 14 9 15 13 16 11 17 10 18 12 20 4 22 21 24 18 26
REMARK H PARENT 10 19 12 21 4 23 21 25 18 27
REMARK Flexibility Score: inf
ROOT
ATOM      1  C   UNL     1     -95.361  60.170 201.589  1.00  0.00     0.180 A 
ATOM      2  C   UNL     1     -96.643  60.061 201.021  1.00  0.00     0.208 A 
ATOM      3  C   UNL     1     -96.799  60.284 199.644  1.00  0.00     0.238 A 
ATOM      4  O   UNL     1     -97.938  60.132 199.132  1.00  0.00    -0.285 OA
ATOM      5  C   UNL     1     -95.675  60.628 198.854  1.00  0.00     0.111 A 
ATOM      6  C   UNL     1     -95.724  60.914 197.457  1.00  0.00     0.134 A 
ATOM      7  C   UNL     1     -94.531  61.115 196.751  1.00  0.00     0.093 A 
ATOM      8  C   UNL     1     -93.299  61.105 197.401  1.00  0.00     0.123 A 
ATOM      9  C   UNL     1     -93.244  60.885 198.779  1.00  0.00     0.094 A 
ATOM     10  C   UNL     1     -94.413  60.645 199.504  1.00  0.00     0.146 A 
ATOM     11  O   UNL     1     -94.318  60.430 200.811  1.00  0.00    -0.452 OA
ENDROOT
BRANCH   1  12
ATOM     12  C   UNL     1     -95.122  59.976 203.037  1.00  0.00     0.025 A 
ATOM     13  C   UNL     1     -94.746  58.708 203.511  1.00  0.00     0.016 A 
ATOM     14  C   UNL     1     -94.496  58.507 204.870  1.00  0.00     0.051 A 
ATOM     15  C   UNL     1     -94.601  59.568 205.774  1.00  0.00     0.157 A 
ATOM     16  C   UNL     1     -95.208  61.046 203.944  1.00  0.00     0.062 A 
ATOM     17  C   UNL     1     -94.955  60.846 205.309  1.00  0.00     0.158 A 
BRANCH  15  18
ATOM     18  O   UNL     1     -94.347  59.336 207.125  1.00  0.00    -0.504 OA
ATOM     19  H   UNL     1     -93.568  59.765 207.607  1.00  0.00     0.293 HD
ENDBRANCH  15  18
BRANCH  17  20
ATOM     20  O   UNL     1     -95.048  61.912 206.203  1.00  0.00    -0.504 OA
ATOM     21  H   UNL     1     -94.225  62.316 206.634  1.00  0.00     0.293 HD
ENDBRANCH  17  20
ENDBRANCH   1  12
BRANCH   2  22
ATOM     22  O   UNL     1     -97.734  59.698 201.815  1.00  0.00    -0.502 OA
ATOM     23  H   UNL     1     -98.470  59.087 201.481  1.00  0.00     0.293 HD
ENDBRANCH   2  22
BRANCH   6  24
ATOM     24  O   UNL     1     -96.909  61.039 196.726  1.00  0.00    -0.507 OA
ATOM     25  H   UNL     1     -97.043  61.672 195.953  1.00  0.00     0.293 HD
ENDBRANCH   6  24
BRANCH   8  26
ATOM     26  O   UNL     1     -92.132  61.323 196.671  1.00  0.00    -0.508 OA
ATOM     27  H   UNL     1     -92.159  61.574 195.691  1.00  0.00     0.293 HD
ENDBRANCH   8  26
TORSDOF 6
ENDMDL
MODEL 7
REMARK VINA RESULT:    -3.994      2.509      6.282
REMARK INTER + INTRA:          -4.831
REMARK INTER:                  -4.514
REMARK INTRA:                  -0.317
REMARK UNBOUND:                -0.020
REMARK SMILES O=c1c(O)c(-c2ccc(O)c(O)c2)oc2cc(O)cc(O)c12
REMARK SMILES IDX 5 1 3 2 2 3 1 4 22 5 20 6 19 7 17 8 16 9 15 10 14 11 6 12
REMARK SMILES IDX 7 13 8 14 9 15 13 16 11 17 10 18 12 20 4 22 21 24 18 26
REMARK H PARENT 10 19 12 21 4 23 21 25 18 27
REMARK Flexibility Score: inf
ROOT
ATOM      1  C   UNL     1     -96.089  60.000 201.492  1.00  0.00     0.180 A 
ATOM      2  C   UNL     1     -95.329  60.255 200.338  1.00  0.00     0.208 A 
ATOM      3  C   UNL     1     -95.944  60.152 199.080  1.00  0.00     0.238 A 
ATOM      4  O   UNL     1     -95.273  60.434 198.054  1.00  0.00    -0.285 OA
ATOM      5  C   UNL     1     -97.307  59.779 198.992  1.00  0.00     0.111 A 
ATOM      6  C   UNL     1     -98.021  59.606 197.768  1.00  0.00     0.134 A 
ATOM      7  C   UNL     1     -99.400  59.363 197.802  1.00  0.00     0.093 A 
ATOM      8  C   UNL     1    -100.078  59.224 199.012  1.00  0.00     0.123 A 
ATOM      9  C   UNL     1     -99.378  59.333 200.215  1.00  0.00     0.094 A 
ATOM     10  C   UNL     1     -98.009  59.611 200.214  1.00  0.00     0.146 A 
ATOM     11  O   UNL     1     -97.381  59.717 201.379  1.00  0.00    -0.452 OA
ENDROOT
BRANCH   1  12
ATOM     12  C   UNL     1     -95.504  60.063 202.851  1.00  0.00     0.025 A 
ATOM     13  C   UNL     1     -94.975  58.899 203.431  1.00  0.00     0.016 A 
ATOM     14  C   UNL     1     -94.400  58.940 204.703  1.00  0.00     0.051 A 
ATOM     15  C   UNL     1     -94.329  60.145 205.409  1.00  0.00     0.157 A 
ATOM     16  C   UNL     1     -95.414  61.278 203.554  1.00  0.00     0.062 A 
ATOM     17  C   UNL     1     -94.835  61.322 204.831  1.00  0.00     0.158 A 
BRANCH  15  18
ATOM     18  O   UNL     1     -93.752  60.154 206.677  1.00  0.00    -0.504 OA
ATOM     19  H   UNL     1     -93.881  60.925 207.322  1.00  0.00     0.293 HD
ENDBRANCH  15  18
BRANCH  17  20
ATOM     20  O   UNL     1     -94.756  62.529 205.523  1.00  0.00    -0.504 OA
ATOM     21  H   UNL     1     -95.174  62.644 206.438  1.00  0.00     0.293 HD
ENDBRANCH  17  20
ENDBRANCH   1  12
BRANCH   2  22
ATOM     22  O   UNL     1     -93.990  60.643 200.450  1.00  0.00    -0.502 OA
ATOM     23  H   UNL     1     -93.659  61.548 200.138  1.00  0.00     0.293 HD
ENDBRANCH   2  22
BRANCH   6  24
ATOM     24  O   UNL     1     -97.424  59.633 196.504  1.00  0.00    -0.507 OA
ATOM     25  H   UNL     1     -96.520  59.240 196.288  1.00  0.00     0.293 HD
ENDBRANCH   6  24
BRANCH   8  26
ATOM     26  O   UNL     1    -101.447  58.968 199.009  1.00  0.00    -0.508 OA
ATOM     27  H   UNL     1    -101.925  58.641 198.178  1.00  0.00     0.293 HD
ENDBRANCH   8  26
TORSDOF 6
ENDMDL
MODEL 8
REMARK VINA RESULT:    -3.896      2.752      6.639
REMARK INTER + INTRA:          -4.714
REMARK INTER:                  -4.382
REMARK INTRA:                  -0.332
REMARK UNBOUND:                -0.020
REMARK SMILES O=c1c(O)c(-c2ccc(O)c(O)c2)oc2cc(O)cc(O)c12
REMARK SMILES IDX 5 1 3 2 2 3 1 4 22 5 20 6 19 7 17 8 16 9 15 10 14 11 6 12
REMARK SMILES IDX 7 13 8 14 9 15 13 16 11 17 10 18 12 20 4 22 21 24 18 26
REMARK H PARENT 10 19 12 21 4 23 21 25 18 27
REMARK Flexibility Score: inf
ROOT
ATOM      1  C   UNL     1     -96.239  60.365 200.638  1.00  0.00     0.180 A 
ATOM      2  C   UNL     1     -95.419  61.183 199.842  1.00  0.00     0.208 A 
ATOM      3  C   UNL     1     -95.686  61.283 198.467  1.00  0.00     0.238 A 
ATOM      4  O   UNL     1     -94.982  62.059 197.770  1.00  0.00    -0.285 OA
ATOM      5  C   UNL     1     -96.759  60.552 197.903  1.00  0.00     0.111 A 
ATOM      6  C   UNL     1     -97.095  60.548 196.516  1.00  0.00     0.134 A 
ATOM      7  C   UNL     1     -98.256  59.891 196.089  1.00  0.00     0.093 A 
ATOM      8  C   UNL     1     -99.056  59.186 196.986  1.00  0.00     0.123 A 
ATOM      9  C   UNL     1     -98.704  59.134 198.336  1.00  0.00     0.094 A 
ATOM     10  C   UNL     1     -97.572  59.809 198.799  1.00  0.00     0.146 A 
ATOM     11  O   UNL     1     -97.277  59.744 200.091  1.00  0.00    -0.452 OA
ENDROOT
BRANCH   1  12
ATOM     12  C   UNL     1     -96.005  60.189 202.090  1.00  0.00     0.025 A 
ATOM     13  C   UNL     1     -96.721  60.977 203.005  1.00  0.00     0.016 A 
ATOM     14  C   UNL     1     -96.531  60.814 204.380  1.00  0.00     0.051 A 
ATOM     15  C   UNL     1     -95.637  59.853 204.861  1.00  0.00     0.157 A 
ATOM     16  C   UNL     1     -95.122  59.210 202.576  1.00  0.00     0.062 A 
ATOM     17  C   UNL     1     -94.931  59.043 203.955  1.00  0.00     0.158 A 
BRANCH  15  18
ATOM     18  O   UNL     1     -95.466  59.715 206.238  1.00  0.00    -0.504 OA
ATOM     19  H   UNL     1     -95.832  58.920 206.748  1.00  0.00     0.293 HD
ENDBRANCH  15  18
BRANCH  17  20
ATOM     20  O   UNL     1     -94.048  58.073 204.429  1.00  0.00    -0.504 OA
ATOM     21  H   UNL     1     -94.249  57.084 204.340  1.00  0.00     0.293 HD
ENDBRANCH  17  20
ENDBRANCH   1  12
BRANCH   2  22
ATOM     22  O   UNL     1     -94.379  61.914 200.424  1.00  0.00    -0.502 OA
ATOM     23  H   UNL     1     -93.799  61.539 201.165  1.00  0.00     0.293 HD
ENDBRANCH   2  22
BRANCH   6  24
ATOM     24  O   UNL     1     -96.314  61.143 195.521  1.00  0.00    -0.507 OA
ATOM     25  H   UNL     1     -95.741  60.638 194.862  1.00  0.00     0.293 HD
ENDBRANCH   6  24
BRANCH   8  26
ATOM     26  O   UNL     1    -100.196  58.531 196.525  1.00  0.00    -0.508 OA
ATOM     27  H   UNL     1    -100.374  58.407 195.536  1.00  0.00     0.293 HD
ENDBRANCH   8  26
TORSDOF 6
ENDMDL
MODEL 9
REMARK VINA RESULT:    -3.872      8.659     10.434
REMARK INTER + INTRA:          -4.685
REMARK INTER:                  -4.350
REMARK INTRA:                  -0.335
REMARK UNBOUND:                -0.020
REMARK SMILES O=c1c(O)c(-c2ccc(O)c(O)c2)oc2cc(O)cc(O)c12
REMARK SMILES IDX 5 1 3 2 2 3 1 4 22 5 20 6 19 7 17 8 16 9 15 10 14 11 6 12
REMARK SMILES IDX 7 13 8 14 9 15 13 16 11 17 10 18 12 20 4 22 21 24 18 26
REMARK H PARENT 10 19 12 21 4 23 21 25 18 27
REMARK Flexibility Score: inf
ROOT
ATOM      1  C   UNL     1     -92.102  57.104 192.825  1.00  0.00     0.180 A 
ATOM      2  C   UNL     1     -91.648  56.584 191.600  1.00  0.00     0.208 A 
ATOM      3  C   UNL     1     -91.138  55.276 191.562  1.00  0.00     0.238 A 
ATOM      4  O   UNL     1     -90.784  54.797 190.454  1.00  0.00    -0.285 OA
ATOM      5  C   UNL     1     -91.074  54.511 192.752  1.00  0.00     0.111 A 
ATOM      6  C   UNL     1     -90.540  53.190 192.837  1.00  0.00     0.134 A 
ATOM      7  C   UNL     1     -90.646  52.479 194.039  1.00  0.00     0.093 A 
ATOM      8  C   UNL     1     -91.208  53.061 195.173  1.00  0.00     0.123 A 
ATOM      9  C   UNL     1     -91.680  54.373 195.118  1.00  0.00     0.094 A 
ATOM     10  C   UNL     1     -91.621  55.096 193.924  1.00  0.00     0.146 A 
ATOM     11  O   UNL     1     -92.089  56.338 193.909  1.00  0.00    -0.452 OA
ENDROOT
BRANCH   1  12
ATOM     12  C   UNL     1     -92.629  58.482 192.948  1.00  0.00     0.025 A 
ATOM     13  C   UNL     1     -94.011  58.706 192.841  1.00  0.00     0.016 A 
ATOM     14  C   UNL     1     -94.532  59.995 192.975  1.00  0.00     0.051 A 
ATOM     15  C   UNL     1     -93.685  61.077 193.233  1.00  0.00     0.157 A 
ATOM     16  C   UNL     1     -91.781  59.568 193.228  1.00  0.00     0.062 A 
ATOM     17  C   UNL     1     -92.302  60.863 193.364  1.00  0.00     0.158 A 
BRANCH  15  18
ATOM     18  O   UNL     1     -94.233  62.352 193.359  1.00  0.00    -0.504 OA
ATOM     19  H   UNL     1     -94.969  62.684 192.748  1.00  0.00     0.293 HD
ENDBRANCH  15  18
BRANCH  17  20
ATOM     20  O   UNL     1     -91.453  61.935 193.636  1.00  0.00    -0.504 OA
ATOM     21  H   UNL     1     -90.543  62.015 193.199  1.00  0.00     0.293 HD
ENDBRANCH  17  20
ENDBRANCH   1  12
BRANCH   2  22
ATOM     22  O   UNL     1     -91.742  57.349 190.434  1.00  0.00    -0.502 OA
ATOM     23  H   UNL     1     -92.617  57.483 189.940  1.00  0.00     0.293 HD
ENDBRANCH   2  22
BRANCH   6  24
ATOM     24  O   UNL     1     -89.875  52.547 191.789  1.00  0.00    -0.507 OA
ATOM     25  H   UNL     1     -89.895  52.848 190.826  1.00  0.00     0.293 HD
ENDBRANCH   6  24
BRANCH   8  26
ATOM     26  O   UNL     1     -91.284  52.330 196.357  1.00  0.00    -0.508 OA
ATOM     27  H   UNL     1     -92.174  52.089 196.775  1.00  0.00     0.293 HD
ENDBRANCH   8  26
TORSDOF 6
ENDMDL
