MODEL 1
REMARK VINA RESULT:    -4.849      0.000      0.000
REMARK INTER + INTRA:          -5.149
REMARK INTER:                  -5.132
REMARK INTRA:                  -0.017
REMARK UNBOUND:                -0.017
REMARK SMILES O=C([O-])c1cccnc1
REMARK SMILES IDX 4 1 5 2 9 3 6 4 8 5 7 6 2 7 1 8 3 9
REMARK H PARENT
REMARK Flexibility Score: inf
ROOT
ATOM      1  C   UNL     1      14.362 -12.087   9.287  1.00  0.00     0.016 A 
ATOM      2  C   UNL     1      14.850 -13.191  10.007  1.00  0.00     0.013 A 
ATOM      3  C   UNL     1      13.344 -11.311   9.865  1.00  0.00     0.120 A 
ATOM      4  C   UNL     1      14.324 -13.496  11.264  1.00  0.00     0.021 A 
ATOM      5  N   UNL     1      12.849 -11.630  11.091  1.00  0.00    -0.264 NA
ATOM      6  C   UNL     1      13.314 -12.695  11.795  1.00  0.00     0.111 A 
ENDROOT
BRANCH   1   7
ATOM      7  C   UNL     1      14.906 -11.747   7.955  1.00  0.00     0.073 C 
ATOM      8  O   UNL     1      15.572 -10.692   7.785  1.00  0.00    -0.545 OA
ATOM      9  O   UNL     1      14.691 -12.590   6.870  1.00  0.00    -0.545 OA
ENDBRANCH   1   7
TORSDOF 1
ENDMDL
MODEL 2
REMARK VINA RESULT:    -4.670      1.591      2.291
REMARK INTER + INTRA:          -4.960
REMARK INTER:                  -4.943
REMARK INTRA:                  -0.017
REMARK UNBOUND:                -0.017
REMARK SMILES O=C([O-])c1cccnc1
REMARK SMILES IDX 4 1 5 2 9 3 6 4 8 5 7 6 2 7 1 8 3 9
REMARK H PARENT
REMARK Flexibility Score: inf
ROOT
ATOM      1  C   UNL     1      13.839 -11.382   9.101  1.00  0.00     0.016 A 
ATOM      2  C   UNL     1      13.033 -11.232  10.242  1.00  0.00     0.013 A 
ATOM      3  C   UNL     1      14.758 -12.444   9.067  1.00  0.00     0.120 A 
ATOM      4  C   UNL     1      13.155 -12.126  11.308  1.00  0.00     0.021 A 
ATOM      5  N   UNL     1      14.856 -13.300  10.119  1.00  0.00    -0.264 NA
ATOM      6  C   UNL     1      14.082 -13.164  11.227  1.00  0.00     0.111 A 
ENDROOT
BRANCH   1   7
ATOM      7  C   UNL     1      13.725 -10.447   7.961  1.00  0.00     0.073 C 
ATOM      8  O   UNL     1      13.288 -10.844   6.848  1.00  0.00    -0.545 OA
ATOM      9  O   UNL     1      14.097  -9.114   8.102  1.00  0.00    -0.545 OA
ENDBRANCH   1   7
TORSDOF 1
ENDMDL
MODEL 3
REMARK VINA RESULT:    -4.586      2.652      3.768
REMARK INTER + INTRA:          -4.871
REMARK INTER:                  -4.851
REMARK INTRA:                  -0.021
REMARK UNBOUND:                -0.017
REMARK SMILES O=C([O-])c1cccnc1
REMARK SMILES IDX 4 1 5 2 9 3 6 4 8 5 7 6 2 7 1 8 3 9
REMARK H PARENT
REMARK Flexibility Score: inf
ROOT
ATOM      1  C   UNL     1      14.136 -11.189   9.362  1.00  0.00     0.016 A 
ATOM      2  C   UNL     1      14.145 -11.491   7.990  1.00  0.00     0.013 A 
ATOM      3  C   UNL     1      14.096  -9.839   9.749  1.00  0.00     0.120 A 
ATOM      4  C   UNL     1      14.116 -10.462   7.046  1.00  0.00     0.021 A 
ATOM      5  N   UNL     1      14.068  -8.856   8.809  1.00  0.00    -0.264 NA
ATOM      6  C   UNL     1      14.077  -9.138   7.479  1.00  0.00     0.111 A 
ENDROOT
BRANCH   1   7
ATOM      7  C   UNL     1      14.165 -12.263  10.378  1.00  0.00     0.073 C 
ATOM      8  O   UNL     1      14.877 -13.288  10.206  1.00  0.00    -0.545 OA
ATOM      9  O   UNL     1      13.409 -12.156  11.539  1.00  0.00    -0.545 OA
ENDBRANCH   1   7
TORSDOF 1
ENDMDL
MODEL 4
REMARK VINA RESULT:    -4.542      3.245      4.130
REMARK INTER + INTRA:          -4.825
REMARK INTER:                  -4.806
REMARK INTRA:                  -0.019
REMARK UNBOUND:                -0.017
REMARK SMILES O=C([O-])c1cccnc1
REMARK SMILES IDX 4 1 5 2 9 3 6 4 8 5 7 6 2 7 1 8 3 9
REMARK H PARENT
REMARK Flexibility Score: inf
ROOT
ATOM      1  C   UNL     1      14.716  -9.683   8.312  1.00  0.00     0.016 A 
ATOM      2  C   UNL     1      13.948  -9.688   7.136  1.00  0.00     0.013 A 
ATOM      3  C   UNL     1      15.185 -10.911   8.808  1.00  0.00     0.120 A 
ATOM      4  C   UNL     1      13.666 -10.893   6.487  1.00  0.00     0.021 A 
ATOM      5  N   UNL     1      14.897 -12.070   8.157  1.00  0.00    -0.264 NA
ATOM      6  C   UNL     1      14.155 -12.086   7.019  1.00  0.00     0.111 A 
ENDROOT
BRANCH   1   7
ATOM      7  C   UNL     1      15.026  -8.419   9.013  1.00  0.00     0.073 C 
ATOM      8  O   UNL     1      16.205  -8.157   9.370  1.00  0.00    -0.545 OA
ATOM      9  O   UNL     1      14.019  -7.500   9.286  1.00  0.00    -0.545 OA
ENDBRANCH   1   7
TORSDOF 1
ENDMDL
MODEL 5
REMARK VINA RESULT:    -4.539      2.716      3.672
REMARK INTER + INTRA:          -4.821
REMARK INTER:                  -4.805
REMARK INTRA:                  -0.017
REMARK UNBOUND:                -0.017
REMARK SMILES O=C([O-])c1cccnc1
REMARK SMILES IDX 4 1 5 2 9 3 6 4 8 5 7 6 2 7 1 8 3 9
REMARK H PARENT
REMARK Flexibility Score: inf
ROOT
ATOM      1  C   UNL     1      14.858 -10.794   9.205  1.00  0.00     0.016 A 
ATOM      2  C   UNL     1      13.792 -10.042   9.727  1.00  0.00     0.013 A 
ATOM      3  C   UNL     1      16.013 -10.114   8.785  1.00  0.00     0.120 A 
ATOM      4  C   UNL     1      13.895  -8.652   9.820  1.00  0.00     0.021 A 
ATOM      5  N   UNL     1      16.087  -8.760   8.887  1.00  0.00    -0.264 NA
ATOM      6  C   UNL     1      15.062  -8.023   9.390  1.00  0.00     0.111 A 
ENDROOT
BRANCH   1   7
ATOM      7  C   UNL     1      14.770 -12.267   9.100  1.00  0.00     0.073 C 
ATOM      8  O   UNL     1      14.660 -12.823   7.975  1.00  0.00    -0.545 OA
ATOM      9  O   UNL     1      14.809 -13.059  10.242  1.00  0.00    -0.545 OA
ENDBRANCH   1   7
TORSDOF 1
ENDMDL
MODEL 6
REMARK VINA RESULT:    -4.512      2.821      3.384
REMARK INTER + INTRA:          -4.792
REMARK INTER:                  -4.776
REMARK INTRA:                  -0.016
REMARK UNBOUND:                -0.017
REMARK SMILES O=C([O-])c1cccnc1
REMARK SMILES IDX 4 1 5 2 9 3 6 4 8 5 7 6 2 7 1 8 3 9
REMARK H PARENT
REMARK Flexibility Score: inf
ROOT
ATOM      1  C   UNL     1      15.100 -10.230   8.714  1.00  0.00     0.016 A 
ATOM      2  C   UNL     1      14.956 -11.184   9.736  1.00  0.00     0.013 A 
ATOM      3  C   UNL     1      14.995 -10.659   7.380  1.00  0.00     0.120 A 
ATOM      4  C   UNL     1      14.716 -12.522   9.416  1.00  0.00     0.021 A 
ATOM      5  N   UNL     1      14.761 -11.968   7.097  1.00  0.00    -0.264 NA
ATOM      6  C   UNL     1      14.620 -12.898   8.077  1.00  0.00     0.111 A 
ENDROOT
BRANCH   1   7
ATOM      7  C   UNL     1      15.354  -8.808   9.031  1.00  0.00     0.073 C 
ATOM      8  O   UNL     1      16.531  -8.384   9.171  1.00  0.00    -0.545 OA
ATOM      9  O   UNL     1      14.295  -7.919   9.177  1.00  0.00    -0.545 OA
ENDBRANCH   1   7
TORSDOF 1
ENDMDL
MODEL 7
REMARK VINA RESULT:    -4.471      2.852      3.945
REMARK INTER + INTRA:          -4.750
REMARK INTER:                  -4.730
REMARK INTRA:                  -0.020
REMARK UNBOUND:                -0.017
REMARK SMILES O=C([O-])c1cccnc1
REMARK SMILES IDX 4 1 5 2 9 3 6 4 8 5 7 6 2 7 1 8 3 9
REMARK H PARENT
REMARK Flexibility Score: inf
ROOT
ATOM      1  C   UNL     1      14.143 -11.143   9.361  1.00  0.00     0.016 A 
ATOM      2  C   UNL     1      14.130  -9.793   9.752  1.00  0.00     0.013 A 
ATOM      3  C   UNL     1      14.137 -11.441   7.988  1.00  0.00     0.120 A 
ATOM      4  C   UNL     1      14.111  -8.784   8.786  1.00  0.00     0.021 A 
ATOM      5  N   UNL     1      14.119 -10.439   7.068  1.00  0.00    -0.264 NA
ATOM      6  C   UNL     1      14.105  -9.131   7.436  1.00  0.00     0.111 A 
ENDROOT
BRANCH   1   7
ATOM      7  C   UNL     1      14.165 -12.226  10.367  1.00  0.00     0.073 C 
ATOM      8  O   UNL     1      14.893 -13.240  10.201  1.00  0.00    -0.545 OA
ATOM      9  O   UNL     1      13.381 -12.139  11.513  1.00  0.00    -0.545 OA
ENDBRANCH   1   7
TORSDOF 1
ENDMDL
MODEL 8
REMARK VINA RESULT:    -4.264      3.013      3.757
REMARK INTER + INTRA:          -4.530
REMARK INTER:                  -4.506
REMARK INTRA:                  -0.024
REMARK UNBOUND:                -0.017
REMARK SMILES O=C([O-])c1cccnc1
REMARK SMILES IDX 4 1 5 2 9 3 6 4 8 5 7 6 2 7 1 8 3 9
REMARK H PARENT
REMARK Flexibility Score: inf
ROOT
ATOM      1  C   UNL     1      14.534 -10.444   7.811  1.00  0.00     0.016 A 
ATOM      2  C   UNL     1      13.873  -9.204   7.792  1.00  0.00     0.013 A 
ATOM      3  C   UNL     1      15.650 -10.595   8.651  1.00  0.00     0.120 A 
ATOM      4  C   UNL     1      14.327  -8.157   8.597  1.00  0.00     0.021 A 
ATOM      5  N   UNL     1      16.070  -9.558   9.425  1.00  0.00    -0.264 NA
ATOM      6  C   UNL     1      15.439  -8.355   9.414  1.00  0.00     0.111 A 
ENDROOT
BRANCH   1   7
ATOM      7  C   UNL     1      14.069 -11.567   6.967  1.00  0.00     0.073 C 
ATOM      8  O   UNL     1      13.116 -11.408   6.159  1.00  0.00    -0.545 OA
ATOM      9  O   UNL     1      14.678 -12.813   7.055  1.00  0.00    -0.545 OA
ENDBRANCH   1   7
TORSDOF 1
ENDMDL
MODEL 9
REMARK VINA RESULT:    -4.119      8.327      9.059
REMARK INTER + INTRA:          -4.377
REMARK INTER:                  -4.354
REMARK INTRA:                  -0.023
REMARK UNBOUND:                -0.017
REMARK SMILES O=C([O-])c1cccnc1
REMARK SMILES IDX 4 1 5 2 9 3 6 4 8 5 7 6 2 7 1 8 3 9
REMARK H PARENT
REMARK Flexibility Score: inf
ROOT
ATOM      1  C   UNL     1      12.226  -5.024  13.533  1.00  0.00     0.016 A 
ATOM      2  C   UNL     1      11.489  -5.774  12.601  1.00  0.00     0.013 A 
ATOM      3  C   UNL     1      13.365  -4.334  13.085  1.00  0.00     0.120 A 
ATOM      4  C   UNL     1      11.893  -5.821  11.265  1.00  0.00     0.021 A 
ATOM      5  N   UNL     1      13.735  -4.397  11.778  1.00  0.00    -0.264 NA
ATOM      6  C   UNL     1      13.030  -5.119  10.869  1.00  0.00     0.111 A 
ENDROOT
BRANCH   1   7
ATOM      7  C   UNL     1      11.815  -4.960  14.952  1.00  0.00     0.073 C 
ATOM      8  O   UNL     1      12.633  -4.600  15.840  1.00  0.00    -0.545 OA
ATOM      9  O   UNL     1      10.518  -5.294  15.326  1.00  0.00    -0.545 OA
ENDBRANCH   1   7
TORSDOF 1
ENDMDL
