MODEL 1
REMARK VINA RESULT:    -5.063      0.000      0.000
REMARK INTER + INTRA:          -5.770
REMARK INTER:                  -5.655
REMARK INTRA:                  -0.115
REMARK UNBOUND:                -0.115
REMARK SMILES COc1cc2ccc(=O)oc2cc1OC
REMARK SMILES IDX 3 1 13 2 12 3 11 4 5 5 4 6 6 7 7 8 8 9 9 10 10 11 2 12 1 13
REMARK SMILES IDX 14 14 15 15
REMARK H PARENT
REMARK Flexibility Score: inf
ROOT
ATOM      1  C   UNL     1       2.867  26.244  27.195  1.00  0.00     0.161 A 
ATOM      2  C   UNL     1       2.166  26.698  26.065  1.00  0.00     0.164 A 
ATOM      3  C   UNL     1       0.938  26.101  25.718  1.00  0.00     0.098 A 
ATOM      4  C   UNL     1       0.413  25.062  26.490  1.00  0.00     0.142 A 
ATOM      5  C   UNL     1       1.116  24.606  27.624  1.00  0.00     0.022 A 
ATOM      6  C   UNL     1       2.337  25.195  27.974  1.00  0.00     0.062 A 
ATOM      7  C   UNL     1       0.563  23.565  28.376  1.00  0.00     0.019 A 
ATOM      8  C   UNL     1      -0.655  23.010  27.988  1.00  0.00     0.094 A 
ATOM      9  C   UNL     1      -1.296  23.513  26.851  1.00  0.00     0.336 A 
ATOM     10  O   UNL     1      -2.397  23.027  26.483  1.00  0.00    -0.246 OA
ATOM     11  O   UNL     1      -0.748  24.505  26.154  1.00  0.00    -0.423 OA
ENDROOT
BRANCH   1  12
ATOM     12  O   UNL     1       4.088  26.862  27.512  1.00  0.00    -0.493 OA
ATOM     13  C   UNL     1       4.362  27.527  28.740  1.00  0.00     0.278 C 
ENDBRANCH   1  12
BRANCH   2  14
ATOM     14  O   UNL     1       2.723  27.744  25.313  1.00  0.00    -0.493 OA
ATOM     15  C   UNL     1       2.183  28.235  24.090  1.00  0.00     0.278 C 
ENDBRANCH   2  14
TORSDOF 2
ENDMDL
MODEL 2
REMARK VINA RESULT:    -4.956      2.080      3.397
REMARK INTER + INTRA:          -5.650
REMARK INTER:                  -5.524
REMARK INTRA:                  -0.126
REMARK UNBOUND:                -0.115
REMARK SMILES COc1cc2ccc(=O)oc2cc1OC
REMARK SMILES IDX 3 1 13 2 12 3 11 4 5 5 4 6 6 7 7 8 8 9 9 10 10 11 2 12 1 13
REMARK SMILES IDX 14 14 15 15
REMARK H PARENT
REMARK Flexibility Score: inf
ROOT
ATOM      1  C   UNL     1       1.000  25.534  26.151  1.00  0.00     0.161 A 
ATOM      2  C   UNL     1       1.649  24.739  27.111  1.00  0.00     0.164 A 
ATOM      3  C   UNL     1       0.903  24.146  28.148  1.00  0.00     0.098 A 
ATOM      4  C   UNL     1      -0.477  24.343  28.229  1.00  0.00     0.142 A 
ATOM      5  C   UNL     1      -1.129  25.141  27.266  1.00  0.00     0.022 A 
ATOM      6  C   UNL     1      -0.393  25.733  26.232  1.00  0.00     0.062 A 
ATOM      7  C   UNL     1      -2.512  25.319  27.374  1.00  0.00     0.019 A 
ATOM      8  C   UNL     1      -3.202  24.709  28.421  1.00  0.00     0.094 A 
ATOM      9  C   UNL     1      -2.489  23.932  29.339  1.00  0.00     0.336 A 
ATOM     10  O   UNL     1      -3.092  23.373  30.292  1.00  0.00    -0.246 OA
ATOM     11  O   UNL     1      -1.173  23.779  29.213  1.00  0.00    -0.423 OA
ENDROOT
BRANCH   1  12
ATOM     12  O   UNL     1       1.775  26.109  25.130  1.00  0.00    -0.493 OA
ATOM     13  C   UNL     1       1.887  27.508  24.891  1.00  0.00     0.278 C 
ENDBRANCH   1  12
BRANCH   2  14
ATOM     14  O   UNL     1       3.038  24.562  26.998  1.00  0.00    -0.493 OA
ATOM     15  C   UNL     1       3.967  24.779  28.056  1.00  0.00     0.278 C 
ENDBRANCH   2  14
TORSDOF 2
ENDMDL
MODEL 3
REMARK VINA RESULT:    -4.902      2.015      2.317
REMARK INTER + INTRA:          -5.590
REMARK INTER:                  -5.462
REMARK INTRA:                  -0.127
REMARK UNBOUND:                -0.115
REMARK SMILES COc1cc2ccc(=O)oc2cc1OC
REMARK SMILES IDX 3 1 13 2 12 3 11 4 5 5 4 6 6 7 7 8 8 9 9 10 10 11 2 12 1 13
REMARK SMILES IDX 14 14 15 15
REMARK H PARENT
REMARK Flexibility Score: inf
ROOT
ATOM      1  C   UNL     1       1.477  24.750  27.063  1.00  0.00     0.161 A 
ATOM      2  C   UNL     1       0.984  25.616  26.072  1.00  0.00     0.164 A 
ATOM      3  C   UNL     1      -0.386  25.947  26.051  1.00  0.00     0.098 A 
ATOM      4  C   UNL     1      -1.256  25.420  27.008  1.00  0.00     0.142 A 
ATOM      5  C   UNL     1      -0.762  24.551  28.003  1.00  0.00     0.022 A 
ATOM      6  C   UNL     1       0.598  24.218  28.029  1.00  0.00     0.062 A 
ATOM      7  C   UNL     1      -1.659  24.040  28.946  1.00  0.00     0.019 A 
ATOM      8  C   UNL     1      -3.004  24.401  28.879  1.00  0.00     0.094 A 
ATOM      9  C   UNL     1      -3.422  25.268  27.864  1.00  0.00     0.336 A 
ATOM     10  O   UNL     1      -4.632  25.605  27.784  1.00  0.00    -0.246 OA
ATOM     11  O   UNL     1      -2.548  25.739  26.979  1.00  0.00    -0.423 OA
ENDROOT
BRANCH   1  12
ATOM     12  O   UNL     1       2.846  24.442  27.055  1.00  0.00    -0.493 OA
ATOM     13  C   UNL     1       3.774  24.855  28.053  1.00  0.00     0.278 C 
ENDBRANCH   1  12
BRANCH   2  14
ATOM     14  O   UNL     1       1.888  26.127  25.127  1.00  0.00    -0.493 OA
ATOM     15  C   UNL     1       1.950  27.493  24.727  1.00  0.00     0.278 C 
ENDBRANCH   2  14
TORSDOF 2
ENDMDL
MODEL 4
REMARK VINA RESULT:    -4.894      2.361      3.637
REMARK INTER + INTRA:          -5.580
REMARK INTER:                  -5.455
REMARK INTRA:                  -0.126
REMARK UNBOUND:                -0.115
REMARK SMILES COc1cc2ccc(=O)oc2cc1OC
REMARK SMILES IDX 3 1 13 2 12 3 11 4 5 5 4 6 6 7 7 8 8 9 9 10 10 11 2 12 1 13
REMARK SMILES IDX 14 14 15 15
REMARK H PARENT
REMARK Flexibility Score: inf
ROOT
ATOM      1  C   UNL     1      -1.014  27.843  25.667  1.00  0.00     0.161 A 
ATOM      2  C   UNL     1       0.372  27.724  25.470  1.00  0.00     0.164 A 
ATOM      3  C   UNL     1       1.034  26.538  25.847  1.00  0.00     0.098 A 
ATOM      4  C   UNL     1       0.320  25.481  26.416  1.00  0.00     0.142 A 
ATOM      5  C   UNL     1      -1.071  25.599  26.615  1.00  0.00     0.022 A 
ATOM      6  C   UNL     1      -1.734  26.776  26.242  1.00  0.00     0.062 A 
ATOM      7  C   UNL     1      -1.757  24.523  27.187  1.00  0.00     0.019 A 
ATOM      8  C   UNL     1      -1.053  23.373  27.541  1.00  0.00     0.094 A 
ATOM      9  C   UNL     1       0.326  23.326  27.315  1.00  0.00     0.336 A 
ATOM     10  O   UNL     1       0.981  22.298  27.629  1.00  0.00    -0.246 OA
ATOM     11  O   UNL     1       0.954  24.365  26.769  1.00  0.00    -0.423 OA
ENDROOT
BRANCH   1  12
ATOM     12  O   UNL     1      -1.640  29.038  25.279  1.00  0.00    -0.493 OA
ATOM     13  C   UNL     1      -2.385  29.207  24.078  1.00  0.00     0.278 C 
ENDBRANCH   1  12
BRANCH   2  14
ATOM     14  O   UNL     1       1.057  28.806  24.895  1.00  0.00    -0.493 OA
ATOM     15  C   UNL     1       2.109  28.681  23.943  1.00  0.00     0.278 C 
ENDBRANCH   2  14
TORSDOF 2
ENDMDL
MODEL 5
REMARK VINA RESULT:    -4.892      1.613      4.898
REMARK INTER + INTRA:          -5.578
REMARK INTER:                  -5.467
REMARK INTRA:                  -0.111
REMARK UNBOUND:                -0.115
REMARK SMILES COc1cc2ccc(=O)oc2cc1OC
REMARK SMILES IDX 3 1 13 2 12 3 11 4 5 5 4 6 6 7 7 8 8 9 9 10 10 11 2 12 1 13
REMARK SMILES IDX 14 14 15 15
REMARK H PARENT
REMARK Flexibility Score: inf
ROOT
ATOM      1  C   UNL     1       0.209  25.003  26.428  1.00  0.00     0.161 A 
ATOM      2  C   UNL     1      -0.110  26.372  26.403  1.00  0.00     0.164 A 
ATOM      3  C   UNL     1       0.779  27.308  26.966  1.00  0.00     0.098 A 
ATOM      4  C   UNL     1       1.976  26.885  27.548  1.00  0.00     0.142 A 
ATOM      5  C   UNL     1       2.298  25.513  27.573  1.00  0.00     0.022 A 
ATOM      6  C   UNL     1       1.417  24.577  27.015  1.00  0.00     0.062 A 
ATOM      7  C   UNL     1       3.504  25.122  28.163  1.00  0.00     0.019 A 
ATOM      8  C   UNL     1       4.348  26.090  28.705  1.00  0.00     0.094 A 
ATOM      9  C   UNL     1       3.963  27.434  28.644  1.00  0.00     0.336 A 
ATOM     10  O   UNL     1       4.709  28.324  29.128  1.00  0.00    -0.246 OA
ATOM     11  O   UNL     1       2.810  27.778  28.077  1.00  0.00    -0.423 OA
ENDROOT
BRANCH   1  12
ATOM     12  O   UNL     1      -0.700  24.098  25.857  1.00  0.00    -0.493 OA
ATOM     13  C   UNL     1      -1.669  23.356  26.590  1.00  0.00     0.278 C 
ENDBRANCH   1  12
BRANCH   2  14
ATOM     14  O   UNL     1      -1.322  26.760  25.809  1.00  0.00    -0.493 OA
ATOM     15  C   UNL     1      -1.658  28.101  25.465  1.00  0.00     0.278 C 
ENDBRANCH   2  14
TORSDOF 2
ENDMDL
MODEL 6
REMARK VINA RESULT:    -4.891      2.199      5.501
REMARK INTER + INTRA:          -5.578
REMARK INTER:                  -5.457
REMARK INTRA:                  -0.120
REMARK UNBOUND:                -0.115
REMARK SMILES COc1cc2ccc(=O)oc2cc1OC
REMARK SMILES IDX 3 1 13 2 12 3 11 4 5 5 4 6 6 7 7 8 8 9 9 10 10 11 2 12 1 13
REMARK SMILES IDX 14 14 15 15
REMARK H PARENT
REMARK Flexibility Score: inf
ROOT
ATOM      1  C   UNL     1      -1.457  25.282  26.989  1.00  0.00     0.161 A 
ATOM      2  C   UNL     1      -0.288  24.556  26.704  1.00  0.00     0.164 A 
ATOM      3  C   UNL     1       0.764  25.173  25.999  1.00  0.00     0.098 A 
ATOM      4  C   UNL     1       0.653  26.501  25.582  1.00  0.00     0.142 A 
ATOM      5  C   UNL     1      -0.520  27.231  25.868  1.00  0.00     0.022 A 
ATOM      6  C   UNL     1      -1.569  26.623  26.568  1.00  0.00     0.062 A 
ATOM      7  C   UNL     1      -0.600  28.559  25.436  1.00  0.00     0.019 A 
ATOM      8  C   UNL     1       0.471  29.120  24.742  1.00  0.00     0.094 A 
ATOM      9  C   UNL     1       1.603  28.336  24.495  1.00  0.00     0.336 A 
ATOM     10  O   UNL     1       2.581  28.822  23.870  1.00  0.00    -0.246 OA
ATOM     11  O   UNL     1       1.653  27.075  24.917  1.00  0.00    -0.423 OA
ENDROOT
BRANCH   1  12
ATOM     12  O   UNL     1      -2.486  24.636  27.694  1.00  0.00    -0.493 OA
ATOM     13  C   UNL     1      -3.010  25.076  28.943  1.00  0.00     0.278 C 
ENDBRANCH   1  12
BRANCH   2  14
ATOM     14  O   UNL     1      -0.212  23.223  27.140  1.00  0.00    -0.493 OA
ATOM     15  C   UNL     1       0.950  22.626  27.707  1.00  0.00     0.278 C 
ENDBRANCH   2  14
TORSDOF 2
ENDMDL
MODEL 7
REMARK VINA RESULT:    -4.886      2.118      3.341
REMARK INTER + INTRA:          -5.572
REMARK INTER:                  -5.442
REMARK INTRA:                  -0.130
REMARK UNBOUND:                -0.115
REMARK SMILES COc1cc2ccc(=O)oc2cc1OC
REMARK SMILES IDX 3 1 13 2 12 3 11 4 5 5 4 6 6 7 7 8 8 9 9 10 10 11 2 12 1 13
REMARK SMILES IDX 14 14 15 15
REMARK H PARENT
REMARK Flexibility Score: inf
ROOT
ATOM      1  C   UNL     1       1.253  28.019  25.342  1.00  0.00     0.161 A 
ATOM      2  C   UNL     1      -0.097  27.713  25.587  1.00  0.00     0.164 A 
ATOM      3  C   UNL     1      -0.433  26.520  26.256  1.00  0.00     0.098 A 
ATOM      4  C   UNL     1       0.566  25.639  26.678  1.00  0.00     0.142 A 
ATOM      5  C   UNL     1       1.920  25.945  26.432  1.00  0.00     0.022 A 
ATOM      6  C   UNL     1       2.261  27.129  25.767  1.00  0.00     0.062 A 
ATOM      7  C   UNL     1       2.897  25.042  26.866  1.00  0.00     0.019 A 
ATOM      8  C   UNL     1       2.508  23.876  27.524  1.00  0.00     0.094 A 
ATOM      9  C   UNL     1       1.145  23.639  27.733  1.00  0.00     0.336 A 
ATOM     10  O   UNL     1       0.773  22.592  28.324  1.00  0.00    -0.246 OA
ATOM     11  O   UNL     1       0.237  24.514  27.309  1.00  0.00    -0.423 OA
ENDROOT
BRANCH   1  12
ATOM     12  O   UNL     1       1.552  29.216  24.673  1.00  0.00    -0.493 OA
ATOM     13  C   UNL     1       2.074  29.295  23.351  1.00  0.00     0.278 C 
ENDBRANCH   1  12
BRANCH   2  14
ATOM     14  O   UNL     1      -1.074  28.622  25.150  1.00  0.00    -0.493 OA
ATOM     15  C   UNL     1      -1.682  29.611  25.976  1.00  0.00     0.278 C 
ENDBRANCH   2  14
TORSDOF 2
ENDMDL
MODEL 8
REMARK VINA RESULT:    -4.868      2.323      5.564
REMARK INTER + INTRA:          -5.552
REMARK INTER:                  -5.389
REMARK INTRA:                  -0.163
REMARK UNBOUND:                -0.115
REMARK SMILES COc1cc2ccc(=O)oc2cc1OC
REMARK SMILES IDX 3 1 13 2 12 3 11 4 5 5 4 6 6 7 7 8 8 9 9 10 10 11 2 12 1 13
REMARK SMILES IDX 14 14 15 15
REMARK H PARENT
REMARK Flexibility Score: inf
ROOT
ATOM      1  C   UNL     1      -1.491  24.693  26.693  1.00  0.00     0.161 A 
ATOM      2  C   UNL     1      -2.332  25.817  26.755  1.00  0.00     0.164 A 
ATOM      3  C   UNL     1      -1.845  27.078  26.361  1.00  0.00     0.098 A 
ATOM      4  C   UNL     1      -0.531  27.219  25.907  1.00  0.00     0.142 A 
ATOM      5  C   UNL     1       0.314  26.091  25.844  1.00  0.00     0.022 A 
ATOM      6  C   UNL     1      -0.165  24.835  26.236  1.00  0.00     0.062 A 
ATOM      7  C   UNL     1       1.624  26.265  25.386  1.00  0.00     0.019 A 
ATOM      8  C   UNL     1       2.054  27.536  25.007  1.00  0.00     0.094 A 
ATOM      9  C   UNL     1       1.161  28.608  25.097  1.00  0.00     0.336 A 
ATOM     10  O   UNL     1       1.529  29.764  24.761  1.00  0.00    -0.246 OA
ATOM     11  O   UNL     1      -0.080  28.415  25.537  1.00  0.00    -0.423 OA
ENDROOT
BRANCH   1  12
ATOM     12  O   UNL     1      -2.010  23.451  27.094  1.00  0.00    -0.493 OA
ATOM     13  C   UNL     1      -1.818  22.872  28.380  1.00  0.00     0.278 C 
ENDBRANCH   1  12
BRANCH   2  14
ATOM     14  O   UNL     1      -3.647  25.638  27.215  1.00  0.00    -0.493 OA
ATOM     15  C   UNL     1      -4.102  25.996  28.517  1.00  0.00     0.278 C 
ENDBRANCH   2  14
TORSDOF 2
ENDMDL
MODEL 9
REMARK VINA RESULT:    -4.776      2.438      4.659
REMARK INTER + INTRA:          -5.449
REMARK INTER:                  -5.332
REMARK INTRA:                  -0.118
REMARK UNBOUND:                -0.115
REMARK SMILES COc1cc2ccc(=O)oc2cc1OC
REMARK SMILES IDX 3 1 13 2 12 3 11 4 5 5 4 6 6 7 7 8 8 9 9 10 10 11 2 12 1 13
REMARK SMILES IDX 14 14 15 15
REMARK H PARENT
REMARK Flexibility Score: inf
ROOT
ATOM      1  C   UNL     1      -2.460  25.418  27.017  1.00  0.00     0.161 A 
ATOM      2  C   UNL     1      -1.675  26.482  26.542  1.00  0.00     0.164 A 
ATOM      3  C   UNL     1      -0.271  26.367  26.538  1.00  0.00     0.098 A 
ATOM      4  C   UNL     1       0.345  25.203  27.003  1.00  0.00     0.142 A 
ATOM      5  C   UNL     1      -0.442  24.135  27.479  1.00  0.00     0.022 A 
ATOM      6  C   UNL     1      -1.838  24.243  27.486  1.00  0.00     0.062 A 
ATOM      7  C   UNL     1       0.205  22.983  27.938  1.00  0.00     0.019 A 
ATOM      8  C   UNL     1       1.598  22.923  27.911  1.00  0.00     0.094 A 
ATOM      9  C   UNL     1       2.314  24.021  27.424  1.00  0.00     0.336 A 
ATOM     10  O   UNL     1       3.572  23.988  27.392  1.00  0.00    -0.246 OA
ATOM     11  O   UNL     1       1.673  25.105  26.994  1.00  0.00    -0.423 OA
ENDROOT
BRANCH   1  12
ATOM     12  O   UNL     1      -3.857  25.566  27.006  1.00  0.00    -0.493 OA
ATOM     13  C   UNL     1      -4.668  25.662  28.172  1.00  0.00     0.278 C 
ENDBRANCH   1  12
BRANCH   2  14
ATOM     14  O   UNL     1      -2.329  27.636  26.082  1.00  0.00    -0.493 OA
ATOM     15  C   UNL     1      -1.665  28.821  25.649  1.00  0.00     0.278 C 
ENDBRANCH   2  14
TORSDOF 2
ENDMDL
