MODEL 1
REMARK VINA RESULT:    -3.966      0.000      0.000
REMARK INTER + INTRA:          -3.966
REMARK INTER:                  -3.966
REMARK INTRA:                   0.000
REMARK UNBOUND:                 0.000
REMARK SMILES C=C1CC[C@@H]2C[C@H]1C2(C)C
REMARK SMILES IDX 9 1 8 2 5 3 4 4 3 5 2 6 1 7 7 8 6 9 10 10
REMARK H PARENT
REMARK Flexibility Score: inf
ROOT
ATOM      1  C   UNL     1      29.576   9.838  34.172  1.00  0.00     0.012 C 
ATOM      2  C   UNL     1      31.126   9.949  34.181  1.00  0.00    -0.026 C 
ATOM      3  C   UNL     1      31.794  11.092  33.376  1.00  0.00    -0.004 C 
ATOM      4  C   UNL     1      31.022  11.368  32.046  1.00  0.00     0.008 C 
ATOM      5  C   UNL     1      30.780  10.058  31.203  1.00  0.00     0.031 C 
ATOM      6  C   UNL     1      31.207   8.791  31.960  1.00  0.00    -0.074 C 
ATOM      7  C   UNL     1      30.954   7.571  31.473  1.00  0.00     0.008 C 
ATOM      8  C   UNL     1      31.937   8.985  33.285  1.00  0.00     0.021 C 
ATOM      9  C   UNL     1      32.937  10.123  33.024  1.00  0.00     0.012 C 
ATOM     10  C   UNL     1      31.609   9.920  35.653  1.00  0.00     0.012 C 
ENDROOT
TORSDOF 0
ENDMDL
MODEL 2
REMARK VINA RESULT:    -3.956      1.110      3.394
REMARK INTER + INTRA:          -3.956
REMARK INTER:                  -3.956
REMARK INTRA:                   0.000
REMARK UNBOUND:                 0.000
REMARK SMILES C=C1CC[C@@H]2C[C@H]1C2(C)C
REMARK SMILES IDX 9 1 8 2 5 3 4 4 3 5 2 6 1 7 7 8 6 9 10 10
REMARK H PARENT
REMARK Flexibility Score: inf
ROOT
ATOM      1  C   UNL     1      30.343   9.692  31.013  1.00  0.00     0.012 C 
ATOM      2  C   UNL     1      30.884   8.414  31.713  1.00  0.00    -0.026 C 
ATOM      3  C   UNL     1      30.168   7.907  32.990  1.00  0.00    -0.004 C 
ATOM      4  C   UNL     1      29.672   9.100  33.867  1.00  0.00     0.008 C 
ATOM      5  C   UNL     1      30.809  10.154  34.156  1.00  0.00     0.031 C 
ATOM      6  C   UNL     1      32.094   9.854  33.369  1.00  0.00    -0.074 C 
ATOM      7  C   UNL     1      33.125  10.707  33.370  1.00  0.00     0.008 C 
ATOM      8  C   UNL     1      32.147   8.540  32.597  1.00  0.00     0.021 C 
ATOM      9  C   UNL     1      31.542   7.495  33.548  1.00  0.00     0.012 C 
ATOM     10  C   UNL     1      31.029   7.298  30.647  1.00  0.00     0.012 C 
ENDROOT
TORSDOF 0
ENDMDL
MODEL 3
REMARK VINA RESULT:    -3.818      1.073      2.876
REMARK INTER + INTRA:          -3.818
REMARK INTER:                  -3.818
REMARK INTRA:                   0.000
REMARK UNBOUND:                 0.000
REMARK SMILES C=C1CC[C@@H]2C[C@H]1C2(C)C
REMARK SMILES IDX 9 1 8 2 5 3 4 4 3 5 2 6 1 7 7 8 6 9 10 10
REMARK H PARENT
REMARK Flexibility Score: inf
ROOT
ATOM      1  C   UNL     1      33.125  10.461  33.381  1.00  0.00     0.012 C 
ATOM      2  C   UNL     1      31.647  10.608  32.925  1.00  0.00    -0.026 C 
ATOM      3  C   UNL     1      30.546  10.749  34.006  1.00  0.00    -0.004 C 
ATOM      4  C   UNL     1      30.870   9.869  35.256  1.00  0.00     0.008 C 
ATOM      5  C   UNL     1      31.196   8.374  34.875  1.00  0.00     0.031 C 
ATOM      6  C   UNL     1      31.287   8.165  33.356  1.00  0.00    -0.074 C 
ATOM      7  C   UNL     1      31.691   7.001  32.837  1.00  0.00     0.008 C 
ATOM      8  C   UNL     1      30.889   9.339  32.468  1.00  0.00     0.021 C 
ATOM      9  C   UNL     1      29.616   9.911  33.111  1.00  0.00     0.012 C 
ATOM     10  C   UNL     1      31.572  11.741  31.870  1.00  0.00     0.012 C 
ENDROOT
TORSDOF 0
ENDMDL
MODEL 4
REMARK VINA RESULT:    -3.713      1.040      2.654
REMARK INTER + INTRA:          -3.713
REMARK INTER:                  -3.713
REMARK INTRA:                   0.000
REMARK UNBOUND:                 0.000
REMARK SMILES C=C1CC[C@@H]2C[C@H]1C2(C)C
REMARK SMILES IDX 9 1 8 2 5 3 4 4 3 5 2 6 1 7 7 8 6 9 10 10
REMARK H PARENT
REMARK Flexibility Score: inf
ROOT
ATOM      1  C   UNL     1      32.932   9.965  33.264  1.00  0.00     0.012 C 
ATOM      2  C   UNL     1      31.617   9.510  33.955  1.00  0.00    -0.026 C 
ATOM      3  C   UNL     1      31.248   8.006  33.932  1.00  0.00    -0.004 C 
ATOM      4  C   UNL     1      31.660   7.346  32.577  1.00  0.00     0.008 C 
ATOM      5  C   UNL     1      31.128   8.147  31.328  1.00  0.00     0.031 C 
ATOM      6  C   UNL     1      30.474   9.479  31.724  1.00  0.00    -0.074 C 
ATOM      7  C   UNL     1      30.086  10.366  30.801  1.00  0.00     0.008 C 
ATOM      8  C   UNL     1      30.279   9.742  33.214  1.00  0.00     0.021 C 
ATOM      9  C   UNL     1      29.770   8.410  33.789  1.00  0.00     0.012 C 
ATOM     10  C   UNL     1      31.594  10.091  35.391  1.00  0.00     0.012 C 
ENDROOT
TORSDOF 0
ENDMDL
MODEL 5
REMARK VINA RESULT:    -3.701      1.118      2.987
REMARK INTER + INTRA:          -3.701
REMARK INTER:                  -3.701
REMARK INTRA:                   0.000
REMARK UNBOUND:                 0.000
REMARK SMILES C=C1CC[C@@H]2C[C@H]1C2(C)C
REMARK SMILES IDX 9 1 8 2 5 3 4 4 3 5 2 6 1 7 7 8 6 9 10 10
REMARK H PARENT
REMARK Flexibility Score: inf
ROOT
ATOM      1  C   UNL     1      30.507  10.011  31.144  1.00  0.00     0.012 C 
ATOM      2  C   UNL     1      31.358  10.551  32.327  1.00  0.00    -0.026 C 
ATOM      3  C   UNL     1      32.374   9.600  33.007  1.00  0.00    -0.004 C 
ATOM      4  C   UNL     1      31.820   8.141  33.076  1.00  0.00     0.008 C 
ATOM      5  C   UNL     1      30.374   8.073  33.700  1.00  0.00     0.031 C 
ATOM      6  C   UNL     1      29.775   9.468  33.940  1.00  0.00    -0.074 C 
ATOM      7  C   UNL     1      28.506   9.622  34.333  1.00  0.00     0.008 C 
ATOM      8  C   UNL     1      30.693  10.665  33.718  1.00  0.00     0.021 C 
ATOM      9  C   UNL     1      32.033  10.262  34.354  1.00  0.00     0.012 C 
ATOM     10  C   UNL     1      32.016  11.883  31.886  1.00  0.00     0.012 C 
ENDROOT
TORSDOF 0
ENDMDL
MODEL 6
REMARK VINA RESULT:    -3.612      1.044      2.477
REMARK INTER + INTRA:          -3.612
REMARK INTER:                  -3.612
REMARK INTRA:                   0.000
REMARK UNBOUND:                 0.000
REMARK SMILES C=C1CC[C@@H]2C[C@H]1C2(C)C
REMARK SMILES IDX 9 1 8 2 5 3 4 4 3 5 2 6 1 7 7 8 6 9 10 10
REMARK H PARENT
REMARK Flexibility Score: inf
ROOT
ATOM      1  C   UNL     1      30.220  10.746  34.645  1.00  0.00     0.012 C 
ATOM      2  C   UNL     1      30.505   9.541  33.707  1.00  0.00    -0.026 C 
ATOM      3  C   UNL     1      31.977   9.133  33.446  1.00  0.00    -0.004 C 
ATOM      4  C   UNL     1      32.903  10.389  33.370  1.00  0.00     0.008 C 
ATOM      5  C   UNL     1      32.362  11.480  32.368  1.00  0.00     0.031 C 
ATOM      6  C   UNL     1      30.967  11.133  31.827  1.00  0.00    -0.074 C 
ATOM      7  C   UNL     1      30.279  11.998  31.073  1.00  0.00     0.008 C 
ATOM      8  C   UNL     1      30.406   9.760  32.179  1.00  0.00     0.021 C 
ATOM      9  C   UNL     1      31.585   8.790  31.998  1.00  0.00     0.012 C 
ATOM     10  C   UNL     1      29.646   8.341  34.179  1.00  0.00     0.012 C 
ENDROOT
TORSDOF 0
ENDMDL
MODEL 7
REMARK VINA RESULT:    -3.603      4.809      6.883
REMARK INTER + INTRA:          -3.603
REMARK INTER:                  -3.603
REMARK INTRA:                   0.000
REMARK UNBOUND:                 0.000
REMARK SMILES C=C1CC[C@@H]2C[C@H]1C2(C)C
REMARK SMILES IDX 9 1 8 2 5 3 4 4 3 5 2 6 1 7 7 8 6 9 10 10
REMARK H PARENT
REMARK Flexibility Score: inf
ROOT
ATOM      1  C   UNL     1      29.509   8.908  27.800  1.00  0.00     0.012 C 
ATOM      2  C   UNL     1      30.286   7.917  26.890  1.00  0.00    -0.026 C 
ATOM      3  C   UNL     1      29.559   6.645  26.384  1.00  0.00    -0.004 C 
ATOM      4  C   UNL     1      28.596   6.077  27.476  1.00  0.00     0.008 C 
ATOM      5  C   UNL     1      29.307   5.887  28.870  1.00  0.00     0.031 C 
ATOM      6  C   UNL     1      30.732   6.462  28.881  1.00  0.00    -0.074 C 
ATOM      7  C   UNL     1      31.448   6.524  30.010  1.00  0.00     0.008 C 
ATOM      8  C   UNL     1      31.296   6.950  27.551  1.00  0.00     0.021 C 
ATOM      9  C   UNL     1      30.885   5.878  26.529  1.00  0.00     0.012 C 
ATOM     10  C   UNL     1      30.925   8.719  25.729  1.00  0.00     0.012 C 
ENDROOT
TORSDOF 0
ENDMDL
MODEL 8
REMARK VINA RESULT:    -3.570      3.647      5.412
REMARK INTER + INTRA:          -3.570
REMARK INTER:                  -3.570
REMARK INTRA:                   0.000
REMARK UNBOUND:                 0.000
REMARK SMILES C=C1CC[C@@H]2C[C@H]1C2(C)C
REMARK SMILES IDX 9 1 8 2 5 3 4 4 3 5 2 6 1 7 7 8 6 9 10 10
REMARK H PARENT
REMARK Flexibility Score: inf
ROOT
ATOM      1  C   UNL     1      28.832   7.728  35.716  1.00  0.00     0.012 C 
ATOM      2  C   UNL     1      30.075   6.796  35.685  1.00  0.00    -0.026 C 
ATOM      3  C   UNL     1      30.401   5.950  36.941  1.00  0.00    -0.004 C 
ATOM      4  C   UNL     1      30.078   6.740  38.250  1.00  0.00     0.008 C 
ATOM      5  C   UNL     1      30.730   8.175  38.266  1.00  0.00     0.031 C 
ATOM      6  C   UNL     1      31.389   8.532  36.925  1.00  0.00    -0.074 C 
ATOM      7  C   UNL     1      31.874   9.757  36.693  1.00  0.00     0.008 C 
ATOM      8  C   UNL     1      31.473   7.429  35.876  1.00  0.00     0.021 C 
ATOM      9  C   UNL     1      31.896   6.172  36.654  1.00  0.00     0.012 C 
ATOM     10  C   UNL     1      30.000   5.927  34.404  1.00  0.00     0.012 C 
ENDROOT
TORSDOF 0
ENDMDL
MODEL 9
REMARK VINA RESULT:    -3.530      5.252      7.349
REMARK INTER + INTRA:          -3.530
REMARK INTER:                  -3.530
REMARK INTRA:                   0.000
REMARK UNBOUND:                 0.000
REMARK SMILES C=C1CC[C@@H]2C[C@H]1C2(C)C
REMARK SMILES IDX 9 1 8 2 5 3 4 4 3 5 2 6 1 7 7 8 6 9 10 10
REMARK H PARENT
REMARK Flexibility Score: inf
ROOT
ATOM      1  C   UNL     1      31.619   6.984  27.590  1.00  0.00     0.012 C 
ATOM      2  C   UNL     1      30.248   7.706  27.699  1.00  0.00    -0.026 C 
ATOM      3  C   UNL     1      28.983   6.984  27.171  1.00  0.00    -0.004 C 
ATOM      4  C   UNL     1      29.304   6.156  25.885  1.00  0.00     0.008 C 
ATOM      5  C   UNL     1      30.051   7.008  24.788  1.00  0.00     0.031 C 
ATOM      6  C   UNL     1      30.442   8.403  25.300  1.00  0.00    -0.074 C 
ATOM      7  C   UNL     1      31.204   9.224  24.568  1.00  0.00     0.008 C 
ATOM      8  C   UNL     1      29.917   8.813  26.671  1.00  0.00     0.021 C 
ATOM      9  C   UNL     1      28.452   8.347  26.692  1.00  0.00     0.012 C 
ATOM     10  C   UNL     1      30.069   8.195  29.159  1.00  0.00     0.012 C 
ENDROOT
TORSDOF 0
ENDMDL
