MODEL 1
REMARK VINA RESULT:    -4.349      0.000      0.000
REMARK INTER + INTRA:          -4.621
REMARK INTER:                  -4.603
REMARK INTRA:                  -0.019
REMARK UNBOUND:                -0.019
REMARK SMILES O=C([O-])c1cccnc1
REMARK SMILES IDX 4 1 5 2 9 3 6 4 8 5 7 6 2 7 1 8 3 9
REMARK H PARENT
REMARK Flexibility Score: inf
ROOT
ATOM      1  C   UNL     1      -4.489  10.290  46.987  1.00  0.00     0.016 A 
ATOM      2  C   UNL     1      -3.468   9.862  47.853  1.00  0.00     0.013 A 
ATOM      3  C   UNL     1      -5.129  11.511  47.261  1.00  0.00     0.120 A 
ATOM      4  C   UNL     1      -3.109  10.642  48.954  1.00  0.00     0.021 A 
ATOM      5  N   UNL     1      -4.761  12.251  48.341  1.00  0.00    -0.264 NA
ATOM      6  C   UNL     1      -3.775  11.847  49.184  1.00  0.00     0.111 A 
ENDROOT
BRANCH   1   7
ATOM      7  C   UNL     1      -4.884   9.478  45.816  1.00  0.00     0.073 C 
ATOM      8  O   UNL     1      -5.214   8.271  45.955  1.00  0.00    -0.545 OA
ATOM      9  O   UNL     1      -4.894  10.039  44.543  1.00  0.00    -0.545 OA
ENDBRANCH   1   7
TORSDOF 1
ENDMDL
MODEL 2
REMARK VINA RESULT:    -4.203      1.089      1.510
REMARK INTER + INTRA:          -4.467
REMARK INTER:                  -4.444
REMARK INTRA:                  -0.024
REMARK UNBOUND:                -0.019
REMARK SMILES O=C([O-])c1cccnc1
REMARK SMILES IDX 4 1 5 2 9 3 6 4 8 5 7 6 2 7 1 8 3 9
REMARK H PARENT
REMARK Flexibility Score: inf
ROOT
ATOM      1  C   UNL     1      -4.219   9.704  47.262  1.00  0.00     0.016 A 
ATOM      2  C   UNL     1      -3.329   9.943  48.323  1.00  0.00     0.013 A 
ATOM      3  C   UNL     1      -5.104  10.729  46.888  1.00  0.00     0.120 A 
ATOM      4  C   UNL     1      -3.336  11.174  48.980  1.00  0.00     0.021 A 
ATOM      5  N   UNL     1      -5.091  11.920  47.545  1.00  0.00    -0.264 NA
ATOM      6  C   UNL     1      -4.235  12.161  48.572  1.00  0.00     0.111 A 
ENDROOT
BRANCH   1   7
ATOM      7  C   UNL     1      -4.226   8.405  46.553  1.00  0.00     0.073 C 
ATOM      8  O   UNL     1      -5.064   8.179  45.640  1.00  0.00    -0.545 OA
ATOM      9  O   UNL     1      -3.308   7.417  46.887  1.00  0.00    -0.545 OA
ENDBRANCH   1   7
TORSDOF 1
ENDMDL
MODEL 3
REMARK VINA RESULT:    -4.070      2.557      3.173
REMARK INTER + INTRA:          -4.326
REMARK INTER:                  -4.310
REMARK INTRA:                  -0.017
REMARK UNBOUND:                -0.019
REMARK SMILES O=C([O-])c1cccnc1
REMARK SMILES IDX 4 1 5 2 9 3 6 4 8 5 7 6 2 7 1 8 3 9
REMARK H PARENT
REMARK Flexibility Score: inf
ROOT
ATOM      1  C   UNL     1      -4.608  10.492  46.989  1.00  0.00     0.016 A 
ATOM      2  C   UNL     1      -3.636  10.020  47.888  1.00  0.00     0.013 A 
ATOM      3  C   UNL     1      -5.139   9.594  46.048  1.00  0.00     0.120 A 
ATOM      4  C   UNL     1      -3.219   8.689  47.835  1.00  0.00     0.021 A 
ATOM      5  N   UNL     1      -4.715   8.302  46.017  1.00  0.00    -0.264 NA
ATOM      6  C   UNL     1      -3.776   7.836  46.882  1.00  0.00     0.111 A 
ENDROOT
BRANCH   1   7
ATOM      7  C   UNL     1      -5.063  11.898  47.030  1.00  0.00     0.073 C 
ATOM      8  O   UNL     1      -5.843  12.293  47.937  1.00  0.00    -0.545 OA
ATOM      9  O   UNL     1      -4.636  12.804  46.065  1.00  0.00    -0.545 OA
ENDBRANCH   1   7
TORSDOF 1
ENDMDL
MODEL 4
REMARK VINA RESULT:    -4.013      2.420      3.344
REMARK INTER + INTRA:          -4.266
REMARK INTER:                  -4.250
REMARK INTRA:                  -0.016
REMARK UNBOUND:                -0.019
REMARK SMILES O=C([O-])c1cccnc1
REMARK SMILES IDX 4 1 5 2 9 3 6 4 8 5 7 6 2 7 1 8 3 9
REMARK H PARENT
REMARK Flexibility Score: inf
ROOT
ATOM      1  C   UNL     1      -4.600  10.516  47.051  1.00  0.00     0.016 A 
ATOM      2  C   UNL     1      -5.143   9.589  46.146  1.00  0.00     0.013 A 
ATOM      3  C   UNL     1      -3.587  10.083  47.923  1.00  0.00     0.120 A 
ATOM      4  C   UNL     1      -4.677   8.273  46.125  1.00  0.00     0.021 A 
ATOM      5  N   UNL     1      -3.151   8.795  47.884  1.00  0.00    -0.264 NA
ATOM      6  C   UNL     1      -3.669   7.891  47.012  1.00  0.00     0.111 A 
ENDROOT
BRANCH   1   7
ATOM      7  C   UNL     1      -5.080  11.914  47.087  1.00  0.00     0.073 C 
ATOM      8  O   UNL     1      -5.902  12.286  47.966  1.00  0.00    -0.545 OA
ATOM      9  O   UNL     1      -4.630  12.837  46.149  1.00  0.00    -0.545 OA
ENDBRANCH   1   7
TORSDOF 1
ENDMDL
MODEL 5
REMARK VINA RESULT:    -4.002     15.794     16.093
REMARK INTER + INTRA:          -4.254
REMARK INTER:                  -4.232
REMARK INTRA:                  -0.022
REMARK UNBOUND:                -0.019
REMARK SMILES O=C([O-])c1cccnc1
REMARK SMILES IDX 4 1 5 2 9 3 6 4 8 5 7 6 2 7 1 8 3 9
REMARK H PARENT
REMARK Flexibility Score: inf
ROOT
ATOM      1  C   UNL     1     -18.680   3.913  45.895  1.00  0.00     0.016 A 
ATOM      2  C   UNL     1     -19.065   5.242  45.649  1.00  0.00     0.013 A 
ATOM      3  C   UNL     1     -18.179   3.154  44.824  1.00  0.00     0.120 A 
ATOM      4  C   UNL     1     -18.946   5.781  44.367  1.00  0.00     0.021 A 
ATOM      5  N   UNL     1     -18.073   3.703  43.584  1.00  0.00    -0.264 NA
ATOM      6  C   UNL     1     -18.442   4.987  43.336  1.00  0.00     0.111 A 
ENDROOT
BRANCH   1   7
ATOM      7  C   UNL     1     -18.799   3.325  47.247  1.00  0.00     0.073 C 
ATOM      8  O   UNL     1     -19.670   3.745  48.054  1.00  0.00    -0.545 OA
ATOM      9  O   UNL     1     -17.949   2.299  47.644  1.00  0.00    -0.545 OA
ENDBRANCH   1   7
TORSDOF 1
ENDMDL
MODEL 6
REMARK VINA RESULT:    -3.996     15.603     15.705
REMARK INTER + INTRA:          -4.248
REMARK INTER:                  -4.225
REMARK INTRA:                  -0.023
REMARK UNBOUND:                -0.019
REMARK SMILES O=C([O-])c1cccnc1
REMARK SMILES IDX 4 1 5 2 9 3 6 4 8 5 7 6 2 7 1 8 3 9
REMARK H PARENT
REMARK Flexibility Score: inf
ROOT
ATOM      1  C   UNL     1     -18.231   4.316  43.492  1.00  0.00     0.016 A 
ATOM      2  C   UNL     1     -18.721   5.563  43.916  1.00  0.00     0.013 A 
ATOM      3  C   UNL     1     -18.170   3.269  44.428  1.00  0.00     0.120 A 
ATOM      4  C   UNL     1     -19.134   5.742  45.237  1.00  0.00     0.021 A 
ATOM      5  N   UNL     1     -18.579   3.470  45.709  1.00  0.00    -0.264 NA
ATOM      6  C   UNL     1     -19.054   4.672  46.129  1.00  0.00     0.111 A 
ENDROOT
BRANCH   1   7
ATOM      7  C   UNL     1     -17.788   4.107  42.097  1.00  0.00     0.073 C 
ATOM      8  O   UNL     1     -17.116   3.088  41.783  1.00  0.00    -0.545 OA
ATOM      9  O   UNL     1     -18.108   5.034  41.111  1.00  0.00    -0.545 OA
ENDBRANCH   1   7
TORSDOF 1
ENDMDL
MODEL 7
REMARK VINA RESULT:    -3.989      1.615      2.318
REMARK INTER + INTRA:          -4.241
REMARK INTER:                  -4.220
REMARK INTRA:                  -0.021
REMARK UNBOUND:                -0.019
REMARK SMILES O=C([O-])c1cccnc1
REMARK SMILES IDX 4 1 5 2 9 3 6 4 8 5 7 6 2 7 1 8 3 9
REMARK H PARENT
REMARK Flexibility Score: inf
ROOT
ATOM      1  C   UNL     1      -3.930   9.627  47.237  1.00  0.00     0.016 A 
ATOM      2  C   UNL     1      -4.022  10.841  47.938  1.00  0.00     0.013 A 
ATOM      3  C   UNL     1      -3.007   8.666  47.682  1.00  0.00     0.120 A 
ATOM      4  C   UNL     1      -3.208  11.073  49.049  1.00  0.00     0.021 A 
ATOM      5  N   UNL     1      -2.225   8.917  48.767  1.00  0.00    -0.264 NA
ATOM      6  C   UNL     1      -2.306  10.088  49.452  1.00  0.00     0.111 A 
ENDROOT
BRANCH   1   7
ATOM      7  C   UNL     1      -4.784   9.363  46.058  1.00  0.00     0.073 C 
ATOM      8  O   UNL     1      -5.083  10.292  45.263  1.00  0.00    -0.545 OA
ATOM      9  O   UNL     1      -5.268   8.082  45.814  1.00  0.00    -0.545 OA
ENDBRANCH   1   7
TORSDOF 1
ENDMDL
MODEL 8
REMARK VINA RESULT:    -3.978     16.250     16.687
REMARK INTER + INTRA:          -4.229
REMARK INTER:                  -4.209
REMARK INTRA:                  -0.020
REMARK UNBOUND:                -0.019
REMARK SMILES O=C([O-])c1cccnc1
REMARK SMILES IDX 4 1 5 2 9 3 6 4 8 5 7 6 2 7 1 8 3 9
REMARK H PARENT
REMARK Flexibility Score: inf
ROOT
ATOM      1  C   UNL     1     -18.693   2.544  48.584  1.00  0.00     0.016 A 
ATOM      2  C   UNL     1     -19.377   3.643  48.038  1.00  0.00     0.013 A 
ATOM      3  C   UNL     1     -17.852   1.796  47.743  1.00  0.00     0.120 A 
ATOM      4  C   UNL     1     -19.215   3.972  46.691  1.00  0.00     0.021 A 
ATOM      5  N   UNL     1     -17.712   2.137  46.434  1.00  0.00    -0.264 NA
ATOM      6  C   UNL     1     -18.369   3.198  45.896  1.00  0.00     0.111 A 
ENDROOT
BRANCH   1   7
ATOM      7  C   UNL     1     -18.852   2.181  50.009  1.00  0.00     0.073 C 
ATOM      8  O   UNL     1     -18.914   0.972  50.358  1.00  0.00    -0.545 OA
ATOM      9  O   UNL     1     -18.936   3.170  50.982  1.00  0.00    -0.545 OA
ENDBRANCH   1   7
TORSDOF 1
ENDMDL
MODEL 9
REMARK VINA RESULT:    -3.874     15.893     16.401
REMARK INTER + INTRA:          -4.119
REMARK INTER:                  -4.098
REMARK INTRA:                  -0.021
REMARK UNBOUND:                -0.019
REMARK SMILES O=C([O-])c1cccnc1
REMARK SMILES IDX 4 1 5 2 9 3 6 4 8 5 7 6 2 7 1 8 3 9
REMARK H PARENT
REMARK Flexibility Score: inf
ROOT
ATOM      1  C   UNL     1     -18.282   2.317  48.140  1.00  0.00     0.016 A 
ATOM      2  C   UNL     1     -17.706   2.115  46.875  1.00  0.00     0.013 A 
ATOM      3  C   UNL     1     -19.319   3.257  48.260  1.00  0.00     0.120 A 
ATOM      4  C   UNL     1     -18.164   2.839  45.772  1.00  0.00     0.021 A 
ATOM      5  N   UNL     1     -19.747   3.950  47.170  1.00  0.00    -0.264 NA
ATOM      6  C   UNL     1     -19.197   3.762  45.942  1.00  0.00     0.111 A 
ENDROOT
BRANCH   1   7
ATOM      7  C   UNL     1     -17.810   1.560  49.320  1.00  0.00     0.073 C 
ATOM      8  O   UNL     1     -18.625   1.165  50.195  1.00  0.00    -0.545 OA
ATOM      9  O   UNL     1     -16.458   1.275  49.478  1.00  0.00    -0.545 OA
ENDBRANCH   1   7
TORSDOF 1
ENDMDL
