MODEL 1
REMARK VINA RESULT:    -3.131      0.000      0.000
REMARK INTER + INTRA:          -8.257
REMARK INTER:                  -6.792
REMARK INTRA:                  -1.464
REMARK UNBOUND:                -1.464
REMARK SMILES CCCCCCCCCCCCCCCCCCCCCC(=O)[O-]
REMARK SMILES IDX 12 1 11 2 10 3 9 4 8 5 7 6 6 7 5 8 4 9 3 10 2 11 1 12 13 13
REMARK SMILES IDX 14 14 15 15 16 16 17 17 18 18 19 19 20 20 21 21 22 22 23 23
REMARK SMILES IDX 24 24
REMARK H PARENT
REMARK Flexibility Score: inf
ROOT
ATOM      1  C   UNL     1      15.237  -7.610   6.470  1.00  0.00     0.000 C 
ENDROOT
BRANCH   1   2
ATOM      2  C   UNL     1      13.906  -8.284   6.834  1.00  0.00     0.000 C 
BRANCH   2   3
ATOM      3  C   UNL     1      12.800  -7.881   5.849  1.00  0.00     0.000 C 
BRANCH   3   4
ATOM      4  C   UNL     1      12.685  -8.846   4.654  1.00  0.00    -0.000 C 
BRANCH   4   5
ATOM      5  C   UNL     1      11.266  -8.984   4.066  1.00  0.00    -0.000 C 
BRANCH   5   6
ATOM      6  C   UNL     1      10.170  -8.190   4.806  1.00  0.00    -0.000 C 
BRANCH   6   7
ATOM      7  C   UNL     1       8.909  -8.998   5.163  1.00  0.00    -0.000 C 
BRANCH   7   8
ATOM      8  C   UNL     1       7.611  -8.210   4.929  1.00  0.00    -0.000 C 
BRANCH   8   9
ATOM      9  C   UNL     1       6.962  -7.809   6.261  1.00  0.00    -0.000 C 
BRANCH   9  10
ATOM     10  C   UNL     1       5.878  -6.727   6.096  1.00  0.00    -0.000 C 
BRANCH  10  11
ATOM     11  C   UNL     1       4.873  -6.987   4.959  1.00  0.00    -0.003 C 
ATOM     12  C   UNL     1       4.348  -5.702   4.317  1.00  0.00     0.004 C 
ENDBRANCH  10  11
ENDBRANCH   9  10
ENDBRANCH   8   9
ENDBRANCH   7   8
ENDBRANCH   6   7
ENDBRANCH   5   6
ENDBRANCH   4   5
ENDBRANCH   3   4
ENDBRANCH   2   3
ENDBRANCH   1   2
BRANCH   1  13
ATOM     13  C   UNL     1      16.180  -8.536   5.682  1.00  0.00     0.000 C 
BRANCH  13  14
ATOM     14  C   UNL     1      16.512  -8.070   4.250  1.00  0.00     0.000 C 
BRANCH  14  15
ATOM     15  C   UNL     1      17.503  -6.895   4.153  1.00  0.00     0.000 C 
BRANCH  15  16
ATOM     16  C   UNL     1      18.502  -6.858   5.322  1.00  0.00     0.000 C 
BRANCH  16  17
ATOM     17  C   UNL     1      19.955  -7.062   4.863  1.00  0.00     0.000 C 
BRANCH  17  18
ATOM     18  C   UNL     1      20.570  -8.370   5.390  1.00  0.00     0.000 C 
BRANCH  18  19
ATOM     19  C   UNL     1      19.592  -9.561   5.277  1.00  0.00     0.000 C 
BRANCH  19  20
ATOM     20  C   UNL     1      19.153 -10.124   6.642  1.00  0.00     0.006 C 
BRANCH  20  21
ATOM     21  C   UNL     1      20.184  -9.922   7.762  1.00  0.00     0.053 C 
BRANCH  21  22
ATOM     22  C   UNL     1      19.654  -9.047   8.856  1.00  0.00     0.041 C 
ATOM     23  O   UNL     1      19.808  -9.373  10.062  1.00  0.00    -0.550 OA
ATOM     24  O   UNL     1      18.997  -7.863   8.542  1.00  0.00    -0.550 OA
ENDBRANCH  21  22
ENDBRANCH  20  21
ENDBRANCH  19  20
ENDBRANCH  18  19
ENDBRANCH  17  18
ENDBRANCH  16  17
ENDBRANCH  15  16
ENDBRANCH  14  15
ENDBRANCH  13  14
ENDBRANCH   1  13
TORSDOF 20
ENDMDL
MODEL 2
REMARK VINA RESULT:    -3.018      4.285     11.193
REMARK INTER + INTRA:          -8.010
REMARK INTER:                  -6.249
REMARK INTRA:                  -1.761
REMARK UNBOUND:                -1.464
REMARK SMILES CCCCCCCCCCCCCCCCCCCCCC(=O)[O-]
REMARK SMILES IDX 12 1 11 2 10 3 9 4 8 5 7 6 6 7 5 8 4 9 3 10 2 11 1 12 13 13
REMARK SMILES IDX 14 14 15 15 16 16 17 17 18 18 19 19 20 20 21 21 22 22 23 23
REMARK SMILES IDX 24 24
REMARK H PARENT
REMARK Flexibility Score: inf
ROOT
ATOM      1  C   UNL     1      15.079  -7.857   6.561  1.00  0.00     0.000 C 
ENDROOT
BRANCH   1   2
ATOM      2  C   UNL     1      15.744  -7.824   5.177  1.00  0.00     0.000 C 
BRANCH   2   3
ATOM      3  C   UNL     1      15.668  -9.200   4.499  1.00  0.00     0.000 C 
BRANCH   3   4
ATOM      4  C   UNL     1      17.012  -9.951   4.521  1.00  0.00    -0.000 C 
BRANCH   4   5
ATOM      5  C   UNL     1      18.253  -9.065   4.284  1.00  0.00    -0.000 C 
BRANCH   5   6
ATOM      6  C   UNL     1      19.526  -9.506   5.033  1.00  0.00    -0.000 C 
BRANCH   6   7
ATOM      7  C   UNL     1      20.056  -8.498   6.069  1.00  0.00    -0.000 C 
BRANCH   7   8
ATOM      8  C   UNL     1      19.250  -7.190   6.092  1.00  0.00    -0.000 C 
BRANCH   8   9
ATOM      9  C   UNL     1      20.117  -6.001   5.657  1.00  0.00    -0.000 C 
BRANCH   9  10
ATOM     10  C   UNL     1      20.631  -6.133   4.211  1.00  0.00    -0.000 C 
BRANCH  10  11
ATOM     11  C   UNL     1      22.078  -5.655   3.992  1.00  0.00    -0.003 C 
ATOM     12  C   UNL     1      23.121  -6.710   4.363  1.00  0.00     0.004 C 
ENDBRANCH  10  11
ENDBRANCH   9  10
ENDBRANCH   8   9
ENDBRANCH   7   8
ENDBRANCH   6   7
ENDBRANCH   5   6
ENDBRANCH   4   5
ENDBRANCH   3   4
ENDBRANCH   2   3
ENDBRANCH   1   2
BRANCH   1  13
ATOM     13  C   UNL     1      13.629  -8.372   6.514  1.00  0.00     0.000 C 
BRANCH  13  14
ATOM     14  C   UNL     1      12.732  -7.714   5.446  1.00  0.00     0.000 C 
BRANCH  14  15
ATOM     15  C   UNL     1      11.659  -8.632   4.832  1.00  0.00     0.000 C 
BRANCH  15  16
ATOM     16  C   UNL     1      10.443  -7.856   4.297  1.00  0.00     0.000 C 
BRANCH  16  17
ATOM     17  C   UNL     1       9.109  -8.418   4.815  1.00  0.00     0.000 C 
BRANCH  17  18
ATOM     18  C   UNL     1       9.166  -8.822   6.298  1.00  0.00     0.000 C 
BRANCH  18  19
ATOM     19  C   UNL     1       8.107  -9.891   6.651  1.00  0.00     0.000 C 
BRANCH  19  20
ATOM     20  C   UNL     1       7.052 -10.096   5.549  1.00  0.00     0.006 C 
BRANCH  20  21
ATOM     21  C   UNL     1       5.676  -9.501   5.884  1.00  0.00     0.053 C 
BRANCH  21  22
ATOM     22  C   UNL     1       5.540  -8.096   5.381  1.00  0.00     0.041 C 
ATOM     23  O   UNL     1       5.034  -7.872   4.251  1.00  0.00    -0.550 OA
ATOM     24  O   UNL     1       5.963  -7.031   6.169  1.00  0.00    -0.550 OA
ENDBRANCH  21  22
ENDBRANCH  20  21
ENDBRANCH  19  20
ENDBRANCH  18  19
ENDBRANCH  17  18
ENDBRANCH  16  17
ENDBRANCH  15  16
ENDBRANCH  14  15
ENDBRANCH  13  14
ENDBRANCH   1  13
TORSDOF 20
ENDMDL
MODEL 3
REMARK VINA RESULT:    -3.004      4.268     10.242
REMARK INTER + INTRA:          -7.981
REMARK INTER:                  -5.772
REMARK INTRA:                  -2.209
REMARK UNBOUND:                -1.464
REMARK SMILES CCCCCCCCCCCCCCCCCCCCCC(=O)[O-]
REMARK SMILES IDX 12 1 11 2 10 3 9 4 8 5 7 6 6 7 5 8 4 9 3 10 2 11 1 12 13 13
REMARK SMILES IDX 14 14 15 15 16 16 17 17 18 18 19 19 20 20 21 21 22 22 23 23
REMARK SMILES IDX 24 24
REMARK H PARENT
REMARK Flexibility Score: inf
ROOT
ATOM      1  C   UNL     1      16.384  -6.742   7.386  1.00  0.00     0.000 C 
ENDROOT
BRANCH   1   2
ATOM      2  C   UNL     1      17.911  -6.767   7.224  1.00  0.00     0.000 C 
BRANCH   2   3
ATOM      3  C   UNL     1      18.598  -7.111   8.553  1.00  0.00     0.000 C 
BRANCH   3   4
ATOM      4  C   UNL     1      19.212  -8.523   8.559  1.00  0.00    -0.000 C 
BRANCH   4   5
ATOM      5  C   UNL     1      20.163  -8.821   7.382  1.00  0.00    -0.000 C 
BRANCH   5   6
ATOM      6  C   UNL     1      19.750 -10.010   6.490  1.00  0.00    -0.000 C 
BRANCH   6   7
ATOM      7  C   UNL     1      18.266 -10.036   6.085  1.00  0.00    -0.000 C 
BRANCH   7   8
ATOM      8  C   UNL     1      18.063 -10.047   4.562  1.00  0.00    -0.000 C 
BRANCH   8   9
ATOM      9  C   UNL     1      18.980  -9.023   3.878  1.00  0.00    -0.000 C 
BRANCH   9  10
ATOM     10  C   UNL     1      18.429  -7.586   3.948  1.00  0.00    -0.000 C 
BRANCH  10  11
ATOM     11  C   UNL     1      19.497  -6.480   3.876  1.00  0.00    -0.003 C 
ATOM     12  C   UNL     1      20.700  -6.748   4.781  1.00  0.00     0.004 C 
ENDBRANCH  10  11
ENDBRANCH   9  10
ENDBRANCH   8   9
ENDBRANCH   7   8
ENDBRANCH   6   7
ENDBRANCH   5   6
ENDBRANCH   4   5
ENDBRANCH   3   4
ENDBRANCH   2   3
ENDBRANCH   1   2
BRANCH   1  13
ATOM     13  C   UNL     1      15.668  -7.731   6.450  1.00  0.00     0.000 C 
BRANCH  13  14
ATOM     14  C   UNL     1      15.179  -7.134   5.114  1.00  0.00     0.000 C 
BRANCH  14  15
ATOM     15  C   UNL     1      14.111  -7.961   4.376  1.00  0.00     0.000 C 
BRANCH  15  16
ATOM     16  C   UNL     1      12.733  -7.278   4.356  1.00  0.00     0.000 C 
BRANCH  16  17
ATOM     17  C   UNL     1      11.583  -8.273   4.128  1.00  0.00     0.000 C 
BRANCH  17  18
ATOM     18  C   UNL     1      10.540  -8.250   5.258  1.00  0.00     0.000 C 
BRANCH  18  19
ATOM     19  C   UNL     1       9.641  -9.507   5.246  1.00  0.00     0.000 C 
BRANCH  19  20
ATOM     20  C   UNL     1       8.154  -9.194   4.998  1.00  0.00     0.006 C 
BRANCH  20  21
ATOM     21  C   UNL     1       7.791  -7.711   5.163  1.00  0.00     0.053 C 
BRANCH  21  22
ATOM     22  C   UNL     1       6.391  -7.532   5.667  1.00  0.00     0.041 C 
ATOM     23  O   UNL     1       5.960  -6.384   5.950  1.00  0.00    -0.550 OA
ATOM     24  O   UNL     1       5.559  -8.636   5.815  1.00  0.00    -0.550 OA
ENDBRANCH  21  22
ENDBRANCH  20  21
ENDBRANCH  19  20
ENDBRANCH  18  19
ENDBRANCH  17  18
ENDBRANCH  16  17
ENDBRANCH  15  16
ENDBRANCH  14  15
ENDBRANCH  13  14
ENDBRANCH   1  13
TORSDOF 20
ENDMDL
MODEL 4
REMARK VINA RESULT:    -2.839      1.506      1.971
REMARK INTER + INTRA:          -7.622
REMARK INTER:                  -6.096
REMARK INTRA:                  -1.526
REMARK UNBOUND:                -1.464
REMARK SMILES CCCCCCCCCCCCCCCCCCCCCC(=O)[O-]
REMARK SMILES IDX 12 1 11 2 10 3 9 4 8 5 7 6 6 7 5 8 4 9 3 10 2 11 1 12 13 13
REMARK SMILES IDX 14 14 15 15 16 16 17 17 18 18 19 19 20 20 21 21 22 22 23 23
REMARK SMILES IDX 24 24
REMARK H PARENT
REMARK Flexibility Score: inf
ROOT
ATOM      1  C   UNL     1      13.703  -8.256   7.364  1.00  0.00     0.000 C 
ENDROOT
BRANCH   1   2
ATOM      2  C   UNL     1      12.553  -8.647   6.424  1.00  0.00     0.000 C 
BRANCH   2   3
ATOM      3  C   UNL     1      12.189  -7.485   5.490  1.00  0.00     0.000 C 
BRANCH   3   4
ATOM      4  C   UNL     1      11.677  -7.960   4.118  1.00  0.00    -0.000 C 
BRANCH   4   5
ATOM      5  C   UNL     1      10.841  -9.256   4.152  1.00  0.00    -0.000 C 
BRANCH   5   6
ATOM      6  C   UNL     1       9.335  -9.072   3.876  1.00  0.00    -0.000 C 
BRANCH   6   7
ATOM      7  C   UNL     1       8.583  -8.213   4.908  1.00  0.00    -0.000 C 
BRANCH   7   8
ATOM      8  C   UNL     1       8.744  -8.733   6.345  1.00  0.00    -0.000 C 
BRANCH   8   9
ATOM      9  C   UNL     1       7.406  -8.695   7.097  1.00  0.00    -0.000 C 
BRANCH   9  10
ATOM     10  C   UNL     1       6.495  -9.889   6.758  1.00  0.00    -0.000 C 
BRANCH  10  11
ATOM     11  C   UNL     1       5.506  -9.640   5.604  1.00  0.00    -0.003 C 
ATOM     12  C   UNL     1       5.133  -8.166   5.441  1.00  0.00     0.004 C 
ENDBRANCH  10  11
ENDBRANCH   9  10
ENDBRANCH   8   9
ENDBRANCH   7   8
ENDBRANCH   6   7
ENDBRANCH   5   6
ENDBRANCH   4   5
ENDBRANCH   3   4
ENDBRANCH   2   3
ENDBRANCH   1   2
BRANCH   1  13
ATOM     13  C   UNL     1      15.090  -8.507   6.747  1.00  0.00     0.000 C 
BRANCH  13  14
ATOM     14  C   UNL     1      15.152  -8.410   5.209  1.00  0.00     0.000 C 
BRANCH  14  15
ATOM     15  C   UNL     1      16.570  -8.353   4.611  1.00  0.00     0.000 C 
BRANCH  15  16
ATOM     16  C   UNL     1      17.054  -6.916   4.355  1.00  0.00     0.000 C 
BRANCH  16  17
ATOM     17  C   UNL     1      18.580  -6.775   4.479  1.00  0.00     0.000 C 
BRANCH  17  18
ATOM     18  C   UNL     1      19.302  -8.132   4.539  1.00  0.00     0.000 C 
BRANCH  18  19
ATOM     19  C   UNL     1      20.032  -8.345   5.884  1.00  0.00     0.000 C 
BRANCH  19  20
ATOM     20  C   UNL     1      19.137  -8.956   6.978  1.00  0.00     0.006 C 
BRANCH  20  21
ATOM     21  C   UNL     1      19.257  -8.262   8.343  1.00  0.00     0.053 C 
BRANCH  21  22
ATOM     22  C   UNL     1      18.667  -6.884   8.321  1.00  0.00     0.041 C 
ATOM     23  O   UNL     1      19.408  -5.878   8.168  1.00  0.00    -0.550 OA
ATOM     24  O   UNL     1      17.295  -6.714   8.461  1.00  0.00    -0.550 OA
ENDBRANCH  21  22
ENDBRANCH  20  21
ENDBRANCH  19  20
ENDBRANCH  18  19
ENDBRANCH  17  18
ENDBRANCH  16  17
ENDBRANCH  15  16
ENDBRANCH  14  15
ENDBRANCH  13  14
ENDBRANCH   1  13
TORSDOF 20
ENDMDL
MODEL 5
REMARK VINA RESULT:    -2.744      1.384      2.163
REMARK INTER + INTRA:          -7.416
REMARK INTER:                  -6.036
REMARK INTRA:                  -1.380
REMARK UNBOUND:                -1.464
REMARK SMILES CCCCCCCCCCCCCCCCCCCCCC(=O)[O-]
REMARK SMILES IDX 12 1 11 2 10 3 9 4 8 5 7 6 6 7 5 8 4 9 3 10 2 11 1 12 13 13
REMARK SMILES IDX 14 14 15 15 16 16 17 17 18 18 19 19 20 20 21 21 22 22 23 23
REMARK SMILES IDX 24 24
REMARK H PARENT
REMARK Flexibility Score: inf
ROOT
ATOM      1  C   UNL     1      13.804  -8.399   6.836  1.00  0.00     0.000 C 
ENDROOT
BRANCH   1   2
ATOM      2  C   UNL     1      12.674  -7.763   6.013  1.00  0.00     0.000 C 
BRANCH   2   3
ATOM      3  C   UNL     1      11.471  -8.711   5.909  1.00  0.00     0.000 C 
BRANCH   3   4
ATOM      4  C   UNL     1      10.310  -8.113   5.093  1.00  0.00    -0.000 C 
BRANCH   4   5
ATOM      5  C   UNL     1       9.308  -9.146   4.539  1.00  0.00    -0.000 C 
BRANCH   5   6
ATOM      6  C   UNL     1       7.891  -8.603   4.263  1.00  0.00    -0.000 C 
BRANCH   6   7
ATOM      7  C   UNL     1       7.596  -7.217   4.863  1.00  0.00    -0.000 C 
BRANCH   7   8
ATOM      8  C   UNL     1       6.423  -7.235   5.855  1.00  0.00    -0.000 C 
BRANCH   8   9
ATOM      9  C   UNL     1       5.079  -7.291   5.117  1.00  0.00    -0.000 C 
BRANCH   9  10
ATOM     10  C   UNL     1       4.862  -6.090   4.177  1.00  0.00    -0.000 C 
BRANCH  10  11
ATOM     11  C   UNL     1       3.407  -5.592   4.088  1.00  0.00    -0.003 C 
ATOM     12  C   UNL     1       3.211  -4.200   4.689  1.00  0.00     0.004 C 
ENDBRANCH  10  11
ENDBRANCH   9  10
ENDBRANCH   8   9
ENDBRANCH   7   8
ENDBRANCH   6   7
ENDBRANCH   5   6
ENDBRANCH   4   5
ENDBRANCH   3   4
ENDBRANCH   2   3
ENDBRANCH   1   2
BRANCH   1  13
ATOM     13  C   UNL     1      15.190  -8.207   6.195  1.00  0.00     0.000 C 
BRANCH  13  14
ATOM     14  C   UNL     1      15.210  -7.338   4.921  1.00  0.00     0.000 C 
BRANCH  14  15
ATOM     15  C   UNL     1      16.334  -7.664   3.920  1.00  0.00     0.000 C 
BRANCH  15  16
ATOM     16  C   UNL     1      16.814  -9.122   4.014  1.00  0.00     0.000 C 
BRANCH  16  17
ATOM     17  C   UNL     1      18.340  -9.251   3.875  1.00  0.00     0.000 C 
BRANCH  17  18
ATOM     18  C   UNL     1      19.103  -8.619   5.052  1.00  0.00     0.000 C 
BRANCH  18  19
ATOM     19  C   UNL     1      18.810  -9.336   6.389  1.00  0.00     0.000 C 
BRANCH  19  20
ATOM     20  C   UNL     1      19.811  -8.985   7.505  1.00  0.00     0.006 C 
BRANCH  20  21
ATOM     21  C   UNL     1      19.175  -8.289   8.717  1.00  0.00     0.053 C 
BRANCH  21  22
ATOM     22  C   UNL     1      18.645  -6.932   8.366  1.00  0.00     0.041 C 
ATOM     23  O   UNL     1      17.404  -6.739   8.278  1.00  0.00    -0.550 OA
ATOM     24  O   UNL     1      19.523  -5.878   8.145  1.00  0.00    -0.550 OA
ENDBRANCH  21  22
ENDBRANCH  20  21
ENDBRANCH  19  20
ENDBRANCH  18  19
ENDBRANCH  17  18
ENDBRANCH  16  17
ENDBRANCH  15  16
ENDBRANCH  14  15
ENDBRANCH  13  14
ENDBRANCH   1  13
TORSDOF 20
ENDMDL
MODEL 6
REMARK VINA RESULT:    -2.711      1.477      3.058
REMARK INTER + INTRA:          -7.345
REMARK INTER:                  -6.533
REMARK INTRA:                  -0.812
REMARK UNBOUND:                -1.464
REMARK SMILES CCCCCCCCCCCCCCCCCCCCCC(=O)[O-]
REMARK SMILES IDX 12 1 11 2 10 3 9 4 8 5 7 6 6 7 5 8 4 9 3 10 2 11 1 12 13 13
REMARK SMILES IDX 14 14 15 15 16 16 17 17 18 18 19 19 20 20 21 21 22 22 23 23
REMARK SMILES IDX 24 24
REMARK H PARENT
REMARK Flexibility Score: inf
ROOT
ATOM      1  C   UNL     1      12.726  -8.544   3.955  1.00  0.00     0.000 C 
ENDROOT
BRANCH   1   2
ATOM      2  C   UNL     1      11.512  -9.233   4.595  1.00  0.00     0.000 C 
BRANCH   2   3
ATOM      3  C   UNL     1      10.205  -8.551   4.165  1.00  0.00     0.000 C 
BRANCH   3   4
ATOM      4  C   UNL     1       9.004  -8.964   5.035  1.00  0.00    -0.000 C 
BRANCH   4   5
ATOM      5  C   UNL     1       9.271  -8.960   6.554  1.00  0.00    -0.000 C 
BRANCH   5   6
ATOM      6  C   UNL     1       8.012  -9.029   7.442  1.00  0.00    -0.000 C 
BRANCH   6   7
ATOM      7  C   UNL     1       6.975 -10.086   7.021  1.00  0.00    -0.000 C 
BRANCH   7   8
ATOM      8  C   UNL     1       6.424  -9.850   5.606  1.00  0.00    -0.000 C 
BRANCH   8   9
ATOM      9  C   UNL     1       4.966  -9.372   5.656  1.00  0.00    -0.000 C 
BRANCH   9  10
ATOM     10  C   UNL     1       4.689  -8.194   4.703  1.00  0.00    -0.000 C 
BRANCH  10  11
ATOM     11  C   UNL     1       5.737  -7.067   4.746  1.00  0.00    -0.003 C 
ATOM     12  C   UNL     1       5.863  -6.417   6.124  1.00  0.00     0.004 C 
ENDBRANCH  10  11
ENDBRANCH   9  10
ENDBRANCH   8   9
ENDBRANCH   7   8
ENDBRANCH   6   7
ENDBRANCH   5   6
ENDBRANCH   4   5
ENDBRANCH   3   4
ENDBRANCH   2   3
ENDBRANCH   1   2
BRANCH   1  13
ATOM     13  C   UNL     1      13.605  -7.808   4.981  1.00  0.00     0.000 C 
BRANCH  13  14
ATOM     14  C   UNL     1      13.884  -8.584   6.284  1.00  0.00     0.000 C 
BRANCH  14  15
ATOM     15  C   UNL     1      15.063  -9.573   6.221  1.00  0.00     0.000 C 
BRANCH  15  16
ATOM     16  C   UNL     1      15.439  -9.964   4.782  1.00  0.00     0.000 C 
BRANCH  16  17
ATOM     17  C   UNL     1      16.947  -9.837   4.510  1.00  0.00     0.000 C 
BRANCH  17  18
ATOM     18  C   UNL     1      17.352  -8.432   4.032  1.00  0.00     0.000 C 
BRANCH  18  19
ATOM     19  C   UNL     1      18.864  -8.169   4.212  1.00  0.00     0.000 C 
BRANCH  19  20
ATOM     20  C   UNL     1      19.317  -8.178   5.684  1.00  0.00     0.006 C 
BRANCH  20  21
ATOM     21  C   UNL     1      18.421  -7.352   6.618  1.00  0.00     0.053 C 
BRANCH  21  22
ATOM     22  C   UNL     1      18.937  -7.345   8.024  1.00  0.00     0.041 C 
ATOM     23  O   UNL     1      18.929  -6.283   8.700  1.00  0.00    -0.550 OA
ATOM     24  O   UNL     1      19.420  -8.518   8.593  1.00  0.00    -0.550 OA
ENDBRANCH  21  22
ENDBRANCH  20  21
ENDBRANCH  19  20
ENDBRANCH  18  19
ENDBRANCH  17  18
ENDBRANCH  16  17
ENDBRANCH  15  16
ENDBRANCH  14  15
ENDBRANCH  13  14
ENDBRANCH   1  13
TORSDOF 20
ENDMDL
MODEL 7
REMARK VINA RESULT:    -2.593      2.100      3.318
REMARK INTER + INTRA:          -7.089
REMARK INTER:                  -6.042
REMARK INTRA:                  -1.046
REMARK UNBOUND:                -1.464
REMARK SMILES CCCCCCCCCCCCCCCCCCCCCC(=O)[O-]
REMARK SMILES IDX 12 1 11 2 10 3 9 4 8 5 7 6 6 7 5 8 4 9 3 10 2 11 1 12 13 13
REMARK SMILES IDX 14 14 15 15 16 16 17 17 18 18 19 19 20 20 21 21 22 22 23 23
REMARK SMILES IDX 24 24
REMARK H PARENT
REMARK Flexibility Score: inf
ROOT
ATOM      1  C   UNL     1      13.251  -7.875   4.836  1.00  0.00     0.000 C 
ENDROOT
BRANCH   1   2
ATOM      2  C   UNL     1      11.893  -8.251   5.446  1.00  0.00     0.000 C 
BRANCH   2   3
ATOM      3  C   UNL     1      11.011  -8.973   4.417  1.00  0.00     0.000 C 
BRANCH   3   4
ATOM      4  C   UNL     1       9.630  -9.357   4.980  1.00  0.00    -0.000 C 
BRANCH   4   5
ATOM      5  C   UNL     1       9.218  -8.598   6.259  1.00  0.00    -0.000 C 
BRANCH   5   6
ATOM      6  C   UNL     1       7.750  -8.790   6.691  1.00  0.00    -0.000 C 
BRANCH   6   7
ATOM      7  C   UNL     1       6.817  -9.345   5.600  1.00  0.00    -0.000 C 
BRANCH   7   8
ATOM      8  C   UNL     1       6.136  -8.238   4.779  1.00  0.00    -0.000 C 
BRANCH   8   9
ATOM      9  C   UNL     1       4.619  -8.232   5.017  1.00  0.00    -0.000 C 
BRANCH   9  10
ATOM     10  C   UNL     1       3.913  -7.041   4.342  1.00  0.00    -0.000 C 
BRANCH  10  11
ATOM     11  C   UNL     1       4.389  -5.655   4.814  1.00  0.00    -0.003 C 
ATOM     12  C   UNL     1       3.354  -4.554   4.583  1.00  0.00     0.004 C 
ENDBRANCH  10  11
ENDBRANCH   9  10
ENDBRANCH   8   9
ENDBRANCH   7   8
ENDBRANCH   6   7
ENDBRANCH   5   6
ENDBRANCH   4   5
ENDBRANCH   3   4
ENDBRANCH   2   3
ENDBRANCH   1   2
BRANCH   1  13
ATOM     13  C   UNL     1      14.302  -7.511   5.899  1.00  0.00     0.000 C 
BRANCH  13  14
ATOM     14  C   UNL     1      14.938  -8.710   6.631  1.00  0.00     0.000 C 
BRANCH  14  15
ATOM     15  C   UNL     1      15.467  -9.833   5.719  1.00  0.00     0.000 C 
BRANCH  15  16
ATOM     16  C   UNL     1      16.944  -9.645   5.334  1.00  0.00     0.000 C 
BRANCH  16  17
ATOM     17  C   UNL     1      17.635  -8.547   6.161  1.00  0.00     0.000 C 
BRANCH  17  18
ATOM     18  C   UNL     1      18.961  -9.013   6.783  1.00  0.00     0.000 C 
BRANCH  18  19
ATOM     19  C   UNL     1      20.034  -9.313   5.712  1.00  0.00     0.000 C 
BRANCH  19  20
ATOM     20  C   UNL     1      20.175  -8.199   4.658  1.00  0.00     0.006 C 
BRANCH  20  21
ATOM     21  C   UNL     1      21.582  -7.587   4.581  1.00  0.00     0.053 C 
BRANCH  21  22
ATOM     22  C   UNL     1      21.536  -6.089   4.545  1.00  0.00     0.041 C 
ATOM     23  O   UNL     1      20.608  -5.468   5.126  1.00  0.00    -0.550 OA
ATOM     24  O   UNL     1      22.527  -5.379   3.878  1.00  0.00    -0.550 OA
ENDBRANCH  21  22
ENDBRANCH  20  21
ENDBRANCH  19  20
ENDBRANCH  18  19
ENDBRANCH  17  18
ENDBRANCH  16  17
ENDBRANCH  15  16
ENDBRANCH  14  15
ENDBRANCH  13  14
ENDBRANCH   1  13
TORSDOF 20
ENDMDL
MODEL 8
REMARK VINA RESULT:    -2.387      2.304      3.253
REMARK INTER + INTRA:          -6.643
REMARK INTER:                  -5.393
REMARK INTRA:                  -1.249
REMARK UNBOUND:                -1.464
REMARK SMILES CCCCCCCCCCCCCCCCCCCCCC(=O)[O-]
REMARK SMILES IDX 12 1 11 2 10 3 9 4 8 5 7 6 6 7 5 8 4 9 3 10 2 11 1 12 13 13
REMARK SMILES IDX 14 14 15 15 16 16 17 17 18 18 19 19 20 20 21 21 22 22 23 23
REMARK SMILES IDX 24 24
REMARK H PARENT
REMARK Flexibility Score: inf
ROOT
ATOM      1  C   UNL     1      14.003  -7.835   5.298  1.00  0.00     0.000 C 
ENDROOT
BRANCH   1   2
ATOM      2  C   UNL     1      13.185  -9.134   5.296  1.00  0.00     0.000 C 
BRANCH   2   3
ATOM      3  C   UNL     1      12.524  -9.363   3.929  1.00  0.00     0.000 C 
BRANCH   3   4
ATOM      4  C   UNL     1      10.997  -9.537   4.027  1.00  0.00    -0.000 C 
BRANCH   4   5
ATOM      5  C   UNL     1      10.309  -8.643   5.079  1.00  0.00    -0.000 C 
BRANCH   5   6
ATOM      6  C   UNL     1       9.739  -7.315   4.540  1.00  0.00    -0.000 C 
BRANCH   6   7
ATOM      7  C   UNL     1       8.211  -7.170   4.651  1.00  0.00    -0.000 C 
BRANCH   7   8
ATOM      8  C   UNL     1       7.457  -8.424   4.182  1.00  0.00    -0.000 C 
BRANCH   8   9
ATOM      9  C   UNL     1       6.733  -9.100   5.355  1.00  0.00    -0.000 C 
BRANCH   9  10
ATOM     10  C   UNL     1       7.615 -10.125   6.093  1.00  0.00    -0.000 C 
BRANCH  10  11
ATOM     11  C   UNL     1       7.633  -9.978   7.625  1.00  0.00    -0.003 C 
ATOM     12  C   UNL     1       7.545  -8.524   8.090  1.00  0.00     0.004 C 
ENDBRANCH  10  11
ENDBRANCH   9  10
ENDBRANCH   8   9
ENDBRANCH   7   8
ENDBRANCH   6   7
ENDBRANCH   5   6
ENDBRANCH   4   5
ENDBRANCH   3   4
ENDBRANCH   2   3
ENDBRANCH   1   2
BRANCH   1  13
ATOM     13  C   UNL     1      15.451  -8.041   4.821  1.00  0.00     0.000 C 
BRANCH  13  14
ATOM     14  C   UNL     1      16.457  -6.973   5.296  1.00  0.00     0.000 C 
BRANCH  14  15
ATOM     15  C   UNL     1      16.181  -6.383   6.691  1.00  0.00     0.000 C 
BRANCH  15  16
ATOM     16  C   UNL     1      16.954  -7.104   7.809  1.00  0.00     0.000 C 
BRANCH  16  17
ATOM     17  C   UNL     1      18.467  -7.155   7.543  1.00  0.00     0.000 C 
BRANCH  17  18
ATOM     18  C   UNL     1      18.968  -8.571   7.209  1.00  0.00     0.000 C 
BRANCH  18  19
ATOM     19  C   UNL     1      20.315  -8.548   6.451  1.00  0.00     0.000 C 
BRANCH  19  20
ATOM     20  C   UNL     1      20.287  -9.339   5.130  1.00  0.00     0.006 C 
BRANCH  20  21
ATOM     21  C   UNL     1      20.414  -8.462   3.875  1.00  0.00     0.053 C 
BRANCH  21  22
ATOM     22  C   UNL     1      20.496  -7.006   4.219  1.00  0.00     0.041 C 
ATOM     23  O   UNL     1      19.558  -6.226   3.910  1.00  0.00    -0.550 OA
ATOM     24  O   UNL     1      21.608  -6.512   4.891  1.00  0.00    -0.550 OA
ENDBRANCH  21  22
ENDBRANCH  20  21
ENDBRANCH  19  20
ENDBRANCH  18  19
ENDBRANCH  17  18
ENDBRANCH  16  17
ENDBRANCH  15  16
ENDBRANCH  14  15
ENDBRANCH  13  14
ENDBRANCH   1  13
TORSDOF 20
ENDMDL
