MODEL 1
REMARK VINA RESULT:     1.282      0.000      0.000
REMARK INTER + INTRA:           2.335
REMARK INTER:                   1.582
REMARK INTRA:                   0.753
REMARK UNBOUND:                 0.753
REMARK SMILES C=C1[C@@H]2CC[C@H]3[C@@H]2C(C)(C)CCC[C@@]13C
REMARK SMILES IDX 14 1 6 2 7 3 3 4 2 5 1 6 4 7 5 8 15 9 8 10 9 11 10 12 11 13
REMARK SMILES IDX 13 15 12 16
REMARK H PARENT
REMARK Flexibility Score: 80.00
ROOT
ATOM      1  C   UNL     1     152.572 136.368 161.437  1.00  0.00    -0.008 C 
ATOM      2  C   UNL     1     152.351 136.393 163.000  1.00  0.00     0.003 C 
ATOM      3  C   UNL     1     153.579 137.150 163.555  1.00  0.00     0.006 C 
ATOM      4  C   UNL     1     154.586 136.269 162.827  1.00  0.00     0.019 C 
ATOM      5  C   UNL     1     154.084 136.331 161.413  1.00  0.00    -0.068 C 
ATOM      6  C   UNL     1     154.860 136.255 160.324  1.00  0.00     0.009 C 
ATOM      7  C   UNL     1     154.201 134.875 163.375  1.00  0.00     0.008 C 
ATOM      8  C   UNL     1     152.671 134.993 163.591  1.00  0.00     0.005 C 
ATOM      9  C   UNL     1     152.001 135.105 160.738  1.00  0.00     0.016 C 
ENDROOT
BRANCH   3  10
ATOM     10  C   UNL     1     153.694 138.715 163.407  1.00  0.00    -0.032 C 
ATOM     11  C   UNL     1     153.623 139.346 164.824  1.00  0.00     0.011 C 
ATOM     12  C   UNL     1     155.091 139.063 162.838  1.00  0.00     0.011 C 
BRANCH  10  13
ATOM     13  C   UNL     1     152.643 139.384 162.478  1.00  0.00     0.007 CG0
ATOM     14  G   UNL     1     152.695 138.918 161.022  1.00  0.00     0.000 G0
ENDBRANCH  10  13
ENDBRANCH   3  10
BRANCH   1  15
ATOM     15  C   UNL     1     151.981 137.605 160.700  1.00  0.00     0.011 C 
BRANCH  15  16
ATOM     16  C   UNL     1     152.643 138.954 160.965  1.00  0.00     0.001 CG0
ATOM     17  G   UNL     1     152.626 139.350 162.442  1.00  0.00     0.000 G0
ENDBRANCH  15  16
ENDBRANCH   1  15
TORSDOF 0
ENDMDL
MODEL 2
REMARK VINA RESULT:     3.002      1.687      3.393
REMARK INTER + INTRA:           4.458
REMARK INTER:                   3.695
REMARK INTRA:                   0.763
REMARK UNBOUND:                 0.753
REMARK SMILES C=C1[C@@H]2CC[C@H]3[C@@H]2C(C)(C)CCC[C@@]13C
REMARK SMILES IDX 14 1 6 2 7 3 3 4 2 5 1 6 4 7 5 8 15 9 8 10 9 11 10 12 11 13
REMARK SMILES IDX 13 15 12 16
REMARK H PARENT
REMARK Flexibility Score: 80.00
ROOT
ATOM      1  C   UNL     1     152.528 135.771 161.260  1.00  0.00    -0.008 C 
ATOM      2  C   UNL     1     153.127 137.097 160.649  1.00  0.00     0.003 C 
ATOM      3  C   UNL     1     153.041 138.128 161.798  1.00  0.00     0.006 C 
ATOM      4  C   UNL     1     151.561 137.875 162.059  1.00  0.00     0.019 C 
ATOM      5  C   UNL     1     151.529 136.381 162.218  1.00  0.00    -0.068 C 
ATOM      6  C   UNL     1     150.672 135.717 163.004  1.00  0.00     0.009 C 
ATOM      7  C   UNL     1     150.964 138.187 160.668  1.00  0.00     0.008 C 
ATOM      8  C   UNL     1     152.087 137.744 159.695  1.00  0.00     0.005 C 
ATOM      9  C   UNL     1     151.792 134.875 160.228  1.00  0.00     0.016 C 
ENDROOT
BRANCH   3  10
ATOM     10  C   UNL     1     154.047 138.068 163.010  1.00  0.00    -0.032 C 
ATOM     11  C   UNL     1     154.931 139.345 162.973  1.00  0.00     0.011 C 
ATOM     12  C   UNL     1     153.242 138.127 164.331  1.00  0.00     0.011 C 
BRANCH  10  13
ATOM     13  C   UNL     1     154.946 136.804 163.078  1.00  0.00     0.007 CG0
ATOM     14  G   UNL     1     154.181 135.489 163.239  1.00  0.00     0.000 G0
ENDBRANCH  10  13
ENDBRANCH   3  10
BRANCH   1  15
ATOM     15  C   UNL     1     153.584 134.875 161.972  1.00  0.00     0.011 C 
BRANCH  15  16
ATOM     16  C   UNL     1     154.216 135.424 163.248  1.00  0.00     0.001 CG0
ATOM     17  G   UNL     1     154.915 136.768 163.039  1.00  0.00     0.000 G0
ENDBRANCH  15  16
ENDBRANCH   1  15
TORSDOF 0
ENDMDL
