MODEL 1
REMARK VINA RESULT:    -5.034      0.000      0.000
REMARK INTER + INTRA:          -5.712
REMARK INTER:                  -5.475
REMARK INTRA:                  -0.237
REMARK UNBOUND:                -0.237
REMARK SMILES O=C([O-])c1ccccc1O
REMARK SMILES IDX 4 1 9 2 5 3 8 4 6 5 7 6 2 7 1 8 3 9 10 10
REMARK H PARENT 10 11
REMARK Flexibility Score: inf
ROOT
ATOM      1  C   UNL     1      20.670  12.319  -0.613  1.00  0.00     0.039 A 
ATOM      2  C   UNL     1      21.479  11.154  -0.556  1.00  0.00     0.124 A 
ATOM      3  C   UNL     1      20.673  13.202   0.483  1.00  0.00     0.014 A 
ATOM      4  C   UNL     1      22.211  10.875   0.605  1.00  0.00     0.047 A 
ATOM      5  C   UNL     1      21.424  12.919   1.625  1.00  0.00     0.001 A 
ATOM      6  C   UNL     1      22.185  11.753   1.691  1.00  0.00     0.004 A 
ENDROOT
BRANCH   1   7
ATOM      7  C   UNL     1      19.794  12.632  -1.764  1.00  0.00     0.075 C 
ATOM      8  O   UNL     1      20.088  12.243  -2.925  1.00  0.00    -0.545 OA
ATOM      9  O   UNL     1      18.595  13.304  -1.561  1.00  0.00    -0.545 OA
ENDBRANCH   1   7
BRANCH   2  10
ATOM     10  O   UNL     1      21.611  10.273  -1.632  1.00  0.00    -0.507 OA
ATOM     11  H   UNL     1      20.978   9.505  -1.806  1.00  0.00     0.293 HD
ENDBRANCH   2  10
TORSDOF 2
ENDMDL
MODEL 2
REMARK VINA RESULT:    -5.025      4.064      4.745
REMARK INTER + INTRA:          -5.702
REMARK INTER:                  -5.460
REMARK INTRA:                  -0.242
REMARK UNBOUND:                -0.237
REMARK SMILES O=C([O-])c1ccccc1O
REMARK SMILES IDX 4 1 9 2 5 3 8 4 6 5 7 6 2 7 1 8 3 9 10 10
REMARK H PARENT 10 11
REMARK Flexibility Score: inf
ROOT
ATOM      1  C   UNL     1      22.751  14.495   1.459  1.00  0.00     0.039 A 
ATOM      2  C   UNL     1      23.930  13.706   1.481  1.00  0.00     0.124 A 
ATOM      3  C   UNL     1      21.918  14.440   0.326  1.00  0.00     0.014 A 
ATOM      4  C   UNL     1      24.273  12.940   0.359  1.00  0.00     0.047 A 
ATOM      5  C   UNL     1      22.263  13.656  -0.777  1.00  0.00     0.001 A 
ATOM      6  C   UNL     1      23.444  12.915  -0.765  1.00  0.00     0.004 A 
ENDROOT
BRANCH   1   7
ATOM      7  C   UNL     1      22.373  15.404   2.564  1.00  0.00     0.075 C 
ATOM      8  O   UNL     1      22.655  15.122   3.758  1.00  0.00    -0.545 OA
ATOM      9  O   UNL     1      21.759  16.619   2.285  1.00  0.00    -0.545 OA
ENDBRANCH   1   7
BRANCH   2  10
ATOM     10  O   UNL     1      24.764  13.625   2.598  1.00  0.00    -0.507 OA
ATOM     11  H   UNL     1      25.129  14.434   3.082  1.00  0.00     0.293 HD
ENDBRANCH   2  10
TORSDOF 2
ENDMDL
MODEL 3
REMARK VINA RESULT:    -4.968      9.219     10.716
REMARK INTER + INTRA:          -5.641
REMARK INTER:                  -5.401
REMARK INTRA:                  -0.239
REMARK UNBOUND:                -0.237
REMARK SMILES O=C([O-])c1ccccc1O
REMARK SMILES IDX 4 1 9 2 5 3 8 4 6 5 7 6 2 7 1 8 3 9 10 10
REMARK H PARENT 10 11
REMARK Flexibility Score: inf
ROOT
ATOM      1  C   UNL     1      14.630  19.854   1.196  1.00  0.00     0.039 A 
ATOM      2  C   UNL     1      15.329  20.793   1.998  1.00  0.00     0.124 A 
ATOM      3  C   UNL     1      13.229  19.775   1.307  1.00  0.00     0.014 A 
ATOM      4  C   UNL     1      14.624  21.574   2.923  1.00  0.00     0.047 A 
ATOM      5  C   UNL     1      12.539  20.575   2.220  1.00  0.00     0.001 A 
ATOM      6  C   UNL     1      13.236  21.467   3.034  1.00  0.00     0.004 A 
ENDROOT
BRANCH   1   7
ATOM      7  C   UNL     1      15.314  18.925   0.268  1.00  0.00     0.075 C 
ATOM      8  O   UNL     1      14.727  18.486  -0.756  1.00  0.00    -0.545 OA
ATOM      9  O   UNL     1      16.642  18.582   0.483  1.00  0.00    -0.545 OA
ENDBRANCH   1   7
BRANCH   2  10
ATOM     10  O   UNL     1      16.705  21.006   1.886  1.00  0.00    -0.507 OA
ATOM     11  H   UNL     1      17.218  20.894   1.023  1.00  0.00     0.293 HD
ENDBRANCH   2  10
TORSDOF 2
ENDMDL
MODEL 4
REMARK VINA RESULT:    -4.904      9.490     10.259
REMARK INTER + INTRA:          -5.571
REMARK INTER:                  -5.345
REMARK INTRA:                  -0.226
REMARK UNBOUND:                -0.237
REMARK SMILES O=C([O-])c1ccccc1O
REMARK SMILES IDX 4 1 9 2 5 3 8 4 6 5 7 6 2 7 1 8 3 9 10 10
REMARK H PARENT 10 11
REMARK Flexibility Score: inf
ROOT
ATOM      1  C   UNL     1      15.158  20.554   0.100  1.00  0.00     0.039 A 
ATOM      2  C   UNL     1      14.657  19.245   0.325  1.00  0.00     0.124 A 
ATOM      3  C   UNL     1      15.257  21.440   1.189  1.00  0.00     0.014 A 
ATOM      4  C   UNL     1      14.217  18.882   1.604  1.00  0.00     0.047 A 
ATOM      5  C   UNL     1      14.831  21.055   2.463  1.00  0.00     0.001 A 
ATOM      6  C   UNL     1      14.303  19.782   2.668  1.00  0.00     0.004 A 
ENDROOT
BRANCH   1   7
ATOM      7  C   UNL     1      15.551  21.044  -1.240  1.00  0.00     0.075 C 
ATOM      8  O   UNL     1      16.449  20.462  -1.904  1.00  0.00    -0.545 OA
ATOM      9  O   UNL     1      14.879  22.117  -1.811  1.00  0.00    -0.545 OA
ENDBRANCH   1   7
BRANCH   2  10
ATOM     10  O   UNL     1      14.614  18.271  -0.675  1.00  0.00    -0.507 OA
ATOM     11  H   UNL     1      15.037  17.358  -0.585  1.00  0.00     0.293 HD
ENDBRANCH   2  10
TORSDOF 2
ENDMDL
MODEL 5
REMARK VINA RESULT:    -4.893      2.372      3.283
REMARK INTER + INTRA:          -5.559
REMARK INTER:                  -5.315
REMARK INTRA:                  -0.244
REMARK UNBOUND:                -0.237
REMARK SMILES O=C([O-])c1ccccc1O
REMARK SMILES IDX 4 1 9 2 5 3 8 4 6 5 7 6 2 7 1 8 3 9 10 10
REMARK H PARENT 10 11
REMARK Flexibility Score: inf
ROOT
ATOM      1  C   UNL     1      20.676  12.973  -1.705  1.00  0.00     0.039 A 
ATOM      2  C   UNL     1      21.831  13.300  -0.947  1.00  0.00     0.124 A 
ATOM      3  C   UNL     1      20.831  12.598  -3.052  1.00  0.00     0.014 A 
ATOM      4  C   UNL     1      23.087  13.303  -1.567  1.00  0.00     0.047 A 
ATOM      5  C   UNL     1      22.093  12.586  -3.649  1.00  0.00     0.001 A 
ATOM      6  C   UNL     1      23.219  12.948  -2.911  1.00  0.00     0.004 A 
ENDROOT
BRANCH   1   7
ATOM      7  C   UNL     1      19.306  13.043  -1.149  1.00  0.00     0.075 C 
ATOM      8  O   UNL     1      18.320  13.298  -1.889  1.00  0.00    -0.545 OA
ATOM      9  O   UNL     1      19.086  12.757   0.193  1.00  0.00    -0.545 OA
ENDBRANCH   1   7
BRANCH   2  10
ATOM     10  O   UNL     1      21.781  13.590   0.418  1.00  0.00    -0.507 OA
ATOM     11  H   UNL     1      21.591  12.898   1.129  1.00  0.00     0.293 HD
ENDBRANCH   2  10
TORSDOF 2
ENDMDL
MODEL 6
REMARK VINA RESULT:    -4.864     10.131     10.799
REMARK INTER + INTRA:          -5.528
REMARK INTER:                  -5.285
REMARK INTRA:                  -0.243
REMARK UNBOUND:                -0.237
REMARK SMILES O=C([O-])c1ccccc1O
REMARK SMILES IDX 4 1 9 2 5 3 8 4 6 5 7 6 2 7 1 8 3 9 10 10
REMARK H PARENT 10 11
REMARK Flexibility Score: inf
ROOT
ATOM      1  C   UNL     1      14.597  20.145   0.738  1.00  0.00     0.039 A 
ATOM      2  C   UNL     1      15.919  20.618   0.525  1.00  0.00     0.124 A 
ATOM      3  C   UNL     1      13.716  20.074  -0.356  1.00  0.00     0.014 A 
ATOM      4  C   UNL     1      16.299  21.060  -0.749  1.00  0.00     0.047 A 
ATOM      5  C   UNL     1      14.117  20.500  -1.624  1.00  0.00     0.001 A 
ATOM      6  C   UNL     1      15.403  21.001  -1.819  1.00  0.00     0.004 A 
ENDROOT
BRANCH   1   7
ATOM      7  C   UNL     1      14.091  19.754   2.073  1.00  0.00     0.075 C 
ATOM      8  O   UNL     1      14.723  18.932   2.789  1.00  0.00    -0.545 OA
ATOM      9  O   UNL     1      12.941  20.346   2.581  1.00  0.00    -0.545 OA
ENDBRANCH   1   7
BRANCH   2  10
ATOM     10  O   UNL     1      16.887  20.633   1.531  1.00  0.00    -0.507 OA
ATOM     11  H   UNL     1      17.866  20.814   1.361  1.00  0.00     0.293 HD
ENDBRANCH   2  10
TORSDOF 2
ENDMDL
MODEL 7
REMARK VINA RESULT:    -4.858      1.848      3.123
REMARK INTER + INTRA:          -5.520
REMARK INTER:                  -5.271
REMARK INTRA:                  -0.250
REMARK UNBOUND:                -0.237
REMARK SMILES O=C([O-])c1ccccc1O
REMARK SMILES IDX 4 1 9 2 5 3 8 4 6 5 7 6 2 7 1 8 3 9 10 10
REMARK H PARENT 10 11
REMARK Flexibility Score: inf
ROOT
ATOM      1  C   UNL     1      21.011  13.207  -1.154  1.00  0.00     0.039 A 
ATOM      2  C   UNL     1      19.843  13.911  -0.759  1.00  0.00     0.124 A 
ATOM      3  C   UNL     1      22.254  13.606  -0.630  1.00  0.00     0.014 A 
ATOM      4  C   UNL     1      19.956  15.019   0.090  1.00  0.00     0.047 A 
ATOM      5  C   UNL     1      22.347  14.702   0.230  1.00  0.00     0.001 A 
ATOM      6  C   UNL     1      21.201  15.413   0.582  1.00  0.00     0.004 A 
ENDROOT
BRANCH   1   7
ATOM      7  C   UNL     1      20.984  12.088  -2.123  1.00  0.00     0.075 C 
ATOM      8  O   UNL     1      20.234  12.126  -3.134  1.00  0.00    -0.545 OA
ATOM      9  O   UNL     1      21.843  11.009  -1.961  1.00  0.00    -0.545 OA
ENDBRANCH   1   7
BRANCH   2  10
ATOM     10  O   UNL     1      18.559  13.525  -1.153  1.00  0.00    -0.507 OA
ATOM     11  H   UNL     1      17.760  13.529  -0.534  1.00  0.00     0.293 HD
ENDBRANCH   2  10
TORSDOF 2
ENDMDL
MODEL 8
REMARK VINA RESULT:    -4.853      8.355      9.405
REMARK INTER + INTRA:          -5.515
REMARK INTER:                  -5.298
REMARK INTRA:                  -0.217
REMARK UNBOUND:                -0.237
REMARK SMILES O=C([O-])c1ccccc1O
REMARK SMILES IDX 4 1 9 2 5 3 8 4 6 5 7 6 2 7 1 8 3 9 10 10
REMARK H PARENT 10 11
REMARK Flexibility Score: inf
ROOT
ATOM      1  C   UNL     1      25.459   9.991  -7.553  1.00  0.00     0.039 A 
ATOM      2  C   UNL     1      25.886   8.637  -7.548  1.00  0.00     0.124 A 
ATOM      3  C   UNL     1      25.798  10.806  -8.649  1.00  0.00     0.014 A 
ATOM      4  C   UNL     1      26.685   8.159  -8.594  1.00  0.00     0.047 A 
ATOM      5  C   UNL     1      26.579  10.308  -9.694  1.00  0.00     0.001 A 
ATOM      6  C   UNL     1      27.029   8.989  -9.663  1.00  0.00     0.004 A 
ENDROOT
BRANCH   1   7
ATOM      7  C   UNL     1      24.697  10.596  -6.438  1.00  0.00     0.075 C 
ATOM      8  O   UNL     1      25.140  10.565  -5.260  1.00  0.00    -0.545 OA
ATOM      9  O   UNL     1      23.509  11.270  -6.694  1.00  0.00    -0.545 OA
ENDBRANCH   1   7
BRANCH   2  10
ATOM     10  O   UNL     1      25.515   7.733  -6.550  1.00  0.00    -0.507 OA
ATOM     11  H   UNL     1      26.046   6.904  -6.323  1.00  0.00     0.293 HD
ENDBRANCH   2  10
TORSDOF 2
ENDMDL
MODEL 9
REMARK VINA RESULT:    -4.849      3.824      5.216
REMARK INTER + INTRA:          -5.511
REMARK INTER:                  -5.262
REMARK INTRA:                  -0.249
REMARK UNBOUND:                -0.237
REMARK SMILES O=C([O-])c1ccccc1O
REMARK SMILES IDX 4 1 9 2 5 3 8 4 6 5 7 6 2 7 1 8 3 9 10 10
REMARK H PARENT 10 11
REMARK Flexibility Score: inf
ROOT
ATOM      1  C   UNL     1      21.976  14.149   2.085  1.00  0.00     0.039 A 
ATOM      2  C   UNL     1      21.298  15.331   1.686  1.00  0.00     0.124 A 
ATOM      3  C   UNL     1      21.574  12.918   1.535  1.00  0.00     0.014 A 
ATOM      4  C   UNL     1      20.210  15.243   0.808  1.00  0.00     0.047 A 
ATOM      5  C   UNL     1      20.500  12.849   0.646  1.00  0.00     0.001 A 
ATOM      6  C   UNL     1      19.812  14.009   0.290  1.00  0.00     0.004 A 
ENDROOT
BRANCH   1   7
ATOM      7  C   UNL     1      23.070  14.149   3.082  1.00  0.00     0.075 C 
ATOM      8  O   UNL     1      24.038  13.351   2.980  1.00  0.00    -0.545 OA
ATOM      9  O   UNL     1      23.072  15.084   4.110  1.00  0.00    -0.545 OA
ENDBRANCH   1   7
BRANCH   2  10
ATOM     10  O   UNL     1      21.691  16.604   2.105  1.00  0.00    -0.507 OA
ATOM     11  H   UNL     1      22.554  16.789   2.597  1.00  0.00     0.293 HD
ENDBRANCH   2  10
TORSDOF 2
ENDMDL
