MODEL 1
REMARK VINA RESULT:    32.666      0.000      0.000
REMARK INTER + INTRA:          44.988
REMARK INTER:                  44.124
REMARK INTRA:                   0.864
REMARK UNBOUND:                 0.864
REMARK SMILES O=c1c(-c2ccc(O)cc2)coc2c([C@@H]3O[C@H](CO)[C@@H](O)[C@H](O)[C@@H]3O)c(O)ccc12
REMARK SMILES IDX 3 1 11 2 12 3 13 4 30 5 2 6 1 7 29 8 28 9 26 10 14 11 4 12
REMARK SMILES IDX 5 13 6 14 7 15 10 16 9 17 8 18 15 20 24 21 16 22 22 23 17 24
REMARK SMILES IDX 20 25 25 26 23 28 18 30 19 31 21 33 27 35
REMARK H PARENT 8 19 25 27 23 29 19 32 21 34 27 36
REMARK Flexibility Score: inf
ROOT
ATOM      1  C   UNL     1       9.224  26.063  37.490  1.00  0.00     0.065 A 
ATOM      2  C   UNL     1      10.058  24.936  37.493  1.00  0.00     0.208 A 
ATOM      3  O   UNL     1       9.720  23.835  36.833  1.00  0.00    -0.463 OA
ATOM      4  C   UNL     1       8.591  23.721  36.137  1.00  0.00     0.147 A 
ATOM      5  C   UNL     1       7.686  24.806  36.090  1.00  0.00     0.066 A 
ATOM      6  C   UNL     1       8.013  25.988  36.780  1.00  0.00     0.200 A 
ATOM      7  O   UNL     1       7.215  26.966  36.780  1.00  0.00    -0.288 OA
ATOM      8  C   UNL     1       6.487  24.678  35.372  1.00  0.00     0.020 A 
ATOM      9  C   UNL     1       6.185  23.485  34.720  1.00  0.00     0.047 A 
ATOM     10  C   UNL     1       7.072  22.402  34.762  1.00  0.00     0.125 A 
ATOM     11  C   UNL     1       8.301  22.516  35.455  1.00  0.00     0.069 A 
ENDROOT
BRANCH   1  12
ATOM     12  C   UNL     1       9.630  27.286  38.228  1.00  0.00    -0.011 A 
ATOM     13  C   UNL     1       9.201  28.556  37.802  1.00  0.00     0.013 A 
ATOM     14  C   UNL     1       9.592  29.704  38.496  1.00  0.00     0.047 A 
ATOM     15  C   UNL     1      10.420  29.600  39.621  1.00  0.00     0.115 A 
ATOM     16  C   UNL     1      10.466  27.190  39.355  1.00  0.00     0.013 A 
ATOM     17  C   UNL     1      10.855  28.341  40.047  1.00  0.00     0.047 A 
BRANCH  15  18
ATOM     18  O   UNL     1      10.816  30.737  40.322  1.00  0.00    -0.508 OA
ATOM     19  H   UNL     1      11.249  31.523  39.852  1.00  0.00     0.293 HD
ENDBRANCH  15  18
ENDBRANCH   1  12
BRANCH  11  20
ATOM     20  C   UNL     1       9.280  21.349  35.546  1.00  0.00     0.188 C 
ATOM     21  C   UNL     1       9.870  21.022  34.154  1.00  0.00     0.179 C 
ATOM     22  O   UNL     1      10.312  21.627  36.478  1.00  0.00    -0.362 OA
ATOM     23  C   UNL     1      10.869  19.850  34.277  1.00  0.00     0.177 C 
ATOM     24  C   UNL     1      11.110  20.478  36.716  1.00  0.00     0.176 C 
ATOM     25  C   UNL     1      11.873  20.072  35.427  1.00  0.00     0.177 C 
BRANCH  21  26
ATOM     26  O   UNL     1      10.461  22.153  33.557  1.00  0.00    -0.387 OA
ATOM     27  H   UNL     1      11.439  22.106  33.710  1.00  0.00     0.211 HD
ENDBRANCH  21  26
BRANCH  23  28
ATOM     28  O   UNL     1      11.527  19.611  33.057  1.00  0.00    -0.387 OA
ATOM     29  H   UNL     1      12.358  19.103  33.251  1.00  0.00     0.211 HD
ENDBRANCH  23  28
BRANCH  24  30
ATOM     30  C   UNL     1      12.079  20.809  37.863  1.00  0.00     0.191 C 
BRANCH  30  31
ATOM     31  O   UNL     1      13.232  20.011  37.804  1.00  0.00    -0.394 OA
ATOM     32  H   UNL     1      13.190  19.392  38.580  1.00  0.00     0.210 HD
ENDBRANCH  30  31
ENDBRANCH  24  30
BRANCH  25  33
ATOM     33  O   UNL     1      12.582  18.876  35.638  1.00  0.00    -0.388 OA
ATOM     34  H   UNL     1      13.248  19.049  36.353  1.00  0.00     0.211 HD
ENDBRANCH  25  33
ENDBRANCH  11  20
BRANCH  10  35
ATOM     35  O   UNL     1       6.723  21.215  34.117  1.00  0.00    -0.507 OA
ATOM     36  H   UNL     1       7.324  20.399  34.137  1.00  0.00     0.293 HD
ENDBRANCH  10  35
TORSDOF 9
ENDMDL
MODEL 2
REMARK VINA RESULT:    35.407      2.260      3.543
REMARK INTER + INTRA:          48.690
REMARK INTER:                  47.431
REMARK INTRA:                   1.258
REMARK UNBOUND:                 0.864
REMARK SMILES O=c1c(-c2ccc(O)cc2)coc2c([C@@H]3O[C@H](CO)[C@@H](O)[C@H](O)[C@@H]3O)c(O)ccc12
REMARK SMILES IDX 3 1 11 2 12 3 13 4 30 5 2 6 1 7 29 8 28 9 26 10 14 11 4 12
REMARK SMILES IDX 5 13 6 14 7 15 10 16 9 17 8 18 15 20 24 21 16 22 22 23 17 24
REMARK SMILES IDX 20 25 25 26 23 28 18 30 19 31 21 33 27 35
REMARK H PARENT 8 19 25 27 23 29 19 32 21 34 27 36
REMARK Flexibility Score: inf
ROOT
ATOM      1  C   UNL     1       9.243  27.587  39.095  1.00  0.00     0.065 A 
ATOM      2  C   UNL     1       9.545  26.912  37.903  1.00  0.00     0.208 A 
ATOM      3  O   UNL     1       8.870  25.827  37.545  1.00  0.00    -0.463 OA
ATOM      4  C   UNL     1       7.882  25.310  38.272  1.00  0.00     0.147 A 
ATOM      5  C   UNL     1       7.520  25.921  39.495  1.00  0.00     0.066 A 
ATOM      6  C   UNL     1       8.217  27.073  39.906  1.00  0.00     0.200 A 
ATOM      7  O   UNL     1       7.937  27.627  41.005  1.00  0.00    -0.288 OA
ATOM      8  C   UNL     1       6.492  25.364  40.270  1.00  0.00     0.020 A 
ATOM      9  C   UNL     1       5.839  24.210  39.844  1.00  0.00     0.047 A 
ATOM     10  C   UNL     1       6.191  23.594  38.636  1.00  0.00     0.125 A 
ATOM     11  C   UNL     1       7.205  24.153  37.822  1.00  0.00     0.069 A 
ENDROOT
BRANCH   1  12
ATOM     12  C   UNL     1      10.007  28.804  39.469  1.00  0.00    -0.011 A 
ATOM     13  C   UNL     1       9.695  30.050  38.895  1.00  0.00     0.013 A 
ATOM     14  C   UNL     1      10.423  31.192  39.245  1.00  0.00     0.047 A 
ATOM     15  C   UNL     1      11.473  31.103  40.167  1.00  0.00     0.115 A 
ATOM     16  C   UNL     1      11.067  28.723  40.389  1.00  0.00     0.013 A 
ATOM     17  C   UNL     1      11.792  29.866  40.737  1.00  0.00     0.047 A 
BRANCH  15  18
ATOM     18  O   UNL     1      12.204  32.234  40.525  1.00  0.00    -0.508 OA
ATOM     19  H   UNL     1      12.675  32.298  41.420  1.00  0.00     0.293 HD
ENDBRANCH  15  18
ENDBRANCH   1  12
BRANCH  11  20
ATOM     20  C   UNL     1       7.634  23.494  36.514  1.00  0.00     0.188 C 
ATOM     21  C   UNL     1       7.456  24.471  35.327  1.00  0.00     0.179 C 
ATOM     22  O   UNL     1       8.974  23.038  36.594  1.00  0.00    -0.362 OA
ATOM     23  C   UNL     1       7.913  23.786  34.020  1.00  0.00     0.177 C 
ATOM     24  C   UNL     1       9.316  22.253  35.462  1.00  0.00     0.176 C 
ATOM     25  C   UNL     1       9.296  23.120  34.176  1.00  0.00     0.177 C 
BRANCH  21  26
ATOM     26  O   UNL     1       8.131  25.688  35.544  1.00  0.00    -0.387 OA
ATOM     27  H   UNL     1       8.859  25.760  34.875  1.00  0.00     0.211 HD
ENDBRANCH  21  26
BRANCH  23  28
ATOM     28  O   UNL     1       7.892  24.686  32.939  1.00  0.00    -0.387 OA
ATOM     29  H   UNL     1       8.816  24.758  32.583  1.00  0.00     0.211 HD
ENDBRANCH  23  28
BRANCH  24  30
ATOM     30  C   UNL     1      10.709  21.651  35.713  1.00  0.00     0.191 C 
BRANCH  30  31
ATOM     31  O   UNL     1      10.649  20.253  35.821  1.00  0.00    -0.394 OA
ATOM     32  H   UNL     1       9.843  19.963  35.319  1.00  0.00     0.210 HD
ENDBRANCH  30  31
ENDBRANCH  24  30
BRANCH  25  33
ATOM     33  O   UNL     1       9.535  22.319  33.045  1.00  0.00    -0.388 OA
ATOM     34  H   UNL     1      10.380  21.824  33.206  1.00  0.00     0.211 HD
ENDBRANCH  25  33
ENDBRANCH  11  20
BRANCH  10  35
ATOM     35  O   UNL     1       5.531  22.425  38.255  1.00  0.00    -0.507 OA
ATOM     36  H   UNL     1       5.995  21.700  37.719  1.00  0.00     0.293 HD
ENDBRANCH  10  35
TORSDOF 9
ENDMDL
