MODEL 1
REMARK VINA RESULT:    -6.472      0.000      0.000
REMARK INTER + INTRA:         -10.407
REMARK INTER:                  -9.120
REMARK INTRA:                  -1.287
REMARK UNBOUND:                -1.287
REMARK SMILES COc1c(O[C@@H]2O[C@@H](C(=O)[O-])[C@H](O)[C@@H](O)[C@@H]2O)cc(O)c2c(=O)cc(-c3ccccc3)oc12
REMARK SMILES IDX 5 1 6 2 8 3 12 4 7 5 14 6 16 7 9 8 10 9 11 10 13 11 15 13
REMARK SMILES IDX 17 15 4 17 3 18 18 19 33 20 19 21 21 22 32 23 22 24 25 25
REMARK SMILES IDX 24 26 23 27 2 28 1 29 20 30 26 32 27 33 31 34 28 35 30 36
REMARK SMILES IDX 29 37
REMARK H PARENT 13 12 15 14 17 16 20 31
REMARK Flexibility Score: inf
ROOT
ATOM      1  O   UNL     1      -2.939 -40.430 -33.646  1.00  0.00    -0.458 OA
ENDROOT
BRANCH   1   2
ATOM      2  C   UNL     1      -4.367 -40.325 -33.704  1.00  0.00     0.339 C 
ATOM      3  C   UNL     1      -4.570 -40.128 -31.374  1.00  0.00     0.199 C 
ATOM      4  C   UNL     1      -5.262 -41.503 -31.223  1.00  0.00     0.180 C 
ATOM      5  O   UNL     1      -4.867 -39.540 -32.632  1.00  0.00    -0.328 OA
ATOM      6  C   UNL     1      -4.833 -42.432 -32.373  1.00  0.00     0.181 C 
ATOM      7  C   UNL     1      -5.033 -41.715 -33.718  1.00  0.00     0.214 C 
BRANCH   3   8
ATOM      8  C   UNL     1      -5.041 -39.193 -30.299  1.00  0.00     0.073 C 
ATOM      9  O   UNL     1      -4.605 -39.305 -29.124  1.00  0.00    -0.547 OA
ATOM     10  O   UNL     1      -5.991 -38.221 -30.588  1.00  0.00    -0.547 OA
ENDBRANCH   3   8
BRANCH   4  11
ATOM     11  O   UNL     1      -4.901 -42.095 -30.000  1.00  0.00    -0.387 OA
ATOM     12  H   UNL     1      -3.951 -42.372 -30.080  1.00  0.00     0.211 HD
ENDBRANCH   4  11
BRANCH   6  13
ATOM     13  O   UNL     1      -5.605 -43.606 -32.356  1.00  0.00    -0.387 OA
ATOM     14  H   UNL     1      -6.557 -43.325 -32.357  1.00  0.00     0.211 HD
ENDBRANCH   6  13
BRANCH   7  15
ATOM     15  O   UNL     1      -4.568 -42.494 -34.793  1.00  0.00    -0.384 OA
ATOM     16  H   UNL     1      -3.921 -41.947 -35.309  1.00  0.00     0.211 HD
ENDBRANCH   7  15
ENDBRANCH   1   2
BRANCH   1  17
ATOM     17  C   UNL     1      -2.037 -39.366 -33.821  1.00  0.00     0.172 A 
ATOM     18  C   UNL     1      -1.876 -38.773 -35.099  1.00  0.00     0.205 A 
ATOM     19  C   UNL     1      -1.289 -38.865 -32.737  1.00  0.00     0.097 A 
ATOM     20  C   UNL     1      -0.998 -37.689 -35.255  1.00  0.00     0.188 A 
ATOM     21  C   UNL     1      -0.408 -37.791 -32.895  1.00  0.00     0.134 A 
ATOM     22  C   UNL     1      -0.258 -37.189 -34.160  1.00  0.00     0.111 A 
ATOM     23  O   UNL     1      -0.869 -37.136 -36.459  1.00  0.00    -0.452 OA
ATOM     24  C   UNL     1       0.611 -36.103 -34.396  1.00  0.00     0.197 A 
ATOM     25  C   UNL     1      -0.066 -36.106 -36.714  1.00  0.00     0.138 A 
ATOM     26  C   UNL     1       0.707 -35.563 -35.677  1.00  0.00     0.100 A 
ATOM     27  O   UNL     1       1.312 -35.609 -33.471  1.00  0.00    -0.289 OA
BRANCH  18  28
ATOM     28  O   UNL     1      -2.547 -39.212 -36.256  1.00  0.00    -0.490 OA
ATOM     29  C   UNL     1      -2.249 -40.373 -37.022  1.00  0.00     0.278 C 
ENDBRANCH  18  28
BRANCH  21  30
ATOM     30  O   UNL     1       0.310 -37.329 -31.791  1.00  0.00    -0.507 OA
ATOM     31  H   UNL     1       1.310 -37.170 -31.831  1.00  0.00     0.293 HD
ENDBRANCH  21  30
BRANCH  25  32
ATOM     32  C   UNL     1      -0.007 -35.575 -38.099  1.00  0.00     0.017 A 
ATOM     33  C   UNL     1      -1.135 -34.932 -38.642  1.00  0.00     0.012 A 
ATOM     34  C   UNL     1       1.162 -35.670 -38.882  1.00  0.00     0.012 A 
ATOM     35  C   UNL     1      -1.102 -34.416 -39.942  1.00  0.00     0.001 A 
ATOM     36  C   UNL     1       1.188 -35.151 -40.180  1.00  0.00     0.001 A 
ATOM     37  C   UNL     1       0.057 -34.527 -40.711  1.00  0.00     0.000 A 
ENDBRANCH  25  32
ENDBRANCH   1  17
TORSDOF 9
ENDMDL
MODEL 2
REMARK VINA RESULT:    -6.313      1.152      1.880
REMARK INTER + INTRA:         -10.184
REMARK INTER:                  -8.733
REMARK INTRA:                  -1.450
REMARK UNBOUND:                -1.287
REMARK SMILES COc1c(O[C@@H]2O[C@@H](C(=O)[O-])[C@H](O)[C@@H](O)[C@@H]2O)cc(O)c2c(=O)cc(-c3ccccc3)oc12
REMARK SMILES IDX 5 1 6 2 8 3 12 4 7 5 14 6 16 7 9 8 10 9 11 10 13 11 15 13
REMARK SMILES IDX 17 15 4 17 3 18 18 19 33 20 19 21 21 22 32 23 22 24 25 25
REMARK SMILES IDX 24 26 23 27 2 28 1 29 20 30 26 32 27 33 31 34 28 35 30 36
REMARK SMILES IDX 29 37
REMARK H PARENT 13 12 15 14 17 16 20 31
REMARK Flexibility Score: inf
ROOT
ATOM      1  O   UNL     1      -2.456 -40.233 -33.327  1.00  0.00    -0.458 OA
ENDROOT
BRANCH   1   2
ATOM      2  C   UNL     1      -3.772 -40.013 -32.802  1.00  0.00     0.339 C 
ATOM      3  C   UNL     1      -3.666 -41.903 -31.415  1.00  0.00     0.199 C 
ATOM      4  C   UNL     1      -4.747 -42.668 -32.214  1.00  0.00     0.180 C 
ATOM      5  O   UNL     1      -3.880 -40.501 -31.474  1.00  0.00    -0.328 OA
ATOM      6  C   UNL     1      -4.759 -42.180 -33.674  1.00  0.00     0.181 C 
ATOM      7  C   UNL     1      -4.850 -40.645 -33.705  1.00  0.00     0.214 C 
BRANCH   3   8
ATOM      8  C   UNL     1      -3.699 -42.321 -29.974  1.00  0.00     0.073 C 
ATOM      9  O   UNL     1      -4.362 -41.656 -29.135  1.00  0.00    -0.547 OA
ATOM     10  O   UNL     1      -2.967 -43.424 -29.551  1.00  0.00    -0.547 OA
ENDBRANCH   3   8
BRANCH   4  11
ATOM     11  O   UNL     1      -4.477 -44.048 -32.198  1.00  0.00    -0.387 OA
ATOM     12  H   UNL     1      -4.896 -44.416 -31.377  1.00  0.00     0.211 HD
ENDBRANCH   4  11
BRANCH   6  13
ATOM     13  O   UNL     1      -5.864 -42.720 -34.353  1.00  0.00    -0.387 OA
ATOM     14  H   UNL     1      -6.610 -42.766 -33.700  1.00  0.00     0.211 HD
ENDBRANCH   6  13
BRANCH   7  15
ATOM     15  O   UNL     1      -4.772 -40.149 -35.018  1.00  0.00    -0.384 OA
ATOM     16  H   UNL     1      -3.835 -39.866 -35.182  1.00  0.00     0.211 HD
ENDBRANCH   7  15
ENDBRANCH   1   2
BRANCH   1  17
ATOM     17  C   UNL     1      -1.516 -39.227 -33.614  1.00  0.00     0.172 A 
ATOM     18  C   UNL     1      -1.489 -38.624 -34.897  1.00  0.00     0.205 A 
ATOM     19  C   UNL     1      -0.597 -38.796 -32.637  1.00  0.00     0.097 A 
ATOM     20  C   UNL     1      -0.569 -37.597 -35.161  1.00  0.00     0.188 A 
ATOM     21  C   UNL     1       0.326 -37.779 -32.904  1.00  0.00     0.134 A 
ATOM     22  C   UNL     1       0.344 -37.167 -34.172  1.00  0.00     0.111 A 
ATOM     23  O   UNL     1      -0.566 -37.033 -36.367  1.00  0.00    -0.452 OA
ATOM     24  C   UNL     1       1.245 -36.136 -34.515  1.00  0.00     0.197 A 
ATOM     25  C   UNL     1       0.262 -36.053 -36.719  1.00  0.00     0.138 A 
ATOM     26  C   UNL     1       1.203 -35.580 -35.792  1.00  0.00     0.100 A 
ATOM     27  O   UNL     1       2.095 -35.706 -33.689  1.00  0.00    -0.289 OA
BRANCH  18  28
ATOM     28  O   UNL     1      -2.339 -38.997 -35.956  1.00  0.00    -0.490 OA
ATOM     29  C   UNL     1      -2.120 -40.048 -36.889  1.00  0.00     0.278 C 
ENDBRANCH  18  28
BRANCH  21  30
ATOM     30  O   UNL     1       1.216 -37.385 -31.903  1.00  0.00    -0.507 OA
ATOM     31  H   UNL     1       2.085 -36.910 -32.117  1.00  0.00     0.293 HD
ENDBRANCH  21  30
BRANCH  25  32
ATOM     32  C   UNL     1       0.169 -35.502 -38.095  1.00  0.00     0.017 A 
ATOM     33  C   UNL     1       1.274 -35.612 -38.959  1.00  0.00     0.012 A 
ATOM     34  C   UNL     1      -1.010 -34.895 -38.574  1.00  0.00     0.012 A 
ATOM     35  C   UNL     1       1.210 -35.108 -40.262  1.00  0.00     0.001 A 
ATOM     36  C   UNL     1      -1.068 -34.395 -39.878  1.00  0.00     0.001 A 
ATOM     37  C   UNL     1       0.041 -34.498 -40.721  1.00  0.00     0.000 A 
ENDBRANCH  25  32
ENDBRANCH   1  17
TORSDOF 9
ENDMDL
MODEL 3
REMARK VINA RESULT:    -6.244      4.309      7.240
REMARK INTER + INTRA:         -10.086
REMARK INTER:                  -8.682
REMARK INTRA:                  -1.404
REMARK UNBOUND:                -1.287
REMARK SMILES COc1c(O[C@@H]2O[C@@H](C(=O)[O-])[C@H](O)[C@@H](O)[C@@H]2O)cc(O)c2c(=O)cc(-c3ccccc3)oc12
REMARK SMILES IDX 5 1 6 2 8 3 12 4 7 5 14 6 16 7 9 8 10 9 11 10 13 11 15 13
REMARK SMILES IDX 17 15 4 17 3 18 18 19 33 20 19 21 21 22 32 23 22 24 25 25
REMARK SMILES IDX 24 26 23 27 2 28 1 29 20 30 26 32 27 33 31 34 28 35 30 36
REMARK SMILES IDX 29 37
REMARK H PARENT 13 12 15 14 17 16 20 31
REMARK Flexibility Score: inf
ROOT
ATOM      1  O   UNL     1      -6.579 -37.188 -30.384  1.00  0.00    -0.458 OA
ENDROOT
BRANCH   1   2
ATOM      2  C   UNL     1      -7.577 -37.171 -31.413  1.00  0.00     0.339 C 
ATOM      3  C   UNL     1      -7.322 -34.869 -31.793  1.00  0.00     0.199 C 
ATOM      4  C   UNL     1      -8.724 -34.526 -31.239  1.00  0.00     0.180 C 
ATOM      5  O   UNL     1      -7.304 -36.164 -32.375  1.00  0.00    -0.328 OA
ATOM      6  C   UNL     1      -9.155 -35.590 -30.214  1.00  0.00     0.181 C 
ATOM      7  C   UNL     1      -8.990 -36.992 -30.823  1.00  0.00     0.214 C 
BRANCH   3   8
ATOM      8  C   UNL     1      -6.928 -33.877 -32.847  1.00  0.00     0.073 C 
ATOM      9  O   UNL     1      -5.747 -33.443 -32.903  1.00  0.00    -0.547 OA
ATOM     10  O   UNL     1      -7.875 -33.403 -33.748  1.00  0.00    -0.547 OA
ENDBRANCH   3   8
BRANCH   4  11
ATOM     11  O   UNL     1      -8.703 -33.269 -30.608  1.00  0.00    -0.387 OA
ATOM     12  H   UNL     1      -9.605 -32.871 -30.722  1.00  0.00     0.211 HD
ENDBRANCH   4  11
BRANCH   6  13
ATOM     13  O   UNL     1     -10.500 -35.398 -29.856  1.00  0.00    -0.387 OA
ATOM     14  H   UNL     1     -10.937 -34.935 -30.618  1.00  0.00     0.211 HD
ENDBRANCH   6  13
BRANCH   7  15
ATOM     15  O   UNL     1      -9.286 -38.000 -29.889  1.00  0.00    -0.384 OA
ATOM     16  H   UNL     1      -8.431 -38.418 -29.609  1.00  0.00     0.211 HD
ENDBRANCH   7  15
ENDBRANCH   1   2
BRANCH   1  17
ATOM     17  C   UNL     1      -5.653 -38.223 -30.166  1.00  0.00     0.172 A 
ATOM     18  C   UNL     1      -4.482 -38.309 -30.962  1.00  0.00     0.205 A 
ATOM     19  C   UNL     1      -5.862 -39.180 -29.154  1.00  0.00     0.097 A 
ATOM     20  C   UNL     1      -3.548 -39.326 -30.712  1.00  0.00     0.188 A 
ATOM     21  C   UNL     1      -4.935 -40.199 -28.912  1.00  0.00     0.134 A 
ATOM     22  C   UNL     1      -3.764 -40.278 -29.691  1.00  0.00     0.111 A 
ATOM     23  O   UNL     1      -2.448 -39.385 -31.461  1.00  0.00    -0.452 OA
ATOM     24  C   UNL     1      -2.784 -41.276 -29.506  1.00  0.00     0.197 A 
ATOM     25  C   UNL     1      -1.501 -40.306 -31.307  1.00  0.00     0.138 A 
ATOM     26  C   UNL     1      -1.652 -41.290 -30.318  1.00  0.00     0.100 A 
ATOM     27  O   UNL     1      -2.911 -42.165 -28.620  1.00  0.00    -0.289 OA
BRANCH  18  28
ATOM     28  O   UNL     1      -4.187 -37.426 -32.019  1.00  0.00    -0.490 OA
ATOM     29  C   UNL     1      -3.645 -36.116 -31.902  1.00  0.00     0.278 C 
ENDBRANCH  18  28
BRANCH  21  30
ATOM     30  O   UNL     1      -5.186 -41.124 -27.897  1.00  0.00    -0.507 OA
ATOM     31  H   UNL     1      -4.451 -41.459 -27.285  1.00  0.00     0.293 HD
ENDBRANCH  21  30
BRANCH  25  32
ATOM     32  C   UNL     1      -0.318 -40.269 -32.204  1.00  0.00     0.017 A 
ATOM     33  C   UNL     1       0.865 -40.922 -31.814  1.00  0.00     0.012 A 
ATOM     34  C   UNL     1      -0.355 -39.619 -33.455  1.00  0.00     0.012 A 
ATOM     35  C   UNL     1       1.991 -40.907 -32.645  1.00  0.00     0.001 A 
ATOM     36  C   UNL     1       0.774 -39.609 -34.280  1.00  0.00     0.001 A 
ATOM     37  C   UNL     1       1.946 -40.250 -33.875  1.00  0.00     0.000 A 
ENDBRANCH  25  32
ENDBRANCH   1  17
TORSDOF 9
ENDMDL
MODEL 4
REMARK VINA RESULT:    -6.070      1.966      2.183
REMARK INTER + INTRA:          -9.841
REMARK INTER:                  -8.489
REMARK INTRA:                  -1.352
REMARK UNBOUND:                -1.287
REMARK SMILES COc1c(O[C@@H]2O[C@@H](C(=O)[O-])[C@H](O)[C@@H](O)[C@@H]2O)cc(O)c2c(=O)cc(-c3ccccc3)oc12
REMARK SMILES IDX 5 1 6 2 8 3 12 4 7 5 14 6 16 7 9 8 10 9 11 10 13 11 15 13
REMARK SMILES IDX 17 15 4 17 3 18 18 19 33 20 19 21 21 22 32 23 22 24 25 25
REMARK SMILES IDX 24 26 23 27 2 28 1 29 20 30 26 32 27 33 31 34 28 35 30 36
REMARK SMILES IDX 29 37
REMARK H PARENT 13 12 15 14 17 16 20 31
REMARK Flexibility Score: inf
ROOT
ATOM      1  O   UNL     1      -2.099 -40.358 -33.198  1.00  0.00    -0.458 OA
ENDROOT
BRANCH   1   2
ATOM      2  C   UNL     1      -3.044 -39.770 -32.293  1.00  0.00     0.339 C 
ATOM      3  C   UNL     1      -2.346 -41.114 -30.500  1.00  0.00     0.199 C 
ATOM      4  C   UNL     1      -3.676 -41.904 -30.452  1.00  0.00     0.180 C 
ATOM      5  O   UNL     1      -2.555 -39.788 -30.961  1.00  0.00    -0.328 OA
ATOM      6  C   UNL     1      -4.331 -41.908 -31.844  1.00  0.00     0.181 C 
ATOM      7  C   UNL     1      -4.415 -40.469 -32.380  1.00  0.00     0.214 C 
BRANCH   3   8
ATOM      8  C   UNL     1      -1.740 -41.043 -29.130  1.00  0.00     0.073 C 
ATOM      9  O   UNL     1      -2.285 -41.635 -28.161  1.00  0.00    -0.547 OA
ATOM     10  O   UNL     1      -0.591 -40.291 -28.914  1.00  0.00    -0.547 OA
ENDBRANCH   3   8
BRANCH   4  11
ATOM     11  O   UNL     1      -3.436 -43.233 -30.057  1.00  0.00    -0.387 OA
ATOM     12  H   UNL     1      -4.267 -43.561 -29.624  1.00  0.00     0.211 HD
ENDBRANCH   4  11
BRANCH   6  13
ATOM     13  O   UNL     1      -5.626 -42.447 -31.765  1.00  0.00    -0.387 OA
ATOM     14  H   UNL     1      -6.070 -42.259 -32.632  1.00  0.00     0.211 HD
ENDBRANCH   6  13
BRANCH   7  15
ATOM     15  O   UNL     1      -4.925 -40.435 -33.690  1.00  0.00    -0.384 OA
ATOM     16  H   UNL     1      -5.915 -40.413 -33.632  1.00  0.00     0.211 HD
ENDBRANCH   7  15
ENDBRANCH   1   2
BRANCH   1  17
ATOM     17  C   UNL     1      -1.003 -39.693 -33.775  1.00  0.00     0.172 A 
ATOM     18  C   UNL     1      -1.194 -38.851 -34.900  1.00  0.00     0.205 A 
ATOM     19  C   UNL     1       0.293 -39.840 -33.244  1.00  0.00     0.097 A 
ATOM     20  C   UNL     1      -0.098 -38.165 -35.446  1.00  0.00     0.188 A 
ATOM     21  C   UNL     1       1.387 -39.164 -33.795  1.00  0.00     0.134 A 
ATOM     22  C   UNL     1       1.198 -38.314 -34.903  1.00  0.00     0.111 A 
ATOM     23  O   UNL     1      -0.297 -37.369 -36.494  1.00  0.00    -0.452 OA
ATOM     24  C   UNL     1       2.251 -37.600 -35.511  1.00  0.00     0.197 A 
ATOM     25  C   UNL     1       0.672 -36.674 -37.085  1.00  0.00     0.138 A 
ATOM     26  C   UNL     1       1.986 -36.780 -36.606  1.00  0.00     0.100 A 
ATOM     27  O   UNL     1       3.436 -37.690 -35.089  1.00  0.00    -0.289 OA
BRANCH  18  28
ATOM     28  O   UNL     1      -2.438 -38.654 -35.529  1.00  0.00    -0.490 OA
ATOM     29  C   UNL     1      -3.054 -39.515 -36.479  1.00  0.00     0.278 C 
ENDBRANCH  18  28
BRANCH  21  30
ATOM     30  O   UNL     1       2.653 -39.342 -33.234  1.00  0.00    -0.507 OA
ATOM     31  H   UNL     1       3.117 -38.604 -32.716  1.00  0.00     0.293 HD
ENDBRANCH  21  30
BRANCH  25  32
ATOM     32  C   UNL     1       0.326 -35.818 -38.248  1.00  0.00     0.017 A 
ATOM     33  C   UNL     1      -0.893 -35.115 -38.251  1.00  0.00     0.012 A 
ATOM     34  C   UNL     1       1.201 -35.664 -39.343  1.00  0.00     0.012 A 
ATOM     35  C   UNL     1      -1.238 -34.296 -39.331  1.00  0.00     0.001 A 
ATOM     36  C   UNL     1       0.850 -34.842 -40.419  1.00  0.00     0.001 A 
ATOM     37  C   UNL     1      -0.369 -34.161 -40.415  1.00  0.00     0.000 A 
ENDBRANCH  25  32
ENDBRANCH   1  17
TORSDOF 9
ENDMDL
MODEL 5
REMARK VINA RESULT:    -5.926      3.789      7.397
REMARK INTER + INTRA:          -9.638
REMARK INTER:                  -8.873
REMARK INTRA:                  -0.765
REMARK UNBOUND:                -1.287
REMARK SMILES COc1c(O[C@@H]2O[C@@H](C(=O)[O-])[C@H](O)[C@@H](O)[C@@H]2O)cc(O)c2c(=O)cc(-c3ccccc3)oc12
REMARK SMILES IDX 5 1 6 2 8 3 12 4 7 5 14 6 16 7 9 8 10 9 11 10 13 11 15 13
REMARK SMILES IDX 17 15 4 17 3 18 18 19 33 20 19 21 21 22 32 23 22 24 25 25
REMARK SMILES IDX 24 26 23 27 2 28 1 29 20 30 26 32 27 33 31 34 28 35 30 36
REMARK SMILES IDX 29 37
REMARK H PARENT 13 12 15 14 17 16 20 31
REMARK Flexibility Score: inf
ROOT
ATOM      1  O   UNL     1      -5.572 -35.017 -29.676  1.00  0.00    -0.458 OA
ENDROOT
BRANCH   1   2
ATOM      2  C   UNL     1      -6.823 -34.327 -29.555  1.00  0.00     0.339 C 
ATOM      3  C   UNL     1      -7.560 -35.042 -31.666  1.00  0.00     0.199 C 
ATOM      4  C   UNL     1      -7.501 -33.620 -32.273  1.00  0.00     0.180 C 
ATOM      5  O   UNL     1      -7.847 -34.994 -30.276  1.00  0.00    -0.328 OA
ATOM      6  C   UNL     1      -6.450 -32.778 -31.528  1.00  0.00     0.181 C 
ATOM      7  C   UNL     1      -6.701 -32.860 -30.013  1.00  0.00     0.214 C 
BRANCH   3   8
ATOM      8  C   UNL     1      -8.635 -35.845 -32.337  1.00  0.00     0.073 C 
ATOM      9  O   UNL     1      -8.950 -36.981 -31.895  1.00  0.00    -0.547 OA
ATOM     10  O   UNL     1      -9.264 -35.353 -33.475  1.00  0.00    -0.547 OA
ENDBRANCH   3   8
BRANCH   4  11
ATOM     11  O   UNL     1      -7.150 -33.688 -33.633  1.00  0.00    -0.387 OA
ATOM     12  H   UNL     1      -6.504 -34.436 -33.730  1.00  0.00     0.211 HD
ENDBRANCH   4  11
BRANCH   6  13
ATOM     13  O   UNL     1      -6.531 -31.437 -31.937  1.00  0.00    -0.387 OA
ATOM     14  H   UNL     1      -6.461 -31.433 -32.927  1.00  0.00     0.211 HD
ENDBRANCH   6  13
BRANCH   7  15
ATOM     15  O   UNL     1      -5.708 -32.178 -29.288  1.00  0.00    -0.384 OA
ATOM     16  H   UNL     1      -5.862 -32.352 -28.323  1.00  0.00     0.211 HD
ENDBRANCH   7  15
ENDBRANCH   1   2
BRANCH   1  17
ATOM     17  C   UNL     1      -5.421 -36.370 -30.031  1.00  0.00     0.172 A 
ATOM     18  C   UNL     1      -4.681 -36.723 -31.188  1.00  0.00     0.205 A 
ATOM     19  C   UNL     1      -5.987 -37.392 -29.245  1.00  0.00     0.097 A 
ATOM     20  C   UNL     1      -4.508 -38.077 -31.513  1.00  0.00     0.188 A 
ATOM     21  C   UNL     1      -5.822 -38.741 -29.575  1.00  0.00     0.134 A 
ATOM     22  C   UNL     1      -5.074 -39.095 -30.715  1.00  0.00     0.111 A 
ATOM     23  O   UNL     1      -3.799 -38.391 -32.596  1.00  0.00    -0.452 OA
ATOM     24  C   UNL     1      -4.865 -40.433 -31.111  1.00  0.00     0.197 A 
ATOM     25  C   UNL     1      -3.574 -39.641 -32.992  1.00  0.00     0.138 A 
ATOM     26  C   UNL     1      -4.114 -40.705 -32.253  1.00  0.00     0.100 A 
ATOM     27  O   UNL     1      -5.347 -41.396 -30.454  1.00  0.00    -0.289 OA
BRANCH  18  28
ATOM     28  O   UNL     1      -4.097 -35.785 -32.061  1.00  0.00    -0.490 OA
ATOM     29  C   UNL     1      -2.840 -35.140 -31.896  1.00  0.00     0.278 C 
ENDBRANCH  18  28
BRANCH  21  30
ATOM     30  O   UNL     1      -6.402 -39.718 -28.764  1.00  0.00    -0.507 OA
ATOM     31  H   UNL     1      -6.403 -39.643 -27.753  1.00  0.00     0.293 HD
ENDBRANCH  21  30
BRANCH  25  32
ATOM     32  C   UNL     1      -2.767 -39.866 -34.218  1.00  0.00     0.017 A 
ATOM     33  C   UNL     1      -3.414 -39.952 -35.465  1.00  0.00     0.012 A 
ATOM     34  C   UNL     1      -1.362 -39.968 -34.173  1.00  0.00     0.012 A 
ATOM     35  C   UNL     1      -2.675 -40.156 -36.635  1.00  0.00     0.001 A 
ATOM     36  C   UNL     1      -0.630 -40.171 -35.347  1.00  0.00     0.001 A 
ATOM     37  C   UNL     1      -1.285 -40.267 -36.576  1.00  0.00     0.000 A 
ENDBRANCH  25  32
ENDBRANCH   1  17
TORSDOF 9
ENDMDL
MODEL 6
REMARK VINA RESULT:    -5.896      3.203      6.166
REMARK INTER + INTRA:          -9.596
REMARK INTER:                  -8.406
REMARK INTRA:                  -1.189
REMARK UNBOUND:                -1.287
REMARK SMILES COc1c(O[C@@H]2O[C@@H](C(=O)[O-])[C@H](O)[C@@H](O)[C@@H]2O)cc(O)c2c(=O)cc(-c3ccccc3)oc12
REMARK SMILES IDX 5 1 6 2 8 3 12 4 7 5 14 6 16 7 9 8 10 9 11 10 13 11 15 13
REMARK SMILES IDX 17 15 4 17 3 18 18 19 33 20 19 21 21 22 32 23 22 24 25 25
REMARK SMILES IDX 24 26 23 27 2 28 1 29 20 30 26 32 27 33 31 34 28 35 30 36
REMARK SMILES IDX 29 37
REMARK H PARENT 13 12 15 14 17 16 20 31
REMARK Flexibility Score: inf
ROOT
ATOM      1  O   UNL     1      -5.698 -37.587 -31.066  1.00  0.00    -0.458 OA
ENDROOT
BRANCH   1   2
ATOM      2  C   UNL     1      -7.115 -37.628 -30.852  1.00  0.00     0.339 C 
ATOM      3  C   UNL     1      -7.455 -35.555 -31.899  1.00  0.00     0.199 C 
ATOM      4  C   UNL     1      -7.866 -34.851 -30.584  1.00  0.00     0.180 C 
ATOM      5  O   UNL     1      -7.808 -36.930 -31.875  1.00  0.00    -0.328 OA
ATOM      6  C   UNL     1      -7.210 -35.561 -29.386  1.00  0.00     0.181 C 
ATOM      7  C   UNL     1      -7.489 -37.071 -29.464  1.00  0.00     0.214 C 
BRANCH   3   8
ATOM      8  C   UNL     1      -8.150 -34.915 -33.065  1.00  0.00     0.073 C 
ATOM      9  O   UNL     1      -9.237 -35.385 -33.493  1.00  0.00    -0.547 OA
ATOM     10  O   UNL     1      -7.579 -33.820 -33.702  1.00  0.00    -0.547 OA
ENDBRANCH   3   8
BRANCH   4  11
ATOM     11  O   UNL     1      -7.448 -33.509 -30.602  1.00  0.00    -0.387 OA
ATOM     12  H   UNL     1      -8.131 -32.985 -30.107  1.00  0.00     0.211 HD
ENDBRANCH   4  11
BRANCH   6  13
ATOM     13  O   UNL     1      -7.733 -35.056 -28.184  1.00  0.00    -0.387 OA
ATOM     14  H   UNL     1      -6.960 -34.771 -27.631  1.00  0.00     0.211 HD
ENDBRANCH   6  13
BRANCH   7  15
ATOM     15  O   UNL     1      -6.832 -37.771 -28.437  1.00  0.00    -0.384 OA
ATOM     16  H   UNL     1      -6.075 -37.212 -28.122  1.00  0.00     0.211 HD
ENDBRANCH   7  15
ENDBRANCH   1   2
BRANCH   1  17
ATOM     17  C   UNL     1      -4.995 -38.363 -32.005  1.00  0.00     0.172 A 
ATOM     18  C   UNL     1      -3.634 -38.080 -32.285  1.00  0.00     0.205 A 
ATOM     19  C   UNL     1      -5.620 -39.435 -32.671  1.00  0.00     0.097 A 
ATOM     20  C   UNL     1      -2.933 -38.883 -33.197  1.00  0.00     0.188 A 
ATOM     21  C   UNL     1      -4.924 -40.228 -33.588  1.00  0.00     0.134 A 
ATOM     22  C   UNL     1      -3.567 -39.960 -33.856  1.00  0.00     0.111 A 
ATOM     23  O   UNL     1      -1.651 -38.611 -33.439  1.00  0.00    -0.452 OA
ATOM     24  C   UNL     1      -2.800 -40.716 -34.767  1.00  0.00     0.197 A 
ATOM     25  C   UNL     1      -0.897 -39.309 -34.284  1.00  0.00     0.138 A 
ATOM     26  C   UNL     1      -1.462 -40.388 -34.981  1.00  0.00     0.100 A 
ATOM     27  O   UNL     1      -3.299 -41.686 -35.400  1.00  0.00    -0.289 OA
BRANCH  18  28
ATOM     28  O   UNL     1      -2.918 -37.017 -31.701  1.00  0.00    -0.490 OA
ATOM     29  C   UNL     1      -3.066 -35.633 -31.994  1.00  0.00     0.278 C 
ENDBRANCH  18  28
BRANCH  21  30
ATOM     30  O   UNL     1      -5.587 -41.280 -34.223  1.00  0.00    -0.507 OA
ATOM     31  H   UNL     1      -5.894 -41.215 -35.186  1.00  0.00     0.293 HD
ENDBRANCH  21  30
BRANCH  25  32
ATOM     32  C   UNL     1       0.521 -38.910 -34.469  1.00  0.00     0.017 A 
ATOM     33  C   UNL     1       1.544 -39.804 -34.105  1.00  0.00     0.012 A 
ATOM     34  C   UNL     1       0.874 -37.666 -35.031  1.00  0.00     0.012 A 
ATOM     35  C   UNL     1       2.888 -39.455 -34.277  1.00  0.00     0.001 A 
ATOM     36  C   UNL     1       2.219 -37.323 -35.201  1.00  0.00     0.001 A 
ATOM     37  C   UNL     1       3.225 -38.215 -34.822  1.00  0.00     0.000 A 
ENDBRANCH  25  32
ENDBRANCH   1  17
TORSDOF 9
ENDMDL
MODEL 7
REMARK VINA RESULT:    -5.780      4.480      7.285
REMARK INTER + INTRA:          -9.432
REMARK INTER:                  -8.134
REMARK INTRA:                  -1.298
REMARK UNBOUND:                -1.287
REMARK SMILES COc1c(O[C@@H]2O[C@@H](C(=O)[O-])[C@H](O)[C@@H](O)[C@@H]2O)cc(O)c2c(=O)cc(-c3ccccc3)oc12
REMARK SMILES IDX 5 1 6 2 8 3 12 4 7 5 14 6 16 7 9 8 10 9 11 10 13 11 15 13
REMARK SMILES IDX 17 15 4 17 3 18 18 19 33 20 19 21 21 22 32 23 22 24 25 25
REMARK SMILES IDX 24 26 23 27 2 28 1 29 20 30 26 32 27 33 31 34 28 35 30 36
REMARK SMILES IDX 29 37
REMARK H PARENT 13 12 15 14 17 16 20 31
REMARK Flexibility Score: inf
ROOT
ATOM      1  O   UNL     1      -5.720 -36.552 -31.966  1.00  0.00    -0.458 OA
ENDROOT
BRANCH   1   2
ATOM      2  C   UNL     1      -6.026 -35.421 -31.140  1.00  0.00     0.339 C 
ATOM      3  C   UNL     1      -8.328 -35.877 -31.158  1.00  0.00     0.199 C 
ATOM      4  C   UNL     1      -8.667 -34.620 -31.994  1.00  0.00     0.180 C 
ATOM      5  O   UNL     1      -7.181 -35.661 -30.351  1.00  0.00    -0.328 OA
ATOM      6  C   UNL     1      -7.457 -34.228 -32.860  1.00  0.00     0.181 C 
ATOM      7  C   UNL     1      -6.198 -34.140 -31.981  1.00  0.00     0.214 C 
BRANCH   3   8
ATOM      8  C   UNL     1      -9.477 -36.220 -30.256  1.00  0.00     0.073 C 
ATOM      9  O   UNL     1     -10.283 -35.327 -29.886  1.00  0.00    -0.547 OA
ATOM     10  O   UNL     1      -9.636 -37.522 -29.794  1.00  0.00    -0.547 OA
ENDBRANCH   3   8
BRANCH   4  11
ATOM     11  O   UNL     1      -9.764 -34.878 -32.834  1.00  0.00    -0.387 OA
ATOM     12  H   UNL     1      -9.579 -35.735 -33.301  1.00  0.00     0.211 HD
ENDBRANCH   4  11
BRANCH   6  13
ATOM     13  O   UNL     1      -7.683 -32.982 -33.467  1.00  0.00    -0.387 OA
ATOM     14  H   UNL     1      -8.395 -32.531 -32.943  1.00  0.00     0.211 HD
ENDBRANCH   6  13
BRANCH   7  15
ATOM     15  O   UNL     1      -5.050 -33.874 -32.748  1.00  0.00    -0.384 OA
ATOM     16  H   UNL     1      -5.339 -33.427 -33.584  1.00  0.00     0.211 HD
ENDBRANCH   7  15
ENDBRANCH   1   2
BRANCH   1  17
ATOM     17  C   UNL     1      -5.069 -37.722 -31.535  1.00  0.00     0.172 A 
ATOM     18  C   UNL     1      -3.708 -37.942 -31.869  1.00  0.00     0.205 A 
ATOM     19  C   UNL     1      -5.746 -38.684 -30.762  1.00  0.00     0.097 A 
ATOM     20  C   UNL     1      -3.060 -39.096 -31.405  1.00  0.00     0.188 A 
ATOM     21  C   UNL     1      -5.102 -39.838 -30.307  1.00  0.00     0.134 A 
ATOM     22  C   UNL     1      -3.746 -40.053 -30.623  1.00  0.00     0.111 A 
ATOM     23  O   UNL     1      -1.778 -39.282 -31.717  1.00  0.00    -0.452 OA
ATOM     24  C   UNL     1      -3.029 -41.192 -30.201  1.00  0.00     0.197 A 
ATOM     25  C   UNL     1      -1.071 -40.339 -31.327  1.00  0.00     0.138 A 
ATOM     26  C   UNL     1      -1.689 -41.335 -30.556  1.00  0.00     0.100 A 
ATOM     27  O   UNL     1      -3.577 -42.094 -29.510  1.00  0.00    -0.289 OA
BRANCH  18  28
ATOM     28  O   UNL     1      -2.944 -37.064 -32.661  1.00  0.00    -0.490 OA
ATOM     29  C   UNL     1      -2.235 -35.916 -32.210  1.00  0.00     0.278 C 
ENDBRANCH  18  28
BRANCH  21  30
ATOM     30  O   UNL     1      -5.816 -40.763 -29.542  1.00  0.00    -0.507 OA
ATOM     31  H   UNL     1      -6.783 -40.989 -29.742  1.00  0.00     0.293 HD
ENDBRANCH  21  30
BRANCH  25  32
ATOM     32  C   UNL     1       0.353 -40.434 -31.738  1.00  0.00     0.017 A 
ATOM     33  C   UNL     1       0.678 -40.448 -33.107  1.00  0.00     0.012 A 
ATOM     34  C   UNL     1       1.397 -40.482 -30.791  1.00  0.00     0.012 A 
ATOM     35  C   UNL     1       2.012 -40.529 -33.519  1.00  0.00     0.001 A 
ATOM     36  C   UNL     1       2.728 -40.562 -31.210  1.00  0.00     0.001 A 
ATOM     37  C   UNL     1       3.036 -40.589 -32.572  1.00  0.00     0.000 A 
ENDBRANCH  25  32
ENDBRANCH   1  17
TORSDOF 9
ENDMDL
MODEL 8
REMARK VINA RESULT:    -5.698      1.841      3.148
REMARK INTER + INTRA:          -9.317
REMARK INTER:                  -7.895
REMARK INTRA:                  -1.422
REMARK UNBOUND:                -1.287
REMARK SMILES COc1c(O[C@@H]2O[C@@H](C(=O)[O-])[C@H](O)[C@@H](O)[C@@H]2O)cc(O)c2c(=O)cc(-c3ccccc3)oc12
REMARK SMILES IDX 5 1 6 2 8 3 12 4 7 5 14 6 16 7 9 8 10 9 11 10 13 11 15 13
REMARK SMILES IDX 17 15 4 17 3 18 18 19 33 20 19 21 21 22 32 23 22 24 25 25
REMARK SMILES IDX 24 26 23 27 2 28 1 29 20 30 26 32 27 33 31 34 28 35 30 36
REMARK SMILES IDX 29 37
REMARK H PARENT 13 12 15 14 17 16 20 31
REMARK Flexibility Score: inf
ROOT
ATOM      1  O   UNL     1      -2.952 -40.447 -33.660  1.00  0.00    -0.458 OA
ENDROOT
BRANCH   1   2
ATOM      2  C   UNL     1      -4.382 -40.393 -33.756  1.00  0.00     0.339 C 
ATOM      3  C   UNL     1      -4.649 -40.146 -31.437  1.00  0.00     0.199 C 
ATOM      4  C   UNL     1      -5.297 -41.540 -31.268  1.00  0.00     0.180 C 
ATOM      5  O   UNL     1      -4.935 -39.600 -32.716  1.00  0.00    -0.328 OA
ATOM      6  C   UNL     1      -4.809 -42.482 -32.383  1.00  0.00     0.181 C 
ATOM      7  C   UNL     1      -4.999 -41.805 -33.751  1.00  0.00     0.214 C 
BRANCH   3   8
ATOM      8  C   UNL     1      -5.179 -39.202 -30.398  1.00  0.00     0.073 C 
ATOM      9  O   UNL     1      -5.976 -38.283 -30.721  1.00  0.00    -0.547 OA
ATOM     10  O   UNL     1      -4.763 -39.315 -29.076  1.00  0.00    -0.547 OA
ENDBRANCH   3   8
BRANCH   4  11
ATOM     11  O   UNL     1      -4.947 -42.090 -30.022  1.00  0.00    -0.387 OA
ATOM     12  H   UNL     1      -5.587 -41.729 -29.354  1.00  0.00     0.211 HD
ENDBRANCH   4  11
BRANCH   6  13
ATOM     13  O   UNL     1      -5.540 -43.680 -32.355  1.00  0.00    -0.387 OA
ATOM     14  H   UNL     1      -5.294 -44.149 -31.516  1.00  0.00     0.211 HD
ENDBRANCH   6  13
BRANCH   7  15
ATOM     15  O   UNL     1      -4.481 -42.593 -34.794  1.00  0.00    -0.384 OA
ATOM     16  H   UNL     1      -4.355 -42.009 -35.585  1.00  0.00     0.211 HD
ENDBRANCH   7  15
ENDBRANCH   1   2
BRANCH   1  17
ATOM     17  C   UNL     1      -2.054 -39.778 -34.511  1.00  0.00     0.172 A 
ATOM     18  C   UNL     1      -1.799 -38.395 -34.329  1.00  0.00     0.205 A 
ATOM     19  C   UNL     1      -1.389 -40.465 -35.544  1.00  0.00     0.097 A 
ATOM     20  C   UNL     1      -0.875 -37.746 -35.162  1.00  0.00     0.188 A 
ATOM     21  C   UNL     1      -0.476 -39.815 -36.381  1.00  0.00     0.134 A 
ATOM     22  C   UNL     1      -0.207 -38.445 -36.193  1.00  0.00     0.111 A 
ATOM     23  O   UNL     1      -0.637 -36.450 -34.969  1.00  0.00    -0.452 OA
ATOM     24  C   UNL     1       0.701 -37.723 -36.995  1.00  0.00     0.197 A 
ATOM     25  C   UNL     1       0.219 -35.742 -35.701  1.00  0.00     0.138 A 
ATOM     26  C   UNL     1       0.912 -36.368 -36.749  1.00  0.00     0.100 A 
ATOM     27  O   UNL     1       1.327 -38.276 -37.940  1.00  0.00    -0.289 OA
BRANCH  18  28
ATOM     28  O   UNL     1      -2.428 -37.604 -33.349  1.00  0.00    -0.490 OA
ATOM     29  C   UNL     1      -2.064 -37.504 -31.978  1.00  0.00     0.278 C 
ENDBRANCH  18  28
BRANCH  21  30
ATOM     30  O   UNL     1       0.160 -40.539 -37.391  1.00  0.00    -0.507 OA
ATOM     31  H   UNL     1      -0.211 -41.419 -37.733  1.00  0.00     0.293 HD
ENDBRANCH  21  30
BRANCH  25  32
ATOM     32  C   UNL     1       0.401 -34.301 -35.390  1.00  0.00     0.017 A 
ATOM     33  C   UNL     1      -0.356 -33.342 -36.088  1.00  0.00     0.012 A 
ATOM     34  C   UNL     1       1.294 -33.865 -34.389  1.00  0.00     0.012 A 
ATOM     35  C   UNL     1      -0.209 -31.980 -35.808  1.00  0.00     0.001 A 
ATOM     36  C   UNL     1       1.435 -32.501 -34.114  1.00  0.00     0.001 A 
ATOM     37  C   UNL     1       0.687 -31.559 -34.824  1.00  0.00     0.000 A 
ENDBRANCH  25  32
ENDBRANCH   1  17
TORSDOF 9
ENDMDL
MODEL 9
REMARK VINA RESULT:    -5.673      2.173      8.365
REMARK INTER + INTRA:          -9.281
REMARK INTER:                  -8.263
REMARK INTRA:                  -1.019
REMARK UNBOUND:                -1.287
REMARK SMILES COc1c(O[C@@H]2O[C@@H](C(=O)[O-])[C@H](O)[C@@H](O)[C@@H]2O)cc(O)c2c(=O)cc(-c3ccccc3)oc12
REMARK SMILES IDX 5 1 6 2 8 3 12 4 7 5 14 6 16 7 9 8 10 9 11 10 13 11 15 13
REMARK SMILES IDX 17 15 4 17 3 18 18 19 33 20 19 21 21 22 32 23 22 24 25 25
REMARK SMILES IDX 24 26 23 27 2 28 1 29 20 30 26 32 27 33 31 34 28 35 30 36
REMARK SMILES IDX 29 37
REMARK H PARENT 13 12 15 14 17 16 20 31
REMARK Flexibility Score: inf
ROOT
ATOM      1  O   UNL     1      -0.311 -36.501 -36.442  1.00  0.00    -0.458 OA
ENDROOT
BRANCH   1   2
ATOM      2  C   UNL     1       0.290 -35.208 -36.592  1.00  0.00     0.339 C 
ATOM      3  C   UNL     1      -1.463 -34.415 -37.936  1.00  0.00     0.199 C 
ATOM      4  C   UNL     1      -0.578 -34.327 -39.202  1.00  0.00     0.180 C 
ATOM      5  O   UNL     1      -0.697 -34.202 -36.760  1.00  0.00    -0.328 OA
ATOM      6  C   UNL     1       0.571 -35.346 -39.108  1.00  0.00     0.181 C 
ATOM      7  C   UNL     1       1.295 -35.187 -37.760  1.00  0.00     0.214 C 
BRANCH   3   8
ATOM      8  C   UNL     1      -2.541 -33.373 -37.987  1.00  0.00     0.073 C 
ATOM      9  O   UNL     1      -3.539 -33.527 -38.739  1.00  0.00    -0.547 OA
ATOM     10  O   UNL     1      -2.425 -32.212 -37.231  1.00  0.00    -0.547 OA
ENDBRANCH   3   8
BRANCH   4  11
ATOM     11  O   UNL     1      -1.342 -34.606 -40.348  1.00  0.00    -0.387 OA
ATOM     12  H   UNL     1      -2.175 -34.070 -40.281  1.00  0.00     0.211 HD
ENDBRANCH   4  11
BRANCH   6  13
ATOM     13  O   UNL     1       1.487 -35.136 -40.151  1.00  0.00    -0.387 OA
ATOM     14  H   UNL     1       2.305 -35.652 -39.925  1.00  0.00     0.211 HD
ENDBRANCH   6  13
BRANCH   7  15
ATOM     15  O   UNL     1       2.295 -36.160 -37.593  1.00  0.00    -0.384 OA
ATOM     16  H   UNL     1       3.169 -35.738 -37.795  1.00  0.00     0.211 HD
ENDBRANCH   7  15
ENDBRANCH   1   2
BRANCH   1  17
ATOM     17  C   UNL     1      -0.712 -37.076 -35.223  1.00  0.00     0.172 A 
ATOM     18  C   UNL     1      -1.698 -38.096 -35.208  1.00  0.00     0.205 A 
ATOM     19  C   UNL     1      -0.141 -36.661 -34.005  1.00  0.00     0.097 A 
ATOM     20  C   UNL     1      -2.065 -38.686 -33.989  1.00  0.00     0.188 A 
ATOM     21  C   UNL     1      -0.515 -37.242 -32.789  1.00  0.00     0.134 A 
ATOM     22  C   UNL     1      -1.481 -38.267 -32.772  1.00  0.00     0.111 A 
ATOM     23  O   UNL     1      -2.982 -39.652 -33.995  1.00  0.00    -0.452 OA
ATOM     24  C   UNL     1      -1.909 -38.901 -31.587  1.00  0.00     0.197 A 
ATOM     25  C   UNL     1      -3.400 -40.276 -32.897  1.00  0.00     0.138 A 
ATOM     26  C   UNL     1      -2.872 -39.907 -31.651  1.00  0.00     0.100 A 
ATOM     27  O   UNL     1      -1.441 -38.575 -30.462  1.00  0.00    -0.289 OA
BRANCH  18  28
ATOM     28  O   UNL     1      -2.355 -38.567 -36.361  1.00  0.00    -0.490 OA
ATOM     29  C   UNL     1      -2.262 -39.874 -36.916  1.00  0.00     0.278 C 
ENDBRANCH  18  28
BRANCH  21  30
ATOM     30  O   UNL     1       0.080 -36.797 -31.607  1.00  0.00    -0.507 OA
ATOM     31  H   UNL     1       1.082 -36.845 -31.462  1.00  0.00     0.293 HD
ENDBRANCH  21  30
BRANCH  25  32
ATOM     32  C   UNL     1      -4.429 -41.339 -33.030  1.00  0.00     0.017 A 
ATOM     33  C   UNL     1      -4.746 -41.839 -34.306  1.00  0.00     0.012 A 
ATOM     34  C   UNL     1      -5.080 -41.887 -31.905  1.00  0.00     0.012 A 
ATOM     35  C   UNL     1      -5.705 -42.845 -34.457  1.00  0.00     0.001 A 
ATOM     36  C   UNL     1      -6.038 -42.893 -32.064  1.00  0.00     0.001 A 
ATOM     37  C   UNL     1      -6.352 -43.370 -33.338  1.00  0.00     0.000 A 
ENDBRANCH  25  32
ENDBRANCH   1  17
TORSDOF 9
ENDMDL
