MODEL 1
REMARK VINA RESULT:    -4.574      0.000      0.000
REMARK INTER + INTRA:          -6.945
REMARK INTER:                  -6.713
REMARK INTRA:                  -0.232
REMARK UNBOUND:                -0.232
REMARK SMILES O=C([O-])CCCCCCCC(=O)[O-]
REMARK SMILES IDX 7 1 6 2 5 3 4 4 2 5 1 6 3 7 8 8 9 9 10 10 11 11 12 12 13 13
REMARK H PARENT
REMARK Flexibility Score: inf
ROOT
ATOM      1  C   UNL     1      43.466  12.347 -34.362  1.00  0.00     0.000 C 
ENDROOT
BRANCH   1   2
ATOM      2  C   UNL     1      43.259  11.973 -35.834  1.00  0.00     0.000 C 
BRANCH   2   3
ATOM      3  C   UNL     1      42.167  12.837 -36.474  1.00  0.00     0.006 C 
BRANCH   3   4
ATOM      4  C   UNL     1      40.799  12.543 -35.853  1.00  0.00     0.053 C 
BRANCH   4   5
ATOM      5  C   UNL     1      39.972  13.789 -35.793  1.00  0.00     0.041 C 
ATOM      6  O   UNL     1      38.723  13.715 -35.657  1.00  0.00    -0.550 OA
ATOM      7  O   UNL     1      40.587  15.034 -35.838  1.00  0.00    -0.550 OA
ENDBRANCH   4   5
ENDBRANCH   3   4
ENDBRANCH   2   3
ENDBRANCH   1   2
BRANCH   1   8
ATOM      8  C   UNL     1      44.959  12.423 -34.017  1.00  0.00     0.000 C 
BRANCH   8   9
ATOM      9  C   UNL     1      45.172  13.025 -32.623  1.00  0.00     0.006 C 
BRANCH   9  10
ATOM     10  C   UNL     1      46.091  12.139 -31.777  1.00  0.00     0.053 C 
BRANCH  10  11
ATOM     11  C   UNL     1      46.073  12.579 -30.348  1.00  0.00     0.041 C 
ATOM     12  O   UNL     1      45.423  13.602 -30.008  1.00  0.00    -0.550 OA
ATOM     13  O   UNL     1      46.816  11.888 -29.398  1.00  0.00    -0.550 OA
ENDBRANCH  10  11
ENDBRANCH   9  10
ENDBRANCH   8   9
ENDBRANCH   1   8
TORSDOF 8
ENDMDL
MODEL 2
REMARK VINA RESULT:    -4.425      0.591      6.865
REMARK INTER + INTRA:          -6.727
REMARK INTER:                  -6.648
REMARK INTRA:                  -0.079
REMARK UNBOUND:                -0.232
REMARK SMILES O=C([O-])CCCCCCCC(=O)[O-]
REMARK SMILES IDX 7 1 6 2 5 3 4 4 2 5 1 6 3 7 8 8 9 9 10 10 11 11 12 12 13 13
REMARK H PARENT
REMARK Flexibility Score: inf
ROOT
ATOM      1  C   UNL     1      44.360  12.623 -34.659  1.00  0.00     0.000 C 
ENDROOT
BRANCH   1   2
ATOM      2  C   UNL     1      44.496  12.591 -33.133  1.00  0.00     0.000 C 
BRANCH   2   3
ATOM      3  C   UNL     1      45.959  12.764 -32.707  1.00  0.00     0.006 C 
BRANCH   3   4
ATOM      4  C   UNL     1      46.290  11.875 -31.505  1.00  0.00     0.053 C 
BRANCH   4   5
ATOM      5  C   UNL     1      45.981  12.588 -30.226  1.00  0.00     0.041 C 
ATOM      6  O   UNL     1      46.433  12.153 -29.134  1.00  0.00    -0.550 OA
ATOM      7  O   UNL     1      45.235  13.759 -30.245  1.00  0.00    -0.550 OA
ENDBRANCH   4   5
ENDBRANCH   3   4
ENDBRANCH   2   3
ENDBRANCH   1   2
BRANCH   1   8
ATOM      8  C   UNL     1      43.060  11.944 -35.110  1.00  0.00     0.000 C 
BRANCH   8   9
ATOM      9  C   UNL     1      42.304  12.818 -36.118  1.00  0.00     0.006 C 
BRANCH   9  10
ATOM     10  C   UNL     1      40.791  12.726 -35.897  1.00  0.00     0.053 C 
BRANCH  10  11
ATOM     11  C   UNL     1      40.200  14.091 -35.742  1.00  0.00     0.041 C 
ATOM     12  O   UNL     1      39.002  14.225 -35.377  1.00  0.00    -0.550 OA
ATOM     13  O   UNL     1      40.957  15.216 -36.048  1.00  0.00    -0.550 OA
ENDBRANCH  10  11
ENDBRANCH   9  10
ENDBRANCH   8   9
ENDBRANCH   1   8
TORSDOF 8
ENDMDL
MODEL 3
REMARK VINA RESULT:    -3.694     19.772     21.481
REMARK INTER + INTRA:          -5.653
REMARK INTER:                  -5.140
REMARK INTRA:                  -0.514
REMARK UNBOUND:                -0.232
REMARK SMILES O=C([O-])CCCCCCCC(=O)[O-]
REMARK SMILES IDX 7 1 6 2 5 3 4 4 2 5 1 6 3 7 8 8 9 9 10 10 11 11 12 12 13 13
REMARK H PARENT
REMARK Flexibility Score: inf
ROOT
ATOM      1  C   UNL     1      55.625  27.825 -35.713  1.00  0.00     0.000 C 
ENDROOT
BRANCH   1   2
ATOM      2  C   UNL     1      55.751  27.143 -34.346  1.00  0.00     0.000 C 
BRANCH   2   3
ATOM      3  C   UNL     1      56.745  27.889 -33.448  1.00  0.00     0.006 C 
BRANCH   3   4
ATOM      4  C   UNL     1      56.205  28.018 -32.021  1.00  0.00     0.053 C 
BRANCH   4   5
ATOM      5  C   UNL     1      55.804  29.432 -31.739  1.00  0.00     0.041 C 
ATOM      6  O   UNL     1      55.590  29.805 -30.556  1.00  0.00    -0.550 OA
ATOM      7  O   UNL     1      55.715  30.350 -32.778  1.00  0.00    -0.550 OA
ENDBRANCH   4   5
ENDBRANCH   3   4
ENDBRANCH   2   3
ENDBRANCH   1   2
BRANCH   1   8
ATOM      8  C   UNL     1      56.640  28.967 -35.855  1.00  0.00     0.000 C 
BRANCH   8   9
ATOM      9  C   UNL     1      55.985  30.213 -36.463  1.00  0.00     0.006 C 
BRANCH   9  10
ATOM     10  C   UNL     1      54.939  29.825 -37.513  1.00  0.00     0.053 C 
BRANCH  10  11
ATOM     11  C   UNL     1      54.337  31.048 -38.129  1.00  0.00     0.041 C 
ATOM     12  O   UNL     1      54.929  31.640 -39.069  1.00  0.00    -0.550 OA
ATOM     13  O   UNL     1      53.146  31.563 -37.633  1.00  0.00    -0.550 OA
ENDBRANCH  10  11
ENDBRANCH   9  10
ENDBRANCH   8   9
ENDBRANCH   1   8
TORSDOF 8
ENDMDL
MODEL 4
REMARK VINA RESULT:    -3.685     19.485     20.338
REMARK INTER + INTRA:          -5.640
REMARK INTER:                  -5.189
REMARK INTRA:                  -0.451
REMARK UNBOUND:                -0.232
REMARK SMILES O=C([O-])CCCCCCCC(=O)[O-]
REMARK SMILES IDX 7 1 6 2 5 3 4 4 2 5 1 6 3 7 8 8 9 9 10 10 11 11 12 12 13 13
REMARK H PARENT
REMARK Flexibility Score: inf
ROOT
ATOM      1  C   UNL     1      56.164  27.041 -34.383  1.00  0.00     0.000 C 
ENDROOT
BRANCH   1   2
ATOM      2  C   UNL     1      55.618  27.407 -35.768  1.00  0.00     0.000 C 
BRANCH   2   3
ATOM      3  C   UNL     1      55.858  28.888 -36.081  1.00  0.00     0.006 C 
BRANCH   3   4
ATOM      4  C   UNL     1      55.893  29.132 -37.592  1.00  0.00     0.053 C 
BRANCH   4   5
ATOM      5  C   UNL     1      54.508  29.320 -38.125  1.00  0.00     0.041 C 
ATOM      6  O   UNL     1      53.921  30.426 -37.987  1.00  0.00    -0.550 OA
ATOM      7  O   UNL     1      53.882  28.290 -38.816  1.00  0.00    -0.550 OA
ENDBRANCH   4   5
ENDBRANCH   3   4
ENDBRANCH   2   3
ENDBRANCH   1   2
BRANCH   1   8
ATOM      8  C   UNL     1      57.080  28.147 -33.842  1.00  0.00     0.000 C 
BRANCH   8   9
ATOM      9  C   UNL     1      57.125  28.122 -32.310  1.00  0.00     0.006 C 
BRANCH   9  10
ATOM     10  C   UNL     1      55.735  28.373 -31.715  1.00  0.00     0.053 C 
BRANCH  10  11
ATOM     11  C   UNL     1      55.629  29.774 -31.205  1.00  0.00     0.041 C 
ATOM     12  O   UNL     1      56.163  30.092 -30.110  1.00  0.00    -0.550 OA
ATOM     13  O   UNL     1      54.897  30.719 -31.914  1.00  0.00    -0.550 OA
ENDBRANCH  10  11
ENDBRANCH   9  10
ENDBRANCH   8   9
ENDBRANCH   1   8
TORSDOF 8
ENDMDL
MODEL 5
REMARK VINA RESULT:    -3.668     19.605     21.220
REMARK INTER + INTRA:          -5.616
REMARK INTER:                  -4.838
REMARK INTRA:                  -0.778
REMARK UNBOUND:                -0.232
REMARK SMILES O=C([O-])CCCCCCCC(=O)[O-]
REMARK SMILES IDX 7 1 6 2 5 3 4 4 2 5 1 6 3 7 8 8 9 9 10 10 11 11 12 12 13 13
REMARK H PARENT
REMARK Flexibility Score: inf
ROOT
ATOM      1  C   UNL     1      55.762  28.591 -31.283  1.00  0.00     0.000 C 
ENDROOT
BRANCH   1   2
ATOM      2  C   UNL     1      55.923  29.820 -30.383  1.00  0.00     0.000 C 
BRANCH   2   3
ATOM      3  C   UNL     1      56.128  31.090 -31.216  1.00  0.00     0.006 C 
BRANCH   3   4
ATOM      4  C   UNL     1      55.034  31.233 -32.278  1.00  0.00     0.053 C 
BRANCH   4   5
ATOM      5  C   UNL     1      55.638  31.519 -33.617  1.00  0.00     0.041 C 
ATOM      6  O   UNL     1      56.823  31.174 -33.864  1.00  0.00    -0.550 OA
ATOM      7  O   UNL     1      54.876  32.125 -34.608  1.00  0.00    -0.550 OA
ENDBRANCH   4   5
ENDBRANCH   3   4
ENDBRANCH   2   3
ENDBRANCH   1   2
BRANCH   1   8
ATOM      8  C   UNL     1      57.125  28.084 -31.773  1.00  0.00     0.000 C 
BRANCH   8   9
ATOM      9  C   UNL     1      57.096  27.795 -33.278  1.00  0.00     0.006 C 
BRANCH   9  10
ATOM     10  C   UNL     1      55.667  27.522 -33.757  1.00  0.00     0.053 C 
BRANCH  10  11
ATOM     11  C   UNL     1      55.636  27.348 -35.242  1.00  0.00     0.041 C 
ATOM     12  O   UNL     1      55.902  28.319 -35.999  1.00  0.00    -0.550 OA
ATOM     13  O   UNL     1      55.264  26.128 -35.793  1.00  0.00    -0.550 OA
ENDBRANCH  10  11
ENDBRANCH   9  10
ENDBRANCH   8   9
ENDBRANCH   1   8
TORSDOF 8
ENDMDL
MODEL 6
REMARK VINA RESULT:    -3.625     19.689     21.304
REMARK INTER + INTRA:          -5.553
REMARK INTER:                  -5.003
REMARK INTRA:                  -0.550
REMARK UNBOUND:                -0.232
REMARK SMILES O=C([O-])CCCCCCCC(=O)[O-]
REMARK SMILES IDX 7 1 6 2 5 3 4 4 2 5 1 6 3 7 8 8 9 9 10 10 11 11 12 12 13 13
REMARK H PARENT
REMARK Flexibility Score: inf
ROOT
ATOM      1  C   UNL     1      57.048  27.437 -33.702  1.00  0.00     0.000 C 
ENDROOT
BRANCH   1   2
ATOM      2  C   UNL     1      56.982  27.999 -32.278  1.00  0.00     0.000 C 
BRANCH   2   3
ATOM      3  C   UNL     1      56.950  29.531 -32.292  1.00  0.00     0.006 C 
BRANCH   3   4
ATOM      4  C   UNL     1      55.681  30.061 -31.618  1.00  0.00     0.053 C 
BRANCH   4   5
ATOM      5  C   UNL     1      55.047  31.125 -32.457  1.00  0.00     0.041 C 
ATOM      6  O   UNL     1      54.092  31.807 -32.001  1.00  0.00    -0.550 OA
ATOM      7  O   UNL     1      55.543  31.396 -33.726  1.00  0.00    -0.550 OA
ENDBRANCH   4   5
ENDBRANCH   3   4
ENDBRANCH   2   3
ENDBRANCH   1   2
BRANCH   1   8
ATOM      8  C   UNL     1      55.643  27.253 -34.288  1.00  0.00     0.000 C 
BRANCH   8   9
ATOM      9  C   UNL     1      55.641  27.502 -35.801  1.00  0.00     0.006 C 
BRANCH   9  10
ATOM     10  C   UNL     1      56.087  28.932 -36.123  1.00  0.00     0.053 C 
BRANCH  10  11
ATOM     11  C   UNL     1      55.274  29.495 -37.244  1.00  0.00     0.041 C 
ATOM     12  O   UNL     1      54.642  28.728 -38.016  1.00  0.00    -0.550 OA
ATOM     13  O   UNL     1      55.255  30.867 -37.470  1.00  0.00    -0.550 OA
ENDBRANCH  10  11
ENDBRANCH   9  10
ENDBRANCH   8   9
ENDBRANCH   1   8
TORSDOF 8
ENDMDL
MODEL 7
REMARK VINA RESULT:    -3.476     20.027     20.724
REMARK INTER + INTRA:          -5.334
REMARK INTER:                  -5.024
REMARK INTRA:                  -0.310
REMARK UNBOUND:                -0.232
REMARK SMILES O=C([O-])CCCCCCCC(=O)[O-]
REMARK SMILES IDX 7 1 6 2 5 3 4 4 2 5 1 6 3 7 8 8 9 9 10 10 11 11 12 12 13 13
REMARK H PARENT
REMARK Flexibility Score: inf
ROOT
ATOM      1  C   UNL     1      55.692  27.678 -35.585  1.00  0.00     0.000 C 
ENDROOT
BRANCH   1   2
ATOM      2  C   UNL     1      56.039  29.020 -36.240  1.00  0.00     0.000 C 
BRANCH   2   3
ATOM      3  C   UNL     1      55.715  29.001 -37.738  1.00  0.00     0.006 C 
BRANCH   3   4
ATOM      4  C   UNL     1      54.323  29.581 -38.007  1.00  0.00     0.053 C 
BRANCH   4   5
ATOM      5  C   UNL     1      54.389  31.072 -38.116  1.00  0.00     0.041 C 
ATOM      6  O   UNL     1      54.918  31.610 -39.124  1.00  0.00    -0.550 OA
ATOM      7  O   UNL     1      53.822  31.867 -37.128  1.00  0.00    -0.550 OA
ENDBRANCH   4   5
ENDBRANCH   3   4
ENDBRANCH   2   3
ENDBRANCH   1   2
BRANCH   1   8
ATOM      8  C   UNL     1      56.569  27.425 -34.352  1.00  0.00     0.000 C 
BRANCH   8   9
ATOM      9  C   UNL     1      55.856  27.870 -33.069  1.00  0.00     0.006 C 
BRANCH   9  10
ATOM     10  C   UNL     1      56.640  28.980 -32.363  1.00  0.00     0.053 C 
BRANCH  10  11
ATOM     11  C   UNL     1      55.760  29.714 -31.402  1.00  0.00     0.041 C 
ATOM     12  O   UNL     1      55.010  30.640 -31.810  1.00  0.00    -0.550 OA
ATOM     13  O   UNL     1      55.802  29.409 -30.047  1.00  0.00    -0.550 OA
ENDBRANCH  10  11
ENDBRANCH   9  10
ENDBRANCH   8   9
ENDBRANCH   1   8
TORSDOF 8
ENDMDL
MODEL 8
REMARK VINA RESULT:    -3.395     20.163     21.649
REMARK INTER + INTRA:          -5.215
REMARK INTER:                  -4.877
REMARK INTRA:                  -0.338
REMARK UNBOUND:                -0.232
REMARK SMILES O=C([O-])CCCCCCCC(=O)[O-]
REMARK SMILES IDX 7 1 6 2 5 3 4 4 2 5 1 6 3 7 8 8 9 9 10 10 11 11 12 12 13 13
REMARK H PARENT
REMARK Flexibility Score: inf
ROOT
ATOM      1  C   UNL     1      56.005  27.619 -33.548  1.00  0.00     0.000 C 
ENDROOT
BRANCH   1   2
ATOM      2  C   UNL     1      57.032  28.547 -32.889  1.00  0.00     0.000 C 
BRANCH   2   3
ATOM      3  C   UNL     1      57.063  28.343 -31.370  1.00  0.00     0.006 C 
BRANCH   3   4
ATOM      4  C   UNL     1      55.926  29.109 -30.689  1.00  0.00     0.053 C 
BRANCH   4   5
ATOM      5  C   UNL     1      55.868  30.517 -31.193  1.00  0.00     0.041 C 
ATOM      6  O   UNL     1      54.847  30.930 -31.804  1.00  0.00    -0.550 OA
ATOM      7  O   UNL     1      56.923  31.387 -30.946  1.00  0.00    -0.550 OA
ENDBRANCH   4   5
ENDBRANCH   3   4
ENDBRANCH   2   3
ENDBRANCH   1   2
BRANCH   1   8
ATOM      8  C   UNL     1      56.325  27.411 -35.034  1.00  0.00     0.000 C 
BRANCH   8   9
ATOM      9  C   UNL     1      56.544  28.752 -35.743  1.00  0.00     0.006 C 
BRANCH   9  10
ATOM     10  C   UNL     1      55.573  28.918 -36.916  1.00  0.00     0.053 C 
BRANCH  10  11
ATOM     11  C   UNL     1      55.215  30.358 -37.100  1.00  0.00     0.041 C 
ATOM     12  O   UNL     1      55.827  31.251 -36.456  1.00  0.00    -0.550 OA
ATOM     13  O   UNL     1      54.171  30.714 -37.946  1.00  0.00    -0.550 OA
ENDBRANCH  10  11
ENDBRANCH   9  10
ENDBRANCH   8   9
ENDBRANCH   1   8
TORSDOF 8
ENDMDL
MODEL 9
REMARK VINA RESULT:    -3.363     19.873     21.618
REMARK INTER + INTRA:          -5.167
REMARK INTER:                  -4.719
REMARK INTRA:                  -0.449
REMARK UNBOUND:                -0.232
REMARK SMILES O=C([O-])CCCCCCCC(=O)[O-]
REMARK SMILES IDX 7 1 6 2 5 3 4 4 2 5 1 6 3 7 8 8 9 9 10 10 11 11 12 12 13 13
REMARK H PARENT
REMARK Flexibility Score: inf
ROOT
ATOM      1  C   UNL     1      56.785  30.363 -35.200  1.00  0.00     0.000 C 
ENDROOT
BRANCH   1   2
ATOM      2  C   UNL     1      56.175  31.213 -34.080  1.00  0.00     0.000 C 
BRANCH   2   3
ATOM      3  C   UNL     1      56.672  30.751 -32.705  1.00  0.00     0.006 C 
BRANCH   3   4
ATOM      4  C   UNL     1      55.502  30.320 -31.815  1.00  0.00     0.053 C 
BRANCH   4   5
ATOM      5  C   UNL     1      55.850  29.075 -31.061  1.00  0.00     0.041 C 
ATOM      6  O   UNL     1      55.786  27.953 -31.627  1.00  0.00    -0.550 OA
ATOM      7  O   UNL     1      56.290  29.159 -29.746  1.00  0.00    -0.550 OA
ENDBRANCH   4   5
ENDBRANCH   3   4
ENDBRANCH   2   3
ENDBRANCH   1   2
BRANCH   1   8
ATOM      8  C   UNL     1      56.473  28.875 -34.995  1.00  0.00     0.000 C 
BRANCH   8   9
ATOM      9  C   UNL     1      55.651  28.320 -36.164  1.00  0.00     0.006 C 
BRANCH   9  10
ATOM     10  C   UNL     1      55.805  29.198 -37.410  1.00  0.00     0.053 C 
BRANCH  10  11
ATOM     11  C   UNL     1      54.478  29.418 -38.063  1.00  0.00     0.041 C 
ATOM     12  O   UNL     1      53.964  28.515 -38.774  1.00  0.00    -0.550 OA
ATOM     13  O   UNL     1      53.830  30.640 -37.928  1.00  0.00    -0.550 OA
ENDBRANCH  10  11
ENDBRANCH   9  10
ENDBRANCH   8   9
ENDBRANCH   1   8
TORSDOF 8
ENDMDL
