MODEL 1
REMARK VINA RESULT:    -4.830      0.000      0.000
REMARK INTER + INTRA:         -10.898
REMARK INTER:                  -8.783
REMARK INTRA:                  -2.115
REMARK UNBOUND:                -2.115
REMARK SMILES CCCCCCCCCCCCCCCC(=O)[O-]
REMARK SMILES IDX 9 1 10 2 11 3 12 4 13 5 14 6 15 7 16 8 17 9 18 10 8 11 7 12
REMARK SMILES IDX 6 13 5 14 4 15 3 16 2 17 1 18
REMARK H PARENT
REMARK Flexibility Score: inf
ROOT
ATOM      1  C   UNL     1      17.772  55.469  14.994  1.00  0.00     0.000 C 
ENDROOT
BRANCH   1   2
ATOM      2  C   UNL     1      18.694  55.128  13.811  1.00  0.00     0.000 C 
BRANCH   2   3
ATOM      3  C   UNL     1      19.450  53.800  14.006  1.00  0.00     0.000 C 
BRANCH   3   4
ATOM      4  C   UNL     1      19.043  52.993  15.256  1.00  0.00     0.000 C 
BRANCH   4   5
ATOM      5  C   UNL     1      20.202  52.623  16.204  1.00  0.00     0.000 C 
BRANCH   5   6
ATOM      6  C   UNL     1      20.844  53.814  16.943  1.00  0.00     0.006 C 
BRANCH   6   7
ATOM      7  C   UNL     1      22.311  54.077  16.569  1.00  0.00     0.053 C 
BRANCH   7   8
ATOM      8  C   UNL     1      22.601  55.542  16.439  1.00  0.00     0.041 C 
ATOM      9  O   UNL     1      23.750  55.985  16.704  1.00  0.00    -0.550 OA
ATOM     10  O   UNL     1      21.613  56.410  15.996  1.00  0.00    -0.550 OA
ENDBRANCH   7   8
ENDBRANCH   6   7
ENDBRANCH   5   6
ENDBRANCH   4   5
ENDBRANCH   3   4
ENDBRANCH   2   3
ENDBRANCH   1   2
BRANCH   1  11
ATOM     11  C   UNL     1      18.224  56.730  15.748  1.00  0.00     0.000 C 
BRANCH  11  12
ATOM     12  C   UNL     1      18.308  56.516  17.269  1.00  0.00    -0.000 C 
BRANCH  12  13
ATOM     13  C   UNL     1      17.306  55.466  17.774  1.00  0.00    -0.000 C 
BRANCH  13  14
ATOM     14  C   UNL     1      16.302  56.045  18.783  1.00  0.00    -0.000 C 
BRANCH  14  15
ATOM     15  C   UNL     1      14.887  56.080  18.192  1.00  0.00    -0.000 C 
BRANCH  15  16
ATOM     16  C   UNL     1      14.753  57.204  17.154  1.00  0.00    -0.000 C 
BRANCH  16  17
ATOM     17  C   UNL     1      13.904  56.788  15.942  1.00  0.00    -0.003 C 
ATOM     18  C   UNL     1      14.209  55.369  15.465  1.00  0.00     0.004 C 
ENDBRANCH  16  17
ENDBRANCH  15  16
ENDBRANCH  14  15
ENDBRANCH  13  14
ENDBRANCH  12  13
ENDBRANCH  11  12
ENDBRANCH   1  11
TORSDOF 14
ENDMDL
MODEL 2
REMARK VINA RESULT:    -4.795      3.042      5.527
REMARK INTER + INTRA:         -10.834
REMARK INTER:                  -8.341
REMARK INTRA:                  -2.493
REMARK UNBOUND:                -2.115
REMARK SMILES CCCCCCCCCCCCCCCC(=O)[O-]
REMARK SMILES IDX 9 1 10 2 11 3 12 4 13 5 14 6 15 7 16 8 17 9 18 10 8 11 7 12
REMARK SMILES IDX 6 13 5 14 4 15 3 16 2 17 1 18
REMARK H PARENT
REMARK Flexibility Score: inf
ROOT
ATOM      1  C   UNL     1      19.481  52.786  15.167  1.00  0.00     0.000 C 
ENDROOT
BRANCH   1   2
ATOM      2  C   UNL     1      19.884  54.017  14.338  1.00  0.00     0.000 C 
BRANCH   2   3
ATOM      3  C   UNL     1      18.781  54.469  13.362  1.00  0.00     0.000 C 
BRANCH   3   4
ATOM      4  C   UNL     1      17.706  55.391  13.972  1.00  0.00     0.000 C 
BRANCH   4   5
ATOM      5  C   UNL     1      16.278  54.808  13.995  1.00  0.00     0.000 C 
BRANCH   5   6
ATOM      6  C   UNL     1      15.637  54.709  15.394  1.00  0.00     0.006 C 
BRANCH   6   7
ATOM      7  C   UNL     1      14.803  55.935  15.799  1.00  0.00     0.053 C 
BRANCH   7   8
ATOM      8  C   UNL     1      14.432  55.904  17.250  1.00  0.00     0.041 C 
ATOM      9  O   UNL     1      14.156  54.810  17.810  1.00  0.00    -0.550 OA
ATOM     10  O   UNL     1      14.423  57.078  17.991  1.00  0.00    -0.550 OA
ENDBRANCH   7   8
ENDBRANCH   6   7
ENDBRANCH   5   6
ENDBRANCH   4   5
ENDBRANCH   3   4
ENDBRANCH   2   3
ENDBRANCH   1   2
BRANCH   1  11
ATOM     11  C   UNL     1      19.751  52.973  16.668  1.00  0.00     0.000 C 
BRANCH  11  12
ATOM     12  C   UNL     1      18.516  53.474  17.437  1.00  0.00    -0.000 C 
BRANCH  12  13
ATOM     13  C   UNL     1      18.828  54.684  18.332  1.00  0.00    -0.000 C 
BRANCH  13  14
ATOM     14  C   UNL     1      17.887  55.870  18.071  1.00  0.00    -0.000 C 
BRANCH  14  15
ATOM     15  C   UNL     1      18.562  56.919  17.178  1.00  0.00    -0.000 C 
BRANCH  15  16
ATOM     16  C   UNL     1      20.049  57.069  17.533  1.00  0.00    -0.000 C 
BRANCH  16  17
ATOM     17  C   UNL     1      20.966  56.887  16.314  1.00  0.00    -0.003 C 
ATOM     18  C   UNL     1      22.213  56.061  16.630  1.00  0.00     0.004 C 
ENDBRANCH  16  17
ENDBRANCH  15  16
ENDBRANCH  14  15
ENDBRANCH  13  14
ENDBRANCH  12  13
ENDBRANCH  11  12
ENDBRANCH   1  11
TORSDOF 14
ENDMDL
MODEL 3
REMARK VINA RESULT:    -4.722      2.472      6.038
REMARK INTER + INTRA:         -10.702
REMARK INTER:                  -8.897
REMARK INTRA:                  -1.805
REMARK UNBOUND:                -2.115
REMARK SMILES CCCCCCCCCCCCCCCC(=O)[O-]
REMARK SMILES IDX 9 1 10 2 11 3 12 4 13 5 14 6 15 7 16 8 17 9 18 10 8 11 7 12
REMARK SMILES IDX 6 13 5 14 4 15 3 16 2 17 1 18
REMARK H PARENT
REMARK Flexibility Score: inf
ROOT
ATOM      1  C   UNL     1      18.101  55.859  14.241  1.00  0.00     0.000 C 
ENDROOT
BRANCH   1   2
ATOM      2  C   UNL     1      17.078  55.825  15.389  1.00  0.00     0.000 C 
BRANCH   2   3
ATOM      3  C   UNL     1      15.797  55.049  15.024  1.00  0.00     0.000 C 
BRANCH   3   4
ATOM      4  C   UNL     1      14.486  55.669  15.548  1.00  0.00     0.000 C 
BRANCH   4   5
ATOM      5  C   UNL     1      14.625  57.079  16.158  1.00  0.00     0.000 C 
BRANCH   5   6
ATOM      6  C   UNL     1      14.233  57.186  17.645  1.00  0.00     0.006 C 
BRANCH   6   7
ATOM      7  C   UNL     1      14.199  55.843  18.392  1.00  0.00     0.053 C 
BRANCH   7   8
ATOM      8  C   UNL     1      15.556  55.443  18.886  1.00  0.00     0.041 C 
ATOM      9  O   UNL     1      15.764  54.265  19.278  1.00  0.00    -0.550 OA
ATOM     10  O   UNL     1      16.596  56.363  18.883  1.00  0.00    -0.550 OA
ENDBRANCH   7   8
ENDBRANCH   6   7
ENDBRANCH   5   6
ENDBRANCH   4   5
ENDBRANCH   3   4
ENDBRANCH   2   3
ENDBRANCH   1   2
BRANCH   1  11
ATOM     11  C   UNL     1      18.174  54.528  13.477  1.00  0.00     0.000 C 
BRANCH  11  12
ATOM     12  C   UNL     1      19.481  53.760  13.742  1.00  0.00    -0.000 C 
BRANCH  12  13
ATOM     13  C   UNL     1      19.468  53.018  15.088  1.00  0.00    -0.000 C 
BRANCH  13  14
ATOM     14  C   UNL     1      20.707  53.323  15.943  1.00  0.00    -0.000 C 
BRANCH  14  15
ATOM     15  C   UNL     1      21.346  54.655  15.528  1.00  0.00    -0.000 C 
BRANCH  15  16
ATOM     16  C   UNL     1      21.417  55.624  16.717  1.00  0.00    -0.000 C 
BRANCH  16  17
ATOM     17  C   UNL     1      20.063  55.789  17.424  1.00  0.00    -0.003 C 
ATOM     18  C   UNL     1      19.845  57.203  17.963  1.00  0.00     0.004 C 
ENDBRANCH  16  17
ENDBRANCH  15  16
ENDBRANCH  14  15
ENDBRANCH  13  14
ENDBRANCH  12  13
ENDBRANCH  11  12
ENDBRANCH   1  11
TORSDOF 14
ENDMDL
MODEL 4
REMARK VINA RESULT:    -4.665      1.073      2.382
REMARK INTER + INTRA:         -10.599
REMARK INTER:                  -8.605
REMARK INTRA:                  -1.994
REMARK UNBOUND:                -2.115
REMARK SMILES CCCCCCCCCCCCCCCC(=O)[O-]
REMARK SMILES IDX 9 1 10 2 11 3 12 4 13 5 14 6 15 7 16 8 17 9 18 10 8 11 7 12
REMARK SMILES IDX 6 13 5 14 4 15 3 16 2 17 1 18
REMARK H PARENT
REMARK Flexibility Score: inf
ROOT
ATOM      1  C   UNL     1      17.637  55.198  12.870  1.00  0.00     0.000 C 
ENDROOT
BRANCH   1   2
ATOM      2  C   UNL     1      18.675  55.034  13.993  1.00  0.00     0.000 C 
BRANCH   2   3
ATOM      3  C   UNL     1      19.535  53.766  13.831  1.00  0.00     0.000 C 
BRANCH   3   4
ATOM      4  C   UNL     1      19.632  52.876  15.086  1.00  0.00     0.000 C 
BRANCH   4   5
ATOM      5  C   UNL     1      19.587  53.631  16.431  1.00  0.00     0.000 C 
BRANCH   5   6
ATOM      6  C   UNL     1      20.926  53.683  17.193  1.00  0.00     0.006 C 
BRANCH   6   7
ATOM      7  C   UNL     1      22.117  54.172  16.353  1.00  0.00     0.053 C 
BRANCH   7   8
ATOM      8  C   UNL     1      22.499  55.581  16.692  1.00  0.00     0.041 C 
ATOM      9  O   UNL     1      23.707  55.934  16.660  1.00  0.00    -0.550 OA
ATOM     10  O   UNL     1      21.518  56.511  17.010  1.00  0.00    -0.550 OA
ENDBRANCH   7   8
ENDBRANCH   6   7
ENDBRANCH   5   6
ENDBRANCH   4   5
ENDBRANCH   3   4
ENDBRANCH   2   3
ENDBRANCH   1   2
BRANCH   1  11
ATOM     11  C   UNL     1      16.211  54.856  13.332  1.00  0.00     0.000 C 
BRANCH  11  12
ATOM     12  C   UNL     1      16.143  54.483  14.823  1.00  0.00    -0.000 C 
BRANCH  12  13
ATOM     13  C   UNL     1      14.797  54.858  15.465  1.00  0.00    -0.000 C 
BRANCH  13  14
ATOM     14  C   UNL     1      14.921  55.152  16.968  1.00  0.00    -0.000 C 
BRANCH  14  15
ATOM     15  C   UNL     1      16.344  54.871  17.467  1.00  0.00    -0.000 C 
BRANCH  15  16
ATOM     16  C   UNL     1      16.895  56.067  18.259  1.00  0.00    -0.000 C 
BRANCH  16  17
ATOM     17  C   UNL     1      18.074  56.750  17.550  1.00  0.00    -0.003 C 
ATOM     18  C   UNL     1      17.660  57.462  16.263  1.00  0.00     0.004 C 
ENDBRANCH  16  17
ENDBRANCH  15  16
ENDBRANCH  14  15
ENDBRANCH  13  14
ENDBRANCH  12  13
ENDBRANCH  11  12
ENDBRANCH   1  11
TORSDOF 14
ENDMDL
MODEL 5
REMARK VINA RESULT:    -4.630      2.272      4.599
REMARK INTER + INTRA:         -10.534
REMARK INTER:                  -8.093
REMARK INTRA:                  -2.442
REMARK UNBOUND:                -2.115
REMARK SMILES CCCCCCCCCCCCCCCC(=O)[O-]
REMARK SMILES IDX 9 1 10 2 11 3 12 4 13 5 14 6 15 7 16 8 17 9 18 10 8 11 7 12
REMARK SMILES IDX 6 13 5 14 4 15 3 16 2 17 1 18
REMARK H PARENT
REMARK Flexibility Score: inf
ROOT
ATOM      1  C   UNL     1      15.906  57.683  16.278  1.00  0.00     0.000 C 
ENDROOT
BRANCH   1   2
ATOM      2  C   UNL     1      14.834  56.585  16.389  1.00  0.00     0.000 C 
BRANCH   2   3
ATOM      3  C   UNL     1      14.982  55.495  15.310  1.00  0.00     0.000 C 
BRANCH   3   4
ATOM      4  C   UNL     1      14.937  54.046  15.835  1.00  0.00     0.000 C 
BRANCH   4   5
ATOM      5  C   UNL     1      15.721  53.796  17.139  1.00  0.00     0.000 C 
BRANCH   5   6
ATOM      6  C   UNL     1      17.102  53.135  16.953  1.00  0.00     0.006 C 
BRANCH   6   7
ATOM      7  C   UNL     1      17.917  52.992  18.247  1.00  0.00     0.053 C 
BRANCH   7   8
ATOM      8  C   UNL     1      19.323  52.551  17.977  1.00  0.00     0.041 C 
ATOM      9  O   UNL     1      19.624  52.042  16.865  1.00  0.00    -0.550 OA
ATOM     10  O   UNL     1      20.307  52.731  18.940  1.00  0.00    -0.550 OA
ENDBRANCH   7   8
ENDBRANCH   6   7
ENDBRANCH   5   6
ENDBRANCH   4   5
ENDBRANCH   3   4
ENDBRANCH   2   3
ENDBRANCH   1   2
BRANCH   1  11
ATOM     11  C   UNL     1      17.312  57.110  16.042  1.00  0.00     0.000 C 
BRANCH  11  12
ATOM     12  C   UNL     1      18.028  56.732  17.351  1.00  0.00    -0.000 C 
BRANCH  12  13
ATOM     13  C   UNL     1      19.431  56.152  17.111  1.00  0.00    -0.000 C 
BRANCH  13  14
ATOM     14  C   UNL     1      19.848  56.205  15.634  1.00  0.00    -0.000 C 
BRANCH  14  15
ATOM     15  C   UNL     1      20.607  54.935  15.231  1.00  0.00    -0.000 C 
BRANCH  15  16
ATOM     16  C   UNL     1      19.903  54.219  14.068  1.00  0.00    -0.000 C 
BRANCH  16  17
ATOM     17  C   UNL     1      18.373  54.327  14.150  1.00  0.00    -0.003 C 
ATOM     18  C   UNL     1      17.755  54.949  12.898  1.00  0.00     0.004 C 
ENDBRANCH  16  17
ENDBRANCH  15  16
ENDBRANCH  14  15
ENDBRANCH  13  14
ENDBRANCH  12  13
ENDBRANCH  11  12
ENDBRANCH   1  11
TORSDOF 14
ENDMDL
MODEL 6
REMARK VINA RESULT:    -4.556      1.892      3.449
REMARK INTER + INTRA:         -10.400
REMARK INTER:                  -8.363
REMARK INTRA:                  -2.037
REMARK UNBOUND:                -2.115
REMARK SMILES CCCCCCCCCCCCCCCC(=O)[O-]
REMARK SMILES IDX 9 1 10 2 11 3 12 4 13 5 14 6 15 7 16 8 17 9 18 10 8 11 7 12
REMARK SMILES IDX 6 13 5 14 4 15 3 16 2 17 1 18
REMARK H PARENT
REMARK Flexibility Score: inf
ROOT
ATOM      1  C   UNL     1      18.018  55.536  14.003  1.00  0.00     0.000 C 
ENDROOT
BRANCH   1   2
ATOM      2  C   UNL     1      18.825  54.232  14.129  1.00  0.00     0.000 C 
BRANCH   2   3
ATOM      3  C   UNL     1      20.320  54.480  14.404  1.00  0.00     0.000 C 
BRANCH   3   4
ATOM      4  C   UNL     1      20.892  53.737  15.628  1.00  0.00     0.000 C 
BRANCH   4   5
ATOM      5  C   UNL     1      21.477  54.643  16.731  1.00  0.00     0.000 C 
BRANCH   5   6
ATOM      6  C   UNL     1      22.598  55.594  16.267  1.00  0.00     0.006 C 
BRANCH   6   7
ATOM      7  C   UNL     1      24.017  55.130  16.633  1.00  0.00     0.053 C 
BRANCH   7   8
ATOM      8  C   UNL     1      25.056  56.126  16.216  1.00  0.00     0.041 C 
ATOM      9  O   UNL     1      24.739  57.103  15.487  1.00  0.00    -0.550 OA
ATOM     10  O   UNL     1      26.365  55.993  16.659  1.00  0.00    -0.550 OA
ENDBRANCH   7   8
ENDBRANCH   6   7
ENDBRANCH   5   6
ENDBRANCH   4   5
ENDBRANCH   3   4
ENDBRANCH   2   3
ENDBRANCH   1   2
BRANCH   1  11
ATOM     11  C   UNL     1      17.380  55.964  15.335  1.00  0.00     0.000 C 
BRANCH  11  12
ATOM     12  C   UNL     1      18.325  56.818  16.199  1.00  0.00    -0.000 C 
BRANCH  12  13
ATOM     13  C   UNL     1      18.418  56.315  17.648  1.00  0.00    -0.000 C 
BRANCH  13  14
ATOM     14  C   UNL     1      17.203  55.469  18.058  1.00  0.00    -0.000 C 
BRANCH  14  15
ATOM     15  C   UNL     1      17.639  54.222  18.838  1.00  0.00    -0.000 C 
BRANCH  15  16
ATOM     16  C   UNL     1      18.035  53.087  17.881  1.00  0.00    -0.000 C 
BRANCH  16  17
ATOM     17  C   UNL     1      19.193  52.236  18.425  1.00  0.00    -0.003 C 
ATOM     18  C   UNL     1      19.880  52.873  19.632  1.00  0.00     0.004 C 
ENDBRANCH  16  17
ENDBRANCH  15  16
ENDBRANCH  14  15
ENDBRANCH  13  14
ENDBRANCH  12  13
ENDBRANCH  11  12
ENDBRANCH   1  11
TORSDOF 14
ENDMDL
MODEL 7
REMARK VINA RESULT:    -4.485      1.433      3.366
REMARK INTER + INTRA:         -10.271
REMARK INTER:                  -8.088
REMARK INTRA:                  -2.184
REMARK UNBOUND:                -2.115
REMARK SMILES CCCCCCCCCCCCCCCC(=O)[O-]
REMARK SMILES IDX 9 1 10 2 11 3 12 4 13 5 14 6 15 7 16 8 17 9 18 10 8 11 7 12
REMARK SMILES IDX 6 13 5 14 4 15 3 16 2 17 1 18
REMARK H PARENT
REMARK Flexibility Score: inf
ROOT
ATOM      1  C   UNL     1      15.427  56.248  15.850  1.00  0.00     0.000 C 
ENDROOT
BRANCH   1   2
ATOM      2  C   UNL     1      15.332  54.940  15.047  1.00  0.00     0.000 C 
BRANCH   2   3
ATOM      3  C   UNL     1      16.343  54.877  13.886  1.00  0.00     0.000 C 
BRANCH   3   4
ATOM      4  C   UNL     1      17.808  55.151  14.280  1.00  0.00     0.000 C 
BRANCH   4   5
ATOM      5  C   UNL     1      18.852  54.250  13.589  1.00  0.00     0.000 C 
BRANCH   5   6
ATOM      6  C   UNL     1      19.959  53.707  14.514  1.00  0.00     0.006 C 
BRANCH   6   7
ATOM      7  C   UNL     1      20.853  54.790  15.138  1.00  0.00     0.053 C 
BRANCH   7   8
ATOM      8  C   UNL     1      21.732  54.236  16.218  1.00  0.00     0.041 C 
ATOM      9  O   UNL     1      21.348  53.252  16.903  1.00  0.00    -0.550 OA
ATOM     10  O   UNL     1      22.986  54.786  16.445  1.00  0.00    -0.550 OA
ENDBRANCH   7   8
ENDBRANCH   6   7
ENDBRANCH   5   6
ENDBRANCH   4   5
ENDBRANCH   3   4
ENDBRANCH   2   3
ENDBRANCH   1   2
BRANCH   1  11
ATOM     11  C   UNL     1      14.181  56.500  16.714  1.00  0.00     0.000 C 
BRANCH  11  12
ATOM     12  C   UNL     1      14.470  56.393  18.221  1.00  0.00    -0.000 C 
BRANCH  12  13
ATOM     13  C   UNL     1      14.790  54.955  18.661  1.00  0.00    -0.000 C 
BRANCH  13  14
ATOM     14  C   UNL     1      16.203  54.818  19.247  1.00  0.00    -0.000 C 
BRANCH  14  15
ATOM     15  C   UNL     1      17.135  54.087  18.272  1.00  0.00    -0.000 C 
BRANCH  15  16
ATOM     16  C   UNL     1      18.420  54.894  18.030  1.00  0.00    -0.000 C 
BRANCH  16  17
ATOM     17  C   UNL     1      18.191  56.410  18.131  1.00  0.00    -0.003 C 
ATOM     18  C   UNL     1      19.007  57.201  17.109  1.00  0.00     0.004 C 
ENDBRANCH  16  17
ENDBRANCH  15  16
ENDBRANCH  14  15
ENDBRANCH  13  14
ENDBRANCH  12  13
ENDBRANCH  11  12
ENDBRANCH   1  11
TORSDOF 14
ENDMDL
MODEL 8
REMARK VINA RESULT:    -4.425      1.495      3.025
REMARK INTER + INTRA:         -10.161
REMARK INTER:                  -8.030
REMARK INTRA:                  -2.132
REMARK UNBOUND:                -2.115
REMARK SMILES CCCCCCCCCCCCCCCC(=O)[O-]
REMARK SMILES IDX 9 1 10 2 11 3 12 4 13 5 14 6 15 7 16 8 17 9 18 10 8 11 7 12
REMARK SMILES IDX 6 13 5 14 4 15 3 16 2 17 1 18
REMARK H PARENT
REMARK Flexibility Score: inf
ROOT
ATOM      1  C   UNL     1      16.887  55.959  15.739  1.00  0.00     0.000 C 
ENDROOT
BRANCH   1   2
ATOM      2  C   UNL     1      17.117  54.718  14.859  1.00  0.00     0.000 C 
BRANCH   2   3
ATOM      3  C   UNL     1      18.064  54.993  13.675  1.00  0.00     0.000 C 
BRANCH   3   4
ATOM      4  C   UNL     1      19.336  54.122  13.639  1.00  0.00     0.000 C 
BRANCH   4   5
ATOM      5  C   UNL     1      19.486  53.131  14.811  1.00  0.00     0.000 C 
BRANCH   5   6
ATOM      6  C   UNL     1      20.555  53.511  15.854  1.00  0.00     0.006 C 
BRANCH   6   7
ATOM      7  C   UNL     1      21.457  54.685  15.440  1.00  0.00     0.053 C 
BRANCH   7   8
ATOM      8  C   UNL     1      21.408  55.806  16.434  1.00  0.00     0.041 C 
ATOM      9  O   UNL     1      22.470  56.228  16.963  1.00  0.00    -0.550 OA
ATOM     10  O   UNL     1      20.195  56.403  16.750  1.00  0.00    -0.550 OA
ENDBRANCH   7   8
ENDBRANCH   6   7
ENDBRANCH   5   6
ENDBRANCH   4   5
ENDBRANCH   3   4
ENDBRANCH   2   3
ENDBRANCH   1   2
BRANCH   1  11
ATOM     11  C   UNL     1      15.417  56.117  16.159  1.00  0.00     0.000 C 
BRANCH  11  12
ATOM     12  C   UNL     1      15.260  56.801  17.528  1.00  0.00    -0.000 C 
BRANCH  12  13
ATOM     13  C   UNL     1      14.761  55.837  18.617  1.00  0.00    -0.000 C 
BRANCH  13  14
ATOM     14  C   UNL     1      15.904  55.058  19.284  1.00  0.00    -0.000 C 
BRANCH  14  15
ATOM     15  C   UNL     1      15.887  53.585  18.858  1.00  0.00    -0.000 C 
BRANCH  15  16
ATOM     16  C   UNL     1      17.254  53.156  18.304  1.00  0.00    -0.000 C 
BRANCH  16  17
ATOM     17  C   UNL     1      18.372  54.148  18.662  1.00  0.00    -0.003 C 
ATOM     18  C   UNL     1      19.594  53.466  19.276  1.00  0.00     0.004 C 
ENDBRANCH  16  17
ENDBRANCH  15  16
ENDBRANCH  14  15
ENDBRANCH  13  14
ENDBRANCH  12  13
ENDBRANCH  11  12
ENDBRANCH   1  11
TORSDOF 14
ENDMDL
MODEL 9
REMARK VINA RESULT:    -4.257      1.468      3.650
REMARK INTER + INTRA:          -9.856
REMARK INTER:                  -7.603
REMARK INTRA:                  -2.253
REMARK UNBOUND:                -2.115
REMARK SMILES CCCCCCCCCCCCCCCC(=O)[O-]
REMARK SMILES IDX 9 1 10 2 11 3 12 4 13 5 14 6 15 7 16 8 17 9 18 10 8 11 7 12
REMARK SMILES IDX 6 13 5 14 4 15 3 16 2 17 1 18
REMARK H PARENT
REMARK Flexibility Score: inf
ROOT
ATOM      1  C   UNL     1      16.653  54.823  19.178  1.00  0.00     0.000 C 
ENDROOT
BRANCH   1   2
ATOM      2  C   UNL     1      16.346  53.340  19.450  1.00  0.00     0.000 C 
BRANCH   2   3
ATOM      3  C   UNL     1      17.119  52.389  18.517  1.00  0.00     0.000 C 
BRANCH   3   4
ATOM      4  C   UNL     1      17.874  53.077  17.362  1.00  0.00     0.000 C 
BRANCH   4   5
ATOM      5  C   UNL     1      19.413  53.017  17.457  1.00  0.00     0.000 C 
BRANCH   5   6
ATOM      6  C   UNL     1      20.113  54.387  17.552  1.00  0.00     0.006 C 
BRANCH   6   7
ATOM      7  C   UNL     1      21.385  54.511  16.699  1.00  0.00     0.053 C 
BRANCH   7   8
ATOM      8  C   UNL     1      21.838  55.934  16.572  1.00  0.00     0.041 C 
ATOM      9  O   UNL     1      21.023  56.828  16.223  1.00  0.00    -0.550 OA
ATOM     10  O   UNL     1      23.150  56.276  16.870  1.00  0.00    -0.550 OA
ENDBRANCH   7   8
ENDBRANCH   6   7
ENDBRANCH   5   6
ENDBRANCH   4   5
ENDBRANCH   3   4
ENDBRANCH   2   3
ENDBRANCH   1   2
BRANCH   1  11
ATOM     11  C   UNL     1      15.385  55.643  18.893  1.00  0.00     0.000 C 
BRANCH  11  12
ATOM     12  C   UNL     1      14.576  55.095  17.704  1.00  0.00    -0.000 C 
BRANCH  12  13
ATOM     13  C   UNL     1      15.048  55.663  16.356  1.00  0.00    -0.000 C 
BRANCH  13  14
ATOM     14  C   UNL     1      15.933  56.908  16.517  1.00  0.00    -0.000 C 
BRANCH  14  15
ATOM     15  C   UNL     1      17.327  56.671  15.921  1.00  0.00    -0.000 C 
BRANCH  15  16
ATOM     16  C   UNL     1      17.304  55.513  14.912  1.00  0.00    -0.000 C 
BRANCH  16  17
ATOM     17  C   UNL     1      18.556  55.482  14.023  1.00  0.00    -0.003 C 
ATOM     18  C   UNL     1      19.102  54.069  13.819  1.00  0.00     0.004 C 
ENDBRANCH  16  17
ENDBRANCH  15  16
ENDBRANCH  14  15
ENDBRANCH  13  14
ENDBRANCH  12  13
ENDBRANCH  11  12
ENDBRANCH   1  11
TORSDOF 14
ENDMDL
