MODEL 1
REMARK VINA RESULT:    -8.158      0.000      0.000
REMARK INTER + INTRA:         -11.549
REMARK INTER:                 -10.781
REMARK INTRA:                  -0.768
REMARK UNBOUND:                -0.768
REMARK SMILES C=C(CC[C@@H](C)[C@H]1CC[C@@]2(C)[C@H]3CC[C@H]4C(C)(C)[C@H](O)CC[C@]45C[C@]35CC[C@@]12C)C(C)C
REMARK SMILES IDX 4 1 3 2 2 3 1 4 30 5 31 6 32 7 5 8 6 9 7 10 8 11 28 12 9 13
REMARK SMILES IDX 10 14 27 15 29 16 11 17 12 18 26 19 25 20 13 21 23 22 24 23
REMARK SMILES IDX 14 24 15 25 22 26 16 27 21 28 19 29 17 30 18 31 20 32
REMARK H PARENT 20 33
REMARK Flexibility Score: inf
ROOT
ATOM      1  C   UNL     1     121.048 129.545 128.996  1.00  0.00     0.008 C 
ENDROOT
BRANCH   1   2
ATOM      2  C   UNL     1     120.592 130.842 128.302  1.00  0.00     0.031 C 
BRANCH   2   3
ATOM      3  C   UNL     1     121.581 131.974 128.482  1.00  0.00    -0.075 C 
ATOM      4  C   UNL     1     122.858 131.811 128.093  1.00  0.00     0.008 C 
BRANCH   3   5
ATOM      5  C   UNL     1     121.102 133.295 129.068  1.00  0.00     0.008 C 
ATOM      6  C   UNL     1     122.175 134.384 128.947  1.00  0.00     0.012 C 
ATOM      7  C   UNL     1     119.783 133.744 128.425  1.00  0.00     0.012 C 
ENDBRANCH   3   5
ENDBRANCH   2   3
ENDBRANCH   1   2
BRANCH   1   8
ATOM      8  C   UNL     1     119.952 128.868 129.863  1.00  0.00    -0.010 C 
ATOM      9  C   UNL     1     119.417 129.845 130.929  1.00  0.00     0.008 C 
BRANCH   8  10
ATOM     10  C   UNL     1     118.892 128.102 128.982  1.00  0.00    -0.002 C 
ATOM     11  C   UNL     1     119.403 127.681 127.587  1.00  0.00     0.005 C 
ATOM     12  C   UNL     1     118.081 126.866 129.505  1.00  0.00    -0.024 C 
ATOM     13  C   UNL     1     118.623 126.416 127.196  1.00  0.00     0.008 C 
ATOM     14  C   UNL     1     117.430 126.319 128.177  1.00  0.00    -0.024 C 
ATOM     15  C   UNL     1     119.064 125.810 130.136  1.00  0.00     0.008 C 
ATOM     16  C   UNL     1     117.004 127.272 130.545  1.00  0.00     0.012 C 
ATOM     17  C   UNL     1     116.304 127.255 127.613  1.00  0.00     0.012 C 
ATOM     18  C   UNL     1     116.781 124.881 128.327  1.00  0.00     0.002 C 
ATOM     19  C   UNL     1     118.719 124.320 129.980  1.00  0.00     0.008 C 
ATOM     20  C   UNL     1     117.272 124.085 129.554  1.00  0.00    -0.020 C 
ATOM     21  C   UNL     1     116.923 123.994 127.061  1.00  0.00     0.005 C 
ATOM     22  C   UNL     1     116.675 122.654 129.638  1.00  0.00    -0.020 C 
ATOM     23  C   UNL     1     116.299 123.711 130.681  1.00  0.00     0.015 C 
ATOM     24  C   UNL     1     116.184 122.635 127.155  1.00  0.00     0.005 C 
ATOM     25  C   UNL     1     115.596 122.337 128.559  1.00  0.00     0.004 C 
ATOM     26  C   UNL     1     117.678 121.540 130.019  1.00  0.00     0.010 C 
ATOM     27  C   UNL     1     114.981 120.900 128.738  1.00  0.00    -0.006 C 
ATOM     28  C   UNL     1     117.007 120.176 130.167  1.00  0.00     0.033 C 
ATOM     29  C   UNL     1     116.113 119.844 128.957  1.00  0.00     0.120 C 
ATOM     30  C   UNL     1     114.151 120.495 127.494  1.00  0.00     0.014 C 
ATOM     31  C   UNL     1     114.001 120.933 129.942  1.00  0.00     0.014 C 
BRANCH  29  32
ATOM     32  O   UNL     1     115.596 118.538 129.059  1.00  0.00    -0.393 OA
ATOM     33  H   UNL     1     116.321 117.936 129.366  1.00  0.00     0.210 HD
ENDBRANCH  29  32
ENDBRANCH   8  10
ENDBRANCH   1   8
TORSDOF 6
ENDMDL
MODEL 2
REMARK VINA RESULT:    -8.010      1.253      2.015
REMARK INTER + INTRA:         -11.354
REMARK INTER:                 -11.240
REMARK INTRA:                  -0.113
REMARK UNBOUND:                -0.768
REMARK SMILES C=C(CC[C@@H](C)[C@H]1CC[C@@]2(C)[C@H]3CC[C@H]4C(C)(C)[C@H](O)CC[C@]45C[C@]35CC[C@@]12C)C(C)C
REMARK SMILES IDX 4 1 3 2 2 3 1 4 30 5 31 6 32 7 5 8 6 9 7 10 8 11 28 12 9 13
REMARK SMILES IDX 10 14 27 15 29 16 11 17 12 18 26 19 25 20 13 21 23 22 24 23
REMARK SMILES IDX 14 24 15 25 22 26 16 27 21 28 19 29 17 30 18 31 20 32
REMARK H PARENT 20 33
REMARK Flexibility Score: inf
ROOT
ATOM      1  C   UNL     1     118.984 130.248 129.142  1.00  0.00     0.008 C 
ENDROOT
BRANCH   1   2
ATOM      2  C   UNL     1     120.458 130.693 129.100  1.00  0.00     0.031 C 
BRANCH   2   3
ATOM      3  C   UNL     1     120.615 132.130 128.650  1.00  0.00    -0.075 C 
ATOM      4  C   UNL     1     119.601 132.745 128.017  1.00  0.00     0.008 C 
BRANCH   3   5
ATOM      5  C   UNL     1     121.910 132.870 128.958  1.00  0.00     0.008 C 
ATOM      6  C   UNL     1     123.033 132.461 127.997  1.00  0.00     0.012 C 
ATOM      7  C   UNL     1     121.700 134.389 128.949  1.00  0.00     0.012 C 
ENDBRANCH   3   5
ENDBRANCH   2   3
ENDBRANCH   1   2
BRANCH   1   8
ATOM      8  C   UNL     1     118.732 128.957 129.967  1.00  0.00    -0.010 C 
ATOM      9  C   UNL     1     117.423 129.071 130.775  1.00  0.00     0.008 C 
BRANCH   8  10
ATOM     10  C   UNL     1     118.943 127.654 129.106  1.00  0.00    -0.002 C 
ATOM     11  C   UNL     1     120.169 126.808 129.514  1.00  0.00     0.005 C 
ATOM     12  C   UNL     1     117.803 126.610 128.842  1.00  0.00    -0.024 C 
ATOM     13  C   UNL     1     119.839 125.351 129.152  1.00  0.00     0.008 C 
ATOM     14  C   UNL     1     118.604 125.403 128.220  1.00  0.00    -0.024 C 
ATOM     15  C   UNL     1     117.124 126.205 130.204  1.00  0.00     0.008 C 
ATOM     16  C   UNL     1     116.732 127.153 127.859  1.00  0.00     0.012 C 
ATOM     17  C   UNL     1     119.140 125.699 126.777  1.00  0.00     0.012 C 
ATOM     18  C   UNL     1     117.765 124.062 128.119  1.00  0.00     0.002 C 
ATOM     19  C   UNL     1     116.621 124.760 130.357  1.00  0.00     0.008 C 
ATOM     20  C   UNL     1     116.517 124.022 129.025  1.00  0.00    -0.020 C 
ATOM     21  C   UNL     1     118.604 122.778 128.359  1.00  0.00     0.005 C 
ATOM     22  C   UNL     1     115.754 122.671 128.960  1.00  0.00    -0.020 C 
ATOM     23  C   UNL     1     115.112 123.949 128.413  1.00  0.00     0.015 C 
ATOM     24  C   UNL     1     117.819 121.460 128.139  1.00  0.00     0.005 C 
ATOM     25  C   UNL     1     116.301 121.667 127.901  1.00  0.00     0.004 C 
ATOM     26  C   UNL     1     115.281 122.112 130.323  1.00  0.00     0.010 C 
ATOM     27  C   UNL     1     115.446 120.348 127.835  1.00  0.00    -0.006 C 
ATOM     28  C   UNL     1     114.465 120.830 130.176  1.00  0.00     0.033 C 
ATOM     29  C   UNL     1     115.173 119.801 129.275  1.00  0.00     0.120 C 
ATOM     30  C   UNL     1     116.175 119.257 127.012  1.00  0.00     0.014 C 
ATOM     31  C   UNL     1     114.119 120.661 127.091  1.00  0.00     0.014 C 
BRANCH  29  32
ATOM     32  O   UNL     1     114.462 118.585 129.245  1.00  0.00    -0.393 OA
ATOM     33  H   UNL     1     113.493 118.788 129.297  1.00  0.00     0.210 HD
ENDBRANCH  29  32
ENDBRANCH   8  10
ENDBRANCH   1   8
TORSDOF 6
ENDMDL
MODEL 3
REMARK VINA RESULT:    -7.656      3.032      5.918
REMARK INTER + INTRA:         -10.885
REMARK INTER:                  -9.043
REMARK INTRA:                  -1.842
REMARK UNBOUND:                -0.768
REMARK SMILES C=C(CC[C@@H](C)[C@H]1CC[C@@]2(C)[C@H]3CC[C@H]4C(C)(C)[C@H](O)CC[C@]45C[C@]35CC[C@@]12C)C(C)C
REMARK SMILES IDX 4 1 3 2 2 3 1 4 30 5 31 6 32 7 5 8 6 9 7 10 8 11 28 12 9 13
REMARK SMILES IDX 10 14 27 15 29 16 11 17 12 18 26 19 25 20 13 21 23 22 24 23
REMARK SMILES IDX 14 24 15 25 22 26 16 27 21 28 19 29 17 30 18 31 20 32
REMARK H PARENT 20 33
REMARK Flexibility Score: inf
ROOT
ATOM      1  C   UNL     1     116.121 125.919 128.066  1.00  0.00     0.008 C 
ENDROOT
BRANCH   1   2
ATOM      2  C   UNL     1     117.195 126.909 127.575  1.00  0.00     0.031 C 
BRANCH   2   3
ATOM      3  C   UNL     1     118.545 126.251 127.383  1.00  0.00    -0.075 C 
ATOM      4  C   UNL     1     118.732 125.400 126.359  1.00  0.00     0.008 C 
BRANCH   3   5
ATOM      5  C   UNL     1     119.683 126.596 128.334  1.00  0.00     0.008 C 
ATOM      6  C   UNL     1     119.322 127.783 129.235  1.00  0.00     0.012 C 
ATOM      7  C   UNL     1     120.104 125.377 129.165  1.00  0.00     0.012 C 
ENDBRANCH   3   5
ENDBRANCH   2   3
ENDBRANCH   1   2
BRANCH   1   8
ATOM      8  C   UNL     1     116.565 125.047 129.272  1.00  0.00    -0.010 C 
ATOM      9  C   UNL     1     116.349 125.802 130.600  1.00  0.00     0.008 C 
BRANCH   8  10
ATOM     10  C   UNL     1     116.009 123.576 129.174  1.00  0.00    -0.002 C 
ATOM     11  C   UNL     1     114.996 123.348 128.031  1.00  0.00     0.005 C 
ATOM     12  C   UNL     1     116.938 122.312 129.146  1.00  0.00    -0.024 C 
ATOM     13  C   UNL     1     115.123 121.874 127.616  1.00  0.00     0.008 C 
ATOM     14  C   UNL     1     115.925 121.174 128.738  1.00  0.00    -0.024 C 
ATOM     15  C   UNL     1     118.059 122.497 128.057  1.00  0.00     0.008 C 
ATOM     16  C   UNL     1     117.585 122.033 130.529  1.00  0.00     0.012 C 
ATOM     17  C   UNL     1     114.903 120.824 129.874  1.00  0.00     0.012 C 
ATOM     18  C   UNL     1     116.625 119.811 128.332  1.00  0.00     0.002 C 
ATOM     19  C   UNL     1     118.537 121.250 127.296  1.00  0.00     0.008 C 
ATOM     20  C   UNL     1     118.118 119.945 127.967  1.00  0.00    -0.020 C 
ATOM     21  C   UNL     1     115.895 119.046 127.195  1.00  0.00     0.005 C 
ATOM     22  C   UNL     1     118.760 118.609 127.504  1.00  0.00    -0.020 C 
ATOM     23  C   UNL     1     119.194 119.260 128.821  1.00  0.00     0.015 C 
ATOM     24  C   UNL     1     116.501 117.655 126.879  1.00  0.00     0.005 C 
ATOM     25  C   UNL     1     117.829 117.365 127.625  1.00  0.00     0.004 C 
ATOM     26  C   UNL     1     119.686 118.712 126.269  1.00  0.00     0.010 C 
ATOM     27  C   UNL     1     118.557 116.034 127.208  1.00  0.00    -0.006 C 
ATOM     28  C   UNL     1     120.349 117.380 125.925  1.00  0.00     0.033 C 
ATOM     29  C   UNL     1     119.325 116.231 125.861  1.00  0.00     0.120 C 
ATOM     30  C   UNL     1     117.541 114.877 127.043  1.00  0.00     0.014 C 
ATOM     31  C   UNL     1     119.523 115.625 128.353  1.00  0.00     0.014 C 
BRANCH  29  32
ATOM     32  O   UNL     1     119.937 115.037 125.430  1.00  0.00    -0.393 OA
ATOM     33  H   UNL     1     119.546 114.283 125.940  1.00  0.00     0.210 HD
ENDBRANCH  29  32
ENDBRANCH   8  10
ENDBRANCH   1   8
TORSDOF 6
ENDMDL
MODEL 4
REMARK VINA RESULT:    -7.651      1.289      2.729
REMARK INTER + INTRA:         -10.879
REMARK INTER:                 -10.087
REMARK INTRA:                  -0.792
REMARK UNBOUND:                -0.768
REMARK SMILES C=C(CC[C@@H](C)[C@H]1CC[C@@]2(C)[C@H]3CC[C@H]4C(C)(C)[C@H](O)CC[C@]45C[C@]35CC[C@@]12C)C(C)C
REMARK SMILES IDX 4 1 3 2 2 3 1 4 30 5 31 6 32 7 5 8 6 9 7 10 8 11 28 12 9 13
REMARK SMILES IDX 10 14 27 15 29 16 11 17 12 18 26 19 25 20 13 21 23 22 24 23
REMARK SMILES IDX 14 24 15 25 22 26 16 27 21 28 19 29 17 30 18 31 20 32
REMARK H PARENT 20 33
REMARK Flexibility Score: inf
ROOT
ATOM      1  C   UNL     1     119.251 130.720 129.240  1.00  0.00     0.008 C 
ENDROOT
BRANCH   1   2
ATOM      2  C   UNL     1     120.456 131.577 129.670  1.00  0.00     0.031 C 
BRANCH   2   3
ATOM      3  C   UNL     1     120.742 132.703 128.699  1.00  0.00    -0.075 C 
ATOM      4  C   UNL     1     121.953 132.793 128.121  1.00  0.00     0.008 C 
BRANCH   3   5
ATOM      5  C   UNL     1     119.636 133.694 128.362  1.00  0.00     0.008 C 
ATOM      6  C   UNL     1     120.010 135.119 128.787  1.00  0.00     0.012 C 
ATOM      7  C   UNL     1     119.272 133.638 126.872  1.00  0.00     0.012 C 
ENDBRANCH   3   5
ENDBRANCH   2   3
ENDBRANCH   1   2
BRANCH   1   8
ATOM      8  C   UNL     1     119.631 129.315 128.697  1.00  0.00    -0.010 C 
ATOM      9  C   UNL     1     121.135 129.247 128.363  1.00  0.00     0.008 C 
BRANCH   8  10
ATOM     10  C   UNL     1     119.029 128.158 129.580  1.00  0.00    -0.002 C 
ATOM     11  C   UNL     1     117.743 128.538 130.346  1.00  0.00     0.005 C 
ATOM     12  C   UNL     1     118.758 126.714 129.029  1.00  0.00    -0.024 C 
ATOM     13  C   UNL     1     116.933 127.243 130.519  1.00  0.00     0.008 C 
ATOM     14  C   UNL     1     117.899 126.079 130.189  1.00  0.00    -0.024 C 
ATOM     15  C   UNL     1     117.934 126.801 127.689  1.00  0.00     0.008 C 
ATOM     16  C   UNL     1     120.072 125.924 128.791  1.00  0.00     0.012 C 
ATOM     17  C   UNL     1     118.731 125.799 131.488  1.00  0.00     0.012 C 
ATOM     18  C   UNL     1     117.209 124.707 129.797  1.00  0.00     0.002 C 
ATOM     19  C   UNL     1     116.912 125.690 127.399  1.00  0.00     0.008 C 
ATOM     20  C   UNL     1     117.106 124.457 128.278  1.00  0.00    -0.020 C 
ATOM     21  C   UNL     1     115.809 124.504 130.436  1.00  0.00     0.005 C 
ATOM     22  C   UNL     1     116.363 123.141 127.919  1.00  0.00    -0.020 C 
ATOM     23  C   UNL     1     117.859 123.289 127.627  1.00  0.00     0.015 C 
ATOM     24  C   UNL     1     115.183 123.114 130.159  1.00  0.00     0.005 C 
ATOM     25  C   UNL     1     115.985 122.256 129.146  1.00  0.00     0.004 C 
ATOM     26  C   UNL     1     115.352 123.249 126.754  1.00  0.00     0.010 C 
ATOM     27  C   UNL     1     115.298 120.907 128.715  1.00  0.00    -0.006 C 
ATOM     28  C   UNL     1     114.724 121.902 126.402  1.00  0.00     0.033 C 
ATOM     29  C   UNL     1     114.186 121.177 127.649  1.00  0.00     0.120 C 
ATOM     30  C   UNL     1     114.662 120.197 129.937  1.00  0.00     0.014 C 
ATOM     31  C   UNL     1     116.392 119.956 128.160  1.00  0.00     0.014 C 
BRANCH  29  32
ATOM     32  O   UNL     1     113.510 119.993 127.290  1.00  0.00    -0.393 OA
ATOM     33  H   UNL     1     114.047 119.521 126.604  1.00  0.00     0.210 HD
ENDBRANCH  29  32
ENDBRANCH   8  10
ENDBRANCH   1   8
TORSDOF 6
ENDMDL
MODEL 5
REMARK VINA RESULT:    -7.574      3.455      4.405
REMARK INTER + INTRA:         -10.777
REMARK INTER:                  -9.338
REMARK INTRA:                  -1.439
REMARK UNBOUND:                -0.768
REMARK SMILES C=C(CC[C@@H](C)[C@H]1CC[C@@]2(C)[C@H]3CC[C@H]4C(C)(C)[C@H](O)CC[C@]45C[C@]35CC[C@@]12C)C(C)C
REMARK SMILES IDX 4 1 3 2 2 3 1 4 30 5 31 6 32 7 5 8 6 9 7 10 8 11 28 12 9 13
REMARK SMILES IDX 10 14 27 15 29 16 11 17 12 18 26 19 25 20 13 21 23 22 24 23
REMARK SMILES IDX 14 24 15 25 22 26 16 27 21 28 19 29 17 30 18 31 20 32
REMARK H PARENT 20 33
REMARK Flexibility Score: inf
ROOT
ATOM      1  C   UNL     1     118.115 129.237 130.085  1.00  0.00     0.008 C 
ENDROOT
BRANCH   1   2
ATOM      2  C   UNL     1     119.508 129.760 130.486  1.00  0.00     0.031 C 
BRANCH   2   3
ATOM      3  C   UNL     1     120.350 130.143 129.287  1.00  0.00    -0.075 C 
ATOM      4  C   UNL     1     120.727 129.196 128.409  1.00  0.00     0.008 C 
BRANCH   3   5
ATOM      5  C   UNL     1     120.722 131.603 129.074  1.00  0.00     0.008 C 
ATOM      6  C   UNL     1     122.061 131.740 128.339  1.00  0.00     0.012 C 
ATOM      7  C   UNL     1     119.608 132.361 128.339  1.00  0.00     0.012 C 
ENDBRANCH   3   5
ENDBRANCH   2   3
ENDBRANCH   1   2
BRANCH   1   8
ATOM      8  C   UNL     1     117.757 127.853 130.692  1.00  0.00    -0.010 C 
ATOM      9  C   UNL     1     116.648 127.993 131.755  1.00  0.00     0.008 C 
BRANCH   8  10
ATOM     10  C   UNL     1     117.563 126.753 129.580  1.00  0.00    -0.002 C 
ATOM     11  C   UNL     1     117.568 127.295 128.134  1.00  0.00     0.005 C 
ATOM     12  C   UNL     1     118.416 125.438 129.521  1.00  0.00    -0.024 C 
ATOM     13  C   UNL     1     118.094 126.161 127.240  1.00  0.00     0.008 C 
ATOM     14  C   UNL     1     118.044 124.873 128.096  1.00  0.00    -0.024 C 
ATOM     15  C   UNL     1     119.948 125.792 129.613  1.00  0.00     0.008 C 
ATOM     16  C   UNL     1     118.035 124.444 130.649  1.00  0.00     0.012 C 
ATOM     17  C   UNL     1     116.574 124.332 128.014  1.00  0.00     0.012 C 
ATOM     18  C   UNL     1     118.982 123.691 127.612  1.00  0.00     0.002 C 
ATOM     19  C   UNL     1     120.938 124.918 128.826  1.00  0.00     0.008 C 
ATOM     20  C   UNL     1     120.328 123.598 128.361  1.00  0.00    -0.020 C 
ATOM     21  C   UNL     1     119.255 123.694 126.083  1.00  0.00     0.005 C 
ATOM     22  C   UNL     1     121.257 122.478 127.819  1.00  0.00    -0.020 C 
ATOM     23  C   UNL     1     120.656 122.372 129.224  1.00  0.00     0.015 C 
ATOM     24  C   UNL     1     120.068 122.472 125.584  1.00  0.00     0.005 C 
ATOM     25  C   UNL     1     120.613 121.574 126.725  1.00  0.00     0.004 C 
ATOM     26  C   UNL     1     122.745 122.871 127.661  1.00  0.00     0.010 C 
ATOM     27  C   UNL     1     121.577 120.417 126.266  1.00  0.00    -0.006 C 
ATOM     28  C   UNL     1     123.612 121.699 127.207  1.00  0.00     0.033 C 
ATOM     29  C   UNL     1     123.009 120.979 125.987  1.00  0.00     0.120 C 
ATOM     30  C   UNL     1     121.045 119.732 124.983  1.00  0.00     0.014 C 
ATOM     31  C   UNL     1     121.603 119.333 127.378  1.00  0.00     0.014 C 
BRANCH  29  32
ATOM     32  O   UNL     1     123.879 119.976 125.515  1.00  0.00    -0.393 OA
ATOM     33  H   UNL     1     124.654 119.918 126.129  1.00  0.00     0.210 HD
ENDBRANCH  29  32
ENDBRANCH   8  10
ENDBRANCH   1   8
TORSDOF 6
ENDMDL
MODEL 6
REMARK VINA RESULT:    -7.169      3.561      9.337
REMARK INTER + INTRA:         -10.243
REMARK INTER:                  -8.188
REMARK INTRA:                  -2.055
REMARK UNBOUND:                -0.768
REMARK SMILES C=C(CC[C@@H](C)[C@H]1CC[C@@]2(C)[C@H]3CC[C@H]4C(C)(C)[C@H](O)CC[C@]45C[C@]35CC[C@@]12C)C(C)C
REMARK SMILES IDX 4 1 3 2 2 3 1 4 30 5 31 6 32 7 5 8 6 9 7 10 8 11 28 12 9 13
REMARK SMILES IDX 10 14 27 15 29 16 11 17 12 18 26 19 25 20 13 21 23 22 24 23
REMARK SMILES IDX 14 24 15 25 22 26 16 27 21 28 19 29 17 30 18 31 20 32
REMARK H PARENT 20 33
REMARK Flexibility Score: inf
ROOT
ATOM      1  C   UNL     1     119.218 116.565 128.377  1.00  0.00     0.008 C 
ENDROOT
BRANCH   1   2
ATOM      2  C   UNL     1     120.265 116.458 127.252  1.00  0.00     0.031 C 
BRANCH   2   3
ATOM      3  C   UNL     1     120.867 117.800 126.891  1.00  0.00    -0.075 C 
ATOM      4  C   UNL     1     121.545 118.497 127.820  1.00  0.00     0.008 C 
BRANCH   3   5
ATOM      5  C   UNL     1     120.727 118.320 125.467  1.00  0.00     0.008 C 
ATOM      6  C   UNL     1     119.282 118.209 124.968  1.00  0.00     0.012 C 
ATOM      7  C   UNL     1     121.246 119.759 125.346  1.00  0.00     0.012 C 
ENDBRANCH   3   5
ENDBRANCH   2   3
ENDBRANCH   1   2
BRANCH   1   8
ATOM      8  C   UNL     1     117.992 117.449 128.022  1.00  0.00    -0.010 C 
ATOM      9  C   UNL     1     116.778 116.573 127.649  1.00  0.00     0.008 C 
BRANCH   8  10
ATOM     10  C   UNL     1     117.763 118.595 129.080  1.00  0.00    -0.002 C 
ATOM     11  C   UNL     1     118.875 118.716 130.144  1.00  0.00     0.005 C 
ATOM     12  C   UNL     1     117.427 120.073 128.678  1.00  0.00    -0.024 C 
ATOM     13  C   UNL     1     118.912 120.190 130.578  1.00  0.00     0.008 C 
ATOM     14  C   UNL     1     117.607 120.831 130.049  1.00  0.00    -0.024 C 
ATOM     15  C   UNL     1     118.459 120.583 127.604  1.00  0.00     0.008 C 
ATOM     16  C   UNL     1     115.982 120.215 128.131  1.00  0.00     0.012 C 
ATOM     17  C   UNL     1     116.483 120.494 131.090  1.00  0.00     0.012 C 
ATOM     18  C   UNL     1     117.627 122.410 129.910  1.00  0.00     0.002 C 
ATOM     19  C   UNL     1     118.865 122.065 127.640  1.00  0.00     0.008 C 
ATOM     20  C   UNL     1     117.924 122.920 128.484  1.00  0.00    -0.020 C 
ATOM     21  C   UNL     1     118.586 123.115 130.907  1.00  0.00     0.005 C 
ATOM     22  C   UNL     1     118.008 124.467 128.390  1.00  0.00    -0.020 C 
ATOM     23  C   UNL     1     116.866 123.712 127.704  1.00  0.00     0.015 C 
ATOM     24  C   UNL     1     118.518 124.663 130.861  1.00  0.00     0.005 C 
ATOM     25  C   UNL     1     117.645 125.218 129.706  1.00  0.00     0.004 C 
ATOM     26  C   UNL     1     119.173 125.015 127.532  1.00  0.00     0.010 C 
ATOM     27  C   UNL     1     117.682 126.782 129.529  1.00  0.00    -0.006 C 
ATOM     28  C   UNL     1     119.144 126.537 127.413  1.00  0.00     0.033 C 
ATOM     29  C   UNL     1     118.988 127.216 128.787  1.00  0.00     0.120 C 
ATOM     30  C   UNL     1     117.622 127.495 130.902  1.00  0.00     0.014 C 
ATOM     31  C   UNL     1     116.416 127.215 128.740  1.00  0.00     0.014 C 
BRANCH  29  32
ATOM     32  O   UNL     1     119.079 128.617 128.668  1.00  0.00    -0.393 OA
ATOM     33  H   UNL     1     119.747 128.830 127.968  1.00  0.00     0.210 HD
ENDBRANCH  29  32
ENDBRANCH   8  10
ENDBRANCH   1   8
TORSDOF 6
ENDMDL
MODEL 7
REMARK VINA RESULT:    -7.126      5.155      8.471
REMARK INTER + INTRA:         -10.186
REMARK INTER:                  -8.086
REMARK INTRA:                  -2.100
REMARK UNBOUND:                -0.768
REMARK SMILES C=C(CC[C@@H](C)[C@H]1CC[C@@]2(C)[C@H]3CC[C@H]4C(C)(C)[C@H](O)CC[C@]45C[C@]35CC[C@@]12C)C(C)C
REMARK SMILES IDX 4 1 3 2 2 3 1 4 30 5 31 6 32 7 5 8 6 9 7 10 8 11 28 12 9 13
REMARK SMILES IDX 10 14 27 15 29 16 11 17 12 18 26 19 25 20 13 21 23 22 24 23
REMARK SMILES IDX 14 24 15 25 22 26 16 27 21 28 19 29 17 30 18 31 20 32
REMARK H PARENT 20 33
REMARK Flexibility Score: inf
ROOT
ATOM      1  C   UNL     1     114.001 121.600 130.150  1.00  0.00     0.008 C 
ENDROOT
BRANCH   1   2
ATOM      2  C   UNL     1     114.221 123.102 129.887  1.00  0.00     0.031 C 
BRANCH   2   3
ATOM      3  C   UNL     1     114.421 123.409 128.417  1.00  0.00    -0.075 C 
ATOM      4  C   UNL     1     113.595 122.865 127.505  1.00  0.00     0.008 C 
BRANCH   3   5
ATOM      5  C   UNL     1     115.532 124.362 128.000  1.00  0.00     0.008 C 
ATOM      6  C   UNL     1     116.261 124.943 129.217  1.00  0.00     0.012 C 
ATOM      7  C   UNL     1     116.516 123.684 127.037  1.00  0.00     0.012 C 
ENDBRANCH   3   5
ENDBRANCH   2   3
ENDBRANCH   1   2
BRANCH   1   8
ATOM      8  C   UNL     1     115.145 120.920 130.950  1.00  0.00    -0.010 C 
ATOM      9  C   UNL     1     114.584 120.168 132.174  1.00  0.00     0.008 C 
BRANCH   8  10
ATOM     10  C   UNL     1     116.139 120.139 130.009  1.00  0.00    -0.002 C 
ATOM     11  C   UNL     1     115.736 120.126 128.519  1.00  0.00     0.005 C 
ATOM     12  C   UNL     1     117.688 120.390 130.006  1.00  0.00    -0.024 C 
ATOM     13  C   UNL     1     117.038 120.018 127.710  1.00  0.00     0.008 C 
ATOM     14  C   UNL     1     118.141 119.606 128.715  1.00  0.00    -0.024 C 
ATOM     15  C   UNL     1     117.978 121.931 129.870  1.00  0.00     0.008 C 
ATOM     16  C   UNL     1     118.372 119.834 131.283  1.00  0.00     0.012 C 
ATOM     17  C   UNL     1     118.046 118.049 128.876  1.00  0.00     0.012 C 
ATOM     18  C   UNL     1     119.628 119.918 128.266  1.00  0.00     0.002 C 
ATOM     19  C   UNL     1     119.224 122.363 129.080  1.00  0.00     0.008 C 
ATOM     20  C   UNL     1     120.211 121.221 128.853  1.00  0.00    -0.020 C 
ATOM     21  C   UNL     1     119.830 119.925 126.726  1.00  0.00     0.005 C 
ATOM     22  C   UNL     1     121.642 121.540 128.341  1.00  0.00    -0.020 C 
ATOM     23  C   UNL     1     121.409 121.177 129.811  1.00  0.00     0.015 C 
ATOM     24  C   UNL     1     121.304 120.105 126.283  1.00  0.00     0.005 C 
ATOM     25  C   UNL     1     122.274 120.429 127.449  1.00  0.00     0.004 C 
ATOM     26  C   UNL     1     121.894 123.017 127.959  1.00  0.00     0.010 C 
ATOM     27  C   UNL     1     123.747 120.779 127.019  1.00  0.00    -0.006 C 
ATOM     28  C   UNL     1     123.342 123.274 127.548  1.00  0.00     0.033 C 
ATOM     29  C   UNL     1     123.831 122.253 126.504  1.00  0.00     0.120 C 
ATOM     30  C   UNL     1     124.237 119.826 125.900  1.00  0.00     0.014 C 
ATOM     31  C   UNL     1     124.679 120.556 128.241  1.00  0.00     0.014 C 
BRANCH  29  32
ATOM     32  O   UNL     1     125.126 122.575 126.054  1.00  0.00    -0.393 OA
ATOM     33  H   UNL     1     125.125 123.517 125.744  1.00  0.00     0.210 HD
ENDBRANCH  29  32
ENDBRANCH   8  10
ENDBRANCH   1   8
TORSDOF 6
ENDMDL
MODEL 8
REMARK VINA RESULT:    -7.090      4.225      8.618
REMARK INTER + INTRA:         -10.138
REMARK INTER:                  -8.067
REMARK INTRA:                  -2.071
REMARK UNBOUND:                -0.768
REMARK SMILES C=C(CC[C@@H](C)[C@H]1CC[C@@]2(C)[C@H]3CC[C@H]4C(C)(C)[C@H](O)CC[C@]45C[C@]35CC[C@@]12C)C(C)C
REMARK SMILES IDX 4 1 3 2 2 3 1 4 30 5 31 6 32 7 5 8 6 9 7 10 8 11 28 12 9 13
REMARK SMILES IDX 10 14 27 15 29 16 11 17 12 18 26 19 25 20 13 21 23 22 24 23
REMARK SMILES IDX 14 24 15 25 22 26 16 27 21 28 19 29 17 30 18 31 20 32
REMARK H PARENT 20 33
REMARK Flexibility Score: inf
ROOT
ATOM      1  C   UNL     1     113.846 122.417 128.900  1.00  0.00     0.008 C 
ENDROOT
BRANCH   1   2
ATOM      2  C   UNL     1     113.984 120.920 128.566  1.00  0.00     0.031 C 
BRANCH   2   3
ATOM      3  C   UNL     1     114.907 120.196 129.524  1.00  0.00    -0.075 C 
ATOM      4  C   UNL     1     115.609 119.132 129.097  1.00  0.00     0.008 C 
BRANCH   3   5
ATOM      5  C   UNL     1     115.054 120.712 130.949  1.00  0.00     0.008 C 
ATOM      6  C   UNL     1     113.998 120.103 131.879  1.00  0.00     0.012 C 
ATOM      7  C   UNL     1     116.471 120.469 131.486  1.00  0.00     0.012 C 
ENDBRANCH   3   5
ENDBRANCH   2   3
ENDBRANCH   1   2
BRANCH   1   8
ATOM      8  C   UNL     1     114.509 123.364 127.863  1.00  0.00    -0.010 C 
ATOM      9  C   UNL     1     113.469 124.333 127.264  1.00  0.00     0.008 C 
BRANCH   8  10
ATOM     10  C   UNL     1     115.853 123.983 128.404  1.00  0.00    -0.002 C 
ATOM     11  C   UNL     1     116.027 123.900 129.936  1.00  0.00     0.005 C 
ATOM     12  C   UNL     1     117.261 123.614 127.818  1.00  0.00    -0.024 C 
ATOM     13  C   UNL     1     117.538 123.838 130.206  1.00  0.00     0.008 C 
ATOM     14  C   UNL     1     118.233 124.248 128.885  1.00  0.00    -0.024 C 
ATOM     15  C   UNL     1     117.420 122.049 127.758  1.00  0.00     0.008 C 
ATOM     16  C   UNL     1     117.483 124.222 126.408  1.00  0.00     0.012 C 
ATOM     17  C   UNL     1     118.247 125.816 128.850  1.00  0.00     0.012 C 
ATOM     18  C   UNL     1     119.741 123.785 128.732  1.00  0.00     0.002 C 
ATOM     19  C   UNL     1     118.817 121.457 128.004  1.00  0.00     0.008 C 
ATOM     20  C   UNL     1     119.931 122.496 127.905  1.00  0.00    -0.020 C 
ATOM     21  C   UNL     1     120.491 123.632 130.083  1.00  0.00     0.005 C 
ATOM     22  C   UNL     1     121.408 122.025 127.830  1.00  0.00    -0.020 C 
ATOM     23  C   UNL     1     120.693 122.529 126.574  1.00  0.00     0.015 C 
ATOM     24  C   UNL     1     121.998 123.301 129.936  1.00  0.00     0.005 C 
ATOM     25  C   UNL     1     122.434 123.004 128.478  1.00  0.00     0.004 C 
ATOM     26  C   UNL     1     121.629 120.505 128.016  1.00  0.00     0.010 C 
ATOM     27  C   UNL     1     123.918 122.506 128.310  1.00  0.00    -0.006 C 
ATOM     28  C   UNL     1     123.092 120.103 127.845  1.00  0.00     0.033 C 
ATOM     29  C   UNL     1     124.032 120.992 128.682  1.00  0.00     0.120 C 
ATOM     30  C   UNL     1     124.879 123.320 129.213  1.00  0.00     0.014 C 
ATOM     31  C   UNL     1     124.356 122.760 126.842  1.00  0.00     0.014 C 
BRANCH  29  32
ATOM     32  O   UNL     1     125.361 120.533 128.600  1.00  0.00    -0.393 OA
ATOM     33  H   UNL     1     125.522 120.199 127.681  1.00  0.00     0.210 HD
ENDBRANCH  29  32
ENDBRANCH   8  10
ENDBRANCH   1   8
TORSDOF 6
ENDMDL
MODEL 9
REMARK VINA RESULT:    -7.052      3.960      6.923
REMARK INTER + INTRA:         -10.087
REMARK INTER:                  -8.100
REMARK INTRA:                  -1.987
REMARK UNBOUND:                -0.768
REMARK SMILES C=C(CC[C@@H](C)[C@H]1CC[C@@]2(C)[C@H]3CC[C@H]4C(C)(C)[C@H](O)CC[C@]45C[C@]35CC[C@@]12C)C(C)C
REMARK SMILES IDX 4 1 3 2 2 3 1 4 30 5 31 6 32 7 5 8 6 9 7 10 8 11 28 12 9 13
REMARK SMILES IDX 10 14 27 15 29 16 11 17 12 18 26 19 25 20 13 21 23 22 24 23
REMARK SMILES IDX 14 24 15 25 22 26 16 27 21 28 19 29 17 30 18 31 20 32
REMARK H PARENT 20 33
REMARK Flexibility Score: inf
ROOT
ATOM      1  C   UNL     1     115.386 124.600 127.573  1.00  0.00     0.008 C 
ENDROOT
BRANCH   1   2
ATOM      2  C   UNL     1     116.169 125.551 128.498  1.00  0.00     0.031 C 
BRANCH   2   3
ATOM      3  C   UNL     1     117.648 125.587 128.174  1.00  0.00    -0.075 C 
ATOM      4  C   UNL     1     118.063 125.312 126.924  1.00  0.00     0.008 C 
BRANCH   3   5
ATOM      5  C   UNL     1     118.639 125.973 129.262  1.00  0.00     0.008 C 
ATOM      6  C   UNL     1     117.936 126.213 130.603  1.00  0.00     0.012 C 
ATOM      7  C   UNL     1     119.752 124.926 129.400  1.00  0.00     0.012 C 
ENDBRANCH   3   5
ENDBRANCH   2   3
ENDBRANCH   1   2
BRANCH   1   8
ATOM      8  C   UNL     1     114.552 123.526 128.323  1.00  0.00    -0.010 C 
ATOM      9  C   UNL     1     113.113 123.469 127.773  1.00  0.00     0.008 C 
BRANCH   8  10
ATOM     10  C   UNL     1     115.332 122.164 128.463  1.00  0.00    -0.002 C 
ATOM     11  C   UNL     1     116.519 122.001 127.489  1.00  0.00     0.005 C 
ATOM     12  C   UNL     1     115.860 121.618 129.836  1.00  0.00    -0.024 C 
ATOM     13  C   UNL     1     117.538 121.086 128.184  1.00  0.00     0.008 C 
ATOM     14  C   UNL     1     116.797 120.435 129.377  1.00  0.00    -0.024 C 
ATOM     15  C   UNL     1     116.678 122.741 130.577  1.00  0.00     0.008 C 
ATOM     16  C   UNL     1     114.708 121.116 130.746  1.00  0.00     0.012 C 
ATOM     17  C   UNL     1     116.004 119.210 128.802  1.00  0.00     0.012 C 
ATOM     18  C   UNL     1     117.722 119.867 130.531  1.00  0.00     0.002 C 
ATOM     19  C   UNL     1     117.883 122.310 131.430  1.00  0.00     0.008 C 
ATOM     20  C   UNL     1     117.892 120.815 131.736  1.00  0.00    -0.020 C 
ATOM     21  C   UNL     1     119.125 119.414 130.045  1.00  0.00     0.005 C 
ATOM     22  C   UNL     1     118.859 120.265 132.820  1.00  0.00    -0.020 C 
ATOM     23  C   UNL     1     117.365 120.417 133.122  1.00  0.00     0.015 C 
ATOM     24  C   UNL     1     119.988 118.742 131.143  1.00  0.00     0.005 C 
ATOM     25  C   UNL     1     119.365 118.814 132.561  1.00  0.00     0.004 C 
ATOM     26  C   UNL     1     119.856 121.295 133.401  1.00  0.00     0.010 C 
ATOM     27  C   UNL     1     120.284 118.288 133.726  1.00  0.00    -0.006 C 
ATOM     28  C   UNL     1     120.715 120.708 134.519  1.00  0.00     0.033 C 
ATOM     29  C   UNL     1     121.350 119.366 134.109  1.00  0.00     0.120 C 
ATOM     30  C   UNL     1     121.013 116.986 133.309  1.00  0.00     0.014 C 
ATOM     31  C   UNL     1     119.382 117.932 134.938  1.00  0.00     0.014 C 
BRANCH  29  32
ATOM     32  O   UNL     1     122.227 118.900 135.108  1.00  0.00    -0.393 OA
ATOM     33  H   UNL     1     122.230 119.553 135.853  1.00  0.00     0.210 HD
ENDBRANCH  29  32
ENDBRANCH   8  10
ENDBRANCH   1   8
TORSDOF 6
ENDMDL
