MODEL 1
REMARK VINA RESULT:    -2.644      0.000      0.000
REMARK INTER + INTRA:          -7.005
REMARK INTER:                  -4.963
REMARK INTRA:                  -2.042
REMARK UNBOUND:                -2.042
REMARK SMILES O=C([O-])CCCCCCCCCCCCCCC(=O)[O-]
REMARK SMILES IDX 10 1 9 2 8 3 7 4 6 5 5 6 4 7 2 8 1 9 3 10 11 11 12 12 13 13
REMARK SMILES IDX 14 14 15 15 16 16 17 17 18 18 19 19 20 20
REMARK H PARENT
REMARK Flexibility Score: inf
ROOT
ATOM      1  C   UNL     1       3.156  21.503   5.782  1.00  0.00     0.000 C 
ENDROOT
BRANCH   1   2
ATOM      2  C   UNL     1       4.523  21.039   6.300  1.00  0.00     0.000 C 
BRANCH   2   3
ATOM      3  C   UNL     1       5.009  21.931   7.448  1.00  0.00     0.000 C 
BRANCH   3   4
ATOM      4  C   UNL     1       6.530  22.115   7.396  1.00  0.00     0.000 C 
BRANCH   4   5
ATOM      5  C   UNL     1       6.916  23.578   7.663  1.00  0.00     0.000 C 
BRANCH   5   6
ATOM      6  C   UNL     1       6.103  24.569   6.816  1.00  0.00     0.006 C 
BRANCH   6   7
ATOM      7  C   UNL     1       6.710  24.796   5.426  1.00  0.00     0.053 C 
BRANCH   7   8
ATOM      8  C   UNL     1       5.820  24.224   4.368  1.00  0.00     0.041 C 
ATOM      9  O   UNL     1       4.844  24.889   3.934  1.00  0.00    -0.550 OA
ATOM     10  O   UNL     1       6.099  22.975   3.827  1.00  0.00    -0.550 OA
ENDBRANCH   7   8
ENDBRANCH   6   7
ENDBRANCH   5   6
ENDBRANCH   4   5
ENDBRANCH   3   4
ENDBRANCH   2   3
ENDBRANCH   1   2
BRANCH   1  11
ATOM     11  C   UNL     1       2.866  22.948   6.215  1.00  0.00     0.000 C 
BRANCH  11  12
ATOM     12  C   UNL     1       1.480  23.113   6.866  1.00  0.00     0.000 C 
BRANCH  12  13
ATOM     13  C   UNL     1       0.736  21.797   7.164  1.00  0.00     0.000 C 
BRANCH  13  14
ATOM     14  C   UNL     1      -0.768  21.875   6.848  1.00  0.00     0.000 C 
BRANCH  14  15
ATOM     15  C   UNL     1      -1.188  20.898   5.738  1.00  0.00     0.000 C 
BRANCH  15  16
ATOM     16  C   UNL     1      -0.536  21.225   4.384  1.00  0.00     0.006 C 
BRANCH  16  17
ATOM     17  C   UNL     1      -1.265  22.357   3.648  1.00  0.00     0.053 C 
BRANCH  17  18
ATOM     18  C   UNL     1      -0.397  23.568   3.492  1.00  0.00     0.041 C 
ATOM     19  O   UNL     1      -0.908  24.720   3.496  1.00  0.00    -0.550 OA
ATOM     20  O   UNL     1       0.973  23.424   3.313  1.00  0.00    -0.550 OA
ENDBRANCH  17  18
ENDBRANCH  16  17
ENDBRANCH  15  16
ENDBRANCH  14  15
ENDBRANCH  13  14
ENDBRANCH  12  13
ENDBRANCH  11  12
ENDBRANCH   1  11
TORSDOF 15
ENDMDL
MODEL 2
REMARK VINA RESULT:    -2.631      1.806      3.502
REMARK INTER + INTRA:          -6.979
REMARK INTER:                  -4.667
REMARK INTRA:                  -2.313
REMARK UNBOUND:                -2.042
REMARK SMILES O=C([O-])CCCCCCCCCCCCCCC(=O)[O-]
REMARK SMILES IDX 10 1 9 2 8 3 7 4 6 5 5 6 4 7 2 8 1 9 3 10 11 11 12 12 13 13
REMARK SMILES IDX 14 14 15 15 16 16 17 17 18 18 19 19 20 20
REMARK H PARENT
REMARK Flexibility Score: inf
ROOT
ATOM      1  C   UNL     1       6.012  24.246   6.792  1.00  0.00     0.000 C 
ENDROOT
BRANCH   1   2
ATOM      2  C   UNL     1       6.894  23.336   5.931  1.00  0.00     0.000 C 
BRANCH   2   3
ATOM      3  C   UNL     1       6.480  23.402   4.455  1.00  0.00     0.000 C 
BRANCH   3   4
ATOM      4  C   UNL     1       5.731  22.132   4.036  1.00  0.00     0.000 C 
BRANCH   4   5
ATOM      5  C   UNL     1       4.415  22.481   3.324  1.00  0.00     0.000 C 
BRANCH   5   6
ATOM      6  C   UNL     1       3.828  23.823   3.788  1.00  0.00     0.006 C 
BRANCH   6   7
ATOM      7  C   UNL     1       3.150  24.597   2.651  1.00  0.00     0.053 C 
BRANCH   7   8
ATOM      8  C   UNL     1       3.995  25.761   2.235  1.00  0.00     0.041 C 
ATOM      9  O   UNL     1       5.222  25.602   2.006  1.00  0.00    -0.550 OA
ATOM     10  O   UNL     1       3.415  27.010   2.052  1.00  0.00    -0.550 OA
ENDBRANCH   7   8
ENDBRANCH   6   7
ENDBRANCH   5   6
ENDBRANCH   4   5
ENDBRANCH   3   4
ENDBRANCH   2   3
ENDBRANCH   1   2
BRANCH   1  11
ATOM     11  C   UNL     1       4.846  23.459   7.409  1.00  0.00     0.000 C 
BRANCH  11  12
ATOM     12  C   UNL     1       5.255  22.051   7.882  1.00  0.00     0.000 C 
BRANCH  12  13
ATOM     13  C   UNL     1       4.166  20.972   7.741  1.00  0.00     0.000 C 
BRANCH  13  14
ATOM     14  C   UNL     1       3.239  21.209   6.536  1.00  0.00     0.000 C 
BRANCH  14  15
ATOM     15  C   UNL     1       1.781  21.455   6.954  1.00  0.00     0.000 C 
BRANCH  15  16
ATOM     16  C   UNL     1       1.219  22.775   6.398  1.00  0.00     0.006 C 
BRANCH  16  17
ATOM     17  C   UNL     1      -0.140  22.582   5.712  1.00  0.00     0.053 C 
BRANCH  17  18
ATOM     18  C   UNL     1      -0.119  23.059   4.292  1.00  0.00     0.041 C 
ATOM     19  O   UNL     1       0.477  22.389   3.407  1.00  0.00    -0.550 OA
ATOM     20  O   UNL     1      -0.732  24.258   3.951  1.00  0.00    -0.550 OA
ENDBRANCH  17  18
ENDBRANCH  16  17
ENDBRANCH  15  16
ENDBRANCH  14  15
ENDBRANCH  13  14
ENDBRANCH  12  13
ENDBRANCH  11  12
ENDBRANCH   1  11
TORSDOF 15
ENDMDL
MODEL 3
REMARK VINA RESULT:    -2.592      0.766      6.311
REMARK INTER + INTRA:          -6.908
REMARK INTER:                  -5.049
REMARK INTRA:                  -1.859
REMARK UNBOUND:                -2.042
REMARK SMILES O=C([O-])CCCCCCCCCCCCCCC(=O)[O-]
REMARK SMILES IDX 10 1 9 2 8 3 7 4 6 5 5 6 4 7 2 8 1 9 3 10 11 11 12 12 13 13
REMARK SMILES IDX 14 14 15 15 16 16 17 17 18 18 19 19 20 20
REMARK H PARENT
REMARK Flexibility Score: inf
ROOT
ATOM      1  C   UNL     1       2.639  22.806   6.381  1.00  0.00     0.000 C 
ENDROOT
BRANCH   1   2
ATOM      2  C   UNL     1       1.293  22.930   7.104  1.00  0.00     0.000 C 
BRANCH   2   3
ATOM      3  C   UNL     1       0.362  21.767   6.739  1.00  0.00     0.000 C 
BRANCH   3   4
ATOM      4  C   UNL     1      -0.834  22.256   5.914  1.00  0.00     0.000 C 
BRANCH   4   5
ATOM      5  C   UNL     1      -1.107  21.317   4.730  1.00  0.00     0.000 C 
BRANCH   5   6
ATOM      6  C   UNL     1      -0.958  22.018   3.371  1.00  0.00     0.006 C 
BRANCH   6   7
ATOM      7  C   UNL     1       0.277  22.926   3.305  1.00  0.00     0.053 C 
BRANCH   7   8
ATOM      8  C   UNL     1      -0.107  24.295   2.838  1.00  0.00     0.041 C 
ATOM      9  O   UNL     1      -1.254  24.750   3.085  1.00  0.00    -0.550 OA
ATOM     10  O   UNL     1       0.821  25.087   2.173  1.00  0.00    -0.550 OA
ENDBRANCH   7   8
ENDBRANCH   6   7
ENDBRANCH   5   6
ENDBRANCH   4   5
ENDBRANCH   3   4
ENDBRANCH   2   3
ENDBRANCH   1   2
BRANCH   1  11
ATOM     11  C   UNL     1       2.994  21.333   6.128  1.00  0.00     0.000 C 
BRANCH  11  12
ATOM     12  C   UNL     1       4.247  20.876   6.899  1.00  0.00     0.000 C 
BRANCH  12  13
ATOM     13  C   UNL     1       4.792  21.890   7.923  1.00  0.00     0.000 C 
BRANCH  13  14
ATOM     14  C   UNL     1       6.323  21.842   8.056  1.00  0.00     0.000 C 
BRANCH  14  15
ATOM     15  C   UNL     1       6.984  23.196   7.753  1.00  0.00     0.000 C 
BRANCH  15  16
ATOM     16  C   UNL     1       5.984  24.237   7.220  1.00  0.00     0.006 C 
BRANCH  16  17
ATOM     17  C   UNL     1       6.421  24.820   5.870  1.00  0.00     0.053 C 
BRANCH  17  18
ATOM     18  C   UNL     1       5.656  24.219   4.731  1.00  0.00     0.041 C 
ATOM     19  O   UNL     1       5.739  22.985   4.492  1.00  0.00    -0.550 OA
ATOM     20  O   UNL     1       4.875  25.027   3.914  1.00  0.00    -0.550 OA
ENDBRANCH  17  18
ENDBRANCH  16  17
ENDBRANCH  15  16
ENDBRANCH  14  15
ENDBRANCH  13  14
ENDBRANCH  12  13
ENDBRANCH  11  12
ENDBRANCH   1  11
TORSDOF 15
ENDMDL
MODEL 4
REMARK VINA RESULT:    -2.499      1.191      5.982
REMARK INTER + INTRA:          -6.733
REMARK INTER:                  -4.792
REMARK INTRA:                  -1.942
REMARK UNBOUND:                -2.042
REMARK SMILES O=C([O-])CCCCCCCCCCCCCCC(=O)[O-]
REMARK SMILES IDX 10 1 9 2 8 3 7 4 6 5 5 6 4 7 2 8 1 9 3 10 11 11 12 12 13 13
REMARK SMILES IDX 14 14 15 15 16 16 17 17 18 18 19 19 20 20
REMARK H PARENT
REMARK Flexibility Score: inf
ROOT
ATOM      1  C   UNL     1       2.672  22.756   5.789  1.00  0.00     0.000 C 
ENDROOT
BRANCH   1   2
ATOM      2  C   UNL     1       1.548  23.075   6.782  1.00  0.00     0.000 C 
BRANCH   2   3
ATOM      3  C   UNL     1       0.567  21.902   6.899  1.00  0.00     0.000 C 
BRANCH   3   4
ATOM      4  C   UNL     1      -0.724  22.183   6.122  1.00  0.00     0.000 C 
BRANCH   4   5
ATOM      5  C   UNL     1      -0.865  21.229   4.926  1.00  0.00     0.000 C 
BRANCH   5   6
ATOM      6  C   UNL     1      -0.295  21.820   3.627  1.00  0.00     0.006 C 
BRANCH   6   7
ATOM      7  C   UNL     1      -0.359  23.352   3.595  1.00  0.00     0.053 C 
BRANCH   7   8
ATOM      8  C   UNL     1       0.721  23.901   2.716  1.00  0.00     0.041 C 
ATOM      9  O   UNL     1       0.654  25.086   2.298  1.00  0.00    -0.550 OA
ATOM     10  O   UNL     1       1.825  23.120   2.401  1.00  0.00    -0.550 OA
ENDBRANCH   7   8
ENDBRANCH   6   7
ENDBRANCH   5   6
ENDBRANCH   4   5
ENDBRANCH   3   4
ENDBRANCH   2   3
ENDBRANCH   1   2
BRANCH   1  11
ATOM     11  C   UNL     1       3.521  21.574   6.280  1.00  0.00     0.000 C 
BRANCH  11  12
ATOM     12  C   UNL     1       4.978  21.966   6.587  1.00  0.00     0.000 C 
BRANCH  12  13
ATOM     13  C   UNL     1       5.148  23.105   7.610  1.00  0.00     0.000 C 
BRANCH  13  14
ATOM     14  C   UNL     1       5.982  24.278   7.068  1.00  0.00     0.000 C 
BRANCH  14  15
ATOM     15  C   UNL     1       6.842  23.880   5.857  1.00  0.00     0.000 C 
BRANCH  15  16
ATOM     16  C   UNL     1       6.644  24.819   4.655  1.00  0.00     0.006 C 
BRANCH  16  17
ATOM     17  C   UNL     1       5.169  24.941   4.252  1.00  0.00     0.053 C 
BRANCH  17  18
ATOM     18  C   UNL     1       4.999  24.957   2.764  1.00  0.00     0.041 C 
ATOM     19  O   UNL     1       5.800  24.324   2.026  1.00  0.00    -0.550 OA
ATOM     20  O   UNL     1       3.972  25.696   2.188  1.00  0.00    -0.550 OA
ENDBRANCH  17  18
ENDBRANCH  16  17
ENDBRANCH  15  16
ENDBRANCH  14  15
ENDBRANCH  13  14
ENDBRANCH  12  13
ENDBRANCH  11  12
ENDBRANCH   1  11
TORSDOF 15
ENDMDL
MODEL 5
REMARK VINA RESULT:    -2.486      1.425      5.699
REMARK INTER + INTRA:          -6.708
REMARK INTER:                  -4.886
REMARK INTRA:                  -1.822
REMARK UNBOUND:                -2.042
REMARK SMILES O=C([O-])CCCCCCCCCCCCCCC(=O)[O-]
REMARK SMILES IDX 10 1 9 2 8 3 7 4 6 5 5 6 4 7 2 8 1 9 3 10 11 11 12 12 13 13
REMARK SMILES IDX 14 14 15 15 16 16 17 17 18 18 19 19 20 20
REMARK H PARENT
REMARK Flexibility Score: inf
ROOT
ATOM      1  C   UNL     1       4.212  21.341   7.287  1.00  0.00     0.000 C 
ENDROOT
BRANCH   1   2
ATOM      2  C   UNL     1       3.195  21.299   6.141  1.00  0.00     0.000 C 
BRANCH   2   3
ATOM      3  C   UNL     1       2.682  22.705   5.807  1.00  0.00     0.000 C 
BRANCH   3   4
ATOM      4  C   UNL     1       1.552  23.120   6.757  1.00  0.00     0.000 C 
BRANCH   4   5
ATOM      5  C   UNL     1       0.489  22.016   6.861  1.00  0.00     0.000 C 
BRANCH   5   6
ATOM      6  C   UNL     1      -0.775  22.333   6.048  1.00  0.00     0.006 C 
BRANCH   6   7
ATOM      7  C   UNL     1      -0.711  21.787   4.616  1.00  0.00     0.053 C 
BRANCH   7   8
ATOM      8  C   UNL     1      -0.566  22.908   3.636  1.00  0.00     0.041 C 
ATOM      9  O   UNL     1      -0.698  24.101   4.014  1.00  0.00    -0.550 OA
ATOM     10  O   UNL     1      -0.236  22.636   2.314  1.00  0.00    -0.550 OA
ENDBRANCH   7   8
ENDBRANCH   6   7
ENDBRANCH   5   6
ENDBRANCH   4   5
ENDBRANCH   3   4
ENDBRANCH   2   3
ENDBRANCH   1   2
BRANCH   1  11
ATOM     11  C   UNL     1       5.591  21.793   6.783  1.00  0.00     0.000 C 
BRANCH  11  12
ATOM     12  C   UNL     1       6.176  22.961   7.598  1.00  0.00     0.000 C 
BRANCH  12  13
ATOM     13  C   UNL     1       5.901  24.363   7.023  1.00  0.00     0.000 C 
BRANCH  13  14
ATOM     14  C   UNL     1       6.452  24.544   5.598  1.00  0.00     0.000 C 
BRANCH  14  15
ATOM     15  C   UNL     1       5.342  24.808   4.567  1.00  0.00     0.000 C 
BRANCH  15  16
ATOM     16  C   UNL     1       5.594  24.091   3.229  1.00  0.00     0.006 C 
BRANCH  16  17
ATOM     17  C   UNL     1       4.981  24.847   2.043  1.00  0.00     0.053 C 
BRANCH  17  18
ATOM     18  C   UNL     1       3.577  25.284   2.329  1.00  0.00     0.041 C 
ATOM     19  O   UNL     1       2.677  24.430   2.543  1.00  0.00    -0.550 OA
ATOM     20  O   UNL     1       3.255  26.636   2.328  1.00  0.00    -0.550 OA
ENDBRANCH  17  18
ENDBRANCH  16  17
ENDBRANCH  15  16
ENDBRANCH  14  15
ENDBRANCH  13  14
ENDBRANCH  12  13
ENDBRANCH  11  12
ENDBRANCH   1  11
TORSDOF 15
ENDMDL
MODEL 6
REMARK VINA RESULT:    -2.440      2.618      6.786
REMARK INTER + INTRA:          -6.622
REMARK INTER:                  -4.905
REMARK INTRA:                  -1.717
REMARK UNBOUND:                -2.042
REMARK SMILES O=C([O-])CCCCCCCCCCCCCCC(=O)[O-]
REMARK SMILES IDX 10 1 9 2 8 3 7 4 6 5 5 6 4 7 2 8 1 9 3 10 11 11 12 12 13 13
REMARK SMILES IDX 14 14 15 15 16 16 17 17 18 18 19 19 20 20
REMARK H PARENT
REMARK Flexibility Score: inf
ROOT
ATOM      1  C   UNL     1       0.304  24.398   2.752  1.00  0.00     0.000 C 
ENDROOT
BRANCH   1   2
ATOM      2  C   UNL     1       0.424  22.945   2.278  1.00  0.00     0.000 C 
BRANCH   2   3
ATOM      3  C   UNL     1       0.679  21.999   3.458  1.00  0.00     0.000 C 
BRANCH   3   4
ATOM      4  C   UNL     1       1.381  22.730   4.608  1.00  0.00     0.000 C 
BRANCH   4   5
ATOM      5  C   UNL     1       2.261  21.765   5.417  1.00  0.00     0.000 C 
BRANCH   5   6
ATOM      6  C   UNL     1       1.519  21.146   6.611  1.00  0.00     0.006 C 
BRANCH   6   7
ATOM      7  C   UNL     1       0.600  22.148   7.321  1.00  0.00     0.053 C 
BRANCH   7   8
ATOM      8  C   UNL     1      -0.781  21.587   7.453  1.00  0.00     0.041 C 
ATOM      9  O   UNL     1      -1.373  21.120   6.445  1.00  0.00    -0.550 OA
ATOM     10  O   UNL     1      -1.395  21.536   8.698  1.00  0.00    -0.550 OA
ENDBRANCH   7   8
ENDBRANCH   6   7
ENDBRANCH   5   6
ENDBRANCH   4   5
ENDBRANCH   3   4
ENDBRANCH   2   3
ENDBRANCH   1   2
BRANCH   1  11
ATOM     11  C   UNL     1       1.301  25.301   2.012  1.00  0.00     0.000 C 
BRANCH  11  12
ATOM     12  C   UNL     1       2.699  24.668   1.875  1.00  0.00     0.000 C 
BRANCH  12  13
ATOM     13  C   UNL     1       3.811  25.356   2.689  1.00  0.00     0.000 C 
BRANCH  13  14
ATOM     14  C   UNL     1       4.580  24.380   3.596  1.00  0.00     0.000 C 
BRANCH  14  15
ATOM     15  C   UNL     1       5.964  24.915   3.998  1.00  0.00     0.000 C 
BRANCH  15  16
ATOM     16  C   UNL     1       6.266  24.712   5.493  1.00  0.00     0.006 C 
BRANCH  16  17
ATOM     17  C   UNL     1       5.115  24.012   6.227  1.00  0.00     0.053 C 
BRANCH  17  18
ATOM     18  C   UNL     1       5.593  22.830   7.013  1.00  0.00     0.041 C 
ATOM     19  O   UNL     1       4.836  22.281   7.857  1.00  0.00    -0.550 OA
ATOM     20  O   UNL     1       6.885  22.353   6.834  1.00  0.00    -0.550 OA
ENDBRANCH  17  18
ENDBRANCH  16  17
ENDBRANCH  15  16
ENDBRANCH  14  15
ENDBRANCH  13  14
ENDBRANCH  12  13
ENDBRANCH  11  12
ENDBRANCH   1  11
TORSDOF 15
ENDMDL
MODEL 7
REMARK VINA RESULT:    -2.354      1.657      6.630
REMARK INTER + INTRA:          -6.460
REMARK INTER:                  -4.659
REMARK INTRA:                  -1.800
REMARK UNBOUND:                -2.042
REMARK SMILES O=C([O-])CCCCCCCCCCCCCCC(=O)[O-]
REMARK SMILES IDX 10 1 9 2 8 3 7 4 6 5 5 6 4 7 2 8 1 9 3 10 11 11 12 12 13 13
REMARK SMILES IDX 14 14 15 15 16 16 17 17 18 18 19 19 20 20
REMARK H PARENT
REMARK Flexibility Score: inf
ROOT
ATOM      1  C   UNL     1       1.567  22.897   6.749  1.00  0.00     0.000 C 
ENDROOT
BRANCH   1   2
ATOM      2  C   UNL     1       1.238  21.443   7.106  1.00  0.00     0.000 C 
BRANCH   2   3
ATOM      3  C   UNL     1       0.097  20.905   6.234  1.00  0.00     0.000 C 
BRANCH   3   4
ATOM      4  C   UNL     1      -0.712  22.051   5.617  1.00  0.00     0.000 C 
BRANCH   4   5
ATOM      5  C   UNL     1      -1.627  21.537   4.495  1.00  0.00     0.000 C 
BRANCH   5   6
ATOM      6  C   UNL     1      -1.248  22.099   3.116  1.00  0.00     0.006 C 
BRANCH   6   7
ATOM      7  C   UNL     1       0.088  22.852   3.131  1.00  0.00     0.053 C 
BRANCH   7   8
ATOM      8  C   UNL     1      -0.115  24.282   2.739  1.00  0.00     0.041 C 
ATOM      9  O   UNL     1      -1.246  24.819   2.866  1.00  0.00    -0.550 OA
ATOM     10  O   UNL     1       0.958  25.035   2.279  1.00  0.00    -0.550 OA
ENDBRANCH   7   8
ENDBRANCH   6   7
ENDBRANCH   5   6
ENDBRANCH   4   5
ENDBRANCH   3   4
ENDBRANCH   2   3
ENDBRANCH   1   2
BRANCH   1  11
ATOM     11  C   UNL     1       3.055  23.056   6.402  1.00  0.00     0.000 C 
BRANCH  11  12
ATOM     12  C   UNL     1       3.291  23.443   4.930  1.00  0.00     0.000 C 
BRANCH  12  13
ATOM     13  C   UNL     1       3.997  22.371   4.077  1.00  0.00     0.000 C 
BRANCH  13  14
ATOM     14  C   UNL     1       5.165  22.937   3.252  1.00  0.00     0.000 C 
BRANCH  14  15
ATOM     15  C   UNL     1       5.475  24.403   3.598  1.00  0.00     0.000 C 
BRANCH  15  16
ATOM     16  C   UNL     1       6.902  24.595   4.139  1.00  0.00     0.006 C 
BRANCH  16  17
ATOM     17  C   UNL     1       6.908  25.054   5.604  1.00  0.00     0.053 C 
BRANCH  17  18
ATOM     18  C   UNL     1       6.692  23.909   6.545  1.00  0.00     0.041 C 
ATOM     19  O   UNL     1       6.145  24.102   7.664  1.00  0.00    -0.550 OA
ATOM     20  O   UNL     1       7.123  22.634   6.201  1.00  0.00    -0.550 OA
ENDBRANCH  17  18
ENDBRANCH  16  17
ENDBRANCH  15  16
ENDBRANCH  14  15
ENDBRANCH  13  14
ENDBRANCH  12  13
ENDBRANCH  11  12
ENDBRANCH   1  11
TORSDOF 15
ENDMDL
MODEL 8
REMARK VINA RESULT:    -2.300      2.566      6.973
REMARK INTER + INTRA:          -6.359
REMARK INTER:                  -4.864
REMARK INTRA:                  -1.495
REMARK UNBOUND:                -2.042
REMARK SMILES O=C([O-])CCCCCCCCCCCCCCC(=O)[O-]
REMARK SMILES IDX 10 1 9 2 8 3 7 4 6 5 5 6 4 7 2 8 1 9 3 10 11 11 12 12 13 13
REMARK SMILES IDX 14 14 15 15 16 16 17 17 18 18 19 19 20 20
REMARK H PARENT
REMARK Flexibility Score: inf
ROOT
ATOM      1  C   UNL     1       0.163  24.075   2.970  1.00  0.00     0.000 C 
ENDROOT
BRANCH   1   2
ATOM      2  C   UNL     1      -1.127  24.063   2.141  1.00  0.00     0.000 C 
BRANCH   2   3
ATOM      3  C   UNL     1      -1.815  22.694   2.212  1.00  0.00     0.000 C 
BRANCH   3   4
ATOM      4  C   UNL     1      -1.098  21.767   3.199  1.00  0.00     0.000 C 
BRANCH   4   5
ATOM      5  C   UNL     1      -2.078  21.217   4.248  1.00  0.00     0.000 C 
BRANCH   5   6
ATOM      6  C   UNL     1      -1.422  21.016   5.623  1.00  0.00     0.006 C 
BRANCH   6   7
ATOM      7  C   UNL     1       0.044  21.465   5.651  1.00  0.00     0.053 C 
BRANCH   7   8
ATOM      8  C   UNL     1       0.352  22.164   6.937  1.00  0.00     0.041 C 
ATOM      9  O   UNL     1      -0.147  21.752   8.017  1.00  0.00    -0.550 OA
ATOM     10  O   UNL     1       1.231  23.240   6.951  1.00  0.00    -0.550 OA
ENDBRANCH   7   8
ENDBRANCH   6   7
ENDBRANCH   5   6
ENDBRANCH   4   5
ENDBRANCH   3   4
ENDBRANCH   2   3
ENDBRANCH   1   2
BRANCH   1  11
ATOM     11  C   UNL     1       1.393  24.252   2.069  1.00  0.00     0.000 C 
BRANCH  11  12
ATOM     12  C   UNL     1       1.878  25.712   1.995  1.00  0.00     0.000 C 
BRANCH  12  13
ATOM     13  C   UNL     1       3.394  25.909   2.187  1.00  0.00     0.000 C 
BRANCH  13  14
ATOM     14  C   UNL     1       4.133  24.596   2.499  1.00  0.00     0.000 C 
BRANCH  14  15
ATOM     15  C   UNL     1       4.609  24.520   3.958  1.00  0.00     0.000 C 
BRANCH  15  16
ATOM     16  C   UNL     1       3.817  23.494   4.787  1.00  0.00     0.006 C 
BRANCH  16  17
ATOM     17  C   UNL     1       4.731  22.448   5.439  1.00  0.00     0.053 C 
BRANCH  17  18
ATOM     18  C   UNL     1       4.694  22.533   6.934  1.00  0.00     0.041 C 
ATOM     19  O   UNL     1       5.023  23.600   7.518  1.00  0.00    -0.550 OA
ATOM     20  O   UNL     1       4.326  21.424   7.685  1.00  0.00    -0.550 OA
ENDBRANCH  17  18
ENDBRANCH  16  17
ENDBRANCH  15  16
ENDBRANCH  14  15
ENDBRANCH  13  14
ENDBRANCH  12  13
ENDBRANCH  11  12
ENDBRANCH   1  11
TORSDOF 15
ENDMDL
MODEL 9
REMARK VINA RESULT:    -2.239      1.223      2.280
REMARK INTER + INTRA:          -6.244
REMARK INTER:                  -4.892
REMARK INTRA:                  -1.352
REMARK UNBOUND:                -2.042
REMARK SMILES O=C([O-])CCCCCCCCCCCCCCC(=O)[O-]
REMARK SMILES IDX 10 1 9 2 8 3 7 4 6 5 5 6 4 7 2 8 1 9 3 10 11 11 12 12 13 13
REMARK SMILES IDX 14 14 15 15 16 16 17 17 18 18 19 19 20 20
REMARK H PARENT
REMARK Flexibility Score: inf
ROOT
ATOM      1  C   UNL     1       1.211  22.771   6.421  1.00  0.00     0.000 C 
ENDROOT
BRANCH   1   2
ATOM      2  C   UNL     1       2.642  22.264   6.633  1.00  0.00     0.000 C 
BRANCH   2   3
ATOM      3  C   UNL     1       3.653  23.413   6.539  1.00  0.00     0.000 C 
BRANCH   3   4
ATOM      4  C   UNL     1       4.869  23.152   7.436  1.00  0.00     0.000 C 
BRANCH   4   5
ATOM      5  C   UNL     1       6.009  24.130   7.114  1.00  0.00     0.000 C 
BRANCH   5   6
ATOM      6  C   UNL     1       6.717  23.799   5.791  1.00  0.00     0.006 C 
BRANCH   6   7
ATOM      7  C   UNL     1       6.537  24.895   4.733  1.00  0.00     0.053 C 
BRANCH   7   8
ATOM      8  C   UNL     1       5.601  24.437   3.660  1.00  0.00     0.041 C 
ATOM      9  O   UNL     1       5.461  23.208   3.424  1.00  0.00    -0.550 OA
ATOM     10  O   UNL     1       4.845  25.365   2.955  1.00  0.00    -0.550 OA
ENDBRANCH   7   8
ENDBRANCH   6   7
ENDBRANCH   5   6
ENDBRANCH   4   5
ENDBRANCH   3   4
ENDBRANCH   2   3
ENDBRANCH   1   2
BRANCH   1  11
ATOM     11  C   UNL     1       0.215  21.985   7.287  1.00  0.00     0.000 C 
BRANCH  11  12
ATOM     12  C   UNL     1      -0.675  21.033   6.466  1.00  0.00     0.000 C 
BRANCH  12  13
ATOM     13  C   UNL     1      -0.456  21.084   4.942  1.00  0.00     0.000 C 
BRANCH  13  14
ATOM     14  C   UNL     1      -1.501  21.950   4.216  1.00  0.00     0.000 C 
BRANCH  14  15
ATOM     15  C   UNL     1      -1.473  21.752   2.692  1.00  0.00     0.000 C 
BRANCH  15  16
ATOM     16  C   UNL     1      -1.114  23.041   1.933  1.00  0.00     0.006 C 
BRANCH  16  17
ATOM     17  C   UNL     1      -0.519  24.111   2.859  1.00  0.00     0.053 C 
BRANCH  17  18
ATOM     18  C   UNL     1       0.944  24.311   2.611  1.00  0.00     0.041 C 
ATOM     19  O   UNL     1       1.354  25.357   2.041  1.00  0.00    -0.550 OA
ATOM     20  O   UNL     1       1.853  23.328   2.981  1.00  0.00    -0.550 OA
ENDBRANCH  17  18
ENDBRANCH  16  17
ENDBRANCH  15  16
ENDBRANCH  14  15
ENDBRANCH  13  14
ENDBRANCH  12  13
ENDBRANCH  11  12
ENDBRANCH   1  11
TORSDOF 15
ENDMDL
