MODEL 1
REMARK VINA RESULT:    -3.448      0.000      0.000
REMARK INTER + INTRA:          -5.181
REMARK INTER:                  -4.860
REMARK INTRA:                  -0.322
REMARK UNBOUND:                -0.322
REMARK SMILES CCCCCCCCC(=O)[O-]
REMARK SMILES IDX 6 1 7 2 8 3 9 4 10 5 11 6 5 7 4 8 3 9 2 10 1 11
REMARK H PARENT
REMARK Flexibility Score: inf
ROOT
ATOM      1  C   UNL     1      17.619   1.430  25.421  1.00  0.00     0.000 C 
ENDROOT
BRANCH   1   2
ATOM      2  C   UNL     1      17.013   2.771  24.979  1.00  0.00     0.006 C 
BRANCH   2   3
ATOM      3  C   UNL     1      15.746   3.125  25.769  1.00  0.00     0.053 C 
BRANCH   3   4
ATOM      4  C   UNL     1      14.504   2.751  25.021  1.00  0.00     0.041 C 
ATOM      5  O   UNL     1      13.630   2.025  25.564  1.00  0.00    -0.550 OA
ATOM      6  O   UNL     1      14.296   3.231  23.735  1.00  0.00    -0.550 OA
ENDBRANCH   3   4
ENDBRANCH   2   3
ENDBRANCH   1   2
BRANCH   1   7
ATOM      7  C   UNL     1      19.099   1.589  25.789  1.00  0.00     0.000 C 
BRANCH   7   8
ATOM      8  C   UNL     1      19.327   1.315  27.284  1.00  0.00    -0.000 C 
BRANCH   8   9
ATOM      9  C   UNL     1      18.828   2.475  28.171  1.00  0.00    -0.000 C 
BRANCH   9  10
ATOM     10  C   UNL     1      19.374   2.429  29.609  1.00  0.00    -0.003 C 
ATOM     11  C   UNL     1      18.916   3.610  30.461  1.00  0.00     0.004 C 
ENDBRANCH   9  10
ENDBRANCH   8   9
ENDBRANCH   7   8
ENDBRANCH   1   7
TORSDOF 7
ENDMDL
MODEL 2
REMARK VINA RESULT:    -2.652      3.284      5.543
REMARK INTER + INTRA:          -4.059
REMARK INTER:                  -3.725
REMARK INTRA:                  -0.334
REMARK UNBOUND:                -0.322
REMARK SMILES CCCCCCCCC(=O)[O-]
REMARK SMILES IDX 6 1 7 2 8 3 9 4 10 5 11 6 5 7 4 8 3 9 2 10 1 11
REMARK H PARENT
REMARK Flexibility Score: inf
ROOT
ATOM      1  C   UNL     1      18.974   1.662  25.724  1.00  0.00     0.000 C 
ENDROOT
BRANCH   1   2
ATOM      2  C   UNL     1      19.196   1.493  27.235  1.00  0.00     0.006 C 
BRANCH   2   3
ATOM      3  C   UNL     1      18.699   2.705  28.034  1.00  0.00     0.053 C 
BRANCH   3   4
ATOM      4  C   UNL     1      19.263   2.722  29.422  1.00  0.00     0.041 C 
ATOM      5  O   UNL     1      20.201   1.943  29.736  1.00  0.00    -0.550 OA
ATOM      6  O   UNL     1      18.774   3.622  30.360  1.00  0.00    -0.550 OA
ENDBRANCH   3   4
ENDBRANCH   2   3
ENDBRANCH   1   2
BRANCH   1   7
ATOM      7  C   UNL     1      17.502   1.440  25.357  1.00  0.00     0.000 C 
BRANCH   7   8
ATOM      8  C   UNL     1      16.840   2.754  24.913  1.00  0.00    -0.000 C 
BRANCH   8   9
ATOM      9  C   UNL     1      15.660   3.149  25.825  1.00  0.00    -0.000 C 
BRANCH   9  10
ATOM     10  C   UNL     1      14.305   2.593  25.355  1.00  0.00    -0.003 C 
ATOM     11  C   UNL     1      13.837   3.195  24.033  1.00  0.00     0.004 C 
ENDBRANCH   9  10
ENDBRANCH   8   9
ENDBRANCH   7   8
ENDBRANCH   1   7
TORSDOF 7
ENDMDL
MODEL 3
REMARK VINA RESULT:    -2.569      0.986      1.545
REMARK INTER + INTRA:          -3.942
REMARK INTER:                  -3.735
REMARK INTRA:                  -0.207
REMARK UNBOUND:                -0.322
REMARK SMILES CCCCCCCCC(=O)[O-]
REMARK SMILES IDX 6 1 7 2 8 3 9 4 10 5 11 6 5 7 4 8 3 9 2 10 1 11
REMARK H PARENT
REMARK Flexibility Score: inf
ROOT
ATOM      1  C   UNL     1      19.085   1.447  25.573  1.00  0.00     0.000 C 
ENDROOT
BRANCH   1   2
ATOM      2  C   UNL     1      17.558   1.446  25.410  1.00  0.00     0.006 C 
BRANCH   2   3
ATOM      3  C   UNL     1      17.019   2.814  24.971  1.00  0.00     0.053 C 
BRANCH   3   4
ATOM      4  C   UNL     1      15.635   3.058  25.490  1.00  0.00     0.041 C 
ATOM      5  O   UNL     1      15.438   3.910  26.395  1.00  0.00    -0.550 OA
ATOM      6  O   UNL     1      14.559   2.366  24.950  1.00  0.00    -0.550 OA
ENDBRANCH   3   4
ENDBRANCH   2   3
ENDBRANCH   1   2
BRANCH   1   7
ATOM      7  C   UNL     1      19.481   1.262  27.043  1.00  0.00     0.000 C 
BRANCH   7   8
ATOM      8  C   UNL     1      19.016   2.454  27.894  1.00  0.00    -0.000 C 
BRANCH   8   9
ATOM      9  C   UNL     1      19.276   2.232  29.399  1.00  0.00    -0.000 C 
BRANCH   9  10
ATOM     10  C   UNL     1      19.321   3.536  30.214  1.00  0.00    -0.003 C 
ATOM     11  C   UNL     1      17.947   3.978  30.713  1.00  0.00     0.004 C 
ENDBRANCH   9  10
ENDBRANCH   8   9
ENDBRANCH   7   8
ENDBRANCH   1   7
TORSDOF 7
ENDMDL
MODEL 4
REMARK VINA RESULT:    -2.566     15.687     17.139
REMARK INTER + INTRA:          -3.938
REMARK INTER:                  -3.526
REMARK INTRA:                  -0.412
REMARK UNBOUND:                -0.322
REMARK SMILES CCCCCCCCC(=O)[O-]
REMARK SMILES IDX 6 1 7 2 8 3 9 4 10 5 11 6 5 7 4 8 3 9 2 10 1 11
REMARK H PARENT
REMARK Flexibility Score: inf
ROOT
ATOM      1  C   UNL     1      11.601  16.967  22.000  1.00  0.00     0.000 C 
ENDROOT
BRANCH   1   2
ATOM      2  C   UNL     1      10.992  17.423  23.335  1.00  0.00     0.006 C 
BRANCH   2   3
ATOM      3  C   UNL     1      11.356  16.481  24.491  1.00  0.00     0.053 C 
BRANCH   3   4
ATOM      4  C   UNL     1      12.297  17.130  25.459  1.00  0.00     0.041 C 
ATOM      5  O   UNL     1      13.313  17.746  25.041  1.00  0.00    -0.550 OA
ATOM      6  O   UNL     1      12.034  17.083  26.822  1.00  0.00    -0.550 OA
ENDBRANCH   3   4
ENDBRANCH   2   3
ENDBRANCH   1   2
BRANCH   1   7
ATOM      7  C   UNL     1      12.593  18.006  21.465  1.00  0.00     0.000 C 
BRANCH   7   8
ATOM      8  C   UNL     1      13.551  17.378  20.441  1.00  0.00    -0.000 C 
BRANCH   8   9
ATOM      9  C   UNL     1      13.417  18.024  19.046  1.00  0.00    -0.000 C 
BRANCH   9  10
ATOM     10  C   UNL     1      11.976  18.036  18.508  1.00  0.00    -0.003 C 
ATOM     11  C   UNL     1      11.477  16.652  18.099  1.00  0.00     0.004 C 
ENDBRANCH   9  10
ENDBRANCH   8   9
ENDBRANCH   7   8
ENDBRANCH   1   7
TORSDOF 7
ENDMDL
MODEL 5
REMARK VINA RESULT:    -2.494      3.294      5.917
REMARK INTER + INTRA:          -3.837
REMARK INTER:                  -3.511
REMARK INTRA:                  -0.325
REMARK UNBOUND:                -0.322
REMARK SMILES CCCCCCCCC(=O)[O-]
REMARK SMILES IDX 6 1 7 2 8 3 9 4 10 5 11 6 5 7 4 8 3 9 2 10 1 11
REMARK H PARENT
REMARK Flexibility Score: inf
ROOT
ATOM      1  C   UNL     1      16.742   3.273  26.165  1.00  0.00     0.000 C 
ENDROOT
BRANCH   1   2
ATOM      2  C   UNL     1      17.427   2.533  25.007  1.00  0.00     0.006 C 
BRANCH   2   3
ATOM      3  C   UNL     1      18.059   1.209  25.457  1.00  0.00     0.053 C 
BRANCH   3   4
ATOM      4  C   UNL     1      19.305   1.433  26.258  1.00  0.00     0.041 C 
ATOM      5  O   UNL     1      20.434   1.384  25.703  1.00  0.00    -0.550 OA
ATOM      6  O   UNL     1      19.216   1.729  27.612  1.00  0.00    -0.550 OA
ENDBRANCH   3   4
ENDBRANCH   2   3
ENDBRANCH   1   2
BRANCH   1   7
ATOM      7  C   UNL     1      15.292   3.625  25.812  1.00  0.00     0.000 C 
BRANCH   7   8
ATOM      8  C   UNL     1      14.482   2.362  25.482  1.00  0.00    -0.000 C 
BRANCH   8   9
ATOM      9  C   UNL     1      13.298   2.659  24.538  1.00  0.00    -0.000 C 
BRANCH   9  10
ATOM     10  C   UNL     1      13.720   3.303  23.206  1.00  0.00    -0.003 C 
ATOM     11  C   UNL     1      13.017   4.631  22.934  1.00  0.00     0.004 C 
ENDBRANCH   9  10
ENDBRANCH   8   9
ENDBRANCH   7   8
ENDBRANCH   1   7
TORSDOF 7
ENDMDL
MODEL 6
REMARK VINA RESULT:    -2.431     15.385     16.792
REMARK INTER + INTRA:          -3.748
REMARK INTER:                  -3.262
REMARK INTRA:                  -0.486
REMARK UNBOUND:                -0.322
REMARK SMILES CCCCCCCCC(=O)[O-]
REMARK SMILES IDX 6 1 7 2 8 3 9 4 10 5 11 6 5 7 4 8 3 9 2 10 1 11
REMARK H PARENT
REMARK Flexibility Score: inf
ROOT
ATOM      1  C   UNL     1      11.473  15.279  20.882  1.00  0.00     0.000 C 
ENDROOT
BRANCH   1   2
ATOM      2  C   UNL     1      11.071  15.583  22.333  1.00  0.00     0.006 C 
BRANCH   2   3
ATOM      3  C   UNL     1      11.505  16.988  22.774  1.00  0.00     0.053 C 
BRANCH   3   4
ATOM      4  C   UNL     1      12.032  16.991  24.176  1.00  0.00     0.041 C 
ATOM      5  O   UNL     1      11.530  16.229  25.045  1.00  0.00    -0.550 OA
ATOM      6  O   UNL     1      13.100  17.811  24.516  1.00  0.00    -0.550 OA
ENDBRANCH   3   4
ENDBRANCH   2   3
ENDBRANCH   1   2
BRANCH   1   7
ATOM      7  C   UNL     1      10.875  16.310  19.918  1.00  0.00     0.000 C 
BRANCH   7   8
ATOM      8  C   UNL     1      11.719  16.423  18.639  1.00  0.00    -0.000 C 
BRANCH   8   9
ATOM      9  C   UNL     1      12.180  17.871  18.370  1.00  0.00    -0.000 C 
BRANCH   9  10
ATOM     10  C   UNL     1      13.670  18.108  18.668  1.00  0.00    -0.003 C 
ATOM     11  C   UNL     1      13.992  18.098  20.160  1.00  0.00     0.004 C 
ENDBRANCH   9  10
ENDBRANCH   8   9
ENDBRANCH   7   8
ENDBRANCH   1   7
TORSDOF 7
ENDMDL
MODEL 7
REMARK VINA RESULT:    -2.185     14.510     16.074
REMARK INTER + INTRA:          -3.400
REMARK INTER:                  -3.290
REMARK INTRA:                  -0.110
REMARK UNBOUND:                -0.322
REMARK SMILES CCCCCCCCC(=O)[O-]
REMARK SMILES IDX 6 1 7 2 8 3 9 4 10 5 11 6 5 7 4 8 3 9 2 10 1 11
REMARK H PARENT
REMARK Flexibility Score: inf
ROOT
ATOM      1  C   UNL     1      28.417  -0.559  35.040  1.00  0.00     0.000 C 
ENDROOT
BRANCH   1   2
ATOM      2  C   UNL     1      29.522  -1.413  34.400  1.00  0.00     0.006 C 
BRANCH   2   3
ATOM      3  C   UNL     1      30.787  -0.598  34.100  1.00  0.00     0.053 C 
BRANCH   3   4
ATOM      4  C   UNL     1      30.549   0.873  34.261  1.00  0.00     0.041 C 
ATOM      5  O   UNL     1      29.804   1.488  33.453  1.00  0.00    -0.550 OA
ATOM      6  O   UNL     1      31.125   1.558  35.324  1.00  0.00    -0.550 OA
ENDBRANCH   3   4
ENDBRANCH   2   3
ENDBRANCH   1   2
BRANCH   1   7
ATOM      7  C   UNL     1      27.248  -1.433  35.508  1.00  0.00     0.000 C 
BRANCH   7   8
ATOM      8  C   UNL     1      27.575  -2.125  36.840  1.00  0.00    -0.000 C 
BRANCH   8   9
ATOM      9  C   UNL     1      28.556  -1.300  37.700  1.00  0.00    -0.000 C 
BRANCH   9  10
ATOM     10  C   UNL     1      29.923  -1.978  37.895  1.00  0.00    -0.003 C 
ATOM     11  C   UNL     1      31.077  -0.984  37.989  1.00  0.00     0.004 C 
ENDBRANCH   9  10
ENDBRANCH   8   9
ENDBRANCH   7   8
ENDBRANCH   1   7
TORSDOF 7
ENDMDL
MODEL 8
REMARK VINA RESULT:    -1.305      1.722      2.765
REMARK INTER + INTRA:          -2.160
REMARK INTER:                  -1.891
REMARK INTRA:                  -0.270
REMARK UNBOUND:                -0.322
REMARK SMILES CCCCCCCCC(=O)[O-]
REMARK SMILES IDX 6 1 7 2 8 3 9 4 10 5 11 6 5 7 4 8 3 9 2 10 1 11
REMARK H PARENT
REMARK Flexibility Score: inf
ROOT
ATOM      1  C   UNL     1      16.735   2.338  25.052  1.00  0.00     0.000 C 
ENDROOT
BRANCH   1   2
ATOM      2  C   UNL     1      15.748   3.333  25.683  1.00  0.00     0.006 C 
BRANCH   2   3
ATOM      3  C   UNL     1      14.339   2.743  25.823  1.00  0.00     0.053 C 
BRANCH   3   4
ATOM      4  C   UNL     1      13.632   2.677  24.504  1.00  0.00     0.041 C 
ATOM      5  O   UNL     1      13.951   3.462  23.573  1.00  0.00    -0.550 OA
ATOM      6  O   UNL     1      12.644   1.724  24.293  1.00  0.00    -0.550 OA
ENDBRANCH   3   4
ENDBRANCH   2   3
ENDBRANCH   1   2
BRANCH   1   7
ATOM      7  C   UNL     1      18.181   2.691  25.417  1.00  0.00     0.000 C 
BRANCH   7   8
ATOM      8  C   UNL     1      18.503   2.276  26.860  1.00  0.00    -0.000 C 
BRANCH   8   9
ATOM      9  C   UNL     1      19.535   1.130  26.921  1.00  0.00    -0.000 C 
BRANCH   9  10
ATOM     10  C   UNL     1      20.309   0.928  25.608  1.00  0.00    -0.003 C 
ATOM     11  C   UNL     1      21.803   0.694  25.823  1.00  0.00     0.004 C 
ENDBRANCH   9  10
ENDBRANCH   8   9
ENDBRANCH   7   8
ENDBRANCH   1   7
TORSDOF 7
ENDMDL
