MODEL 1
REMARK VINA RESULT:     0.000      0.000      0.000
REMARK INTER + INTRA:          -5.006
REMARK INTER:                   0.000
REMARK INTRA:                  -5.006
REMARK UNBOUND:                -5.006
REMARK SMILES CCCCCCCCCCCCCCCCCCCCCC(=O)[O-]
REMARK SMILES IDX 12 1 11 2 10 3 9 4 8 5 7 6 6 7 5 8 4 9 3 10 2 11 1 12 13 13
REMARK SMILES IDX 14 14 15 15 16 16 17 17 18 18 19 19 20 20 21 21 22 22 23 23
REMARK SMILES IDX 24 24
REMARK H PARENT
REMARK Flexibility Score: inf
ROOT
ATOM      1  C   UNL     1     180.641 186.474 192.486  1.00  0.00     0.000 C 
ENDROOT
BRANCH   1   2
ATOM      2  C   UNL     1     179.977 187.009 191.204  1.00  0.00     0.000 C 
BRANCH   2   3
ATOM      3  C   UNL     1     179.629 188.510 191.226  1.00  0.00     0.000 C 
BRANCH   3   4
ATOM      4  C   UNL     1     178.208 188.830 190.710  1.00  0.00    -0.000 C 
BRANCH   4   5
ATOM      5  C   UNL     1     177.329 189.510 191.775  1.00  0.00    -0.000 C 
BRANCH   5   6
ATOM      6  C   UNL     1     175.830 189.433 191.446  1.00  0.00    -0.000 C 
BRANCH   6   7
ATOM      7  C   UNL     1     174.970 189.109 192.679  1.00  0.00    -0.000 C 
BRANCH   7   8
ATOM      8  C   UNL     1     173.803 188.183 192.308  1.00  0.00    -0.000 C 
BRANCH   8   9
ATOM      9  C   UNL     1     173.400 187.251 193.461  1.00  0.00    -0.000 C 
BRANCH   9  10
ATOM     10  C   UNL     1     174.118 187.594 194.778  1.00  0.00    -0.000 C 
BRANCH  10  11
ATOM     11  C   UNL     1     174.277 186.374 195.699  1.00  0.00    -0.003 C 
ATOM     12  C   UNL     1     173.933 185.057 195.001  1.00  0.00     0.004 C 
ENDBRANCH  10  11
ENDBRANCH   9  10
ENDBRANCH   8   9
ENDBRANCH   7   8
ENDBRANCH   6   7
ENDBRANCH   5   6
ENDBRANCH   4   5
ENDBRANCH   3   4
ENDBRANCH   2   3
ENDBRANCH   1   2
BRANCH   1  13
ATOM     13  C   UNL     1     181.108 187.557 193.482  1.00  0.00     0.000 C 
BRANCH  13  14
ATOM     14  C   UNL     1     180.415 187.526 194.854  1.00  0.00     0.000 C 
BRANCH  14  15
ATOM     15  C   UNL     1     179.174 188.433 194.912  1.00  0.00     0.000 C 
BRANCH  15  16
ATOM     16  C   UNL     1     177.857 187.638 194.921  1.00  0.00     0.000 C 
BRANCH  16  17
ATOM     17  C   UNL     1     178.007 186.128 195.199  1.00  0.00     0.000 C 
BRANCH  17  18
ATOM     18  C   UNL     1     177.529 185.228 194.038  1.00  0.00     0.000 C 
BRANCH  18  19
ATOM     19  C   UNL     1     176.913 186.042 192.886  1.00  0.00     0.000 C 
BRANCH  19  20
ATOM     20  C   UNL     1     176.157 185.159 191.879  1.00  0.00     0.006 C 
BRANCH  20  21
ATOM     21  C   UNL     1     176.172 185.740 190.459  1.00  0.00     0.053 C 
BRANCH  21  22
ATOM     22  C   UNL     1     177.124 184.985 189.582  1.00  0.00     0.041 C 
ATOM     23  O   UNL     1     177.069 185.115 188.329  1.00  0.00    -0.550 OA
ATOM     24  O   UNL     1     178.071 184.140 190.149  1.00  0.00    -0.550 OA
ENDBRANCH  21  22
ENDBRANCH  20  21
ENDBRANCH  19  20
ENDBRANCH  18  19
ENDBRANCH  17  18
ENDBRANCH  16  17
ENDBRANCH  15  16
ENDBRANCH  14  15
ENDBRANCH  13  14
ENDBRANCH   1  13
TORSDOF 20
ENDMDL
MODEL 2
REMARK VINA RESULT:     0.016      6.624      8.845
REMARK INTER + INTRA:          -4.971
REMARK INTER:                   0.000
REMARK INTRA:                  -4.971
REMARK UNBOUND:                -5.006
REMARK SMILES CCCCCCCCCCCCCCCCCCCCCC(=O)[O-]
REMARK SMILES IDX 12 1 11 2 10 3 9 4 8 5 7 6 6 7 5 8 4 9 3 10 2 11 1 12 13 13
REMARK SMILES IDX 14 14 15 15 16 16 17 17 18 18 19 19 20 20 21 21 22 22 23 23
REMARK SMILES IDX 24 24
REMARK H PARENT
REMARK Flexibility Score: inf
ROOT
ATOM      1  C   UNL     1     184.626 182.457 193.670  1.00  0.00     0.000 C 
ENDROOT
BRANCH   1   2
ATOM      2  C   UNL     1     185.272 183.148 192.455  1.00  0.00     0.000 C 
BRANCH   2   3
ATOM      3  C   UNL     1     184.282 183.639 191.381  1.00  0.00     0.000 C 
BRANCH   3   4
ATOM      4  C   UNL     1     184.483 185.115 190.972  1.00  0.00    -0.000 C 
BRANCH   4   5
ATOM      5  C   UNL     1     183.197 185.949 191.107  1.00  0.00    -0.000 C 
BRANCH   5   6
ATOM      6  C   UNL     1     183.473 187.412 191.488  1.00  0.00    -0.000 C 
BRANCH   6   7
ATOM      7  C   UNL     1     182.263 188.088 192.154  1.00  0.00    -0.000 C 
BRANCH   7   8
ATOM      8  C   UNL     1     182.715 189.108 193.209  1.00  0.00    -0.000 C 
BRANCH   8   9
ATOM      9  C   UNL     1     184.192 189.503 193.054  1.00  0.00    -0.000 C 
BRANCH   9  10
ATOM     10  C   UNL     1     184.836 189.919 194.389  1.00  0.00    -0.000 C 
BRANCH  10  11
ATOM     11  C   UNL     1     184.034 189.434 195.607  1.00  0.00    -0.003 C 
ATOM     12  C   UNL     1     184.927 189.031 196.781  1.00  0.00     0.004 C 
ENDBRANCH  10  11
ENDBRANCH   9  10
ENDBRANCH   8   9
ENDBRANCH   7   8
ENDBRANCH   6   7
ENDBRANCH   5   6
ENDBRANCH   4   5
ENDBRANCH   3   4
ENDBRANCH   2   3
ENDBRANCH   1   2
BRANCH   1  13
ATOM     13  C   UNL     1     183.085 182.521 193.717  1.00  0.00     0.000 C 
BRANCH  13  14
ATOM     14  C   UNL     1     182.499 183.365 194.860  1.00  0.00     0.000 C 
BRANCH  14  15
ATOM     15  C   UNL     1     182.115 184.786 194.413  1.00  0.00     0.000 C 
BRANCH  15  16
ATOM     16  C   UNL     1     183.006 185.869 195.045  1.00  0.00     0.000 C 
BRANCH  16  17
ATOM     17  C   UNL     1     184.062 185.348 196.042  1.00  0.00     0.000 C 
BRANCH  17  18
ATOM     18  C   UNL     1     185.519 185.539 195.565  1.00  0.00     0.000 C 
BRANCH  18  19
ATOM     19  C   UNL     1     185.602 186.322 194.242  1.00  0.00     0.000 C 
BRANCH  19  20
ATOM     20  C   UNL     1     187.009 186.289 193.623  1.00  0.00     0.006 C 
BRANCH  20  21
ATOM     21  C   UNL     1     187.155 187.253 192.439  1.00  0.00     0.053 C 
BRANCH  21  22
ATOM     22  C   UNL     1     187.905 188.485 192.843  1.00  0.00     0.041 C 
ATOM     23  O   UNL     1     187.771 189.552 192.184  1.00  0.00    -0.550 OA
ATOM     24  O   UNL     1     188.751 188.456 193.946  1.00  0.00    -0.550 OA
ENDBRANCH  21  22
ENDBRANCH  20  21
ENDBRANCH  19  20
ENDBRANCH  18  19
ENDBRANCH  17  18
ENDBRANCH  16  17
ENDBRANCH  15  16
ENDBRANCH  14  15
ENDBRANCH  13  14
ENDBRANCH   1  13
TORSDOF 20
ENDMDL
MODEL 3
REMARK VINA RESULT:     0.028      2.312      4.223
REMARK INTER + INTRA:          -4.946
REMARK INTER:                   0.000
REMARK INTRA:                  -4.946
REMARK UNBOUND:                -5.006
REMARK SMILES CCCCCCCCCCCCCCCCCCCCCC(=O)[O-]
REMARK SMILES IDX 12 1 11 2 10 3 9 4 8 5 7 6 6 7 5 8 4 9 3 10 2 11 1 12 13 13
REMARK SMILES IDX 14 14 15 15 16 16 17 17 18 18 19 19 20 20 21 21 22 22 23 23
REMARK SMILES IDX 24 24
REMARK H PARENT
REMARK Flexibility Score: inf
ROOT
ATOM      1  C   UNL     1     176.121 189.086 193.933  1.00  0.00     0.000 C 
ENDROOT
BRANCH   1   2
ATOM      2  C   UNL     1     175.210 187.846 193.868  1.00  0.00     0.000 C 
BRANCH   2   3
ATOM      3  C   UNL     1     174.342 187.738 192.600  1.00  0.00     0.000 C 
BRANCH   3   4
ATOM      4  C   UNL     1     174.683 188.787 191.517  1.00  0.00    -0.000 C 
BRANCH   4   5
ATOM      5  C   UNL     1     173.435 189.306 190.781  1.00  0.00    -0.000 C 
BRANCH   5   6
ATOM      6  C   UNL     1     173.126 190.778 191.097  1.00  0.00    -0.000 C 
BRANCH   6   7
ATOM      7  C   UNL     1     174.340 191.526 191.672  1.00  0.00    -0.000 C 
BRANCH   7   8
ATOM      8  C   UNL     1     174.037 192.071 193.075  1.00  0.00    -0.000 C 
BRANCH   8   9
ATOM      9  C   UNL     1     172.728 191.512 193.655  1.00  0.00    -0.000 C 
BRANCH   9  10
ATOM     10  C   UNL     1     172.945 190.744 194.971  1.00  0.00    -0.000 C 
BRANCH  10  11
ATOM     11  C   UNL     1     172.097 189.466 195.055  1.00  0.00    -0.003 C 
ATOM     12  C   UNL     1     171.163 189.295 193.857  1.00  0.00     0.004 C 
ENDBRANCH  10  11
ENDBRANCH   9  10
ENDBRANCH   8   9
ENDBRANCH   7   8
ENDBRANCH   6   7
ENDBRANCH   5   6
ENDBRANCH   4   5
ENDBRANCH   3   4
ENDBRANCH   2   3
ENDBRANCH   1   2
BRANCH   1  13
ATOM     13  C   UNL     1     177.623 188.786 194.116  1.00  0.00     0.000 C 
BRANCH  13  14
ATOM     14  C   UNL     1     178.566 189.589 193.205  1.00  0.00     0.000 C 
BRANCH  14  15
ATOM     15  C   UNL     1     177.849 190.736 192.471  1.00  0.00     0.000 C 
BRANCH  15  16
ATOM     16  C   UNL     1     177.909 190.591 190.941  1.00  0.00     0.000 C 
BRANCH  16  17
ATOM     17  C   UNL     1     178.480 189.251 190.432  1.00  0.00     0.000 C 
BRANCH  17  18
ATOM     18  C   UNL     1     177.601 188.563 189.365  1.00  0.00     0.000 C 
BRANCH  18  19
ATOM     19  C   UNL     1     177.358 187.075 189.680  1.00  0.00     0.000 C 
BRANCH  19  20
ATOM     20  C   UNL     1     177.911 186.666 191.055  1.00  0.00     0.006 C 
BRANCH  20  21
ATOM     21  C   UNL     1     177.164 185.469 191.657  1.00  0.00     0.053 C 
BRANCH  21  22
ATOM     22  C   UNL     1     177.644 185.183 193.046  1.00  0.00     0.041 C 
ATOM     23  O   UNL     1     176.862 184.674 193.895  1.00  0.00    -0.550 OA
ATOM     24  O   UNL     1     178.955 185.478 193.405  1.00  0.00    -0.550 OA
ENDBRANCH  21  22
ENDBRANCH  20  21
ENDBRANCH  19  20
ENDBRANCH  18  19
ENDBRANCH  17  18
ENDBRANCH  16  17
ENDBRANCH  15  16
ENDBRANCH  14  15
ENDBRANCH  13  14
ENDBRANCH   1  13
TORSDOF 20
ENDMDL
MODEL 4
REMARK VINA RESULT:     0.034      3.639      6.873
REMARK INTER + INTRA:          -4.933
REMARK INTER:                   0.000
REMARK INTRA:                  -4.933
REMARK UNBOUND:                -5.006
REMARK SMILES CCCCCCCCCCCCCCCCCCCCCC(=O)[O-]
REMARK SMILES IDX 12 1 11 2 10 3 9 4 8 5 7 6 6 7 5 8 4 9 3 10 2 11 1 12 13 13
REMARK SMILES IDX 14 14 15 15 16 16 17 17 18 18 19 19 20 20 21 21 22 22 23 23
REMARK SMILES IDX 24 24
REMARK H PARENT
REMARK Flexibility Score: inf
ROOT
ATOM      1  C   UNL     1     173.838 184.906 199.906  1.00  0.00     0.000 C 
ENDROOT
BRANCH   1   2
ATOM      2  C   UNL     1     174.926 185.932 199.540  1.00  0.00     0.000 C 
BRANCH   2   3
ATOM      3  C   UNL     1     175.671 185.651 198.221  1.00  0.00     0.000 C 
BRANCH   3   4
ATOM      4  C   UNL     1     174.809 185.864 196.957  1.00  0.00    -0.000 C 
BRANCH   4   5
ATOM      5  C   UNL     1     175.343 185.091 195.737  1.00  0.00    -0.000 C 
BRANCH   5   6
ATOM      6  C   UNL     1     174.852 185.673 194.403  1.00  0.00    -0.000 C 
BRANCH   6   7
ATOM      7  C   UNL     1     173.841 186.814 194.592  1.00  0.00    -0.000 C 
BRANCH   7   8
ATOM      8  C   UNL     1     172.538 186.526 193.832  1.00  0.00    -0.000 C 
BRANCH   8   9
ATOM      9  C   UNL     1     171.404 186.062 194.760  1.00  0.00    -0.000 C 
BRANCH   9  10
ATOM     10  C   UNL     1     171.408 184.539 194.982  1.00  0.00    -0.000 C 
BRANCH  10  11
ATOM     11  C   UNL     1     171.494 184.160 196.469  1.00  0.00    -0.003 C 
ATOM     12  C   UNL     1     172.440 182.987 196.728  1.00  0.00     0.004 C 
ENDBRANCH  10  11
ENDBRANCH   9  10
ENDBRANCH   8   9
ENDBRANCH   7   8
ENDBRANCH   6   7
ENDBRANCH   5   6
ENDBRANCH   4   5
ENDBRANCH   3   4
ENDBRANCH   2   3
ENDBRANCH   1   2
BRANCH   1  13
ATOM     13  C   UNL     1     172.390 185.436 199.840  1.00  0.00     0.000 C 
BRANCH  13  14
ATOM     14  C   UNL     1     172.257 186.950 199.611  1.00  0.00     0.000 C 
BRANCH  14  15
ATOM     15  C   UNL     1     171.503 187.290 198.314  1.00  0.00     0.000 C 
BRANCH  15  16
ATOM     16  C   UNL     1     172.182 188.410 197.508  1.00  0.00     0.000 C 
BRANCH  16  17
ATOM     17  C   UNL     1     173.226 189.237 198.288  1.00  0.00     0.000 C 
BRANCH  17  18
ATOM     18  C   UNL     1     174.523 189.513 197.495  1.00  0.00     0.000 C 
BRANCH  18  19
ATOM     19  C   UNL     1     175.782 189.373 198.370  1.00  0.00     0.000 C 
BRANCH  19  20
ATOM     20  C   UNL     1     177.052 189.129 197.540  1.00  0.00     0.006 C 
BRANCH  20  21
ATOM     21  C   UNL     1     176.755 188.953 196.045  1.00  0.00     0.053 C 
BRANCH  21  22
ATOM     22  C   UNL     1     177.634 187.898 195.446  1.00  0.00     0.041 C 
ATOM     23  O   UNL     1     178.272 187.106 196.191  1.00  0.00    -0.550 OA
ATOM     24  O   UNL     1     177.748 187.789 194.064  1.00  0.00    -0.550 OA
ENDBRANCH  21  22
ENDBRANCH  20  21
ENDBRANCH  19  20
ENDBRANCH  18  19
ENDBRANCH  17  18
ENDBRANCH  16  17
ENDBRANCH  15  16
ENDBRANCH  14  15
ENDBRANCH  13  14
ENDBRANCH   1  13
TORSDOF 20
ENDMDL
MODEL 5
REMARK VINA RESULT:     0.046      8.505     10.943
REMARK INTER + INTRA:          -4.906
REMARK INTER:                   0.000
REMARK INTRA:                  -4.906
REMARK UNBOUND:                -5.006
REMARK SMILES CCCCCCCCCCCCCCCCCCCCCC(=O)[O-]
REMARK SMILES IDX 12 1 11 2 10 3 9 4 8 5 7 6 6 7 5 8 4 9 3 10 2 11 1 12 13 13
REMARK SMILES IDX 14 14 15 15 16 16 17 17 18 18 19 19 20 20 21 21 22 22 23 23
REMARK SMILES IDX 24 24
REMARK H PARENT
REMARK Flexibility Score: inf
ROOT
ATOM      1  C   UNL     1     185.065 188.997 191.815  1.00  0.00     0.000 C 
ENDROOT
BRANCH   1   2
ATOM      2  C   UNL     1     184.208 188.784 190.553  1.00  0.00     0.000 C 
BRANCH   2   3
ATOM      3  C   UNL     1     184.779 189.408 189.264  1.00  0.00     0.000 C 
BRANCH   3   4
ATOM      4  C   UNL     1     186.107 190.169 189.472  1.00  0.00    -0.000 C 
BRANCH   4   5
ATOM      5  C   UNL     1     187.284 189.528 188.715  1.00  0.00    -0.000 C 
BRANCH   5   6
ATOM      6  C   UNL     1     186.883 188.246 187.968  1.00  0.00    -0.000 C 
BRANCH   6   7
ATOM      7  C   UNL     1     187.924 187.125 188.118  1.00  0.00    -0.000 C 
BRANCH   7   8
ATOM      8  C   UNL     1     187.250 185.793 188.475  1.00  0.00    -0.000 C 
BRANCH   8   9
ATOM      9  C   UNL     1     185.723 185.917 188.593  1.00  0.00    -0.000 C 
BRANCH   9  10
ATOM     10  C   UNL     1     185.170 185.234 189.857  1.00  0.00    -0.000 C 
BRANCH  10  11
ATOM     11  C   UNL     1     186.174 184.255 190.485  1.00  0.00    -0.003 C 
ATOM     12  C   UNL     1     185.918 184.019 191.974  1.00  0.00     0.004 C 
ENDBRANCH  10  11
ENDBRANCH   9  10
ENDBRANCH   8   9
ENDBRANCH   7   8
ENDBRANCH   6   7
ENDBRANCH   5   6
ENDBRANCH   4   5
ENDBRANCH   3   4
ENDBRANCH   2   3
ENDBRANCH   1   2
BRANCH   1  13
ATOM     13  C   UNL     1     185.425 187.710 192.586  1.00  0.00     0.000 C 
BRANCH  13  14
ATOM     14  C   UNL     1     186.904 187.580 192.986  1.00  0.00     0.000 C 
BRANCH  14  15
ATOM     15  C   UNL     1     187.819 187.278 191.787  1.00  0.00     0.000 C 
BRANCH  15  16
ATOM     16  C   UNL     1     189.006 188.251 191.686  1.00  0.00     0.000 C 
BRANCH  16  17
ATOM     17  C   UNL     1     188.962 189.441 192.667  1.00  0.00     0.000 C 
BRANCH  17  18
ATOM     18  C   UNL     1     188.716 190.804 191.983  1.00  0.00     0.000 C 
BRANCH  18  19
ATOM     19  C   UNL     1     187.561 191.584 192.638  1.00  0.00     0.000 C 
BRANCH  19  20
ATOM     20  C   UNL     1     187.394 191.250 194.129  1.00  0.00     0.006 C 
BRANCH  20  21
ATOM     21  C   UNL     1     185.932 191.316 194.588  1.00  0.00     0.053 C 
BRANCH  21  22
ATOM     22  C   UNL     1     185.571 190.110 195.399  1.00  0.00     0.041 C 
ATOM     23  O   UNL     1     186.467 189.468 196.012  1.00  0.00    -0.550 OA
ATOM     24  O   UNL     1     184.246 189.696 195.481  1.00  0.00    -0.550 OA
ENDBRANCH  21  22
ENDBRANCH  20  21
ENDBRANCH  19  20
ENDBRANCH  18  19
ENDBRANCH  17  18
ENDBRANCH  16  17
ENDBRANCH  15  16
ENDBRANCH  14  15
ENDBRANCH  13  14
ENDBRANCH   1  13
TORSDOF 20
ENDMDL
MODEL 6
REMARK VINA RESULT:     0.047      6.549      9.018
REMARK INTER + INTRA:          -4.903
REMARK INTER:                   0.000
REMARK INTRA:                  -4.903
REMARK UNBOUND:                -5.006
REMARK SMILES CCCCCCCCCCCCCCCCCCCCCC(=O)[O-]
REMARK SMILES IDX 12 1 11 2 10 3 9 4 8 5 7 6 6 7 5 8 4 9 3 10 2 11 1 12 13 13
REMARK SMILES IDX 14 14 15 15 16 16 17 17 18 18 19 19 20 20 21 21 22 22 23 23
REMARK SMILES IDX 24 24
REMARK H PARENT
REMARK Flexibility Score: inf
ROOT
ATOM      1  C   UNL     1     184.473 182.814 190.872  1.00  0.00     0.000 C 
ENDROOT
BRANCH   1   2
ATOM      2  C   UNL     1     183.504 183.951 191.244  1.00  0.00     0.000 C 
BRANCH   2   3
ATOM      3  C   UNL     1     182.010 183.630 191.039  1.00  0.00     0.000 C 
BRANCH   3   4
ATOM      4  C   UNL     1     181.208 183.522 192.355  1.00  0.00    -0.000 C 
BRANCH   4   5
ATOM      5  C   UNL     1     180.452 182.187 192.481  1.00  0.00    -0.000 C 
BRANCH   5   6
ATOM      6  C   UNL     1     181.108 181.224 193.483  1.00  0.00    -0.000 C 
BRANCH   6   7
ATOM      7  C   UNL     1     182.064 180.228 192.805  1.00  0.00    -0.000 C 
BRANCH   7   8
ATOM      8  C   UNL     1     183.476 180.330 193.400  1.00  0.00    -0.000 C 
BRANCH   8   9
ATOM      9  C   UNL     1     183.518 181.185 194.677  1.00  0.00    -0.000 C 
BRANCH   9  10
ATOM     10  C   UNL     1     184.579 182.298 194.608  1.00  0.00    -0.000 C 
BRANCH  10  11
ATOM     11  C   UNL     1     183.983 183.695 194.844  1.00  0.00    -0.003 C 
ATOM     12  C   UNL     1     182.771 183.672 195.775  1.00  0.00     0.004 C 
ENDBRANCH  10  11
ENDBRANCH   9  10
ENDBRANCH   8   9
ENDBRANCH   7   8
ENDBRANCH   6   7
ENDBRANCH   5   6
ENDBRANCH   4   5
ENDBRANCH   3   4
ENDBRANCH   2   3
ENDBRANCH   1   2
BRANCH   1  13
ATOM     13  C   UNL     1     183.885 181.731 189.943  1.00  0.00     0.000 C 
BRANCH  13  14
ATOM     14  C   UNL     1     184.604 181.566 188.594  1.00  0.00     0.000 C 
BRANCH  14  15
ATOM     15  C   UNL     1     183.676 181.817 187.393  1.00  0.00     0.000 C 
BRANCH  15  16
ATOM     16  C   UNL     1     182.971 183.182 187.461  1.00  0.00     0.000 C 
BRANCH  16  17
ATOM     17  C   UNL     1     181.430 183.124 187.434  1.00  0.00     0.000 C 
BRANCH  17  18
ATOM     18  C   UNL     1     180.858 181.689 187.464  1.00  0.00     0.000 C 
BRANCH  18  19
ATOM     19  C   UNL     1     180.201 181.351 188.815  1.00  0.00     0.000 C 
BRANCH  19  20
ATOM     20  C   UNL     1     180.677 180.003 189.381  1.00  0.00     0.006 C 
BRANCH  20  21
ATOM     21  C   UNL     1     181.251 179.079 188.299  1.00  0.00     0.053 C 
BRANCH  21  22
ATOM     22  C   UNL     1     182.536 178.458 188.754  1.00  0.00     0.041 C 
ATOM     23  O   UNL     1     182.708 178.177 189.972  1.00  0.00    -0.550 OA
ATOM     24  O   UNL     1     183.543 178.187 187.834  1.00  0.00    -0.550 OA
ENDBRANCH  21  22
ENDBRANCH  20  21
ENDBRANCH  19  20
ENDBRANCH  18  19
ENDBRANCH  17  18
ENDBRANCH  16  17
ENDBRANCH  15  16
ENDBRANCH  14  15
ENDBRANCH  13  14
ENDBRANCH   1  13
TORSDOF 20
ENDMDL
MODEL 7
REMARK VINA RESULT:     0.056      5.528      8.452
REMARK INTER + INTRA:          -4.884
REMARK INTER:                   0.000
REMARK INTRA:                  -4.884
REMARK UNBOUND:                -5.006
REMARK SMILES CCCCCCCCCCCCCCCCCCCCCC(=O)[O-]
REMARK SMILES IDX 12 1 11 2 10 3 9 4 8 5 7 6 6 7 5 8 4 9 3 10 2 11 1 12 13 13
REMARK SMILES IDX 14 14 15 15 16 16 17 17 18 18 19 19 20 20 21 21 22 22 23 23
REMARK SMILES IDX 24 24
REMARK H PARENT
REMARK Flexibility Score: inf
ROOT
ATOM      1  C   UNL     1     183.414 182.563 192.656  1.00  0.00     0.000 C 
ENDROOT
BRANCH   1   2
ATOM      2  C   UNL     1     184.665 181.769 192.238  1.00  0.00     0.000 C 
BRANCH   2   3
ATOM      3  C   UNL     1     184.488 180.239 192.206  1.00  0.00     0.000 C 
BRANCH   3   4
ATOM      4  C   UNL     1     183.084 179.763 192.640  1.00  0.00    -0.000 C 
BRANCH   4   5
ATOM      5  C   UNL     1     183.095 179.044 194.001  1.00  0.00    -0.000 C 
BRANCH   5   6
ATOM      6  C   UNL     1     182.391 179.847 195.105  1.00  0.00    -0.000 C 
BRANCH   6   7
ATOM      7  C   UNL     1     183.356 180.761 195.878  1.00  0.00    -0.000 C 
BRANCH   7   8
ATOM      8  C   UNL     1     182.597 181.898 196.576  1.00  0.00    -0.000 C 
BRANCH   8   9
ATOM      9  C   UNL     1     183.491 183.114 196.869  1.00  0.00    -0.000 C 
BRANCH   9  10
ATOM     10  C   UNL     1     184.752 183.145 195.988  1.00  0.00    -0.000 C 
BRANCH  10  11
ATOM     11  C   UNL     1     185.052 184.548 195.437  1.00  0.00    -0.003 C 
ATOM     12  C   UNL     1     186.117 184.538 194.340  1.00  0.00     0.004 C 
ENDBRANCH  10  11
ENDBRANCH   9  10
ENDBRANCH   8   9
ENDBRANCH   7   8
ENDBRANCH   6   7
ENDBRANCH   5   6
ENDBRANCH   4   5
ENDBRANCH   3   4
ENDBRANCH   2   3
ENDBRANCH   1   2
BRANCH   1  13
ATOM     13  C   UNL     1     183.262 183.945 191.987  1.00  0.00     0.000 C 
BRANCH  13  14
ATOM     14  C   UNL     1     182.159 184.839 192.576  1.00  0.00     0.000 C 
BRANCH  14  15
ATOM     15  C   UNL     1     181.637 184.325 193.929  1.00  0.00     0.000 C 
BRANCH  15  16
ATOM     16  C   UNL     1     180.170 183.864 193.864  1.00  0.00     0.000 C 
BRANCH  16  17
ATOM     17  C   UNL     1     179.963 182.336 193.891  1.00  0.00     0.000 C 
BRANCH  17  18
ATOM     18  C   UNL     1     179.819 181.701 192.490  1.00  0.00     0.000 C 
BRANCH  18  19
ATOM     19  C   UNL     1     179.350 182.718 191.434  1.00  0.00     0.000 C 
BRANCH  19  20
ATOM     20  C   UNL     1     180.049 182.526 190.078  1.00  0.00     0.006 C 
BRANCH  20  21
ATOM     21  C   UNL     1     180.998 181.321 190.070  1.00  0.00     0.053 C 
BRANCH  21  22
ATOM     22  C   UNL     1     182.220 181.607 189.254  1.00  0.00     0.041 C 
ATOM     23  O   UNL     1     183.041 180.685 188.995  1.00  0.00    -0.550 OA
ATOM     24  O   UNL     1     182.454 182.893 188.776  1.00  0.00    -0.550 OA
ENDBRANCH  21  22
ENDBRANCH  20  21
ENDBRANCH  19  20
ENDBRANCH  18  19
ENDBRANCH  17  18
ENDBRANCH  16  17
ENDBRANCH  15  16
ENDBRANCH  14  15
ENDBRANCH  13  14
ENDBRANCH   1  13
TORSDOF 20
ENDMDL
MODEL 8
REMARK VINA RESULT:     0.075      6.889      9.254
REMARK INTER + INTRA:          -4.843
REMARK INTER:                   0.000
REMARK INTRA:                  -4.843
REMARK UNBOUND:                -5.006
REMARK SMILES CCCCCCCCCCCCCCCCCCCCCC(=O)[O-]
REMARK SMILES IDX 12 1 11 2 10 3 9 4 8 5 7 6 6 7 5 8 4 9 3 10 2 11 1 12 13 13
REMARK SMILES IDX 14 14 15 15 16 16 17 17 18 18 19 19 20 20 21 21 22 22 23 23
REMARK SMILES IDX 24 24
REMARK H PARENT
REMARK Flexibility Score: inf
ROOT
ATOM      1  C   UNL     1     187.514 185.558 190.214  1.00  0.00     0.000 C 
ENDROOT
BRANCH   1   2
ATOM      2  C   UNL     1     186.618 186.631 189.568  1.00  0.00     0.000 C 
BRANCH   2   3
ATOM      3  C   UNL     1     185.167 186.191 189.294  1.00  0.00     0.000 C 
BRANCH   3   4
ATOM      4  C   UNL     1     184.103 187.112 189.932  1.00  0.00    -0.000 C 
BRANCH   4   5
ATOM      5  C   UNL     1     183.986 186.920 191.454  1.00  0.00    -0.000 C 
BRANCH   5   6
ATOM      6  C   UNL     1     184.393 188.173 192.245  1.00  0.00    -0.000 C 
BRANCH   6   7
ATOM      7  C   UNL     1     185.600 187.925 193.164  1.00  0.00    -0.000 C 
BRANCH   7   8
ATOM      8  C   UNL     1     185.906 186.425 193.279  1.00  0.00    -0.000 C 
BRANCH   8   9
ATOM      9  C   UNL     1     187.104 186.134 194.196  1.00  0.00    -0.000 C 
BRANCH   9  10
ATOM     10  C   UNL     1     186.880 184.902 195.090  1.00  0.00    -0.000 C 
BRANCH  10  11
ATOM     11  C   UNL     1     186.327 185.272 196.475  1.00  0.00    -0.003 C 
ATOM     12  C   UNL     1     186.543 186.744 196.826  1.00  0.00     0.004 C 
ENDBRANCH  10  11
ENDBRANCH   9  10
ENDBRANCH   8   9
ENDBRANCH   7   8
ENDBRANCH   6   7
ENDBRANCH   5   6
ENDBRANCH   4   5
ENDBRANCH   3   4
ENDBRANCH   2   3
ENDBRANCH   1   2
BRANCH   1  13
ATOM     13  C   UNL     1     186.888 184.151 190.305  1.00  0.00     0.000 C 
BRANCH  13  14
ATOM     14  C   UNL     1     187.213 183.373 191.590  1.00  0.00     0.000 C 
BRANCH  14  15
ATOM     15  C   UNL     1     185.966 182.745 192.236  1.00  0.00     0.000 C 
BRANCH  15  16
ATOM     16  C   UNL     1     184.654 183.272 191.630  1.00  0.00     0.000 C 
BRANCH  16  17
ATOM     17  C   UNL     1     183.524 183.537 192.646  1.00  0.00     0.000 C 
BRANCH  17  18
ATOM     18  C   UNL     1     183.886 183.150 194.097  1.00  0.00     0.000 C 
BRANCH  18  19
ATOM     19  C   UNL     1     183.120 183.992 195.134  1.00  0.00     0.000 C 
BRANCH  19  20
ATOM     20  C   UNL     1     182.628 185.330 194.559  1.00  0.00     0.006 C 
BRANCH  20  21
ATOM     21  C   UNL     1     182.957 186.519 195.472  1.00  0.00     0.053 C 
BRANCH  21  22
ATOM     22  C   UNL     1     182.354 186.334 196.830  1.00  0.00     0.041 C 
ATOM     23  O   UNL     1     181.100 186.296 196.967  1.00  0.00    -0.550 OA
ATOM     24  O   UNL     1     183.175 186.202 197.945  1.00  0.00    -0.550 OA
ENDBRANCH  21  22
ENDBRANCH  20  21
ENDBRANCH  19  20
ENDBRANCH  18  19
ENDBRANCH  17  18
ENDBRANCH  16  17
ENDBRANCH  15  16
ENDBRANCH  14  15
ENDBRANCH  13  14
ENDBRANCH   1  13
TORSDOF 20
ENDMDL
MODEL 9
REMARK VINA RESULT:     0.075      5.705      7.648
REMARK INTER + INTRA:          -4.842
REMARK INTER:                   0.000
REMARK INTRA:                  -4.842
REMARK UNBOUND:                -5.006
REMARK SMILES CCCCCCCCCCCCCCCCCCCCCC(=O)[O-]
REMARK SMILES IDX 12 1 11 2 10 3 9 4 8 5 7 6 6 7 5 8 4 9 3 10 2 11 1 12 13 13
REMARK SMILES IDX 14 14 15 15 16 16 17 17 18 18 19 19 20 20 21 21 22 22 23 23
REMARK SMILES IDX 24 24
REMARK H PARENT
REMARK Flexibility Score: inf
ROOT
ATOM      1  C   UNL     1     181.098 195.151 192.719  1.00  0.00     0.000 C 
ENDROOT
BRANCH   1   2
ATOM      2  C   UNL     1     179.936 194.195 193.042  1.00  0.00     0.000 C 
BRANCH   2   3
ATOM      3  C   UNL     1     179.782 193.003 192.077  1.00  0.00     0.000 C 
BRANCH   3   4
ATOM      4  C   UNL     1     179.433 191.671 192.778  1.00  0.00    -0.000 C 
BRANCH   4   5
ATOM      5  C   UNL     1     179.493 191.774 194.313  1.00  0.00    -0.000 C 
BRANCH   5   6
ATOM      6  C   UNL     1     178.301 191.092 195.002  1.00  0.00    -0.000 C 
BRANCH   6   7
ATOM      7  C   UNL     1     177.688 191.957 196.115  1.00  0.00    -0.000 C 
BRANCH   7   8
ATOM      8  C   UNL     1     178.486 193.255 196.306  1.00  0.00    -0.000 C 
BRANCH   8   9
ATOM      9  C   UNL     1     177.650 194.511 196.015  1.00  0.00    -0.000 C 
BRANCH   9  10
ATOM     10  C   UNL     1     176.324 194.187 195.304  1.00  0.00    -0.000 C 
BRANCH  10  11
ATOM     11  C   UNL     1     176.349 194.557 193.813  1.00  0.00    -0.003 C 
ATOM     12  C   UNL     1     176.093 193.358 192.900  1.00  0.00     0.004 C 
ENDBRANCH  10  11
ENDBRANCH   9  10
ENDBRANCH   8   9
ENDBRANCH   7   8
ENDBRANCH   6   7
ENDBRANCH   5   6
ENDBRANCH   4   5
ENDBRANCH   3   4
ENDBRANCH   2   3
ENDBRANCH   1   2
BRANCH   1  13
ATOM     13  C   UNL     1     182.372 194.943 193.564  1.00  0.00     0.000 C 
BRANCH  13  14
ATOM     14  C   UNL     1     182.163 194.185 194.885  1.00  0.00     0.000 C 
BRANCH  14  15
ATOM     15  C   UNL     1     182.951 192.865 194.944  1.00  0.00     0.000 C 
BRANCH  15  16
ATOM     16  C   UNL     1     183.482 192.428 193.567  1.00  0.00     0.000 C 
BRANCH  16  17
ATOM     17  C   UNL     1     183.019 191.033 193.101  1.00  0.00     0.000 C 
BRANCH  17  18
ATOM     18  C   UNL     1     183.139 189.940 194.186  1.00  0.00     0.000 C 
BRANCH  18  19
ATOM     19  C   UNL     1     181.929 188.988 194.190  1.00  0.00     0.000 C 
BRANCH  19  20
ATOM     20  C   UNL     1     181.292 188.849 195.582  1.00  0.00     0.006 C 
BRANCH  20  21
ATOM     21  C   UNL     1     182.004 189.697 196.643  1.00  0.00     0.053 C 
BRANCH  21  22
ATOM     22  C   UNL     1     181.014 190.431 197.495  1.00  0.00     0.041 C 
ATOM     23  O   UNL     1     181.214 191.637 197.803  1.00  0.00    -0.550 OA
ATOM     24  O   UNL     1     179.869 189.783 197.947  1.00  0.00    -0.550 OA
ENDBRANCH  21  22
ENDBRANCH  20  21
ENDBRANCH  19  20
ENDBRANCH  18  19
ENDBRANCH  17  18
ENDBRANCH  16  17
ENDBRANCH  15  16
ENDBRANCH  14  15
ENDBRANCH  13  14
ENDBRANCH   1  13
TORSDOF 20
ENDMDL
