MODEL 1
REMARK VINA RESULT:    -3.579      0.000      0.000
REMARK INTER + INTRA:          -5.191
REMARK INTER:                  -4.834
REMARK INTRA:                  -0.356
REMARK UNBOUND:                -0.356
REMARK SMILES CCCCCCCC(=O)[O-]
REMARK SMILES IDX 5 1 6 2 7 3 8 4 9 5 10 6 4 7 3 8 2 9 1 10
REMARK H PARENT
REMARK Flexibility Score: inf
ROOT
ATOM      1  C   UNL     1     110.747 114.158 132.999  1.00  0.00     0.000 C 
ENDROOT
BRANCH   1   2
ATOM      2  C   UNL     1     110.305 115.505 133.582  1.00  0.00     0.006 C 
BRANCH   2   3
ATOM      3  C   UNL     1     109.534 116.326 132.545  1.00  0.00     0.053 C 
BRANCH   3   4
ATOM      4  C   UNL     1     109.499 117.769 132.938  1.00  0.00     0.041 C 
ATOM      5  O   UNL     1     110.475 118.284 133.544  1.00  0.00    -0.550 OA
ATOM      6  O   UNL     1     108.368 118.533 132.681  1.00  0.00    -0.550 OA
ENDBRANCH   3   4
ENDBRANCH   2   3
ENDBRANCH   1   2
BRANCH   1   7
ATOM      7  C   UNL     1     109.893 113.777 131.784  1.00  0.00     0.000 C 
BRANCH   7   8
ATOM      8  C   UNL     1     110.775 113.364 130.599  1.00  0.00    -0.000 C 
BRANCH   8   9
ATOM      9  C   UNL     1     111.479 114.580 129.987  1.00  0.00    -0.003 C 
ATOM     10  C   UNL     1     112.980 114.539 130.252  1.00  0.00     0.004 C 
ENDBRANCH   8   9
ENDBRANCH   7   8
ENDBRANCH   1   7
TORSDOF 6
ENDMDL
MODEL 2
REMARK VINA RESULT:    -3.469      4.062      5.146
REMARK INTER + INTRA:          -5.042
REMARK INTER:                  -4.665
REMARK INTRA:                  -0.377
REMARK UNBOUND:                -0.356
REMARK SMILES CCCCCCCC(=O)[O-]
REMARK SMILES IDX 5 1 6 2 7 3 8 4 9 5 10 6 4 7 3 8 2 9 1 10
REMARK H PARENT
REMARK Flexibility Score: inf
ROOT
ATOM      1  C   UNL     1     109.590 115.219 129.138  1.00  0.00     0.000 C 
ENDROOT
BRANCH   1   2
ATOM      2  C   UNL     1     109.084 114.951 127.716  1.00  0.00     0.006 C 
BRANCH   2   3
ATOM      3  C   UNL     1     110.226 114.497 126.803  1.00  0.00     0.053 C 
BRANCH   3   4
ATOM      4  C   UNL     1     110.934 115.679 126.221  1.00  0.00     0.041 C 
ATOM      5  O   UNL     1     112.133 115.580 125.850  1.00  0.00    -0.550 OA
ATOM      6  O   UNL     1     110.286 116.904 126.133  1.00  0.00    -0.550 OA
ENDBRANCH   3   4
ENDBRANCH   2   3
ENDBRANCH   1   2
BRANCH   1   7
ATOM      7  C   UNL     1     109.469 113.965 130.011  1.00  0.00     0.000 C 
BRANCH   7   8
ATOM      8  C   UNL     1     110.852 113.414 130.379  1.00  0.00    -0.000 C 
BRANCH   8   9
ATOM      9  C   UNL     1     111.759 114.522 130.923  1.00  0.00    -0.003 C 
ATOM     10  C   UNL     1     113.100 114.543 130.198  1.00  0.00     0.004 C 
ENDBRANCH   8   9
ENDBRANCH   7   8
ENDBRANCH   1   7
TORSDOF 6
ENDMDL
MODEL 3
REMARK VINA RESULT:    -3.453      0.843      1.378
REMARK INTER + INTRA:          -5.020
REMARK INTER:                  -4.603
REMARK INTRA:                  -0.417
REMARK UNBOUND:                -0.356
REMARK SMILES CCCCCCCC(=O)[O-]
REMARK SMILES IDX 5 1 6 2 7 3 8 4 9 5 10 6 4 7 3 8 2 9 1 10
REMARK H PARENT
REMARK Flexibility Score: inf
ROOT
ATOM      1  C   UNL     1     110.128 115.511 133.361  1.00  0.00     0.000 C 
ENDROOT
BRANCH   1   2
ATOM      2  C   UNL     1     108.806 115.687 132.607  1.00  0.00     0.006 C 
BRANCH   2   3
ATOM      3  C   UNL     1     108.855 116.914 131.691  1.00  0.00     0.053 C 
BRANCH   3   4
ATOM      4  C   UNL     1     108.738 118.171 132.493  1.00  0.00     0.041 C 
ATOM      5  O   UNL     1     109.691 118.992 132.528  1.00  0.00    -0.550 OA
ATOM      6  O   UNL     1     107.593 118.415 133.241  1.00  0.00    -0.550 OA
ENDBRANCH   3   4
ENDBRANCH   2   3
ENDBRANCH   1   2
BRANCH   1   7
ATOM      7  C   UNL     1     110.866 114.251 132.893  1.00  0.00     0.000 C 
BRANCH   7   8
ATOM      8  C   UNL     1     110.033 113.474 131.865  1.00  0.00    -0.000 C 
BRANCH   8   9
ATOM      9  C   UNL     1     110.742 113.421 130.508  1.00  0.00    -0.003 C 
ATOM     10  C   UNL     1     111.960 114.339 130.486  1.00  0.00     0.004 C 
ENDBRANCH   8   9
ENDBRANCH   7   8
ENDBRANCH   1   7
TORSDOF 6
ENDMDL
MODEL 4
REMARK VINA RESULT:    -3.426      3.613      4.966
REMARK INTER + INTRA:          -4.983
REMARK INTER:                  -4.659
REMARK INTRA:                  -0.324
REMARK UNBOUND:                -0.356
REMARK SMILES CCCCCCCC(=O)[O-]
REMARK SMILES IDX 5 1 6 2 7 3 8 4 9 5 10 6 4 7 3 8 2 9 1 10
REMARK H PARENT
REMARK Flexibility Score: inf
ROOT
ATOM      1  C   UNL     1     111.142 114.718 129.585  1.00  0.00     0.000 C 
ENDROOT
BRANCH   1   2
ATOM      2  C   UNL     1     109.802 115.231 129.046  1.00  0.00     0.006 C 
BRANCH   2   3
ATOM      3  C   UNL     1     109.645 114.900 127.559  1.00  0.00     0.053 C 
BRANCH   3   4
ATOM      4  C   UNL     1     110.244 115.980 126.715  1.00  0.00     0.041 C 
ATOM      5  O   UNL     1     109.712 117.120 126.672  1.00  0.00    -0.550 OA
ATOM      6  O   UNL     1     111.364 115.715 125.938  1.00  0.00    -0.550 OA
ENDBRANCH   3   4
ENDBRANCH   2   3
ENDBRANCH   1   2
BRANCH   1   7
ATOM      7  C   UNL     1     110.949 113.449 130.423  1.00  0.00     0.000 C 
BRANCH   7   8
ATOM      8  C   UNL     1     109.947 113.686 131.560  1.00  0.00    -0.000 C 
BRANCH   8   9
ATOM      9  C   UNL     1     110.670 113.943 132.886  1.00  0.00    -0.003 C 
ATOM     10  C   UNL     1     110.267 115.288 133.483  1.00  0.00     0.004 C 
ENDBRANCH   8   9
ENDBRANCH   7   8
ENDBRANCH   1   7
TORSDOF 6
ENDMDL
MODEL 5
REMARK VINA RESULT:    -3.329      3.224      4.584
REMARK INTER + INTRA:          -4.854
REMARK INTER:                  -4.360
REMARK INTRA:                  -0.494
REMARK UNBOUND:                -0.356
REMARK SMILES CCCCCCCC(=O)[O-]
REMARK SMILES IDX 5 1 6 2 7 3 8 4 9 5 10 6 4 7 3 8 2 9 1 10
REMARK H PARENT
REMARK Flexibility Score: inf
ROOT
ATOM      1  C   UNL     1     110.719 113.306 130.384  1.00  0.00     0.000 C 
ENDROOT
BRANCH   1   2
ATOM      2  C   UNL     1     111.049 114.632 129.690  1.00  0.00     0.006 C 
BRANCH   2   3
ATOM      3  C   UNL     1     109.775 115.334 129.211  1.00  0.00     0.053 C 
BRANCH   3   4
ATOM      4  C   UNL     1     109.696 115.314 127.717  1.00  0.00     0.041 C 
ATOM      5  O   UNL     1     109.581 114.221 127.103  1.00  0.00    -0.550 OA
ATOM      6  O   UNL     1     109.798 116.499 126.999  1.00  0.00    -0.550 OA
ENDBRANCH   3   4
ENDBRANCH   2   3
ENDBRANCH   1   2
BRANCH   1   7
ATOM      7  C   UNL     1     109.875 113.538 131.643  1.00  0.00     0.000 C 
BRANCH   7   8
ATOM      8  C   UNL     1     110.757 113.937 132.832  1.00  0.00    -0.000 C 
BRANCH   8   9
ATOM      9  C   UNL     1     110.305 115.274 133.429  1.00  0.00    -0.003 C 
ATOM     10  C   UNL     1     108.960 115.708 132.854  1.00  0.00     0.004 C 
ENDBRANCH   8   9
ENDBRANCH   7   8
ENDBRANCH   1   7
TORSDOF 6
ENDMDL
MODEL 6
REMARK VINA RESULT:    -3.328      2.280      3.736
REMARK INTER + INTRA:          -4.852
REMARK INTER:                  -4.320
REMARK INTRA:                  -0.532
REMARK UNBOUND:                -0.356
REMARK SMILES CCCCCCCC(=O)[O-]
REMARK SMILES IDX 5 1 6 2 7 3 8 4 9 5 10 6 4 7 3 8 2 9 1 10
REMARK H PARENT
REMARK Flexibility Score: inf
ROOT
ATOM      1  C   UNL     1     111.596 114.477 131.016  1.00  0.00     0.000 C 
ENDROOT
BRANCH   1   2
ATOM      2  C   UNL     1     110.921 114.578 129.644  1.00  0.00     0.006 C 
BRANCH   2   3
ATOM      3  C   UNL     1     109.408 114.766 129.789  1.00  0.00     0.053 C 
BRANCH   3   4
ATOM      4  C   UNL     1     109.011 116.152 129.390  1.00  0.00     0.041 C 
ATOM      5  O   UNL     1     108.525 116.942 130.242  1.00  0.00    -0.550 OA
ATOM      6  O   UNL     1     109.132 116.557 128.067  1.00  0.00    -0.550 OA
ENDBRANCH   3   4
ENDBRANCH   2   3
ENDBRANCH   1   2
BRANCH   1   7
ATOM      7  C   UNL     1     110.679 113.788 132.032  1.00  0.00     0.000 C 
BRANCH   7   8
ATOM      8  C   UNL     1     110.704 114.517 133.382  1.00  0.00    -0.000 C 
BRANCH   8   9
ATOM      9  C   UNL     1     109.623 115.601 133.441  1.00  0.00    -0.003 C 
ATOM     10  C   UNL     1     110.242 116.994 133.511  1.00  0.00     0.004 C 
ENDBRANCH   8   9
ENDBRANCH   7   8
ENDBRANCH   1   7
TORSDOF 6
ENDMDL
MODEL 7
REMARK VINA RESULT:    -3.220      1.855      2.770
REMARK INTER + INTRA:          -4.705
REMARK INTER:                  -4.136
REMARK INTRA:                  -0.570
REMARK UNBOUND:                -0.356
REMARK SMILES CCCCCCCC(=O)[O-]
REMARK SMILES IDX 5 1 6 2 7 3 8 4 9 5 10 6 4 7 3 8 2 9 1 10
REMARK H PARENT
REMARK Flexibility Score: inf
ROOT
ATOM      1  C   UNL     1     111.643 114.373 131.028  1.00  0.00     0.000 C 
ENDROOT
BRANCH   1   2
ATOM      2  C   UNL     1     110.684 113.762 132.056  1.00  0.00     0.006 C 
BRANCH   2   3
ATOM      3  C   UNL     1     110.702 114.556 133.365  1.00  0.00     0.053 C 
BRANCH   3   4
ATOM      4  C   UNL     1     109.856 115.784 133.245  1.00  0.00     0.041 C 
ATOM      5  O   UNL     1     108.713 115.718 132.721  1.00  0.00    -0.550 OA
ATOM      6  O   UNL     1     110.348 117.012 133.668  1.00  0.00    -0.550 OA
ENDBRANCH   3   4
ENDBRANCH   2   3
ENDBRANCH   1   2
BRANCH   1   7
ATOM      7  C   UNL     1     110.942 114.588 129.681  1.00  0.00     0.000 C 
BRANCH   7   8
ATOM      8  C   UNL     1     109.651 113.764 129.594  1.00  0.00    -0.000 C 
BRANCH   8   9
ATOM      9  C   UNL     1     108.495 114.610 129.049  1.00  0.00    -0.003 C 
ATOM     10  C   UNL     1     108.776 116.100 129.214  1.00  0.00     0.004 C 
ENDBRANCH   8   9
ENDBRANCH   7   8
ENDBRANCH   1   7
TORSDOF 6
ENDMDL
MODEL 8
REMARK VINA RESULT:    -3.214      2.607      4.368
REMARK INTER + INTRA:          -4.698
REMARK INTER:                  -4.391
REMARK INTRA:                  -0.307
REMARK UNBOUND:                -0.356
REMARK SMILES CCCCCCCC(=O)[O-]
REMARK SMILES IDX 5 1 6 2 7 3 8 4 9 5 10 6 4 7 3 8 2 9 1 10
REMARK H PARENT
REMARK Flexibility Score: inf
ROOT
ATOM      1  C   UNL     1     109.870 115.136 133.382  1.00  0.00     0.000 C 
ENDROOT
BRANCH   1   2
ATOM      2  C   UNL     1     110.941 114.187 132.830  1.00  0.00     0.006 C 
BRANCH   2   3
ATOM      3  C   UNL     1     110.569 113.695 131.428  1.00  0.00     0.053 C 
BRANCH   3   4
ATOM      4  C   UNL     1     111.450 114.331 130.399  1.00  0.00     0.041 C 
ATOM      5  O   UNL     1     112.690 114.422 130.595  1.00  0.00    -0.550 OA
ATOM      6  O   UNL     1     110.895 114.868 129.244  1.00  0.00    -0.550 OA
ENDBRANCH   3   4
ENDBRANCH   2   3
ENDBRANCH   1   2
BRANCH   1   7
ATOM      7  C   UNL     1     110.320 116.597 133.273  1.00  0.00     0.000 C 
BRANCH   7   8
ATOM      8  C   UNL     1     109.134 117.554 133.445  1.00  0.00    -0.000 C 
BRANCH   8   9
ATOM      9  C   UNL     1     108.886 118.359 132.165  1.00  0.00    -0.003 C 
ATOM     10  C   UNL     1     108.381 117.464 131.039  1.00  0.00     0.004 C 
ENDBRANCH   8   9
ENDBRANCH   7   8
ENDBRANCH   1   7
TORSDOF 6
ENDMDL
MODEL 9
REMARK VINA RESULT:    -3.201      5.661      7.158
REMARK INTER + INTRA:          -4.679
REMARK INTER:                  -4.235
REMARK INTRA:                  -0.444
REMARK UNBOUND:                -0.356
REMARK SMILES CCCCCCCC(=O)[O-]
REMARK SMILES IDX 5 1 6 2 7 3 8 4 9 5 10 6 4 7 3 8 2 9 1 10
REMARK H PARENT
REMARK Flexibility Score: inf
ROOT
ATOM      1  C   UNL     1     108.662 111.814 125.337  1.00  0.00     0.000 C 
ENDROOT
BRANCH   1   2
ATOM      2  C   UNL     1     109.246 112.856 126.297  1.00  0.00     0.006 C 
BRANCH   2   3
ATOM      3  C   UNL     1     109.070 112.421 127.755  1.00  0.00     0.053 C 
BRANCH   3   4
ATOM      4  C   UNL     1     109.554 113.490 128.683  1.00  0.00     0.041 C 
ATOM      5  O   UNL     1     109.164 113.514 129.880  1.00  0.00    -0.550 OA
ATOM      6  O   UNL     1     110.398 114.488 128.214  1.00  0.00    -0.550 OA
ENDBRANCH   3   4
ENDBRANCH   2   3
ENDBRANCH   1   2
BRANCH   1   7
ATOM      7  C   UNL     1     109.437 110.493 125.421  1.00  0.00     0.000 C 
BRANCH   7   8
ATOM      8  C   UNL     1     108.486 109.291 125.369  1.00  0.00    -0.000 C 
BRANCH   8   9
ATOM      9  C   UNL     1     107.190 109.581 126.134  1.00  0.00    -0.003 C 
ATOM     10  C   UNL     1     107.249 109.018 127.550  1.00  0.00     0.004 C 
ENDBRANCH   8   9
ENDBRANCH   7   8
ENDBRANCH   1   7
TORSDOF 6
ENDMDL
